MODEL 1
REMARK VINA RESULT:    -5.907      0.000      0.000
REMARK INTER + INTRA:          -5.907
REMARK INTER:                  -5.907
REMARK INTRA:                   0.000
REMARK UNBOUND:                 0.000
REMARK SMILES CC1=CC(=O)[C@H]2C[C@@H]1C2(C)C
REMARK SMILES IDX 1 1 2 2 3 3 4 4 5 5 6 6 7 7 8 8 9 9 10 10 11 11
REMARK H PARENT
REMARK Flexibility Score: inf
ROOT
ATOM      1  C   UNL     1      -7.200  33.545  19.733  1.00  0.00     0.040 C 
ATOM      2  C   UNL     1      -7.934  33.003  20.919  1.00  0.00    -0.066 C 
ATOM      3  C   UNL     1      -7.931  33.657  22.114  1.00  0.00     0.047 C 
ATOM      4  C   UNL     1      -8.677  32.996  23.232  1.00  0.00     0.159 C 
ATOM      5  O   UNL     1      -8.716  33.480  24.393  1.00  0.00    -0.295 OA
ATOM      6  C   UNL     1      -9.387  31.692  22.865  1.00  0.00     0.067 C 
ATOM      7  C   UNL     1     -10.092  32.009  21.528  1.00  0.00     0.021 C 
ATOM      8  C   UNL     1      -8.743  31.691  20.842  1.00  0.00     0.022 C 
ATOM      9  C   UNL     1      -8.397  30.796  22.067  1.00  0.00    -0.019 C 
ATOM     10  C   UNL     1      -6.914  30.735  22.537  1.00  0.00     0.012 C 
ATOM     11  C   UNL     1      -8.914  29.345  21.904  1.00  0.00     0.012 C 
ENDROOT
TORSDOF 0
ENDMDL
MODEL 2
REMARK VINA RESULT:    -5.517      1.902      2.877
REMARK INTER + INTRA:          -5.517
REMARK INTER:                  -5.517
REMARK INTRA:                   0.000
REMARK UNBOUND:                 0.000
REMARK SMILES CC1=CC(=O)[C@H]2C[C@@H]1C2(C)C
REMARK SMILES IDX 1 1 2 2 3 3 4 4 5 5 6 6 7 7 8 8 9 9 10 10 11 11
REMARK H PARENT
REMARK Flexibility Score: inf
ROOT
ATOM      1  C   UNL     1      -7.503  34.635  22.937  1.00  0.00     0.040 C 
ATOM      2  C   UNL     1      -7.994  33.261  22.607  1.00  0.00    -0.066 C 
ATOM      3  C   UNL     1      -8.844  33.044  21.565  1.00  0.00     0.047 C 
ATOM      4  C   UNL     1      -9.288  31.628  21.357  1.00  0.00     0.159 C 
ATOM      5  O   UNL     1     -10.102  31.305  20.453  1.00  0.00    -0.295 OA
ATOM      6  C   UNL     1      -8.685  30.604  22.319  1.00  0.00     0.067 C 
ATOM      7  C   UNL     1      -7.182  30.961  22.357  1.00  0.00     0.021 C 
ATOM      8  C   UNL     1      -7.550  32.024  23.417  1.00  0.00     0.022 C 
ATOM      9  C   UNL     1      -8.797  31.160  23.768  1.00  0.00    -0.019 C 
ATOM     10  C   UNL     1     -10.107  31.893  24.178  1.00  0.00     0.012 C 
ATOM     11  C   UNL     1      -8.486  30.084  24.838  1.00  0.00     0.012 C 
ENDROOT
TORSDOF 0
ENDMDL
MODEL 3
REMARK VINA RESULT:    -5.504      1.177      3.372
REMARK INTER + INTRA:          -5.504
REMARK INTER:                  -5.504
REMARK INTRA:                   0.000
REMARK UNBOUND:                 0.000
REMARK SMILES CC1=CC(=O)[C@H]2C[C@@H]1C2(C)C
REMARK SMILES IDX 1 1 2 2 3 3 4 4 5 5 6 6 7 7 8 8 9 9 10 10 11 11
REMARK H PARENT
REMARK Flexibility Score: inf
ROOT
ATOM      1  C   UNL     1      -8.535  28.025  22.396  1.00  0.00     0.040 C 
ATOM      2  C   UNL     1      -8.545  29.488  22.708  1.00  0.00    -0.066 C 
ATOM      3  C   UNL     1      -9.389  30.007  23.642  1.00  0.00     0.047 C 
ATOM      4  C   UNL     1      -9.325  31.491  23.841  1.00  0.00     0.159 C 
ATOM      5  O   UNL     1     -10.081  32.095  24.645  1.00  0.00    -0.295 OA
ATOM      6  C   UNL     1      -8.279  32.220  22.997  1.00  0.00     0.067 C 
ATOM      7  C   UNL     1      -7.009  31.352  23.135  1.00  0.00     0.021 C 
ATOM      8  C   UNL     1      -7.590  30.475  22.002  1.00  0.00     0.022 C 
ATOM      9  C   UNL     1      -8.393  31.721  21.527  1.00  0.00    -0.019 C 
ATOM     10  C   UNL     1      -9.813  31.498  20.931  1.00  0.00     0.012 C 
ATOM     11  C   UNL     1      -7.585  32.602  20.541  1.00  0.00     0.012 C 
ENDROOT
TORSDOF 0
ENDMDL
MODEL 4
REMARK VINA RESULT:    -5.451     16.224     17.751
REMARK INTER + INTRA:          -5.451
REMARK INTER:                  -5.451
REMARK INTRA:                   0.000
REMARK UNBOUND:                 0.000
REMARK SMILES CC1=CC(=O)[C@H]2C[C@@H]1C2(C)C
REMARK SMILES IDX 1 1 2 2 3 3 4 4 5 5 6 6 7 7 8 8 9 9 10 10 11 11
REMARK H PARENT
REMARK Flexibility Score: inf
ROOT
ATOM      1  C   UNL     1       7.110  29.469  29.080  1.00  0.00     0.040 C 
ATOM      2  C   UNL     1       7.318  30.794  28.420  1.00  0.00    -0.066 C 
ATOM      3  C   UNL     1       6.832  31.049  27.173  1.00  0.00     0.047 C 
ATOM      4  C   UNL     1       7.134  32.404  26.608  1.00  0.00     0.159 C 
ATOM      5  O   UNL     1       6.773  32.745  25.452  1.00  0.00    -0.295 OA
ATOM      6  C   UNL     1       7.911  33.341  27.533  1.00  0.00     0.067 C 
ATOM      7  C   UNL     1       7.203  33.197  28.899  1.00  0.00     0.021 C 
ATOM      8  C   UNL     1       8.076  31.941  29.122  1.00  0.00     0.022 C 
ATOM      9  C   UNL     1       9.112  32.557  28.137  1.00  0.00    -0.019 C 
ATOM     10  C   UNL     1       9.906  31.593  27.208  1.00  0.00     0.012 C 
ATOM     11  C   UNL     1      10.125  33.487  28.850  1.00  0.00     0.012 C 
ENDROOT
TORSDOF 0
ENDMDL
MODEL 5
REMARK VINA RESULT:    -5.442      1.920      3.497
REMARK INTER + INTRA:          -5.442
REMARK INTER:                  -5.442
REMARK INTRA:                   0.000
REMARK UNBOUND:                 0.000
REMARK SMILES CC1=CC(=O)[C@H]2C[C@@H]1C2(C)C
REMARK SMILES IDX 1 1 2 2 3 3 4 4 5 5 6 6 7 7 8 8 9 9 10 10 11 11
REMARK H PARENT
REMARK Flexibility Score: inf
ROOT
ATOM      1  C   UNL     1      -6.588  29.766  23.208  1.00  0.00     0.040 C 
ATOM      2  C   UNL     1      -7.730  30.728  23.123  1.00  0.00    -0.066 C 
ATOM      3  C   UNL     1      -8.374  30.962  21.946  1.00  0.00     0.047 C 
ATOM      4  C   UNL     1      -9.481  31.971  21.985  1.00  0.00     0.159 C 
ATOM      5  O   UNL     1     -10.125  32.303  20.956  1.00  0.00    -0.295 OA
ATOM      6  C   UNL     1      -9.773  32.570  23.362  1.00  0.00     0.067 C 
ATOM      7  C   UNL     1      -9.784  31.350  24.310  1.00  0.00     0.021 C 
ATOM      8  C   UNL     1      -8.245  31.487  24.364  1.00  0.00     0.022 C 
ATOM      9  C   UNL     1      -8.425  32.993  24.013  1.00  0.00    -0.019 C 
ATOM     10  C   UNL     1      -7.351  33.671  23.114  1.00  0.00     0.012 C 
ATOM     11  C   UNL     1      -8.629  33.873  25.272  1.00  0.00     0.012 C 
ENDROOT
TORSDOF 0
ENDMDL
MODEL 6
REMARK VINA RESULT:    -5.219      2.534      3.736
REMARK INTER + INTRA:          -5.219
REMARK INTER:                  -5.219
REMARK INTRA:                   0.000
REMARK UNBOUND:                 0.000
REMARK SMILES CC1=CC(=O)[C@H]2C[C@@H]1C2(C)C
REMARK SMILES IDX 1 1 2 2 3 3 4 4 5 5 6 6 7 7 8 8 9 9 10 10 11 11
REMARK H PARENT
REMARK Flexibility Score: inf
ROOT
ATOM      1  C   UNL     1      -8.801  32.764  21.699  1.00  0.00     0.040 C 
ATOM      2  C   UNL     1      -8.489  31.414  22.261  1.00  0.00    -0.066 C 
ATOM      3  C   UNL     1      -8.968  30.277  21.684  1.00  0.00     0.047 C 
ATOM      4  C   UNL     1      -8.610  28.989  22.360  1.00  0.00     0.159 C 
ATOM      5  O   UNL     1      -9.024  27.875  21.946  1.00  0.00    -0.295 OA
ATOM      6  C   UNL     1      -7.709  29.122  23.588  1.00  0.00     0.067 C 
ATOM      7  C   UNL     1      -6.608  30.110  23.144  1.00  0.00     0.021 C 
ATOM      8  C   UNL     1      -7.597  31.241  23.509  1.00  0.00     0.022 C 
ATOM      9  C   UNL     1      -8.276  30.250  24.498  1.00  0.00    -0.019 C 
ATOM     10  C   UNL     1      -9.818  30.341  24.687  1.00  0.00     0.012 C 
ATOM     11  C   UNL     1      -7.613  30.266  25.899  1.00  0.00     0.012 C 
ENDROOT
TORSDOF 0
ENDMDL
MODEL 7
REMARK VINA RESULT:    -5.090      1.482      2.202
REMARK INTER + INTRA:          -5.090
REMARK INTER:                  -5.090
REMARK INTRA:                   0.000
REMARK UNBOUND:                 0.000
REMARK SMILES CC1=CC(=O)[C@H]2C[C@@H]1C2(C)C
REMARK SMILES IDX 1 1 2 2 3 3 4 4 5 5 6 6 7 7 8 8 9 9 10 10 11 11
REMARK H PARENT
REMARK Flexibility Score: inf
ROOT
ATOM      1  C   UNL     1      -9.740  31.274  20.495  1.00  0.00     0.040 C 
ATOM      2  C   UNL     1      -9.159  31.788  21.775  1.00  0.00    -0.066 C 
ATOM      3  C   UNL     1      -8.421  32.932  21.808  1.00  0.00     0.047 C 
ATOM      4  C   UNL     1      -7.868  33.324  23.145  1.00  0.00     0.159 C 
ATOM      5  O   UNL     1      -7.138  34.338  23.299  1.00  0.00    -0.295 OA
ATOM      6  C   UNL     1      -8.251  32.408  24.307  1.00  0.00     0.067 C 
ATOM      7  C   UNL     1      -9.767  32.173  24.119  1.00  0.00     0.021 C 
ATOM      8  C   UNL     1      -9.382  31.060  23.117  1.00  0.00     0.022 C 
ATOM      9  C   UNL     1      -8.025  30.932  23.869  1.00  0.00    -0.019 C 
ATOM     10  C   UNL     1      -6.754  30.595  23.037  1.00  0.00     0.012 C 
ATOM     11  C   UNL     1      -8.101  29.945  25.060  1.00  0.00     0.012 C 
ENDROOT
TORSDOF 0
ENDMDL
MODEL 8
REMARK VINA RESULT:    -4.826     16.382     18.398
REMARK INTER + INTRA:          -4.826
REMARK INTER:                  -4.826
REMARK INTRA:                   0.000
REMARK UNBOUND:                 0.000
REMARK SMILES CC1=CC(=O)[C@H]2C[C@@H]1C2(C)C
REMARK SMILES IDX 1 1 2 2 3 3 4 4 5 5 6 6 7 7 8 8 9 9 10 10 11 11
REMARK H PARENT
REMARK Flexibility Score: inf
ROOT
ATOM      1  C   UNL     1       1.708  43.240  20.278  1.00  0.00     0.040 C 
ATOM      2  C   UNL     1       2.443  44.492  19.922  1.00  0.00    -0.066 C 
ATOM      3  C   UNL     1       3.692  44.451  19.379  1.00  0.00     0.047 C 
ATOM      4  C   UNL     1       4.335  45.774  19.095  1.00  0.00     0.159 C 
ATOM      5  O   UNL     1       5.501  45.868  18.630  1.00  0.00    -0.295 OA
ATOM      6  C   UNL     1       3.478  47.000  19.410  1.00  0.00     0.067 C 
ATOM      7  C   UNL     1       2.093  46.655  18.820  1.00  0.00     0.021 C 
ATOM      8  C   UNL     1       1.820  45.888  20.134  1.00  0.00     0.022 C 
ATOM      9  C   UNL     1       2.858  46.820  20.826  1.00  0.00    -0.019 C 
ATOM     10  C   UNL     1       3.748  46.219  21.951  1.00  0.00     0.012 C 
ATOM     11  C   UNL     1       2.216  48.125  21.359  1.00  0.00     0.012 C 
ENDROOT
TORSDOF 0
ENDMDL
