MODEL 1
REMARK VINA RESULT:    -3.594      0.000      0.000
REMARK INTER + INTRA:          -5.630
REMARK INTER:                  -5.484
REMARK INTRA:                  -0.145
REMARK UNBOUND:                -0.145
REMARK SMILES CC1=CCC[C@@H](C)C(=O)C[C@H](C(C)C)C(=O)C1
REMARK SMILES IDX 8 1 9 2 6 3 7 4 5 5 4 6 3 7 2 8 1 9 10 11 11 12 15 13 16 14
REMARK SMILES IDX 17 15 12 17 13 18 14 19
REMARK H PARENT
REMARK Flexibility Score: 70.00
ROOT
ATOM      1  C   UNL     1      -7.053   4.698  51.780  1.00  0.00     0.136 C 
ATOM      2  O   UNL     1      -6.731   4.926  50.622  1.00  0.00    -0.299 OA
ENDROOT
BRANCH   1   3
ATOM      3  C   UNL     1      -6.364   3.578  52.536  1.00  0.00     0.053 C 
ATOM      4  C   UNL     1      -7.238   2.316  52.531  1.00  0.00     0.016 C 
BRANCH   3   5
ATOM      5  C   UNL     1      -6.041   4.020  53.982  1.00  0.00     0.015 C 
BRANCH   5   6
ATOM      6  C   UNL     1      -6.764   3.140  55.020  1.00  0.00     0.028 C 
BRANCH   6   7
ATOM      7  C   UNL     1      -7.247   3.910  56.226  1.00  0.00    -0.028 C 
ATOM      8  C   UNL     1      -8.492   4.425  56.389  1.00  0.00    -0.070 CG0
ATOM      9  C   UNL     1      -8.746   5.256  57.623  1.00  0.00     0.039 C 
ATOM     10  G   UNL     1      -9.646   4.169  55.430  1.00  0.00     0.000 G0
ENDBRANCH   6   7
ENDBRANCH   5   6
ENDBRANCH   3   5
ENDBRANCH   1   3
BRANCH   1  11
ATOM     11  C   UNL     1      -8.116   5.560  52.426  1.00  0.00     0.087 C 
BRANCH  11  12
ATOM     12  C   UNL     1      -9.336   4.723  52.899  1.00  0.00     0.066 C 
BRANCH  12  13
ATOM     13  C   UNL     1      -9.732   5.155  54.304  1.00  0.00     0.140 C 
ATOM     14  O   UNL     1     -10.155   6.287  54.499  1.00  0.00    -0.299 OA
BRANCH  13  15
ATOM     15  C   UNL     1      -9.650   4.176  55.448  1.00  0.00     0.106 CG0
ATOM     16  G   UNL     1      -8.480   4.418  56.392  1.00  0.00     0.000 G0
ENDBRANCH  13  15
ENDBRANCH  12  13
BRANCH  12  17
ATOM     17  C   UNL     1     -10.553   4.802  51.919  1.00  0.00    -0.006 C 
ATOM     18  C   UNL     1     -10.585   3.581  50.978  1.00  0.00     0.008 C 
ATOM     19  C   UNL     1     -10.539   6.082  51.062  1.00  0.00     0.008 C 
ENDBRANCH  12  17
ENDBRANCH  11  12
ENDBRANCH   1  11
TORSDOF 1
ENDMDL
MODEL 2
REMARK VINA RESULT:    -3.464      1.736      4.167
REMARK INTER + INTRA:          -5.432
REMARK INTER:                  -5.300
REMARK INTRA:                  -0.132
REMARK UNBOUND:                -0.145
REMARK SMILES CC1=CCC[C@@H](C)C(=O)C[C@H](C(C)C)C(=O)C1
REMARK SMILES IDX 8 1 9 2 6 3 7 4 5 5 4 6 3 7 2 8 1 9 10 11 11 12 15 13 16 14
REMARK SMILES IDX 17 15 12 17 13 18 14 19
REMARK H PARENT
REMARK Flexibility Score: 70.00
ROOT
ATOM      1  C   UNL     1      -6.696   3.718  53.033  1.00  0.00     0.136 C 
ATOM      2  O   UNL     1      -5.503   3.886  53.243  1.00  0.00    -0.299 OA
ENDROOT
BRANCH   1   3
ATOM      3  C   UNL     1      -7.187   3.576  51.605  1.00  0.00     0.053 C 
ATOM      4  C   UNL     1      -7.042   4.907  50.857  1.00  0.00     0.016 C 
BRANCH   3   5
ATOM      5  C   UNL     1      -8.654   3.087  51.583  1.00  0.00     0.015 C 
BRANCH   5   6
ATOM      6  C   UNL     1      -9.598   4.152  50.992  1.00  0.00     0.028 C 
BRANCH   6   7
ATOM      7  C   UNL     1     -10.784   4.459  51.876  1.00  0.00    -0.028 C 
ATOM      8  C   UNL     1     -10.752   5.201  53.012  1.00  0.00    -0.070 CG0
ATOM      9  C   UNL     1     -12.027   5.303  53.813  1.00  0.00     0.039 C 
ATOM     10  G   UNL     1      -9.528   5.971  53.487  1.00  0.00     0.000 G0
ENDBRANCH   6   7
ENDBRANCH   5   6
ENDBRANCH   3   5
ENDBRANCH   1   3
BRANCH   1  11
ATOM     11  C   UNL     1      -7.641   3.634  54.213  1.00  0.00     0.087 C 
BRANCH  11  12
ATOM     12  C   UNL     1      -7.673   4.956  55.028  1.00  0.00     0.066 C 
BRANCH  12  13
ATOM     13  C   UNL     1      -9.034   5.618  54.864  1.00  0.00     0.140 C 
ATOM     14  O   UNL     1      -9.712   5.873  55.850  1.00  0.00    -0.299 OA
BRANCH  13  15
ATOM     15  C   UNL     1      -9.529   6.003  53.491  1.00  0.00     0.106 CG0
ATOM     16  G   UNL     1     -10.741   5.210  53.022  1.00  0.00     0.000 G0
ENDBRANCH  13  15
ENDBRANCH  12  13
BRANCH  12  17
ATOM     17  C   UNL     1      -7.318   4.758  56.538  1.00  0.00    -0.006 C 
ATOM     18  C   UNL     1      -6.001   5.474  56.895  1.00  0.00     0.008 C 
ATOM     19  C   UNL     1      -7.189   3.272  56.924  1.00  0.00     0.008 C 
ENDBRANCH  12  17
ENDBRANCH  11  12
ENDBRANCH   1  11
TORSDOF 1
ENDMDL
MODEL 3
REMARK VINA RESULT:    -3.446      1.754      3.749
REMARK INTER + INTRA:          -5.404
REMARK INTER:                  -4.964
REMARK INTRA:                  -0.440
REMARK UNBOUND:                -0.145
REMARK SMILES CC1=CCC[C@@H](C)C(=O)C[C@H](C(C)C)C(=O)C1
REMARK SMILES IDX 8 1 9 2 6 3 7 4 5 5 4 6 3 7 2 8 1 9 10 11 11 12 15 13 16 14
REMARK SMILES IDX 17 15 12 17 13 18 14 19
REMARK H PARENT
REMARK Flexibility Score: 70.00
ROOT
ATOM      1  C   UNL     1      -9.715   5.734  54.895  1.00  0.00     0.136 C 
ATOM      2  O   UNL     1     -10.130   6.809  54.484  1.00  0.00    -0.299 OA
ENDROOT
BRANCH   1   3
ATOM      3  C   UNL     1      -9.371   5.582  56.364  1.00  0.00     0.053 C 
ATOM      4  C   UNL     1     -10.613   5.833  57.230  1.00  0.00     0.016 C 
BRANCH   3   5
ATOM      5  C   UNL     1      -8.223   6.542  56.753  1.00  0.00     0.015 C 
BRANCH   5   6
ATOM      6  C   UNL     1      -6.861   6.033  56.244  1.00  0.00     0.028 C 
BRANCH   6   7
ATOM      7  C   UNL     1      -6.560   4.613  56.657  1.00  0.00    -0.028 C 
ATOM      8  C   UNL     1      -6.294   3.583  55.813  1.00  0.00    -0.070 CG0
ATOM      9  C   UNL     1      -6.123   2.212  56.419  1.00  0.00     0.039 C 
ATOM     10  G   UNL     1      -6.110   3.746  54.310  1.00  0.00     0.000 G0
ENDBRANCH   6   7
ENDBRANCH   5   6
ENDBRANCH   3   5
ENDBRANCH   1   3
BRANCH   1  11
ATOM     11  C   UNL     1      -9.582   4.582  53.922  1.00  0.00     0.087 C 
BRANCH  11  12
ATOM     12  C   UNL     1      -8.260   4.657  53.110  1.00  0.00     0.066 C 
BRANCH  12  13
ATOM     13  C   UNL     1      -7.368   3.483  53.488  1.00  0.00     0.140 C 
ATOM     14  O   UNL     1      -7.650   2.353  53.112  1.00  0.00    -0.299 OA
BRANCH  13  15
ATOM     15  C   UNL     1      -6.108   3.717  54.286  1.00  0.00     0.106 CG0
ATOM     16  G   UNL     1      -6.296   3.599  55.793  1.00  0.00     0.000 G0
ENDBRANCH  13  15
ENDBRANCH  12  13
BRANCH  12  17
ATOM     17  C   UNL     1      -8.490   4.717  51.564  1.00  0.00    -0.006 C 
ATOM     18  C   UNL     1      -7.170   4.998  50.819  1.00  0.00     0.008 C 
ATOM     19  C   UNL     1      -9.519   5.790  51.160  1.00  0.00     0.008 C 
ENDBRANCH  12  17
ENDBRANCH  11  12
ENDBRANCH   1  11
TORSDOF 1
ENDMDL
MODEL 4
REMARK VINA RESULT:    -3.374      1.823      3.773
REMARK INTER + INTRA:          -5.294
REMARK INTER:                  -5.093
REMARK INTRA:                  -0.202
REMARK UNBOUND:                -0.145
REMARK SMILES CC1=CCC[C@@H](C)C(=O)C[C@H](C(C)C)C(=O)C1
REMARK SMILES IDX 8 1 9 2 6 3 7 4 5 5 4 6 3 7 2 8 1 9 10 11 11 12 15 13 16 14
REMARK SMILES IDX 17 15 12 17 13 18 14 19
REMARK H PARENT
REMARK Flexibility Score: 70.00
ROOT
ATOM      1  C   UNL     1     -10.002   5.664  53.408  1.00  0.00     0.136 C 
ATOM      2  O   UNL     1      -9.959   6.381  52.418  1.00  0.00    -0.299 OA
ENDROOT
BRANCH   1   3
ATOM      3  C   UNL     1     -10.910   6.044  54.562  1.00  0.00     0.053 C 
ATOM      4  C   UNL     1     -10.964   7.570  54.715  1.00  0.00     0.016 C 
BRANCH   3   5
ATOM      5  C   UNL     1     -10.432   5.374  55.871  1.00  0.00     0.015 C 
BRANCH   5   6
ATOM      6  C   UNL     1      -9.380   6.235  56.597  1.00  0.00     0.028 C 
BRANCH   6   7
ATOM      7  C   UNL     1      -8.359   5.420  57.355  1.00  0.00    -0.028 C 
ATOM      8  C   UNL     1      -7.180   4.969  56.858  1.00  0.00    -0.070 CG0
ATOM      9  C   UNL     1      -6.345   4.078  57.745  1.00  0.00     0.039 C 
ATOM     10  G   UNL     1      -6.637   5.352  55.488  1.00  0.00     0.000 G0
ENDBRANCH   6   7
ENDBRANCH   5   6
ENDBRANCH   3   5
ENDBRANCH   1   3
BRANCH   1  11
ATOM     11  C   UNL     1      -9.163   4.405  53.436  1.00  0.00     0.087 C 
BRANCH  11  12
ATOM     12  C   UNL     1      -7.661   4.701  53.175  1.00  0.00     0.066 C 
BRANCH  12  13
ATOM     13  C   UNL     1      -6.851   4.330  54.410  1.00  0.00     0.140 C 
ATOM     14  O   UNL     1      -6.360   3.213  54.507  1.00  0.00    -0.299 OA
BRANCH  13  15
ATOM     15  C   UNL     1      -6.612   5.353  55.494  1.00  0.00     0.106 CG0
ATOM     16  G   UNL     1      -7.173   4.961  56.854  1.00  0.00     0.000 G0
ENDBRANCH  13  15
ENDBRANCH  12  13
BRANCH  12  17
ATOM     17  C   UNL     1      -7.105   3.987  51.900  1.00  0.00    -0.006 C 
ATOM     18  C   UNL     1      -6.862   4.999  50.762  1.00  0.00     0.008 C 
ATOM     19  C   UNL     1      -8.047   2.883  51.382  1.00  0.00     0.008 C 
ENDBRANCH  12  17
ENDBRANCH  11  12
ENDBRANCH   1  11
TORSDOF 1
ENDMDL
MODEL 5
REMARK VINA RESULT:    -3.330      2.794      4.766
REMARK INTER + INTRA:          -5.228
REMARK INTER:                  -4.954
REMARK INTRA:                  -0.274
REMARK UNBOUND:                -0.145
REMARK SMILES CC1=CCC[C@@H](C)C(=O)C[C@H](C(C)C)C(=O)C1
REMARK SMILES IDX 8 1 9 2 6 3 7 4 5 5 4 6 3 7 2 8 1 9 10 11 11 12 15 13 16 14
REMARK SMILES IDX 17 15 12 17 13 18 14 19
REMARK H PARENT
REMARK Flexibility Score: 70.00
ROOT
ATOM      1  C   UNL     1      -5.678   3.694  57.803  1.00  0.00     0.136 C 
ATOM      2  O   UNL     1      -5.375   2.656  57.231  1.00  0.00    -0.299 OA
ENDROOT
BRANCH   1   3
ATOM      3  C   UNL     1      -5.676   3.734  59.319  1.00  0.00     0.053 C 
ATOM      4  C   UNL     1      -4.275   3.417  59.859  1.00  0.00     0.016 C 
BRANCH   3   5
ATOM      5  C   UNL     1      -6.723   2.749  59.889  1.00  0.00     0.015 C 
BRANCH   5   6
ATOM      6  C   UNL     1      -8.153   3.126  59.455  1.00  0.00     0.028 C 
BRANCH   6   7
ATOM      7  C   UNL     1      -8.560   4.517  59.879  1.00  0.00    -0.028 C 
ATOM      8  C   UNL     1      -9.064   5.477  59.063  1.00  0.00    -0.070 CG0
ATOM      9  C   UNL     1      -9.310   6.840  59.660  1.00  0.00     0.039 C 
ATOM     10  G   UNL     1      -9.440   5.238  57.607  1.00  0.00     0.000 G0
ENDBRANCH   6   7
ENDBRANCH   5   6
ENDBRANCH   3   5
ENDBRANCH   1   3
BRANCH   1  11
ATOM     11  C   UNL     1      -6.023   4.912  56.974  1.00  0.00     0.087 C 
BRANCH  11  12
ATOM     12  C   UNL     1      -7.323   4.705  56.149  1.00  0.00     0.066 C 
BRANCH  12  13
ATOM     13  C   UNL     1      -8.381   5.695  56.618  1.00  0.00     0.140 C 
ATOM     14  O   UNL     1      -8.396   6.833  56.168  1.00  0.00    -0.299 OA
BRANCH  13  15
ATOM     15  C   UNL     1      -9.442   5.260  57.600  1.00  0.00     0.106 CG0
ATOM     16  G   UNL     1      -9.058   5.462  59.060  1.00  0.00     0.000 G0
ENDBRANCH  13  15
ENDBRANCH  12  13
BRANCH  12  17
ATOM     17  C   UNL     1      -7.096   4.809  54.606  1.00  0.00    -0.006 C 
ATOM     18  C   UNL     1      -8.388   4.475  53.833  1.00  0.00     0.008 C 
ATOM     19  C   UNL     1      -5.973   3.878  54.110  1.00  0.00     0.008 C 
ENDBRANCH  12  17
ENDBRANCH  11  12
ENDBRANCH   1  11
TORSDOF 1
ENDMDL
MODEL 6
REMARK VINA RESULT:    -3.285      3.214      5.861
REMARK INTER + INTRA:          -5.158
REMARK INTER:                  -4.903
REMARK INTRA:                  -0.256
REMARK UNBOUND:                -0.145
REMARK SMILES CC1=CCC[C@@H](C)C(=O)C[C@H](C(C)C)C(=O)C1
REMARK SMILES IDX 8 1 9 2 6 3 7 4 5 5 4 6 3 7 2 8 1 9 10 11 11 12 15 13 16 14
REMARK SMILES IDX 17 15 12 17 13 18 14 19
REMARK H PARENT
REMARK Flexibility Score: 70.00
ROOT
ATOM      1  C   UNL     1      -6.780   5.683  56.321  1.00  0.00     0.136 C 
ATOM      2  O   UNL     1      -7.435   6.612  56.774  1.00  0.00    -0.299 OA
ENDROOT
BRANCH   1   3
ATOM      3  C   UNL     1      -6.950   5.293  54.865  1.00  0.00     0.053 C 
ATOM      4  C   UNL     1      -8.440   5.162  54.520  1.00  0.00     0.016 C 
BRANCH   3   5
ATOM      5  C   UNL     1      -6.195   3.978  54.564  1.00  0.00     0.015 C 
BRANCH   5   6
ATOM      6  C   UNL     1      -7.125   2.754  54.667  1.00  0.00     0.028 C 
BRANCH   6   7
ATOM      7  C   UNL     1      -6.437   1.522  55.205  1.00  0.00    -0.028 C 
ATOM      8  C   UNL     1      -6.348   1.174  56.514  1.00  0.00    -0.070 CG0
ATOM      9  C   UNL     1      -5.525  -0.043  56.857  1.00  0.00     0.039 C 
ATOM     10  G   UNL     1      -7.069   1.908  57.636  1.00  0.00     0.000 G0
ENDBRANCH   6   7
ENDBRANCH   5   6
ENDBRANCH   3   5
ENDBRANCH   1   3
BRANCH   1  11
ATOM     11  C   UNL     1      -5.802   4.968  57.228  1.00  0.00     0.087 C 
BRANCH  11  12
ATOM     12  C   UNL     1      -6.507   4.329  58.455  1.00  0.00     0.066 C 
BRANCH  12  13
ATOM     13  C   UNL     1      -6.237   2.830  58.469  1.00  0.00     0.140 C 
ATOM     14  O   UNL     1      -5.351   2.375  59.179  1.00  0.00    -0.299 OA
BRANCH  13  15
ATOM     15  C   UNL     1      -7.093   1.900  57.645  1.00  0.00     0.106 CG0
ATOM     16  G   UNL     1      -6.341   1.186  56.531  1.00  0.00     0.000 G0
ENDBRANCH  13  15
ENDBRANCH  12  13
BRANCH  12  17
ATOM     17  C   UNL     1      -6.098   4.989  59.813  1.00  0.00    -0.006 C 
ATOM     18  C   UNL     1      -7.236   5.873  60.362  1.00  0.00     0.008 C 
ATOM     19  C   UNL     1      -4.824   5.848  59.693  1.00  0.00     0.008 C 
ENDBRANCH  12  17
ENDBRANCH  11  12
ENDBRANCH   1  11
TORSDOF 1
ENDMDL
MODEL 7
REMARK VINA RESULT:    -3.204     10.760     12.705
REMARK INTER + INTRA:          -5.035
REMARK INTER:                  -4.633
REMARK INTRA:                  -0.402
REMARK UNBOUND:                -0.145
REMARK SMILES CC1=CCC[C@@H](C)C(=O)C[C@H](C(C)C)C(=O)C1
REMARK SMILES IDX 8 1 9 2 6 3 7 4 5 5 4 6 3 7 2 8 1 9 10 11 11 12 15 13 16 14
REMARK SMILES IDX 17 15 12 17 13 18 14 19
REMARK H PARENT
REMARK Flexibility Score: 70.00
ROOT
ATOM      1  C   UNL     1       2.457   0.593  55.287  1.00  0.00     0.136 C 
ATOM      2  O   UNL     1       2.046   1.699  54.964  1.00  0.00    -0.299 OA
ENDROOT
BRANCH   1   3
ATOM      3  C   UNL     1       3.054  -0.316  54.229  1.00  0.00     0.053 C 
ATOM      4  C   UNL     1       1.947  -0.889  53.334  1.00  0.00     0.016 C 
BRANCH   3   5
ATOM      5  C   UNL     1       3.873  -1.449  54.889  1.00  0.00     0.015 C 
BRANCH   5   6
ATOM      6  C   UNL     1       3.123  -2.795  54.840  1.00  0.00     0.028 C 
BRANCH   6   7
ATOM      7  C   UNL     1       3.462  -3.712  55.990  1.00  0.00    -0.028 C 
ATOM      8  C   UNL     1       2.735  -3.857  57.127  1.00  0.00    -0.070 CG0
ATOM      9  C   UNL     1       3.300  -4.747  58.207  1.00  0.00     0.039 C 
ATOM     10  G   UNL     1       1.371  -3.217  57.348  1.00  0.00     0.000 G0
ENDBRANCH   6   7
ENDBRANCH   5   6
ENDBRANCH   3   5
ENDBRANCH   1   3
BRANCH   1  11
ATOM     11  C   UNL     1       2.375   0.178  56.740  1.00  0.00     0.087 C 
BRANCH  11  12
ATOM     12  C   UNL     1       1.076  -0.618  57.046  1.00  0.00     0.066 C 
BRANCH  12  13
ATOM     13  C   UNL     1       1.411  -1.811  57.930  1.00  0.00     0.140 C 
ATOM     14  O   UNL     1       1.689  -1.639  59.110  1.00  0.00    -0.299 OA
BRANCH  13  15
ATOM     15  C   UNL     1       1.354  -3.210  57.367  1.00  0.00     0.106 CG0
ATOM     16  G   UNL     1       2.719  -3.842  57.134  1.00  0.00     0.000 G0
ENDBRANCH  13  15
ENDBRANCH  12  13
BRANCH  12  17
ATOM     17  C   UNL     1      -0.049   0.262  57.684  1.00  0.00    -0.006 C 
ATOM     18  C   UNL     1      -1.141   0.600  56.650  1.00  0.00     0.008 C 
ATOM     19  C   UNL     1       0.493   1.578  58.274  1.00  0.00     0.008 C 
ENDBRANCH  12  17
ENDBRANCH  11  12
ENDBRANCH   1  11
TORSDOF 1
ENDMDL
MODEL 8
REMARK VINA RESULT:    -3.203      3.420      6.055
REMARK INTER + INTRA:          -5.033
REMARK INTER:                  -4.826
REMARK INTRA:                  -0.207
REMARK UNBOUND:                -0.145
REMARK SMILES CC1=CCC[C@@H](C)C(=O)C[C@H](C(C)C)C(=O)C1
REMARK SMILES IDX 8 1 9 2 6 3 7 4 5 5 4 6 3 7 2 8 1 9 10 11 11 12 15 13 16 14
REMARK SMILES IDX 17 15 12 17 13 18 14 19
REMARK H PARENT
REMARK Flexibility Score: 70.00
ROOT
ATOM      1  C   UNL     1      -8.233   6.213  57.290  1.00  0.00     0.136 C 
ATOM      2  O   UNL     1      -9.436   6.429  57.241  1.00  0.00    -0.299 OA
ENDROOT
BRANCH   1   3
ATOM      3  C   UNL     1      -7.422   6.224  56.008  1.00  0.00     0.053 C 
ATOM      4  C   UNL     1      -8.237   5.617  54.858  1.00  0.00     0.016 C 
BRANCH   3   5
ATOM      5  C   UNL     1      -6.090   5.464  56.202  1.00  0.00     0.015 C 
BRANCH   5   6
ATOM      6  C   UNL     1      -6.237   3.966  55.869  1.00  0.00     0.028 C 
BRANCH   6   7
ATOM      7  C   UNL     1      -5.210   3.097  56.553  1.00  0.00    -0.028 C 
ATOM      8  C   UNL     1      -5.359   2.497  57.761  1.00  0.00    -0.070 CG0
ATOM      9  C   UNL     1      -4.171   1.754  58.322  1.00  0.00     0.039 C 
ATOM     10  G   UNL     1      -6.662   2.491  58.548  1.00  0.00     0.000 G0
ENDBRANCH   6   7
ENDBRANCH   5   6
ENDBRANCH   3   5
ENDBRANCH   1   3
BRANCH   1  11
ATOM     11  C   UNL     1      -7.589   5.964  58.637  1.00  0.00     0.087 C 
BRANCH  11  12
ATOM     12  C   UNL     1      -8.057   4.622  59.266  1.00  0.00     0.066 C 
BRANCH  12  13
ATOM     13  C   UNL     1      -6.854   3.708  59.455  1.00  0.00     0.140 C 
ATOM     14  O   UNL     1      -6.056   3.926  60.356  1.00  0.00    -0.299 OA
BRANCH  13  15
ATOM     15  C   UNL     1      -6.672   2.504  58.564  1.00  0.00     0.106 CG0
ATOM     16  G   UNL     1      -5.362   2.498  57.787  1.00  0.00     0.000 G0
ENDBRANCH  13  15
ENDBRANCH  12  13
BRANCH  12  17
ATOM     17  C   UNL     1      -8.841   4.811  60.606  1.00  0.00    -0.006 C 
ATOM     18  C   UNL     1     -10.360   4.673  60.381  1.00  0.00     0.008 C 
ATOM     19  C   UNL     1      -8.563   6.175  61.266  1.00  0.00     0.008 C 
ENDBRANCH  12  17
ENDBRANCH  11  12
ENDBRANCH   1  11
TORSDOF 1
ENDMDL
MODEL 9
REMARK VINA RESULT:    -3.196      1.946      3.335
REMARK INTER + INTRA:          -5.023
REMARK INTER:                  -4.660
REMARK INTRA:                  -0.362
REMARK UNBOUND:                -0.145
REMARK SMILES CC1=CCC[C@@H](C)C(=O)C[C@H](C(C)C)C(=O)C1
REMARK SMILES IDX 8 1 9 2 6 3 7 4 5 5 4 6 3 7 2 8 1 9 10 11 11 12 15 13 16 14
REMARK SMILES IDX 17 15 12 17 13 18 14 19
REMARK H PARENT
REMARK Flexibility Score: 70.00
ROOT
ATOM      1  C   UNL     1      -7.165   5.012  55.057  1.00  0.00     0.136 C 
ATOM      2  O   UNL     1      -6.110   4.392  55.043  1.00  0.00    -0.299 OA
ENDROOT
BRANCH   1   3
ATOM      3  C   UNL     1      -7.892   5.211  56.373  1.00  0.00     0.053 C 
ATOM      4  C   UNL     1      -6.945   5.811  57.420  1.00  0.00     0.016 C 
BRANCH   3   5
ATOM      5  C   UNL     1      -8.488   3.874  56.870  1.00  0.00     0.015 C 
BRANCH   5   6
ATOM      6  C   UNL     1      -9.993   3.770  56.551  1.00  0.00     0.028 C 
BRANCH   6   7
ATOM      7  C   UNL     1     -10.683   5.110  56.475  1.00  0.00    -0.028 C 
ATOM      8  C   UNL     1     -11.163   5.691  55.346  1.00  0.00    -0.070 CG0
ATOM      9  C   UNL     1     -11.726   7.085  55.464  1.00  0.00     0.039 C 
ATOM     10  G   UNL     1     -11.209   4.996  53.992  1.00  0.00     0.000 G0
ENDBRANCH   6   7
ENDBRANCH   5   6
ENDBRANCH   3   5
ENDBRANCH   1   3
BRANCH   1  11
ATOM     11  C   UNL     1      -7.696   5.581  53.759  1.00  0.00     0.087 C 
BRANCH  11  12
ATOM     12  C   UNL     1      -8.757   4.652  53.107  1.00  0.00     0.066 C 
BRANCH  12  13
ATOM     13  C   UNL     1     -10.091   5.382  53.036  1.00  0.00     0.140 C 
ATOM     14  O   UNL     1     -10.267   6.254  52.195  1.00  0.00    -0.299 OA
BRANCH  13  15
ATOM     15  C   UNL     1     -11.214   5.000  53.969  1.00  0.00     0.106 CG0
ATOM     16  G   UNL     1     -11.153   5.683  55.328  1.00  0.00     0.000 G0
ENDBRANCH  13  15
ENDBRANCH  12  13
BRANCH  12  17
ATOM     17  C   UNL     1      -8.328   4.119  51.701  1.00  0.00    -0.006 C 
ATOM     18  C   UNL     1      -7.993   2.615  51.759  1.00  0.00     0.008 C 
ATOM     19  C   UNL     1      -7.111   4.871  51.130  1.00  0.00     0.008 C 
ENDBRANCH  12  17
ENDBRANCH  11  12
ENDBRANCH   1  11
TORSDOF 1
ENDMDL
