MODEL 1
REMARK VINA RESULT:    -3.646      0.000      0.000
REMARK INTER + INTRA:          -5.758
REMARK INTER:                  -4.925
REMARK INTRA:                  -0.833
REMARK UNBOUND:                -0.833
REMARK SMILES CCCCCCC=CC(=O)[O-]
REMARK SMILES IDX 5 1 6 2 7 3 8 4 9 5 10 6 11 7 4 8 3 9 2 10 1 11
REMARK H PARENT
REMARK Flexibility Score: inf
ROOT
ATOM      1  C   UNL     1      -1.748   3.314  16.797  1.00  0.00     0.004 C 
ENDROOT
BRANCH   1   2
ATOM      2  C   UNL     1      -2.978   3.745  15.982  1.00  0.00     0.027 C 
BRANCH   2   3
ATOM      3  C   UNL     1      -2.592   4.688  14.875  1.00  0.00    -0.025 C 
ATOM      4  C   UNL     1      -2.356   4.349  13.597  1.00  0.00     0.020 C 
BRANCH   4   5
ATOM      5  C   UNL     1      -2.467   2.998  13.009  1.00  0.00     0.064 C 
ATOM      6  O   UNL     1      -1.503   2.199  13.137  1.00  0.00    -0.545 OA
ATOM      7  O   UNL     1      -3.587   2.588  12.297  1.00  0.00    -0.545 OA
ENDBRANCH   4   5
ENDBRANCH   2   3
ENDBRANCH   1   2
BRANCH   1   8
ATOM      8  C   UNL     1      -0.704   4.434  16.924  1.00  0.00     0.000 C 
BRANCH   8   9
ATOM      9  C   UNL     1       0.734   3.919  16.764  1.00  0.00    -0.000 C 
BRANCH   9  10
ATOM     10  C   UNL     1       1.018   3.533  15.307  1.00  0.00    -0.003 C 
ATOM     11  C   UNL     1       1.367   4.761  14.470  1.00  0.00     0.004 C 
ENDBRANCH   9  10
ENDBRANCH   8   9
ENDBRANCH   1   8
TORSDOF 6
ENDMDL
MODEL 2
REMARK VINA RESULT:    -3.592      2.366      4.018
REMARK INTER + INTRA:          -5.684
REMARK INTER:                  -4.936
REMARK INTRA:                  -0.748
REMARK UNBOUND:                -0.833
REMARK SMILES CCCCCCC=CC(=O)[O-]
REMARK SMILES IDX 5 1 6 2 7 3 8 4 9 5 10 6 11 7 4 8 3 9 2 10 1 11
REMARK H PARENT
REMARK Flexibility Score: inf
ROOT
ATOM      1  C   UNL     1      -3.316   3.592  16.566  1.00  0.00     0.004 C 
ENDROOT
BRANCH   1   2
ATOM      2  C   UNL     1      -1.928   3.160  17.068  1.00  0.00     0.027 C 
BRANCH   2   3
ATOM      3  C   UNL     1      -0.957   4.308  17.032  1.00  0.00    -0.025 C 
ATOM      4  C   UNL     1       0.365   4.216  16.811  1.00  0.00     0.020 C 
BRANCH   4   5
ATOM      5  C   UNL     1       1.124   2.983  16.516  1.00  0.00     0.064 C 
ATOM      6  O   UNL     1       1.427   2.214  17.466  1.00  0.00    -0.545 OA
ATOM      7  O   UNL     1       1.540   2.655  15.232  1.00  0.00    -0.545 OA
ENDBRANCH   4   5
ENDBRANCH   2   3
ENDBRANCH   1   2
BRANCH   1   8
ATOM      8  C   UNL     1      -3.431   3.536  15.034  1.00  0.00     0.000 C 
BRANCH   8   9
ATOM      9  C   UNL     1      -3.345   4.927  14.387  1.00  0.00    -0.000 C 
BRANCH   9  10
ATOM     10  C   UNL     1      -2.038   5.085  13.600  1.00  0.00    -0.003 C 
ATOM     11  C   UNL     1      -1.385   3.730  13.339  1.00  0.00     0.004 C 
ENDBRANCH   9  10
ENDBRANCH   8   9
ENDBRANCH   1   8
TORSDOF 6
ENDMDL
MODEL 3
REMARK VINA RESULT:    -3.535      1.301      1.586
REMARK INTER + INTRA:          -5.608
REMARK INTER:                  -4.895
REMARK INTRA:                  -0.713
REMARK UNBOUND:                -0.833
REMARK SMILES CCCCCCC=CC(=O)[O-]
REMARK SMILES IDX 5 1 6 2 7 3 8 4 9 5 10 6 11 7 4 8 3 9 2 10 1 11
REMARK H PARENT
REMARK Flexibility Score: inf
ROOT
ATOM      1  C   UNL     1      -1.349   2.527  16.672  1.00  0.00     0.004 C 
ENDROOT
BRANCH   1   2
ATOM      2  C   UNL     1      -2.053   3.892  16.607  1.00  0.00     0.027 C 
BRANCH   2   3
ATOM      3  C   UNL     1      -3.254   3.841  15.703  1.00  0.00    -0.025 C 
ATOM      4  C   UNL     1      -3.253   4.063  14.378  1.00  0.00     0.020 C 
BRANCH   4   5
ATOM      5  C   UNL     1      -2.076   4.358  13.535  1.00  0.00     0.064 C 
ATOM      6  O   UNL     1      -1.401   3.399  13.077  1.00  0.00    -0.545 OA
ATOM      7  O   UNL     1      -1.671   5.656  13.252  1.00  0.00    -0.545 OA
ENDBRANCH   4   5
ENDBRANCH   2   3
ENDBRANCH   1   2
BRANCH   1   8
ATOM      8  C   UNL     1       0.159   2.654  16.939  1.00  0.00     0.000 C 
BRANCH   8   9
ATOM      9  C   UNL     1       0.740   3.975  16.412  1.00  0.00    -0.000 C 
BRANCH   9  10
ATOM     10  C   UNL     1       1.443   3.765  15.065  1.00  0.00    -0.003 C 
ATOM     11  C   UNL     1       1.657   5.092  14.342  1.00  0.00     0.004 C 
ENDBRANCH   9  10
ENDBRANCH   8   9
ENDBRANCH   1   8
TORSDOF 6
ENDMDL
MODEL 4
REMARK VINA RESULT:    -3.455      1.711      2.629
REMARK INTER + INTRA:          -5.500
REMARK INTER:                  -4.668
REMARK INTRA:                  -0.832
REMARK UNBOUND:                -0.833
REMARK SMILES CCCCCCC=CC(=O)[O-]
REMARK SMILES IDX 5 1 6 2 7 3 8 4 9 5 10 6 11 7 4 8 3 9 2 10 1 11
REMARK H PARENT
REMARK Flexibility Score: inf
ROOT
ATOM      1  C   UNL     1       0.305   3.969  16.988  1.00  0.00     0.004 C 
ENDROOT
BRANCH   1   2
ATOM      2  C   UNL     1      -1.072   4.652  16.957  1.00  0.00     0.027 C 
BRANCH   2   3
ATOM      3  C   UNL     1      -2.150   3.681  16.560  1.00  0.00    -0.025 C 
ATOM      4  C   UNL     1      -2.821   3.680  15.396  1.00  0.00     0.020 C 
BRANCH   4   5
ATOM      5  C   UNL     1      -2.610   4.598  14.258  1.00  0.00     0.064 C 
ATOM      6  O   UNL     1      -3.382   5.583  14.120  1.00  0.00    -0.545 OA
ATOM      7  O   UNL     1      -1.606   4.399  13.318  1.00  0.00    -0.545 OA
ENDBRANCH   4   5
ENDBRANCH   2   3
ENDBRANCH   1   2
BRANCH   1   8
ATOM      8  C   UNL     1       1.030   4.045  15.635  1.00  0.00     0.000 C 
BRANCH   8   9
ATOM      9  C   UNL     1       1.716   2.722  15.261  1.00  0.00    -0.000 C 
BRANCH   9  10
ATOM     10  C   UNL     1       0.915   1.523  15.783  1.00  0.00    -0.003 C 
ATOM     11  C   UNL     1      -0.132   1.076  14.766  1.00  0.00     0.004 C 
ENDBRANCH   9  10
ENDBRANCH   8   9
ENDBRANCH   1   8
TORSDOF 6
ENDMDL
MODEL 5
REMARK VINA RESULT:    -3.393      2.233      4.095
REMARK INTER + INTRA:          -5.416
REMARK INTER:                  -4.782
REMARK INTRA:                  -0.634
REMARK UNBOUND:                -0.833
REMARK SMILES CCCCCCC=CC(=O)[O-]
REMARK SMILES IDX 5 1 6 2 7 3 8 4 9 5 10 6 11 7 4 8 3 9 2 10 1 11
REMARK H PARENT
REMARK Flexibility Score: inf
ROOT
ATOM      1  C   UNL     1      -0.856   4.431  16.930  1.00  0.00     0.004 C 
ENDROOT
BRANCH   1   2
ATOM      2  C   UNL     1       0.574   4.369  16.369  1.00  0.00     0.027 C 
BRANCH   2   3
ATOM      3  C   UNL     1       1.438   3.450  17.188  1.00  0.00    -0.025 C 
ATOM      4  C   UNL     1       1.556   2.122  17.022  1.00  0.00     0.020 C 
BRANCH   4   5
ATOM      5  C   UNL     1       0.900   1.304  15.981  1.00  0.00     0.064 C 
ATOM      6  O   UNL     1       1.576   0.928  14.988  1.00  0.00    -0.545 OA
ATOM      7  O   UNL     1      -0.443   0.957  16.045  1.00  0.00    -0.545 OA
ENDBRANCH   4   5
ENDBRANCH   2   3
ENDBRANCH   1   2
BRANCH   1   8
ATOM      8  C   UNL     1      -1.923   4.232  15.842  1.00  0.00     0.000 C 
BRANCH   8   9
ATOM      9  C   UNL     1      -1.317   4.129  14.435  1.00  0.00    -0.000 C 
BRANCH   9  10
ATOM     10  C   UNL     1      -1.897   5.205  13.509  1.00  0.00    -0.003 C 
ATOM     11  C   UNL     1      -3.336   5.543  13.889  1.00  0.00     0.004 C 
ENDBRANCH   9  10
ENDBRANCH   8   9
ENDBRANCH   1   8
TORSDOF 6
ENDMDL
MODEL 6
REMARK VINA RESULT:    -3.348     15.060     15.716
REMARK INTER + INTRA:          -5.355
REMARK INTER:                  -5.153
REMARK INTRA:                  -0.202
REMARK UNBOUND:                -0.833
REMARK SMILES CCCCCCC=CC(=O)[O-]
REMARK SMILES IDX 5 1 6 2 7 3 8 4 9 5 10 6 11 7 4 8 3 9 2 10 1 11
REMARK H PARENT
REMARK Flexibility Score: inf
ROOT
ATOM      1  C   UNL     1     -12.018  -8.248  15.846  1.00  0.00     0.004 C 
ENDROOT
BRANCH   1   2
ATOM      2  C   UNL     1     -11.322  -8.091  14.484  1.00  0.00     0.027 C 
BRANCH   2   3
ATOM      3  C   UNL     1     -12.264  -8.404  13.354  1.00  0.00    -0.025 C 
ATOM      4  C   UNL     1     -12.767  -7.518  12.478  1.00  0.00     0.020 C 
BRANCH   4   5
ATOM      5  C   UNL     1     -12.466  -6.073  12.417  1.00  0.00     0.064 C 
ATOM      6  O   UNL     1     -11.777  -5.635  11.459  1.00  0.00    -0.545 OA
ATOM      7  O   UNL     1     -12.894  -5.183  13.394  1.00  0.00    -0.545 OA
ENDBRANCH   4   5
ENDBRANCH   2   3
ENDBRANCH   1   2
BRANCH   1   8
ATOM      8  C   UNL     1     -11.019  -8.398  17.004  1.00  0.00     0.000 C 
BRANCH   8   9
ATOM      9  C   UNL     1     -11.631  -8.020  18.361  1.00  0.00    -0.000 C 
BRANCH   9  10
ATOM     10  C   UNL     1     -11.248  -9.043  19.438  1.00  0.00    -0.003 C 
ATOM     11  C   UNL     1     -10.531  -8.371  20.606  1.00  0.00     0.004 C 
ENDBRANCH   9  10
ENDBRANCH   8   9
ENDBRANCH   1   8
TORSDOF 6
ENDMDL
MODEL 7
REMARK VINA RESULT:    -3.318      2.317      4.307
REMARK INTER + INTRA:          -5.315
REMARK INTER:                  -4.849
REMARK INTRA:                  -0.465
REMARK UNBOUND:                -0.833
REMARK SMILES CCCCCCC=CC(=O)[O-]
REMARK SMILES IDX 5 1 6 2 7 3 8 4 9 5 10 6 11 7 4 8 3 9 2 10 1 11
REMARK H PARENT
REMARK Flexibility Score: inf
ROOT
ATOM      1  C   UNL     1      -2.255   4.916  14.799  1.00  0.00     0.004 C 
ENDROOT
BRANCH   1   2
ATOM      2  C   UNL     1      -1.938   3.750  15.749  1.00  0.00     0.027 C 
BRANCH   2   3
ATOM      3  C   UNL     1      -1.011   4.186  16.851  1.00  0.00    -0.025 C 
ATOM      4  C   UNL     1       0.331   4.220  16.785  1.00  0.00     0.020 C 
BRANCH   4   5
ATOM      5  C   UNL     1       1.164   3.882  15.612  1.00  0.00     0.064 C 
ATOM      6  O   UNL     1       1.731   2.759  15.574  1.00  0.00    -0.545 OA
ATOM      7  O   UNL     1       1.365   4.769  14.563  1.00  0.00    -0.545 OA
ENDBRANCH   4   5
ENDBRANCH   2   3
ENDBRANCH   1   2
BRANCH   1   8
ATOM      8  C   UNL     1      -3.370   4.572  13.798  1.00  0.00     0.000 C 
BRANCH   8   9
ATOM      9  C   UNL     1      -3.740   3.082  13.818  1.00  0.00    -0.000 C 
BRANCH   9  10
ATOM     10  C   UNL     1      -3.565   2.455  12.429  1.00  0.00    -0.003 C 
ATOM     11  C   UNL     1      -2.099   2.454  12.005  1.00  0.00     0.004 C 
ENDBRANCH   9  10
ENDBRANCH   8   9
ENDBRANCH   1   8
TORSDOF 6
ENDMDL
MODEL 8
REMARK VINA RESULT:    -3.311      1.318      2.209
REMARK INTER + INTRA:          -5.306
REMARK INTER:                  -4.804
REMARK INTRA:                  -0.502
REMARK UNBOUND:                -0.833
REMARK SMILES CCCCCCC=CC(=O)[O-]
REMARK SMILES IDX 5 1 6 2 7 3 8 4 9 5 10 6 11 7 4 8 3 9 2 10 1 11
REMARK H PARENT
REMARK Flexibility Score: inf
ROOT
ATOM      1  C   UNL     1      -0.144   4.252  14.275  1.00  0.00     0.004 C 
ENDROOT
BRANCH   1   2
ATOM      2  C   UNL     1      -1.358   4.272  15.217  1.00  0.00     0.027 C 
BRANCH   2   3
ATOM      3  C   UNL     1      -2.507   5.027  14.607  1.00  0.00    -0.025 C 
ATOM      4  C   UNL     1      -3.464   4.507  13.822  1.00  0.00     0.020 C 
BRANCH   4   5
ATOM      5  C   UNL     1      -3.611   3.089  13.434  1.00  0.00     0.064 C 
ATOM      6  O   UNL     1      -4.398   2.358  14.090  1.00  0.00    -0.545 OA
ATOM      7  O   UNL     1      -2.890   2.526  12.389  1.00  0.00    -0.545 OA
ENDBRANCH   4   5
ENDBRANCH   2   3
ENDBRANCH   1   2
BRANCH   1   8
ATOM      8  C   UNL     1       1.192   4.284  15.034  1.00  0.00     0.000 C 
BRANCH   8   9
ATOM      9  C   UNL     1       1.001   4.303  16.558  1.00  0.00    -0.000 C 
BRANCH   9  10
ATOM     10  C   UNL     1       1.803   3.177  17.224  1.00  0.00    -0.003 C 
ATOM     11  C   UNL     1       1.063   1.845  17.133  1.00  0.00     0.004 C 
ENDBRANCH   9  10
ENDBRANCH   8   9
ENDBRANCH   1   8
TORSDOF 6
ENDMDL
MODEL 9
REMARK VINA RESULT:    -3.226     14.640     15.963
REMARK INTER + INTRA:          -5.190
REMARK INTER:                  -4.323
REMARK INTRA:                  -0.867
REMARK UNBOUND:                -0.833
REMARK SMILES CCCCCCC=CC(=O)[O-]
REMARK SMILES IDX 5 1 6 2 7 3 8 4 9 5 10 6 11 7 4 8 3 9 2 10 1 11
REMARK H PARENT
REMARK Flexibility Score: inf
ROOT
ATOM      1  C   UNL     1     -11.247  -7.928  10.948  1.00  0.00     0.004 C 
ENDROOT
BRANCH   1   2
ATOM      2  C   UNL     1     -11.397  -9.072  11.963  1.00  0.00     0.027 C 
BRANCH   2   3
ATOM      3  C   UNL     1     -12.421  -8.735  13.013  1.00  0.00    -0.025 C 
ATOM      4  C   UNL     1     -12.174  -8.147  14.195  1.00  0.00     0.020 C 
BRANCH   4   5
ATOM      5  C   UNL     1     -10.864  -7.674  14.687  1.00  0.00     0.064 C 
ATOM      6  O   UNL     1     -10.450  -6.543  14.323  1.00  0.00    -0.545 OA
ATOM      7  O   UNL     1     -10.058  -8.446  15.515  1.00  0.00    -0.545 OA
ENDBRANCH   4   5
ENDBRANCH   2   3
ENDBRANCH   1   2
BRANCH   1   8
ATOM      8  C   UNL     1     -12.510  -7.728  10.095  1.00  0.00     0.000 C 
BRANCH   8   9
ATOM      9  C   UNL     1     -13.098  -6.316  10.237  1.00  0.00    -0.000 C 
BRANCH   9  10
ATOM     10  C   UNL     1     -12.197  -5.433  11.108  1.00  0.00    -0.003 C 
ATOM     11  C   UNL     1     -12.936  -4.951  12.354  1.00  0.00     0.004 C 
ENDBRANCH   9  10
ENDBRANCH   8   9
ENDBRANCH   1   8
TORSDOF 6
ENDMDL
