MODEL 1
REMARK VINA RESULT:    18.060      0.000      0.000
REMARK INTER + INTRA:          32.471
REMARK INTER:                  32.841
REMARK INTRA:                  -0.370
REMARK UNBOUND:                -0.370
REMARK SMILES CCCCCCCCCCCCCCCC(=O)[O-]
REMARK SMILES IDX 9 1 10 2 11 3 12 4 13 5 14 6 15 7 16 8 17 9 18 10 8 11 7 12
REMARK SMILES IDX 6 13 5 14 4 15 3 16 2 17 1 18
REMARK H PARENT
REMARK Flexibility Score: inf
ROOT
ATOM      1  C   UNL     1     -36.221  23.078  -9.226  1.00  0.00     0.000 C 
ENDROOT
BRANCH   1   2
ATOM      2  C   UNL     1     -36.910  22.521  -7.970  1.00  0.00     0.000 C 
BRANCH   2   3
ATOM      3  C   UNL     1     -37.537  23.621  -7.092  1.00  0.00     0.000 C 
BRANCH   3   4
ATOM      4  C   UNL     1     -37.196  23.537  -5.590  1.00  0.00     0.000 C 
BRANCH   4   5
ATOM      5  C   UNL     1     -37.033  24.894  -4.877  1.00  0.00     0.000 C 
BRANCH   5   6
ATOM      6  C   UNL     1     -37.175  26.129  -5.789  1.00  0.00     0.006 C 
BRANCH   6   7
ATOM      7  C   UNL     1     -36.744  27.452  -5.137  1.00  0.00     0.053 C 
BRANCH   7   8
ATOM      8  C   UNL     1     -37.635  28.588  -5.534  1.00  0.00     0.041 C 
ATOM      9  O   UNL     1     -38.804  28.363  -5.947  1.00  0.00    -0.550 OA
ATOM     10  O   UNL     1     -37.164  29.893  -5.480  1.00  0.00    -0.550 OA
ENDBRANCH   7   8
ENDBRANCH   6   7
ENDBRANCH   5   6
ENDBRANCH   4   5
ENDBRANCH   3   4
ENDBRANCH   2   3
ENDBRANCH   1   2
BRANCH   1  11
ATOM     11  C   UNL     1     -36.909  22.643 -10.534  1.00  0.00     0.000 C 
BRANCH  11  12
ATOM     12  C   UNL     1     -37.849  23.685 -11.168  1.00  0.00    -0.000 C 
BRANCH  12  13
ATOM     13  C   UNL     1     -37.905  23.591 -12.702  1.00  0.00    -0.000 C 
BRANCH  13  14
ATOM     14  C   UNL     1     -39.300  23.900 -13.274  1.00  0.00    -0.000 C 
BRANCH  14  15
ATOM     15  C   UNL     1     -40.264  24.621 -12.312  1.00  0.00    -0.000 C 
BRANCH  15  16
ATOM     16  C   UNL     1     -41.634  23.931 -12.206  1.00  0.00    -0.000 C 
BRANCH  16  17
ATOM     17  C   UNL     1     -42.599  24.364 -13.322  1.00  0.00    -0.003 C 
ATOM     18  C   UNL     1     -42.163  23.875 -14.704  1.00  0.00     0.004 C 
ENDBRANCH  16  17
ENDBRANCH  15  16
ENDBRANCH  14  15
ENDBRANCH  13  14
ENDBRANCH  12  13
ENDBRANCH  11  12
ENDBRANCH   1  11
TORSDOF 14
ENDMDL
MODEL 2
REMARK VINA RESULT:    18.274      5.817      7.486
REMARK INTER + INTRA:          32.861
REMARK INTER:                  33.064
REMARK INTRA:                  -0.203
REMARK UNBOUND:                -0.370
REMARK SMILES CCCCCCCCCCCCCCCC(=O)[O-]
REMARK SMILES IDX 9 1 10 2 11 3 12 4 13 5 14 6 15 7 16 8 17 9 18 10 8 11 7 12
REMARK SMILES IDX 6 13 5 14 4 15 3 16 2 17 1 18
REMARK H PARENT
REMARK Flexibility Score: inf
ROOT
ATOM      1  C   UNL     1     -40.204  24.988 -14.534  1.00  0.00     0.000 C 
ENDROOT
BRANCH   1   2
ATOM      2  C   UNL     1     -40.450  24.045 -13.345  1.00  0.00     0.000 C 
BRANCH   2   3
ATOM      3  C   UNL     1     -41.910  24.067 -12.855  1.00  0.00     0.000 C 
BRANCH   3   4
ATOM      4  C   UNL     1     -42.093  24.345 -11.349  1.00  0.00     0.000 C 
BRANCH   4   5
ATOM      5  C   UNL     1     -43.443  24.980 -10.959  1.00  0.00     0.000 C 
BRANCH   5   6
ATOM      6  C   UNL     1     -43.836  24.813  -9.476  1.00  0.00     0.006 C 
BRANCH   6   7
ATOM      7  C   UNL     1     -45.331  25.022  -9.188  1.00  0.00     0.053 C 
BRANCH   7   8
ATOM      8  C   UNL     1     -45.553  25.820  -7.941  1.00  0.00     0.041 C 
ATOM      9  O   UNL     1     -46.534  26.606  -7.857  1.00  0.00    -0.550 OA
ATOM     10  O   UNL     1     -44.659  25.721  -6.883  1.00  0.00    -0.550 OA
ENDBRANCH   7   8
ENDBRANCH   6   7
ENDBRANCH   5   6
ENDBRANCH   4   5
ENDBRANCH   3   4
ENDBRANCH   2   3
ENDBRANCH   1   2
BRANCH   1  11
ATOM     11  C   UNL     1     -41.217  24.795 -15.678  1.00  0.00     0.000 C 
BRANCH  11  12
ATOM     12  C   UNL     1     -41.798  23.376 -15.816  1.00  0.00    -0.000 C 
BRANCH  12  13
ATOM     13  C   UNL     1     -42.188  23.023 -17.262  1.00  0.00    -0.000 C 
BRANCH  13  14
ATOM     14  C   UNL     1     -40.971  22.811 -18.180  1.00  0.00    -0.000 C 
BRANCH  14  15
ATOM     15  C   UNL     1     -40.565  21.342 -18.411  1.00  0.00    -0.000 C 
BRANCH  15  16
ATOM     16  C   UNL     1     -39.086  21.181 -18.799  1.00  0.00    -0.000 C 
BRANCH  16  17
ATOM     17  C   UNL     1     -38.257  22.437 -18.489  1.00  0.00    -0.003 C 
ATOM     18  C   UNL     1     -37.713  23.114 -19.748  1.00  0.00     0.004 C 
ENDBRANCH  16  17
ENDBRANCH  15  16
ENDBRANCH  14  15
ENDBRANCH  13  14
ENDBRANCH  12  13
ENDBRANCH  11  12
ENDBRANCH   1  11
TORSDOF 14
ENDMDL
MODEL 3
REMARK VINA RESULT:    18.275      3.074      8.002
REMARK INTER + INTRA:          32.862
REMARK INTER:                  33.190
REMARK INTRA:                  -0.328
REMARK UNBOUND:                -0.370
REMARK SMILES CCCCCCCCCCCCCCCC(=O)[O-]
REMARK SMILES IDX 9 1 10 2 11 3 12 4 13 5 14 6 15 7 16 8 17 9 18 10 8 11 7 12
REMARK SMILES IDX 6 13 5 14 4 15 3 16 2 17 1 18
REMARK H PARENT
REMARK Flexibility Score: inf
ROOT
ATOM      1  C   UNL     1     -36.854  22.857  -7.566  1.00  0.00     0.000 C 
ENDROOT
BRANCH   1   2
ATOM      2  C   UNL     1     -36.862  22.116  -8.914  1.00  0.00     0.000 C 
BRANCH   2   3
ATOM      3  C   UNL     1     -36.598  23.047 -10.111  1.00  0.00     0.000 C 
BRANCH   3   4
ATOM      4  C   UNL     1     -37.403  22.722 -11.386  1.00  0.00     0.000 C 
BRANCH   4   5
ATOM      5  C   UNL     1     -38.333  23.848 -11.881  1.00  0.00     0.000 C 
BRANCH   5   6
ATOM      6  C   UNL     1     -38.878  23.660 -13.312  1.00  0.00     0.006 C 
BRANCH   6   7
ATOM      7  C   UNL     1     -39.952  24.680 -13.720  1.00  0.00     0.053 C 
BRANCH   7   8
ATOM      8  C   UNL     1     -41.298  24.327 -13.168  1.00  0.00     0.041 C 
ATOM      9  O   UNL     1     -42.221  23.950 -13.938  1.00  0.00    -0.550 OA
ATOM     10  O   UNL     1     -41.544  24.444 -11.807  1.00  0.00    -0.550 OA
ENDBRANCH   7   8
ENDBRANCH   6   7
ENDBRANCH   5   6
ENDBRANCH   4   5
ENDBRANCH   3   4
ENDBRANCH   2   3
ENDBRANCH   1   2
BRANCH   1  11
ATOM     11  C   UNL     1     -36.983  21.912  -6.357  1.00  0.00     0.000 C 
BRANCH  11  12
ATOM     12  C   UNL     1     -37.095  22.601  -4.985  1.00  0.00    -0.000 C 
BRANCH  12  13
ATOM     13  C   UNL     1     -37.877  23.925  -5.038  1.00  0.00    -0.000 C 
BRANCH  13  14
ATOM     14  C   UNL     1     -36.973  25.164  -4.918  1.00  0.00    -0.000 C 
BRANCH  14  15
ATOM     15  C   UNL     1     -37.707  26.519  -4.891  1.00  0.00    -0.000 C 
BRANCH  15  16
ATOM     16  C   UNL     1     -37.010  27.597  -5.737  1.00  0.00    -0.000 C 
BRANCH  16  17
ATOM     17  C   UNL     1     -36.361  28.692  -4.875  1.00  0.00    -0.003 C 
ATOM     18  C   UNL     1     -36.817  30.099  -5.262  1.00  0.00     0.004 C 
ENDBRANCH  16  17
ENDBRANCH  15  16
ENDBRANCH  14  15
ENDBRANCH  13  14
ENDBRANCH  12  13
ENDBRANCH  11  12
ENDBRANCH   1  11
TORSDOF 14
ENDMDL
MODEL 4
REMARK VINA RESULT:    19.066      1.216      2.158
REMARK INTER + INTRA:          34.300
REMARK INTER:                  34.795
REMARK INTRA:                  -0.495
REMARK UNBOUND:                -0.370
REMARK SMILES CCCCCCCCCCCCCCCC(=O)[O-]
REMARK SMILES IDX 9 1 10 2 11 3 12 4 13 5 14 6 15 7 16 8 17 9 18 10 8 11 7 12
REMARK SMILES IDX 6 13 5 14 4 15 3 16 2 17 1 18
REMARK H PARENT
REMARK Flexibility Score: inf
ROOT
ATOM      1  C   UNL     1     -37.410  22.859  -7.838  1.00  0.00     0.000 C 
ENDROOT
BRANCH   1   2
ATOM      2  C   UNL     1     -37.161  22.800  -6.322  1.00  0.00     0.000 C 
BRANCH   2   3
ATOM      3  C   UNL     1     -37.656  24.057  -5.583  1.00  0.00     0.000 C 
BRANCH   3   4
ATOM      4  C   UNL     1     -36.884  25.354  -5.904  1.00  0.00     0.000 C 
BRANCH   4   5
ATOM      5  C   UNL     1     -37.078  26.500  -4.891  1.00  0.00     0.000 C 
BRANCH   5   6
ATOM      6  C   UNL     1     -37.635  27.808  -5.489  1.00  0.00     0.006 C 
BRANCH   6   7
ATOM      7  C   UNL     1     -37.045  29.088  -4.875  1.00  0.00     0.053 C 
BRANCH   7   8
ATOM      8  C   UNL     1     -36.048  29.735  -5.785  1.00  0.00     0.041 C 
ATOM      9  O   UNL     1     -34.839  29.827  -5.440  1.00  0.00    -0.550 OA
ATOM     10  O   UNL     1     -36.458  30.268  -7.000  1.00  0.00    -0.550 OA
ENDBRANCH   7   8
ENDBRANCH   6   7
ENDBRANCH   5   6
ENDBRANCH   4   5
ENDBRANCH   3   4
ENDBRANCH   2   3
ENDBRANCH   1   2
BRANCH   1  11
ATOM     11  C   UNL     1     -36.133  22.631  -8.669  1.00  0.00     0.000 C 
BRANCH  11  12
ATOM     12  C   UNL     1     -36.349  22.011 -10.061  1.00  0.00    -0.000 C 
BRANCH  12  13
ATOM     13  C   UNL     1     -36.467  23.064 -11.177  1.00  0.00    -0.000 C 
BRANCH  13  14
ATOM     14  C   UNL     1     -37.871  23.687 -11.271  1.00  0.00    -0.000 C 
BRANCH  14  15
ATOM     15  C   UNL     1     -38.569  23.544 -12.637  1.00  0.00    -0.000 C 
BRANCH  15  16
ATOM     16  C   UNL     1     -39.666  24.597 -12.865  1.00  0.00    -0.000 C 
BRANCH  16  17
ATOM     17  C   UNL     1     -40.968  23.983 -13.404  1.00  0.00    -0.003 C 
ATOM     18  C   UNL     1     -42.137  24.121 -12.429  1.00  0.00     0.004 C 
ENDBRANCH  16  17
ENDBRANCH  15  16
ENDBRANCH  14  15
ENDBRANCH  13  14
ENDBRANCH  12  13
ENDBRANCH  11  12
ENDBRANCH   1  11
TORSDOF 14
ENDMDL
MODEL 5
REMARK VINA RESULT:    19.274      7.379     11.488
REMARK INTER + INTRA:          34.680
REMARK INTER:                  35.317
REMARK INTRA:                  -0.637
REMARK UNBOUND:                -0.370
REMARK SMILES CCCCCCCCCCCCCCCC(=O)[O-]
REMARK SMILES IDX 9 1 10 2 11 3 12 4 13 5 14 6 15 7 16 8 17 9 18 10 8 11 7 12
REMARK SMILES IDX 6 13 5 14 4 15 3 16 2 17 1 18
REMARK H PARENT
REMARK Flexibility Score: inf
ROOT
ATOM      1  C   UNL     1     -39.410  23.050 -18.417  1.00  0.00     0.000 C 
ENDROOT
BRANCH   1   2
ATOM      2  C   UNL     1     -38.189  22.383 -19.072  1.00  0.00     0.000 C 
BRANCH   2   3
ATOM      3  C   UNL     1     -37.427  23.327 -20.020  1.00  0.00     0.000 C 
BRANCH   3   4
ATOM      4  C   UNL     1     -38.284  24.424 -20.684  1.00  0.00     0.000 C 
BRANCH   4   5
ATOM      5  C   UNL     1     -37.502  25.658 -21.179  1.00  0.00     0.000 C 
BRANCH   5   6
ATOM      6  C   UNL     1     -38.339  26.682 -21.972  1.00  0.00     0.006 C 
BRANCH   6   7
ATOM      7  C   UNL     1     -37.763  28.107 -21.972  1.00  0.00     0.053 C 
BRANCH   7   8
ATOM      8  C   UNL     1     -38.736  29.103 -21.422  1.00  0.00     0.041 C 
ATOM      9  O   UNL     1     -38.340  30.021 -20.656  1.00  0.00    -0.550 OA
ATOM     10  O   UNL     1     -40.087  28.999 -21.729  1.00  0.00    -0.550 OA
ENDBRANCH   7   8
ENDBRANCH   6   7
ENDBRANCH   5   6
ENDBRANCH   4   5
ENDBRANCH   3   4
ENDBRANCH   2   3
ENDBRANCH   1   2
BRANCH   1  11
ATOM     11  C   UNL     1     -40.560  22.064 -18.140  1.00  0.00     0.000 C 
BRANCH  11  12
ATOM     12  C   UNL     1     -41.866  22.695 -17.624  1.00  0.00    -0.000 C 
BRANCH  12  13
ATOM     13  C   UNL     1     -41.644  23.653 -16.441  1.00  0.00    -0.000 C 
BRANCH  13  14
ATOM     14  C   UNL     1     -42.680  23.472 -15.316  1.00  0.00    -0.000 C 
BRANCH  14  15
ATOM     15  C   UNL     1     -42.465  24.353 -14.070  1.00  0.00    -0.000 C 
BRANCH  15  16
ATOM     16  C   UNL     1     -41.921  23.567 -12.866  1.00  0.00    -0.000 C 
BRANCH  16  17
ATOM     17  C   UNL     1     -40.738  24.276 -12.186  1.00  0.00    -0.003 C 
ATOM     18  C   UNL     1     -39.497  24.343 -13.076  1.00  0.00     0.004 C 
ENDBRANCH  16  17
ENDBRANCH  15  16
ENDBRANCH  14  15
ENDBRANCH  13  14
ENDBRANCH  12  13
ENDBRANCH  11  12
ENDBRANCH   1  11
TORSDOF 14
ENDMDL
MODEL 6
REMARK VINA RESULT:    19.459     10.617     13.371
REMARK INTER + INTRA:          35.016
REMARK INTER:                  35.522
REMARK INTRA:                  -0.506
REMARK UNBOUND:                -0.370
REMARK SMILES CCCCCCCCCCCCCCCC(=O)[O-]
REMARK SMILES IDX 9 1 10 2 11 3 12 4 13 5 14 6 15 7 16 8 17 9 18 10 8 11 7 12
REMARK SMILES IDX 6 13 5 14 4 15 3 16 2 17 1 18
REMARK H PARENT
REMARK Flexibility Score: inf
ROOT
ATOM      1  C   UNL     1     -37.249  27.118 -21.661  1.00  0.00     0.000 C 
ENDROOT
BRANCH   1   2
ATOM      2  C   UNL     1     -38.160  28.269 -22.120  1.00  0.00     0.000 C 
BRANCH   2   3
ATOM      3  C   UNL     1     -38.355  29.347 -21.038  1.00  0.00     0.000 C 
BRANCH   3   4
ATOM      4  C   UNL     1     -39.818  29.760 -20.778  1.00  0.00     0.000 C 
BRANCH   4   5
ATOM      5  C   UNL     1     -40.854  29.150 -21.744  1.00  0.00     0.000 C 
BRANCH   5   6
ATOM      6  C   UNL     1     -41.763  30.173 -22.454  1.00  0.00     0.006 C 
BRANCH   6   7
ATOM      7  C   UNL     1     -42.234  31.332 -21.560  1.00  0.00     0.053 C 
BRANCH   7   8
ATOM      8  C   UNL     1     -43.725  31.470 -21.563  1.00  0.00     0.041 C 
ATOM      9  O   UNL     1     -44.341  31.713 -20.492  1.00  0.00    -0.550 OA
ATOM     10  O   UNL     1     -44.437  31.297 -22.743  1.00  0.00    -0.550 OA
ENDBRANCH   7   8
ENDBRANCH   6   7
ENDBRANCH   5   6
ENDBRANCH   4   5
ENDBRANCH   3   4
ENDBRANCH   2   3
ENDBRANCH   1   2
BRANCH   1  11
ATOM     11  C   UNL     1     -38.008  25.794 -21.452  1.00  0.00     0.000 C 
BRANCH  11  12
ATOM     12  C   UNL     1     -37.444  24.872 -20.356  1.00  0.00    -0.000 C 
BRANCH  12  13
ATOM     13  C   UNL     1     -38.205  23.540 -20.239  1.00  0.00    -0.000 C 
BRANCH  13  14
ATOM     14  C   UNL     1     -37.794  22.718 -19.005  1.00  0.00    -0.000 C 
BRANCH  14  15
ATOM     15  C   UNL     1     -38.569  21.402 -18.798  1.00  0.00    -0.000 C 
BRANCH  15  16
ATOM     16  C   UNL     1     -40.090  21.608 -18.712  1.00  0.00    -0.000 C 
BRANCH  16  17
ATOM     17  C   UNL     1     -40.470  22.847 -17.886  1.00  0.00    -0.003 C 
ATOM     18  C   UNL     1     -41.904  22.791 -17.359  1.00  0.00     0.004 C 
ENDBRANCH  16  17
ENDBRANCH  15  16
ENDBRANCH  14  15
ENDBRANCH  13  14
ENDBRANCH  12  13
ENDBRANCH  11  12
ENDBRANCH   1  11
TORSDOF 14
ENDMDL
MODEL 7
REMARK VINA RESULT:    19.510      5.883      7.870
REMARK INTER + INTRA:          35.107
REMARK INTER:                  35.604
REMARK INTRA:                  -0.497
REMARK UNBOUND:                -0.370
REMARK SMILES CCCCCCCCCCCCCCCC(=O)[O-]
REMARK SMILES IDX 9 1 10 2 11 3 12 4 13 5 14 6 15 7 16 8 17 9 18 10 8 11 7 12
REMARK SMILES IDX 6 13 5 14 4 15 3 16 2 17 1 18
REMARK H PARENT
REMARK Flexibility Score: inf
ROOT
ATOM      1  C   UNL     1     -41.718  24.241 -15.106  1.00  0.00     0.000 C 
ENDROOT
BRANCH   1   2
ATOM      2  C   UNL     1     -42.218  23.658 -13.774  1.00  0.00     0.000 C 
BRANCH   2   3
ATOM      3  C   UNL     1     -41.492  24.248 -12.551  1.00  0.00     0.000 C 
BRANCH   3   4
ATOM      4  C   UNL     1     -42.187  24.009 -11.195  1.00  0.00     0.000 C 
BRANCH   4   5
ATOM      5  C   UNL     1     -43.438  24.873 -10.937  1.00  0.00     0.000 C 
BRANCH   5   6
ATOM      6  C   UNL     1     -43.751  25.136  -9.450  1.00  0.00     0.006 C 
BRANCH   6   7
ATOM      7  C   UNL     1     -45.247  25.103  -9.101  1.00  0.00     0.053 C 
BRANCH   7   8
ATOM      8  C   UNL     1     -45.549  25.879  -7.857  1.00  0.00     0.041 C 
ATOM      9  O   UNL     1     -44.799  25.780  -6.850  1.00  0.00    -0.550 OA
ATOM     10  O   UNL     1     -46.676  26.688  -7.798  1.00  0.00    -0.550 OA
ENDBRANCH   7   8
ENDBRANCH   6   7
ENDBRANCH   5   6
ENDBRANCH   4   5
ENDBRANCH   3   4
ENDBRANCH   2   3
ENDBRANCH   1   2
BRANCH   1  11
ATOM     11  C   UNL     1     -42.562  23.794 -16.314  1.00  0.00     0.000 C 
BRANCH  11  12
ATOM     12  C   UNL     1     -42.013  22.588 -17.098  1.00  0.00    -0.000 C 
BRANCH  12  13
ATOM     13  C   UNL     1     -40.805  22.942 -17.981  1.00  0.00    -0.000 C 
BRANCH  13  14
ATOM     14  C   UNL     1     -40.090  21.703 -18.549  1.00  0.00    -0.000 C 
BRANCH  14  15
ATOM     15  C   UNL     1     -38.555  21.705 -18.413  1.00  0.00    -0.000 C 
BRANCH  15  16
ATOM     16  C   UNL     1     -37.843  22.279 -19.650  1.00  0.00    -0.000 C 
BRANCH  16  17
ATOM     17  C   UNL     1     -37.687  23.807 -19.582  1.00  0.00    -0.003 C 
ATOM     18  C   UNL     1     -38.170  24.509 -20.852  1.00  0.00     0.004 C 
ENDBRANCH  16  17
ENDBRANCH  15  16
ENDBRANCH  14  15
ENDBRANCH  13  14
ENDBRANCH  12  13
ENDBRANCH  11  12
ENDBRANCH   1  11
TORSDOF 14
ENDMDL
MODEL 8
REMARK VINA RESULT:    19.778      6.926     10.593
REMARK INTER + INTRA:          35.595
REMARK INTER:                  36.268
REMARK INTRA:                  -0.673
REMARK UNBOUND:                -0.370
REMARK SMILES CCCCCCCCCCCCCCCC(=O)[O-]
REMARK SMILES IDX 9 1 10 2 11 3 12 4 13 5 14 6 15 7 16 8 17 9 18 10 8 11 7 12
REMARK SMILES IDX 6 13 5 14 4 15 3 16 2 17 1 18
REMARK H PARENT
REMARK Flexibility Score: inf
ROOT
ATOM      1  C   UNL     1     -37.686  23.027 -19.571  1.00  0.00     0.000 C 
ENDROOT
BRANCH   1   2
ATOM      2  C   UNL     1     -38.664  22.281 -18.648  1.00  0.00     0.000 C 
BRANCH   2   3
ATOM      3  C   UNL     1     -39.961  23.069 -18.386  1.00  0.00     0.000 C 
BRANCH   3   4
ATOM      4  C   UNL     1     -41.082  22.275 -17.684  1.00  0.00     0.000 C 
BRANCH   4   5
ATOM      5  C   UNL     1     -42.242  23.127 -17.131  1.00  0.00     0.000 C 
BRANCH   5   6
ATOM      6  C   UNL     1     -42.381  23.117 -15.595  1.00  0.00     0.006 C 
BRANCH   6   7
ATOM      7  C   UNL     1     -41.944  24.422 -14.910  1.00  0.00     0.053 C 
BRANCH   7   8
ATOM      8  C   UNL     1     -41.523  24.194 -13.491  1.00  0.00     0.041 C 
ATOM      9  O   UNL     1     -42.376  23.877 -12.620  1.00  0.00    -0.550 OA
ATOM     10  O   UNL     1     -40.195  24.365 -13.123  1.00  0.00    -0.550 OA
ENDBRANCH   7   8
ENDBRANCH   6   7
ENDBRANCH   5   6
ENDBRANCH   4   5
ENDBRANCH   3   4
ENDBRANCH   2   3
ENDBRANCH   1   2
BRANCH   1  11
ATOM     11  C   UNL     1     -38.366  24.131 -20.403  1.00  0.00     0.000 C 
BRANCH  11  12
ATOM     12  C   UNL     1     -37.445  25.276 -20.862  1.00  0.00    -0.000 C 
BRANCH  12  13
ATOM     13  C   UNL     1     -38.179  26.343 -21.693  1.00  0.00    -0.000 C 
BRANCH  13  14
ATOM     14  C   UNL     1     -37.360  27.633 -21.877  1.00  0.00    -0.000 C 
BRANCH  14  15
ATOM     15  C   UNL     1     -38.186  28.926 -22.018  1.00  0.00    -0.000 C 
BRANCH  15  16
ATOM     16  C   UNL     1     -38.506  29.586 -20.667  1.00  0.00    -0.000 C 
BRANCH  16  17
ATOM     17  C   UNL     1     -40.014  29.801 -20.460  1.00  0.00    -0.003 C 
ATOM     18  C   UNL     1     -40.832  29.510 -21.718  1.00  0.00     0.004 C 
ENDBRANCH  16  17
ENDBRANCH  15  16
ENDBRANCH  14  15
ENDBRANCH  13  14
ENDBRANCH  12  13
ENDBRANCH  11  12
ENDBRANCH   1  11
TORSDOF 14
ENDMDL
MODEL 9
REMARK VINA RESULT:    19.895      9.226     12.887
REMARK INTER + INTRA:          35.809
REMARK INTER:                  36.417
REMARK INTRA:                  -0.608
REMARK UNBOUND:                -0.370
REMARK SMILES CCCCCCCCCCCCCCCC(=O)[O-]
REMARK SMILES IDX 9 1 10 2 11 3 12 4 13 5 14 6 15 7 16 8 17 9 18 10 8 11 7 12
REMARK SMILES IDX 6 13 5 14 4 15 3 16 2 17 1 18
REMARK H PARENT
REMARK Flexibility Score: inf
ROOT
ATOM      1  C   UNL     1     -37.476  25.382 -20.973  1.00  0.00     0.000 C 
ENDROOT
BRANCH   1   2
ATOM      2  C   UNL     1     -38.297  26.423 -21.753  1.00  0.00     0.000 C 
BRANCH   2   3
ATOM      3  C   UNL     1     -37.790  27.863 -21.547  1.00  0.00     0.000 C 
BRANCH   3   4
ATOM      4  C   UNL     1     -38.754  28.972 -22.015  1.00  0.00     0.000 C 
BRANCH   4   5
ATOM      5  C   UNL     1     -39.671  29.550 -20.918  1.00  0.00     0.000 C 
BRANCH   5   6
ATOM      6  C   UNL     1     -41.179  29.504 -21.241  1.00  0.00     0.006 C 
BRANCH   6   7
ATOM      7  C   UNL     1     -41.634  30.529 -22.291  1.00  0.00     0.053 C 
BRANCH   7   8
ATOM      8  C   UNL     1     -43.053  30.956 -22.077  1.00  0.00     0.041 C 
ATOM      9  O   UNL     1     -43.938  30.664 -22.925  1.00  0.00    -0.550 OA
ATOM     10  O   UNL     1     -43.393  31.705 -20.959  1.00  0.00    -0.550 OA
ENDBRANCH   7   8
ENDBRANCH   6   7
ENDBRANCH   5   6
ENDBRANCH   4   5
ENDBRANCH   3   4
ENDBRANCH   2   3
ENDBRANCH   1   2
BRANCH   1  11
ATOM     11  C   UNL     1     -38.315  24.176 -20.510  1.00  0.00     0.000 C 
BRANCH  11  12
ATOM     12  C   UNL     1     -37.590  23.179 -19.589  1.00  0.00    -0.000 C 
BRANCH  12  13
ATOM     13  C   UNL     1     -38.553  22.352 -18.719  1.00  0.00    -0.000 C 
BRANCH  13  14
ATOM     14  C   UNL     1     -39.847  23.108 -18.369  1.00  0.00    -0.000 C 
BRANCH  14  15
ATOM     15  C   UNL     1     -41.109  22.233 -18.241  1.00  0.00    -0.000 C 
BRANCH  15  16
ATOM     16  C   UNL     1     -42.059  22.707 -17.128  1.00  0.00    -0.000 C 
BRANCH  16  17
ATOM     17  C   UNL     1     -41.561  23.986 -16.436  1.00  0.00    -0.003 C 
ATOM     18  C   UNL     1     -42.097  24.136 -15.012  1.00  0.00     0.004 C 
ENDBRANCH  16  17
ENDBRANCH  15  16
ENDBRANCH  14  15
ENDBRANCH  13  14
ENDBRANCH  12  13
ENDBRANCH  11  12
ENDBRANCH   1  11
TORSDOF 14
ENDMDL
