MODEL 1
REMARK VINA RESULT:    -6.683      0.000      0.000
REMARK INTER + INTRA:          -7.240
REMARK INTER:                  -7.074
REMARK INTRA:                  -0.166
REMARK UNBOUND:                -0.166
REMARK SMILES CC1=CC[C@]23[C@H]([C@@H](C(C)C)CC[C@@H]2C)[C@@H]13
REMARK SMILES IDX 14 1 13 2 12 3 11 4 7 5 6 6 5 7 15 8 2 9 3 10 4 11 1 12 8 13
REMARK SMILES IDX 9 14 10 15
REMARK H PARENT
REMARK Flexibility Score: inf
ROOT
ATOM      1  C   UNL     1       8.116  32.938  25.032  1.00  0.00     0.008 C 
ATOM      2  C   UNL     1       8.814  33.821  23.983  1.00  0.00    -0.007 C 
ATOM      3  C   UNL     1      10.313  33.981  24.322  1.00  0.00     0.004 C 
ATOM      4  C   UNL     1      11.116  32.754  23.895  1.00  0.00     0.004 C 
ATOM      5  C   UNL     1      11.153  32.581  22.360  1.00  0.00    -0.004 C 
ATOM      6  C   UNL     1       9.729  32.660  21.735  1.00  0.00     0.007 C 
ATOM      7  C   UNL     1       8.571  33.265  22.551  1.00  0.00    -0.013 C 
ATOM      8  C   UNL     1       9.211  34.072  21.422  1.00  0.00     0.025 C 
ATOM      9  C   UNL     1       8.157  34.151  20.371  1.00  0.00    -0.073 C 
ATOM     10  C   UNL     1       7.033  33.550  20.729  1.00  0.00    -0.027 C 
ATOM     11  C   UNL     1       7.133  32.955  22.089  1.00  0.00     0.035 C 
ATOM     12  C   UNL     1       8.351  34.829  19.051  1.00  0.00     0.039 C 
ENDROOT
BRANCH   5  13
ATOM     13  C   UNL     1      12.202  33.486  21.626  1.00  0.00    -0.014 C 
ATOM     14  C   UNL     1      13.647  33.185  22.067  1.00  0.00     0.007 C 
ATOM     15  C   UNL     1      12.110  33.309  20.097  1.00  0.00     0.007 C 
ENDBRANCH   5  13
TORSDOF 1
ENDMDL
MODEL 2
REMARK VINA RESULT:    -6.617      1.042      3.634
REMARK INTER + INTRA:          -7.170
REMARK INTER:                  -6.912
REMARK INTRA:                  -0.258
REMARK UNBOUND:                -0.166
REMARK SMILES CC1=CC[C@]23[C@H]([C@@H](C(C)C)CC[C@@H]2C)[C@@H]13
REMARK SMILES IDX 14 1 13 2 12 3 11 4 7 5 6 6 5 7 15 8 2 9 3 10 4 11 1 12 8 13
REMARK SMILES IDX 9 14 10 15
REMARK H PARENT
REMARK Flexibility Score: inf
ROOT
ATOM      1  C   UNL     1      12.284  33.632  20.496  1.00  0.00     0.008 C 
ATOM      2  C   UNL     1      11.083  32.836  21.038  1.00  0.00    -0.007 C 
ATOM      3  C   UNL     1      11.412  32.234  22.421  1.00  0.00     0.004 C 
ATOM      4  C   UNL     1      11.283  33.277  23.530  1.00  0.00     0.004 C 
ATOM      5  C   UNL     1       9.823  33.748  23.725  1.00  0.00    -0.004 C 
ATOM      6  C   UNL     1       9.165  34.165  22.377  1.00  0.00     0.007 C 
ATOM      7  C   UNL     1       9.802  33.719  21.048  1.00  0.00    -0.013 C 
ATOM      8  C   UNL     1       8.538  33.026  21.557  1.00  0.00     0.025 C 
ATOM      9  C   UNL     1       7.472  33.436  20.600  1.00  0.00    -0.073 C 
ATOM     10  C   UNL     1       7.928  34.217  19.632  1.00  0.00    -0.027 C 
ATOM     11  C   UNL     1       9.387  34.473  19.769  1.00  0.00     0.035 C 
ATOM     12  C   UNL     1       6.041  33.019  20.724  1.00  0.00     0.039 C 
ENDROOT
BRANCH   5  13
ATOM     13  C   UNL     1       8.933  32.778  24.576  1.00  0.00    -0.014 C 
ATOM     14  C   UNL     1       9.559  32.456  25.946  1.00  0.00     0.007 C 
ATOM     15  C   UNL     1       7.531  33.375  24.807  1.00  0.00     0.007 C 
ENDBRANCH   5  13
TORSDOF 1
ENDMDL
MODEL 3
REMARK VINA RESULT:    -6.392      1.503      3.895
REMARK INTER + INTRA:          -6.932
REMARK INTER:                  -6.794
REMARK INTRA:                  -0.138
REMARK UNBOUND:                -0.166
REMARK SMILES CC1=CC[C@]23[C@H]([C@@H](C(C)C)CC[C@@H]2C)[C@@H]13
REMARK SMILES IDX 14 1 13 2 12 3 11 4 7 5 6 6 5 7 15 8 2 9 3 10 4 11 1 12 8 13
REMARK SMILES IDX 9 14 10 15
REMARK H PARENT
REMARK Flexibility Score: inf
ROOT
ATOM      1  C   UNL     1       8.616  34.269  20.419  1.00  0.00     0.008 C 
ATOM      2  C   UNL     1       9.134  33.126  21.310  1.00  0.00    -0.007 C 
ATOM      3  C   UNL     1       9.938  32.108  20.472  1.00  0.00     0.004 C 
ATOM      4  C   UNL     1      11.357  32.605  20.201  1.00  0.00     0.004 C 
ATOM      5  C   UNL     1      12.204  32.696  21.491  1.00  0.00    -0.004 C 
ATOM      6  C   UNL     1      11.460  33.474  22.616  1.00  0.00     0.007 C 
ATOM      7  C   UNL     1       9.940  33.694  22.514  1.00  0.00    -0.013 C 
ATOM      8  C   UNL     1      10.495  32.646  23.478  1.00  0.00     0.025 C 
ATOM      9  C   UNL     1      10.213  33.195  24.834  1.00  0.00    -0.073 C 
ATOM     10  C   UNL     1       9.575  34.355  24.794  1.00  0.00    -0.027 C 
ATOM     11  C   UNL     1       9.316  34.794  23.396  1.00  0.00     0.035 C 
ATOM     12  C   UNL     1      10.615  32.514  26.104  1.00  0.00     0.039 C 
ENDROOT
BRANCH   5  13
ATOM     13  C   UNL     1      12.807  31.332  21.974  1.00  0.00    -0.014 C 
ATOM     14  C   UNL     1      12.667  30.221  20.917  1.00  0.00     0.007 C 
ATOM     15  C   UNL     1      14.298  31.483  22.331  1.00  0.00     0.007 C 
ENDBRANCH   5  13
TORSDOF 1
ENDMDL
MODEL 4
REMARK VINA RESULT:    -6.276      1.338      4.450
REMARK INTER + INTRA:          -6.810
REMARK INTER:                  -6.629
REMARK INTRA:                  -0.181
REMARK UNBOUND:                -0.166
REMARK SMILES CC1=CC[C@]23[C@H]([C@@H](C(C)C)CC[C@@H]2C)[C@@H]13
REMARK SMILES IDX 14 1 13 2 12 3 11 4 7 5 6 6 5 7 15 8 2 9 3 10 4 11 1 12 8 13
REMARK SMILES IDX 9 14 10 15
REMARK H PARENT
REMARK Flexibility Score: inf
ROOT
ATOM      1  C   UNL     1       8.679  32.904  19.501  1.00  0.00     0.008 C 
ATOM      2  C   UNL     1       9.636  33.644  20.453  1.00  0.00    -0.007 C 
ATOM      3  C   UNL     1       8.854  34.264  21.633  1.00  0.00     0.004 C 
ATOM      4  C   UNL     1       8.526  33.218  22.696  1.00  0.00     0.004 C 
ATOM      5  C   UNL     1       9.792  32.680  23.400  1.00  0.00    -0.004 C 
ATOM      6  C   UNL     1      10.875  32.230  22.377  1.00  0.00     0.007 C 
ATOM      7  C   UNL     1      10.784  32.702  20.914  1.00  0.00    -0.013 C 
ATOM      8  C   UNL     1      11.807  33.335  21.856  1.00  0.00     0.025 C 
ATOM      9  C   UNL     1      13.128  32.874  21.345  1.00  0.00    -0.073 C 
ATOM     10  C   UNL     1      13.021  32.114  20.266  1.00  0.00    -0.027 C 
ATOM     11  C   UNL     1      11.601  31.927  19.861  1.00  0.00     0.035 C 
ATOM     12  C   UNL     1      14.434  33.224  21.985  1.00  0.00     0.039 C 
ENDROOT
BRANCH   5  13
ATOM     13  C   UNL     1      10.356  33.608  24.531  1.00  0.00    -0.014 C 
ATOM     14  C   UNL     1       9.339  34.678  24.973  1.00  0.00     0.007 C 
ATOM     15  C   UNL     1      10.770  32.786  25.767  1.00  0.00     0.007 C 
ENDBRANCH   5  13
TORSDOF 1
ENDMDL
MODEL 5
REMARK VINA RESULT:    -6.253      1.012      4.054
REMARK INTER + INTRA:          -6.785
REMARK INTER:                  -6.450
REMARK INTRA:                  -0.334
REMARK UNBOUND:                -0.166
REMARK SMILES CC1=CC[C@]23[C@H]([C@@H](C(C)C)CC[C@@H]2C)[C@@H]13
REMARK SMILES IDX 14 1 13 2 12 3 11 4 7 5 6 6 5 7 15 8 2 9 3 10 4 11 1 12 8 13
REMARK SMILES IDX 9 14 10 15
REMARK H PARENT
REMARK Flexibility Score: inf
ROOT
ATOM      1  C   UNL     1       7.774  31.883  24.707  1.00  0.00     0.008 C 
ATOM      2  C   UNL     1       8.411  31.765  23.310  1.00  0.00    -0.007 C 
ATOM      3  C   UNL     1       7.321  31.769  22.216  1.00  0.00     0.004 C 
ATOM      4  C   UNL     1       6.826  33.184  21.925  1.00  0.00     0.004 C 
ATOM      5  C   UNL     1       7.922  34.069  21.287  1.00  0.00    -0.004 C 
ATOM      6  C   UNL     1       9.253  34.011  22.093  1.00  0.00     0.007 C 
ATOM      7  C   UNL     1       9.483  32.872  23.103  1.00  0.00    -0.013 C 
ATOM      8  C   UNL     1      10.194  32.846  21.751  1.00  0.00     0.025 C 
ATOM      9  C   UNL     1      11.632  33.065  22.076  1.00  0.00    -0.073 C 
ATOM     10  C   UNL     1      11.849  33.184  23.376  1.00  0.00    -0.027 C 
ATOM     11  C   UNL     1      10.589  33.068  24.160  1.00  0.00     0.035 C 
ATOM     12  C   UNL     1      12.712  33.150  21.044  1.00  0.00     0.039 C 
ENDROOT
BRANCH   5  13
ATOM     13  C   UNL     1       8.120  33.854  19.747  1.00  0.00    -0.014 C 
ATOM     14  C   UNL     1       6.782  33.723  18.995  1.00  0.00     0.007 C 
ATOM     15  C   UNL     1       8.919  35.017  19.125  1.00  0.00     0.007 C 
ENDBRANCH   5  13
TORSDOF 1
ENDMDL
MODEL 6
REMARK VINA RESULT:    -6.169      3.080      6.355
REMARK INTER + INTRA:          -6.696
REMARK INTER:                  -6.387
REMARK INTRA:                  -0.308
REMARK UNBOUND:                -0.166
REMARK SMILES CC1=CC[C@]23[C@H]([C@@H](C(C)C)CC[C@@H]2C)[C@@H]13
REMARK SMILES IDX 14 1 13 2 12 3 11 4 7 5 6 6 5 7 15 8 2 9 3 10 4 11 1 12 8 13
REMARK SMILES IDX 9 14 10 15
REMARK H PARENT
REMARK Flexibility Score: inf
ROOT
ATOM      1  C   UNL     1      15.923  33.270  19.715  1.00  0.00     0.008 C 
ATOM      2  C   UNL     1      15.254  32.380  20.778  1.00  0.00    -0.007 C 
ATOM      3  C   UNL     1      14.401  33.234  21.740  1.00  0.00     0.004 C 
ATOM      4  C   UNL     1      13.051  33.594  21.122  1.00  0.00     0.004 C 
ATOM      5  C   UNL     1      12.152  32.354  20.913  1.00  0.00    -0.004 C 
ATOM      6  C   UNL     1      12.907  31.210  20.175  1.00  0.00     0.007 C 
ATOM      7  C   UNL     1      14.445  31.236  20.102  1.00  0.00    -0.013 C 
ATOM      8  C   UNL     1      13.745  30.277  21.064  1.00  0.00     0.025 C 
ATOM      9  C   UNL     1      14.007  28.922  20.504  1.00  0.00    -0.073 C 
ATOM     10  C   UNL     1      14.753  28.957  19.410  1.00  0.00    -0.027 C 
ATOM     11  C   UNL     1      15.124  30.349  19.039  1.00  0.00     0.035 C 
ATOM     12  C   UNL     1      13.479  27.658  21.106  1.00  0.00     0.039 C 
ENDROOT
BRANCH   5  13
ATOM     13  C   UNL     1      11.399  31.870  22.200  1.00  0.00    -0.014 C 
ATOM     14  C   UNL     1      11.087  33.027  23.168  1.00  0.00     0.007 C 
ATOM     15  C   UNL     1      10.076  31.168  21.835  1.00  0.00     0.007 C 
ENDBRANCH   5  13
TORSDOF 1
ENDMDL
MODEL 7
REMARK VINA RESULT:    -6.042      1.329      3.921
REMARK INTER + INTRA:          -6.561
REMARK INTER:                  -6.360
REMARK INTRA:                  -0.201
REMARK UNBOUND:                -0.166
REMARK SMILES CC1=CC[C@]23[C@H]([C@@H](C(C)C)CC[C@@H]2C)[C@@H]13
REMARK SMILES IDX 14 1 13 2 12 3 11 4 7 5 6 6 5 7 15 8 2 9 3 10 4 11 1 12 8 13
REMARK SMILES IDX 9 14 10 15
REMARK H PARENT
REMARK Flexibility Score: inf
ROOT
ATOM      1  C   UNL     1      13.383  33.443  21.905  1.00  0.00     0.008 C 
ATOM      2  C   UNL     1      12.081  32.651  21.685  1.00  0.00    -0.007 C 
ATOM      3  C   UNL     1      11.426  32.301  23.039  1.00  0.00     0.004 C 
ATOM      4  C   UNL     1      10.662  33.492  23.614  1.00  0.00     0.004 C 
ATOM      5  C   UNL     1       9.435  33.874  22.755  1.00  0.00    -0.004 C 
ATOM      6  C   UNL     1       9.807  34.021  21.250  1.00  0.00     0.007 C 
ATOM      7  C   UNL     1      11.127  33.423  20.729  1.00  0.00    -0.013 C 
ATOM      8  C   UNL     1       9.802  32.724  20.427  1.00  0.00     0.025 C 
ATOM      9  C   UNL     1       9.611  32.895  18.960  1.00  0.00    -0.073 C 
ATOM     10  C   UNL     1      10.612  33.546  18.387  1.00  0.00    -0.027 C 
ATOM     11  C   UNL     1      11.656  33.933  19.373  1.00  0.00     0.035 C 
ATOM     12  C   UNL     1       8.415  32.392  18.215  1.00  0.00     0.039 C 
ENDROOT
BRANCH   5  13
ATOM     13  C   UNL     1       8.167  32.983  22.995  1.00  0.00    -0.014 C 
ATOM     14  C   UNL     1       7.683  33.033  24.456  1.00  0.00     0.007 C 
ATOM     15  C   UNL     1       7.006  33.418  22.079  1.00  0.00     0.007 C 
ENDBRANCH   5  13
TORSDOF 1
ENDMDL
MODEL 8
REMARK VINA RESULT:    -5.934      1.062      4.066
REMARK INTER + INTRA:          -6.447
REMARK INTER:                  -6.106
REMARK INTRA:                  -0.341
REMARK UNBOUND:                -0.166
REMARK SMILES CC1=CC[C@]23[C@H]([C@@H](C(C)C)CC[C@@H]2C)[C@@H]13
REMARK SMILES IDX 14 1 13 2 12 3 11 4 7 5 6 6 5 7 15 8 2 9 3 10 4 11 1 12 8 13
REMARK SMILES IDX 9 14 10 15
REMARK H PARENT
REMARK Flexibility Score: inf
ROOT
ATOM      1  C   UNL     1      10.737  32.999  24.902  1.00  0.00     0.008 C 
ATOM      2  C   UNL     1      10.330  32.381  23.552  1.00  0.00    -0.007 C 
ATOM      3  C   UNL     1       8.793  32.260  23.453  1.00  0.00     0.004 C 
ATOM      4  C   UNL     1       8.150  33.597  23.091  1.00  0.00     0.004 C 
ATOM      5  C   UNL     1       8.526  34.062  21.666  1.00  0.00    -0.004 C 
ATOM      6  C   UNL     1      10.063  34.009  21.427  1.00  0.00     0.007 C 
ATOM      7  C   UNL     1      10.953  33.183  22.374  1.00  0.00    -0.013 C 
ATOM      8  C   UNL     1      10.626  32.651  20.979  1.00  0.00     0.025 C 
ATOM      9  C   UNL     1      11.920  32.704  20.242  1.00  0.00    -0.073 C 
ATOM     10  C   UNL     1      12.916  33.149  20.991  1.00  0.00    -0.027 C 
ATOM     11  C   UNL     1      12.467  33.478  22.371  1.00  0.00     0.035 C 
ATOM     12  C   UNL     1      12.074  32.305  18.808  1.00  0.00     0.039 C 
ENDROOT
BRANCH   5  13
ATOM     13  C   UNL     1       7.697  33.387  20.519  1.00  0.00    -0.014 C 
ATOM     14  C   UNL     1       6.221  33.176  20.907  1.00  0.00     0.007 C 
ATOM     15  C   UNL     1       7.748  34.231  19.230  1.00  0.00     0.007 C 
ENDBRANCH   5  13
TORSDOF 1
ENDMDL
MODEL 9
REMARK VINA RESULT:    -5.876      1.676      4.084
REMARK INTER + INTRA:          -6.386
REMARK INTER:                  -6.073
REMARK INTRA:                  -0.312
REMARK UNBOUND:                -0.166
REMARK SMILES CC1=CC[C@]23[C@H]([C@@H](C(C)C)CC[C@@H]2C)[C@@H]13
REMARK SMILES IDX 14 1 13 2 12 3 11 4 7 5 6 6 5 7 15 8 2 9 3 10 4 11 1 12 8 13
REMARK SMILES IDX 9 14 10 15
REMARK H PARENT
REMARK Flexibility Score: inf
ROOT
ATOM      1  C   UNL     1       8.981  34.626  19.880  1.00  0.00     0.008 C 
ATOM      2  C   UNL     1       9.084  33.334  20.711  1.00  0.00    -0.007 C 
ATOM      3  C   UNL     1      10.102  33.509  21.859  1.00  0.00     0.004 C 
ATOM      4  C   UNL     1       9.494  34.274  23.033  1.00  0.00     0.004 C 
ATOM      5  C   UNL     1       8.363  33.482  23.727  1.00  0.00    -0.004 C 
ATOM      6  C   UNL     1       7.318  32.950  22.703  1.00  0.00     0.007 C 
ATOM      7  C   UNL     1       7.678  32.891  21.207  1.00  0.00    -0.013 C 
ATOM      8  C   UNL     1       7.656  31.607  22.036  1.00  0.00     0.025 C 
ATOM      9  C   UNL     1       6.491  30.840  21.512  1.00  0.00    -0.073 C 
ATOM     10  C   UNL     1       5.876  31.461  20.518  1.00  0.00    -0.027 C 
ATOM     11  C   UNL     1       6.520  32.764  20.198  1.00  0.00     0.035 C 
ATOM     12  C   UNL     1       6.058  29.515  22.055  1.00  0.00     0.039 C 
ENDROOT
BRANCH   5  13
ATOM     13  C   UNL     1       8.856  32.387  24.735  1.00  0.00    -0.014 C 
ATOM     14  C   UNL     1       9.942  32.915  25.691  1.00  0.00     0.007 C 
ATOM     15  C   UNL     1       7.685  31.844  25.578  1.00  0.00     0.007 C 
ENDBRANCH   5  13
TORSDOF 1
ENDMDL
