MODEL 1
REMARK VINA RESULT:    -4.792      0.000      0.000
REMARK INTER + INTRA:         -11.382
REMARK INTER:                  -9.275
REMARK INTRA:                  -2.107
REMARK UNBOUND:                -2.107
REMARK SMILES CCCCCCCCCCCCCCCCCC(=O)[O-]
REMARK SMILES IDX 10 1 11 2 12 3 13 4 14 5 15 6 16 7 17 8 18 9 19 10 20 11
REMARK SMILES IDX 9 12 8 13 7 14 6 15 5 16 4 17 3 18 2 19 1 20
REMARK H PARENT
REMARK Flexibility Score: inf
ROOT
ATOM      1  C   UNL     1      13.738 -28.841  23.262  1.00  0.00     0.000 C 
ENDROOT
BRANCH   1   2
ATOM      2  C   UNL     1      15.232 -28.484  23.284  1.00  0.00     0.000 C 
BRANCH   2   3
ATOM      3  C   UNL     1      15.788 -28.173  21.886  1.00  0.00     0.000 C 
BRANCH   3   4
ATOM      4  C   UNL     1      17.101 -28.925  21.637  1.00  0.00     0.000 C 
BRANCH   4   5
ATOM      5  C   UNL     1      16.914 -30.436  21.833  1.00  0.00     0.000 C 
BRANCH   5   6
ATOM      6  C   UNL     1      17.785 -31.277  20.885  1.00  0.00     0.000 C 
BRANCH   6   7
ATOM      7  C   UNL     1      18.861 -32.140  21.573  1.00  0.00     0.006 C 
BRANCH   7   8
ATOM      8  C   UNL     1      20.307 -31.732  21.231  1.00  0.00     0.053 C 
BRANCH   8   9
ATOM      9  C   UNL     1      20.641 -30.346  21.698  1.00  0.00     0.041 C 
ATOM     10  O   UNL     1      20.611 -30.065  22.925  1.00  0.00    -0.550 OA
ATOM     11  O   UNL     1      21.026 -29.377  20.782  1.00  0.00    -0.550 OA
ENDBRANCH   8   9
ENDBRANCH   7   8
ENDBRANCH   6   7
ENDBRANCH   5   6
ENDBRANCH   4   5
ENDBRANCH   3   4
ENDBRANCH   2   3
ENDBRANCH   1   2
BRANCH   1  12
ATOM     12  C   UNL     1      13.440 -30.175  23.969  1.00  0.00     0.000 C 
BRANCH  12  13
ATOM     13  C   UNL     1      13.423 -31.376  23.004  1.00  0.00    -0.000 C 
BRANCH  13  14
ATOM     14  C   UNL     1      12.936 -31.071  21.576  1.00  0.00    -0.000 C 
BRANCH  14  15
ATOM     15  C   UNL     1      13.494 -32.049  20.528  1.00  0.00    -0.000 C 
BRANCH  15  16
ATOM     16  C   UNL     1      14.451 -33.095  21.131  1.00  0.00    -0.000 C 
BRANCH  16  17
ATOM     17  C   UNL     1      15.135 -34.027  20.114  1.00  0.00    -0.000 C 
BRANCH  17  18
ATOM     18  C   UNL     1      16.086 -35.041  20.773  1.00  0.00    -0.000 C 
BRANCH  18  19
ATOM     19  C   UNL     1      16.723 -35.998  19.753  1.00  0.00    -0.003 C 
ATOM     20  C   UNL     1      17.540 -37.110  20.411  1.00  0.00     0.004 C 
ENDBRANCH  18  19
ENDBRANCH  17  18
ENDBRANCH  16  17
ENDBRANCH  15  16
ENDBRANCH  14  15
ENDBRANCH  13  14
ENDBRANCH  12  13
ENDBRANCH   1  12
TORSDOF 16
ENDMDL
MODEL 2
REMARK VINA RESULT:    -4.779      1.182      4.907
REMARK INTER + INTRA:         -11.356
REMARK INTER:                  -9.073
REMARK INTRA:                  -2.283
REMARK UNBOUND:                -2.107
REMARK SMILES CCCCCCCCCCCCCCCCCC(=O)[O-]
REMARK SMILES IDX 10 1 11 2 12 3 13 4 14 5 15 6 16 7 17 8 18 9 19 10 20 11
REMARK SMILES IDX 9 12 8 13 7 14 6 15 5 16 4 17 3 18 2 19 1 20
REMARK H PARENT
REMARK Flexibility Score: inf
ROOT
ATOM      1  C   UNL     1      17.663 -33.620  19.668  1.00  0.00     0.000 C 
ENDROOT
BRANCH   1   2
ATOM      2  C   UNL     1      18.664 -32.925  20.605  1.00  0.00     0.000 C 
BRANCH   2   3
ATOM      3  C   UNL     1      17.975 -32.170  21.753  1.00  0.00     0.000 C 
BRANCH   3   4
ATOM      4  C   UNL     1      17.312 -30.885  21.244  1.00  0.00     0.000 C 
BRANCH   4   5
ATOM      5  C   UNL     1      17.129 -29.872  22.383  1.00  0.00     0.000 C 
BRANCH   5   6
ATOM      6  C   UNL     1      17.778 -28.510  22.086  1.00  0.00     0.000 C 
BRANCH   6   7
ATOM      7  C   UNL     1      18.738 -28.488  20.881  1.00  0.00     0.006 C 
BRANCH   7   8
ATOM      8  C   UNL     1      20.227 -28.404  21.266  1.00  0.00     0.053 C 
BRANCH   8   9
ATOM      9  C   UNL     1      20.790 -29.729  21.688  1.00  0.00     0.041 C 
ATOM     10  O   UNL     1      21.174 -30.560  20.824  1.00  0.00    -0.550 OA
ATOM     11  O   UNL     1      20.928 -30.029  23.037  1.00  0.00    -0.550 OA
ENDBRANCH   8   9
ENDBRANCH   7   8
ENDBRANCH   6   7
ENDBRANCH   5   6
ENDBRANCH   4   5
ENDBRANCH   3   4
ENDBRANCH   2   3
ENDBRANCH   1   2
BRANCH   1  12
ATOM     12  C   UNL     1      16.736 -34.595  20.413  1.00  0.00     0.000 C 
BRANCH  12  13
ATOM     13  C   UNL     1      15.242 -34.301  20.181  1.00  0.00    -0.000 C 
BRANCH  13  14
ATOM     14  C   UNL     1      14.587 -33.355  21.204  1.00  0.00    -0.000 C 
BRANCH  14  15
ATOM     15  C   UNL     1      13.709 -32.275  20.548  1.00  0.00    -0.000 C 
BRANCH  15  16
ATOM     16  C   UNL     1      13.344 -31.130  21.511  1.00  0.00    -0.000 C 
BRANCH  16  17
ATOM     17  C   UNL     1      13.349 -31.498  23.007  1.00  0.00    -0.000 C 
BRANCH  17  18
ATOM     18  C   UNL     1      13.801 -30.337  23.909  1.00  0.00    -0.000 C 
BRANCH  18  19
ATOM     19  C   UNL     1      13.379 -28.966  23.359  1.00  0.00    -0.003 C 
ATOM     20  C   UNL     1      12.006 -28.520  23.862  1.00  0.00     0.004 C 
ENDBRANCH  18  19
ENDBRANCH  17  18
ENDBRANCH  16  17
ENDBRANCH  15  16
ENDBRANCH  14  15
ENDBRANCH  13  14
ENDBRANCH  12  13
ENDBRANCH   1  12
TORSDOF 16
ENDMDL
MODEL 3
REMARK VINA RESULT:    -4.756      1.867      4.257
REMARK INTER + INTRA:         -11.311
REMARK INTER:                  -8.636
REMARK INTRA:                  -2.675
REMARK UNBOUND:                -2.107
REMARK SMILES CCCCCCCCCCCCCCCCCC(=O)[O-]
REMARK SMILES IDX 10 1 11 2 12 3 13 4 14 5 15 6 16 7 17 8 18 9 19 10 20 11
REMARK SMILES IDX 9 12 8 13 7 14 6 15 5 16 4 17 3 18 2 19 1 20
REMARK H PARENT
REMARK Flexibility Score: inf
ROOT
ATOM      1  C   UNL     1      14.488 -33.192  20.880  1.00  0.00     0.000 C 
ENDROOT
BRANCH   1   2
ATOM      2  C   UNL     1      15.017 -34.062  19.730  1.00  0.00     0.000 C 
BRANCH   2   3
ATOM      3  C   UNL     1      15.780 -35.300  20.225  1.00  0.00     0.000 C 
BRANCH   3   4
ATOM      4  C   UNL     1      17.126 -35.441  19.504  1.00  0.00     0.000 C 
BRANCH   4   5
ATOM      5  C   UNL     1      18.279 -35.559  20.510  1.00  0.00     0.000 C 
BRANCH   5   6
ATOM      6  C   UNL     1      18.617 -34.226  21.196  1.00  0.00     0.000 C 
BRANCH   6   7
ATOM      7  C   UNL     1      18.590 -32.988  20.278  1.00  0.00     0.006 C 
BRANCH   7   8
ATOM      8  C   UNL     1      17.866 -31.771  20.885  1.00  0.00     0.053 C 
BRANCH   8   9
ATOM      9  C   UNL     1      18.817 -30.720  21.375  1.00  0.00     0.041 C 
ATOM     10  O   UNL     1      20.049 -30.814  21.131  1.00  0.00    -0.550 OA
ATOM     11  O   UNL     1      18.336 -29.613  22.063  1.00  0.00    -0.550 OA
ENDBRANCH   8   9
ENDBRANCH   7   8
ENDBRANCH   6   7
ENDBRANCH   5   6
ENDBRANCH   4   5
ENDBRANCH   3   4
ENDBRANCH   2   3
ENDBRANCH   1   2
BRANCH   1  12
ATOM     12  C   UNL     1      13.476 -32.135  20.404  1.00  0.00     0.000 C 
BRANCH  12  13
ATOM     13  C   UNL     1      13.334 -30.954  21.383  1.00  0.00    -0.000 C 
BRANCH  13  14
ATOM     14  C   UNL     1      14.656 -30.363  21.904  1.00  0.00    -0.000 C 
BRANCH  14  15
ATOM     15  C   UNL     1      14.843 -30.549  23.420  1.00  0.00    -0.000 C 
BRANCH  15  16
ATOM     16  C   UNL     1      13.729 -31.395  24.064  1.00  0.00    -0.000 C 
BRANCH  16  17
ATOM     17  C   UNL     1      14.156 -32.794  24.546  1.00  0.00    -0.000 C 
BRANCH  17  18
ATOM     18  C   UNL     1      15.677 -33.014  24.477  1.00  0.00    -0.000 C 
BRANCH  18  19
ATOM     19  C   UNL     1      16.048 -34.351  23.815  1.00  0.00    -0.003 C 
ATOM     20  C   UNL     1      17.190 -35.073  24.531  1.00  0.00     0.004 C 
ENDBRANCH  18  19
ENDBRANCH  17  18
ENDBRANCH  16  17
ENDBRANCH  15  16
ENDBRANCH  14  15
ENDBRANCH  13  14
ENDBRANCH  12  13
ENDBRANCH   1  12
TORSDOF 16
ENDMDL
MODEL 4
REMARK VINA RESULT:    -4.734      2.711      5.478
REMARK INTER + INTRA:         -11.269
REMARK INTER:                  -8.617
REMARK INTRA:                  -2.652
REMARK UNBOUND:                -2.107
REMARK SMILES CCCCCCCCCCCCCCCCCC(=O)[O-]
REMARK SMILES IDX 10 1 11 2 12 3 13 4 14 5 15 6 16 7 17 8 18 9 19 10 20 11
REMARK SMILES IDX 9 12 8 13 7 14 6 15 5 16 4 17 3 18 2 19 1 20
REMARK H PARENT
REMARK Flexibility Score: inf
ROOT
ATOM      1  C   UNL     1      14.944 -33.569  21.227  1.00  0.00     0.000 C 
ENDROOT
BRANCH   1   2
ATOM      2  C   UNL     1      15.118 -34.774  20.290  1.00  0.00     0.000 C 
BRANCH   2   3
ATOM      3  C   UNL     1      16.515 -34.832  19.651  1.00  0.00     0.000 C 
BRANCH   3   4
ATOM      4  C   UNL     1      16.950 -36.283  19.415  1.00  0.00     0.000 C 
BRANCH   4   5
ATOM      5  C   UNL     1      17.626 -36.865  20.664  1.00  0.00     0.000 C 
BRANCH   5   6
ATOM      6  C   UNL     1      18.479 -35.834  21.421  1.00  0.00     0.000 C 
BRANCH   6   7
ATOM      7  C   UNL     1      18.312 -35.841  22.953  1.00  0.00     0.006 C 
BRANCH   7   8
ATOM      8  C   UNL     1      17.723 -34.537  23.525  1.00  0.00     0.053 C 
BRANCH   8   9
ATOM      9  C   UNL     1      16.763 -34.784  24.651  1.00  0.00     0.041 C 
ATOM     10  O   UNL     1      16.947 -35.745  25.444  1.00  0.00    -0.550 OA
ATOM     11  O   UNL     1      15.689 -33.926  24.851  1.00  0.00    -0.550 OA
ENDBRANCH   8   9
ENDBRANCH   7   8
ENDBRANCH   6   7
ENDBRANCH   5   6
ENDBRANCH   4   5
ENDBRANCH   3   4
ENDBRANCH   2   3
ENDBRANCH   1   2
BRANCH   1  12
ATOM     12  C   UNL     1      13.938 -32.539  20.684  1.00  0.00     0.000 C 
BRANCH  12  13
ATOM     13  C   UNL     1      13.936 -31.222  21.484  1.00  0.00    -0.000 C 
BRANCH  13  14
ATOM     14  C   UNL     1      14.244 -31.360  22.986  1.00  0.00    -0.000 C 
BRANCH  14  15
ATOM     15  C   UNL     1      15.285 -30.342  23.481  1.00  0.00    -0.000 C 
BRANCH  15  16
ATOM     16  C   UNL     1      16.717 -30.910  23.507  1.00  0.00    -0.000 C 
BRANCH  16  17
ATOM     17  C   UNL     1      17.705 -30.256  22.524  1.00  0.00    -0.000 C 
BRANCH  17  18
ATOM     18  C   UNL     1      17.587 -30.812  21.094  1.00  0.00    -0.000 C 
BRANCH  18  19
ATOM     19  C   UNL     1      18.417 -32.089  20.890  1.00  0.00    -0.003 C 
ATOM     20  C   UNL     1      19.892 -31.902  21.247  1.00  0.00     0.004 C 
ENDBRANCH  18  19
ENDBRANCH  17  18
ENDBRANCH  16  17
ENDBRANCH  15  16
ENDBRANCH  14  15
ENDBRANCH  13  14
ENDBRANCH  12  13
ENDBRANCH   1  12
TORSDOF 16
ENDMDL
MODEL 5
REMARK VINA RESULT:    -4.720      3.549      6.099
REMARK INTER + INTRA:         -11.242
REMARK INTER:                  -8.600
REMARK INTRA:                  -2.642
REMARK UNBOUND:                -2.107
REMARK SMILES CCCCCCCCCCCCCCCCCC(=O)[O-]
REMARK SMILES IDX 10 1 11 2 12 3 13 4 14 5 15 6 16 7 17 8 18 9 19 10 20 11
REMARK SMILES IDX 9 12 8 13 7 14 6 15 5 16 4 17 3 18 2 19 1 20
REMARK H PARENT
REMARK Flexibility Score: inf
ROOT
ATOM      1  C   UNL     1      17.716 -33.664  20.002  1.00  0.00     0.000 C 
ENDROOT
BRANCH   1   2
ATOM      2  C   UNL     1      16.799 -34.518  20.891  1.00  0.00     0.000 C 
BRANCH   2   3
ATOM      3  C   UNL     1      15.315 -34.382  20.515  1.00  0.00     0.000 C 
BRANCH   3   4
ATOM      4  C   UNL     1      14.617 -33.346  21.404  1.00  0.00     0.000 C 
BRANCH   4   5
ATOM      5  C   UNL     1      13.828 -32.337  20.557  1.00  0.00     0.000 C 
BRANCH   5   6
ATOM      6  C   UNL     1      13.613 -30.991  21.269  1.00  0.00     0.000 C 
BRANCH   6   7
ATOM      7  C   UNL     1      12.829 -31.066  22.593  1.00  0.00     0.006 C 
BRANCH   7   8
ATOM      8  C   UNL     1      13.393 -30.167  23.709  1.00  0.00     0.053 C 
BRANCH   8   9
ATOM      9  C   UNL     1      12.665 -28.861  23.821  1.00  0.00     0.041 C 
ATOM     10  O   UNL     1      11.454 -28.778  23.486  1.00  0.00    -0.550 OA
ATOM     11  O   UNL     1      13.312 -27.745  24.335  1.00  0.00    -0.550 OA
ENDBRANCH   8   9
ENDBRANCH   7   8
ENDBRANCH   6   7
ENDBRANCH   5   6
ENDBRANCH   4   5
ENDBRANCH   3   4
ENDBRANCH   2   3
ENDBRANCH   1   2
BRANCH   1  12
ATOM     12  C   UNL     1      18.577 -32.681  20.816  1.00  0.00     0.000 C 
BRANCH  12  13
ATOM     13  C   UNL     1      17.993 -31.256  20.851  1.00  0.00    -0.000 C 
BRANCH  13  14
ATOM     14  C   UNL     1      17.205 -30.896  22.123  1.00  0.00    -0.000 C 
BRANCH  14  15
ATOM     15  C   UNL     1      17.675 -31.676  23.363  1.00  0.00    -0.000 C 
BRANCH  15  16
ATOM     16  C   UNL     1      16.514 -32.112  24.276  1.00  0.00    -0.000 C 
BRANCH  16  17
ATOM     17  C   UNL     1      16.314 -33.633  24.409  1.00  0.00    -0.000 C 
BRANCH  17  18
ATOM     18  C   UNL     1      16.905 -34.205  25.709  1.00  0.00    -0.000 C 
BRANCH  18  19
ATOM     19  C   UNL     1      17.891 -35.355  25.450  1.00  0.00    -0.003 C 
ATOM     20  C   UNL     1      18.499 -35.312  24.048  1.00  0.00     0.004 C 
ENDBRANCH  18  19
ENDBRANCH  17  18
ENDBRANCH  16  17
ENDBRANCH  15  16
ENDBRANCH  14  15
ENDBRANCH  13  14
ENDBRANCH  12  13
ENDBRANCH   1  12
TORSDOF 16
ENDMDL
MODEL 6
REMARK VINA RESULT:    -4.714      1.749      5.437
REMARK INTER + INTRA:         -11.231
REMARK INTER:                  -8.863
REMARK INTRA:                  -2.368
REMARK UNBOUND:                -2.107
REMARK SMILES CCCCCCCCCCCCCCCCCC(=O)[O-]
REMARK SMILES IDX 10 1 11 2 12 3 13 4 14 5 15 6 16 7 17 8 18 9 19 10 20 11
REMARK SMILES IDX 9 12 8 13 7 14 6 15 5 16 4 17 3 18 2 19 1 20
REMARK H PARENT
REMARK Flexibility Score: inf
ROOT
ATOM      1  C   UNL     1      16.469 -34.443  19.368  1.00  0.00     0.000 C 
ENDROOT
BRANCH   1   2
ATOM      2  C   UNL     1      17.643 -35.431  19.452  1.00  0.00     0.000 C 
BRANCH   2   3
ATOM      3  C   UNL     1      17.851 -35.986  20.871  1.00  0.00     0.000 C 
BRANCH   3   4
ATOM      4  C   UNL     1      19.100 -35.377  21.520  1.00  0.00     0.000 C 
BRANCH   4   5
ATOM      5  C   UNL     1      18.733 -34.162  22.384  1.00  0.00     0.000 C 
BRANCH   5   6
ATOM      6  C   UNL     1      19.773 -33.032  22.303  1.00  0.00     0.000 C 
BRANCH   6   7
ATOM      7  C   UNL     1      19.564 -32.028  21.153  1.00  0.00     0.006 C 
BRANCH   7   8
ATOM      8  C   UNL     1      18.099 -31.595  20.956  1.00  0.00     0.053 C 
BRANCH   8   9
ATOM      9  C   UNL     1      17.862 -30.166  21.344  1.00  0.00     0.041 C 
ATOM     10  O   UNL     1      18.632 -29.259  20.931  1.00  0.00    -0.550 OA
ATOM     11  O   UNL     1      16.765 -29.830  22.128  1.00  0.00    -0.550 OA
ENDBRANCH   8   9
ENDBRANCH   7   8
ENDBRANCH   6   7
ENDBRANCH   5   6
ENDBRANCH   4   5
ENDBRANCH   3   4
ENDBRANCH   2   3
ENDBRANCH   1   2
BRANCH   1  12
ATOM     12  C   UNL     1      15.349 -34.772  20.370  1.00  0.00     0.000 C 
BRANCH  12  13
ATOM     13  C   UNL     1      15.020 -33.597  21.312  1.00  0.00    -0.000 C 
BRANCH  13  14
ATOM     14  C   UNL     1      15.239 -33.871  22.811  1.00  0.00    -0.000 C 
BRANCH  14  15
ATOM     15  C   UNL     1      15.249 -32.588  23.661  1.00  0.00    -0.000 C 
BRANCH  15  16
ATOM     16  C   UNL     1      13.835 -32.092  24.018  1.00  0.00    -0.000 C 
BRANCH  16  17
ATOM     17  C   UNL     1      13.643 -30.565  23.983  1.00  0.00    -0.000 C 
BRANCH  17  18
ATOM     18  C   UNL     1      13.356 -30.027  22.571  1.00  0.00    -0.000 C 
BRANCH  18  19
ATOM     19  C   UNL     1      12.426 -30.950  21.768  1.00  0.00    -0.003 C 
ATOM     20  C   UNL     1      10.978 -30.461  21.746  1.00  0.00     0.004 C 
ENDBRANCH  18  19
ENDBRANCH  17  18
ENDBRANCH  16  17
ENDBRANCH  15  16
ENDBRANCH  14  15
ENDBRANCH  13  14
ENDBRANCH  12  13
ENDBRANCH   1  12
TORSDOF 16
ENDMDL
MODEL 7
REMARK VINA RESULT:    -4.683      3.496      5.724
REMARK INTER + INTRA:         -11.171
REMARK INTER:                  -8.316
REMARK INTRA:                  -2.854
REMARK UNBOUND:                -2.107
REMARK SMILES CCCCCCCCCCCCCCCCCC(=O)[O-]
REMARK SMILES IDX 10 1 11 2 12 3 13 4 14 5 15 6 16 7 17 8 18 9 19 10 20 11
REMARK SMILES IDX 9 12 8 13 7 14 6 15 5 16 4 17 3 18 2 19 1 20
REMARK H PARENT
REMARK Flexibility Score: inf
ROOT
ATOM      1  C   UNL     1      19.023 -32.534  20.985  1.00  0.00     0.000 C 
ENDROOT
BRANCH   1   2
ATOM      2  C   UNL     1      17.834 -31.597  20.720  1.00  0.00     0.000 C 
BRANCH   2   3
ATOM      3  C   UNL     1      18.086 -30.165  21.219  1.00  0.00     0.000 C 
BRANCH   3   4
ATOM      4  C   UNL     1      17.763 -30.039  22.713  1.00  0.00     0.000 C 
BRANCH   4   5
ATOM      5  C   UNL     1      16.583 -29.085  22.942  1.00  0.00     0.000 C 
BRANCH   5   6
ATOM      6  C   UNL     1      15.301 -29.530  22.219  1.00  0.00     0.000 C 
BRANCH   6   7
ATOM      7  C   UNL     1      13.999 -29.366  23.029  1.00  0.00     0.006 C 
BRANCH   7   8
ATOM      8  C   UNL     1      12.950 -30.461  22.760  1.00  0.00     0.053 C 
BRANCH   8   9
ATOM      9  C   UNL     1      11.623 -29.900  22.347  1.00  0.00     0.041 C 
ATOM     10  O   UNL     1      10.906 -30.511  21.510  1.00  0.00    -0.550 OA
ATOM     11  O   UNL     1      11.157 -28.722  22.918  1.00  0.00    -0.550 OA
ENDBRANCH   8   9
ENDBRANCH   7   8
ENDBRANCH   6   7
ENDBRANCH   5   6
ENDBRANCH   4   5
ENDBRANCH   3   4
ENDBRANCH   2   3
ENDBRANCH   1   2
BRANCH   1  12
ATOM     12  C   UNL     1      18.669 -34.014  20.760  1.00  0.00     0.000 C 
BRANCH  12  13
ATOM     13  C   UNL     1      17.631 -34.221  19.640  1.00  0.00    -0.000 C 
BRANCH  13  14
ATOM     14  C   UNL     1      16.313 -34.888  20.076  1.00  0.00    -0.000 C 
BRANCH  14  15
ATOM     15  C   UNL     1      15.089 -33.973  19.895  1.00  0.00    -0.000 C 
BRANCH  15  16
ATOM     16  C   UNL     1      14.619 -33.330  21.214  1.00  0.00    -0.000 C 
BRANCH  16  17
ATOM     17  C   UNL     1      15.190 -33.962  22.497  1.00  0.00    -0.000 C 
BRANCH  17  18
ATOM     18  C   UNL     1      15.770 -32.923  23.472  1.00  0.00    -0.000 C 
BRANCH  18  19
ATOM     19  C   UNL     1      16.972 -33.466  24.261  1.00  0.00    -0.003 C 
ATOM     20  C   UNL     1      17.212 -34.957  24.028  1.00  0.00     0.004 C 
ENDBRANCH  18  19
ENDBRANCH  17  18
ENDBRANCH  16  17
ENDBRANCH  15  16
ENDBRANCH  14  15
ENDBRANCH  13  14
ENDBRANCH  12  13
ENDBRANCH   1  12
TORSDOF 16
ENDMDL
MODEL 8
REMARK VINA RESULT:    -4.625      3.227      6.026
REMARK INTER + INTRA:         -11.058
REMARK INTER:                  -7.977
REMARK INTRA:                  -3.081
REMARK UNBOUND:                -2.107
REMARK SMILES CCCCCCCCCCCCCCCCCC(=O)[O-]
REMARK SMILES IDX 10 1 11 2 12 3 13 4 14 5 15 6 16 7 17 8 18 9 19 10 20 11
REMARK SMILES IDX 9 12 8 13 7 14 6 15 5 16 4 17 3 18 2 19 1 20
REMARK H PARENT
REMARK Flexibility Score: inf
ROOT
ATOM      1  C   UNL     1      16.366 -32.617  24.258  1.00  0.00     0.000 C 
ENDROOT
BRANCH   1   2
ATOM      2  C   UNL     1      16.901 -33.711  23.322  1.00  0.00     0.000 C 
BRANCH   2   3
ATOM      3  C   UNL     1      16.032 -33.896  22.068  1.00  0.00     0.000 C 
BRANCH   3   4
ATOM      4  C   UNL     1      14.659 -33.239  22.249  1.00  0.00     0.000 C 
BRANCH   4   5
ATOM      5  C   UNL     1      14.310 -32.352  21.046  1.00  0.00     0.000 C 
BRANCH   5   6
ATOM      6  C   UNL     1      13.725 -30.989  21.452  1.00  0.00     0.000 C 
BRANCH   6   7
ATOM      7  C   UNL     1      12.799 -31.013  22.684  1.00  0.00     0.006 C 
BRANCH   7   8
ATOM      8  C   UNL     1      13.279 -30.125  23.848  1.00  0.00     0.053 C 
BRANCH   8   9
ATOM      9  C   UNL     1      12.637 -28.770  23.842  1.00  0.00     0.041 C 
ATOM     10  O   UNL     1      11.440 -28.635  23.474  1.00  0.00    -0.550 OA
ATOM     11  O   UNL     1      13.347 -27.662  24.285  1.00  0.00    -0.550 OA
ENDBRANCH   8   9
ENDBRANCH   7   8
ENDBRANCH   6   7
ENDBRANCH   5   6
ENDBRANCH   4   5
ENDBRANCH   3   4
ENDBRANCH   2   3
ENDBRANCH   1   2
BRANCH   1  12
ATOM     12  C   UNL     1      17.273 -31.375  24.292  1.00  0.00     0.000 C 
BRANCH  12  13
ATOM     13  C   UNL     1      16.918 -30.340  23.207  1.00  0.00    -0.000 C 
BRANCH  13  14
ATOM     14  C   UNL     1      18.042 -30.019  22.205  1.00  0.00    -0.000 C 
BRANCH  14  15
ATOM     15  C   UNL     1      17.951 -30.850  20.913  1.00  0.00    -0.000 C 
BRANCH  15  16
ATOM     16  C   UNL     1      18.983 -31.991  20.858  1.00  0.00    -0.000 C 
BRANCH  16  17
ATOM     17  C   UNL     1      20.421 -31.601  21.247  1.00  0.00    -0.000 C 
BRANCH  17  18
ATOM     18  C   UNL     1      21.042 -32.551  22.286  1.00  0.00    -0.000 C 
BRANCH  18  19
ATOM     19  C   UNL     1      20.802 -32.081  23.730  1.00  0.00    -0.003 C 
ATOM     20  C   UNL     1      20.502 -33.234  24.688  1.00  0.00     0.004 C 
ENDBRANCH  18  19
ENDBRANCH  17  18
ENDBRANCH  16  17
ENDBRANCH  15  16
ENDBRANCH  14  15
ENDBRANCH  13  14
ENDBRANCH  12  13
ENDBRANCH   1  12
TORSDOF 16
ENDMDL
MODEL 9
REMARK VINA RESULT:    -4.617      3.302      5.385
REMARK INTER + INTRA:         -11.042
REMARK INTER:                  -8.198
REMARK INTRA:                  -2.845
REMARK UNBOUND:                -2.107
REMARK SMILES CCCCCCCCCCCCCCCCCC(=O)[O-]
REMARK SMILES IDX 10 1 11 2 12 3 13 4 14 5 15 6 16 7 17 8 18 9 19 10 20 11
REMARK SMILES IDX 9 12 8 13 7 14 6 15 5 16 4 17 3 18 2 19 1 20
REMARK H PARENT
REMARK Flexibility Score: inf
ROOT
ATOM      1  C   UNL     1      17.163 -33.284  20.172  1.00  0.00     0.000 C 
ENDROOT
BRANCH   1   2
ATOM      2  C   UNL     1      18.206 -32.377  20.842  1.00  0.00     0.000 C 
BRANCH   2   3
ATOM      3  C   UNL     1      17.629 -31.012  21.253  1.00  0.00     0.000 C 
BRANCH   3   4
ATOM      4  C   UNL     1      17.892 -30.730  22.737  1.00  0.00     0.000 C 
BRANCH   4   5
ATOM      5  C   UNL     1      16.584 -30.418  23.477  1.00  0.00     0.000 C 
BRANCH   5   6
ATOM      6  C   UNL     1      15.524 -29.765  22.575  1.00  0.00     0.000 C 
BRANCH   6   7
ATOM      7  C   UNL     1      14.140 -30.444  22.589  1.00  0.00     0.006 C 
BRANCH   7   8
ATOM      8  C   UNL     1      13.308 -30.146  23.851  1.00  0.00     0.053 C 
BRANCH   8   9
ATOM      9  C   UNL     1      12.611 -28.820  23.783  1.00  0.00     0.041 C 
ATOM     10  O   UNL     1      11.467 -28.729  23.263  1.00  0.00    -0.550 OA
ATOM     11  O   UNL     1      13.206 -27.692  24.332  1.00  0.00    -0.550 OA
ENDBRANCH   8   9
ENDBRANCH   7   8
ENDBRANCH   6   7
ENDBRANCH   5   6
ENDBRANCH   4   5
ENDBRANCH   3   4
ENDBRANCH   2   3
ENDBRANCH   1   2
BRANCH   1  12
ATOM     12  C   UNL     1      15.802 -33.247  20.889  1.00  0.00     0.000 C 
BRANCH  12  13
ATOM     13  C   UNL     1      15.637 -34.374  21.926  1.00  0.00    -0.000 C 
BRANCH  13  14
ATOM     14  C   UNL     1      15.895 -33.969  23.389  1.00  0.00    -0.000 C 
BRANCH  14  15
ATOM     15  C   UNL     1      17.345 -34.222  23.836  1.00  0.00    -0.000 C 
BRANCH  15  16
ATOM     16  C   UNL     1      17.652 -35.714  24.065  1.00  0.00    -0.000 C 
BRANCH  16  17
ATOM     17  C   UNL     1      18.905 -36.249  23.346  1.00  0.00    -0.000 C 
BRANCH  17  18
ATOM     18  C   UNL     1      18.830 -36.100  21.817  1.00  0.00    -0.000 C 
BRANCH  18  19
ATOM     19  C   UNL     1      17.981 -37.201  21.161  1.00  0.00    -0.003 C 
ATOM     20  C   UNL     1      17.665 -36.912  19.693  1.00  0.00     0.004 C 
ENDBRANCH  18  19
ENDBRANCH  17  18
ENDBRANCH  16  17
ENDBRANCH  15  16
ENDBRANCH  14  15
ENDBRANCH  13  14
ENDBRANCH  12  13
ENDBRANCH   1  12
TORSDOF 16
ENDMDL
