MODEL 1
REMARK VINA RESULT:    -4.779      0.000      0.000
REMARK INTER + INTRA:         -11.206
REMARK INTER:                  -8.690
REMARK INTRA:                  -2.516
REMARK UNBOUND:                -2.516
REMARK SMILES CCCCCCCCCCCCCC[C@H](C)C(=O)[O-]
REMARK SMILES IDX 9 1 10 2 11 3 12 4 13 5 14 6 15 7 16 8 17 9 18 10 19 11 8 12
REMARK SMILES IDX 7 13 6 14 5 15 4 16 3 17 2 18 1 19
REMARK H PARENT
REMARK Flexibility Score: inf
ROOT
ATOM      1  C   UNL     1      60.708  27.138  25.853  1.00  0.00     0.000 C 
ENDROOT
BRANCH   1   2
ATOM      2  C   UNL     1      61.076  28.253  24.861  1.00  0.00     0.000 C 
BRANCH   2   3
ATOM      3  C   UNL     1      62.085  29.256  25.442  1.00  0.00     0.000 C 
BRANCH   3   4
ATOM      4  C   UNL     1      63.334  29.417  24.559  1.00  0.00     0.000 C 
BRANCH   4   5
ATOM      5  C   UNL     1      64.635  29.033  25.287  1.00  0.00     0.001 C 
BRANCH   5   6
ATOM      6  C   UNL     1      65.108  27.579  25.076  1.00  0.00     0.009 C 
BRANCH   6   7
ATOM      7  C   UNL     1      64.636  26.921  23.759  1.00  0.00     0.032 C 
ATOM      8  C   UNL     1      63.836  25.634  24.005  1.00  0.00     0.014 C 
BRANCH   7   9
ATOM      9  C   UNL     1      65.828  26.615  22.894  1.00  0.00     0.044 C 
ATOM     10  O   UNL     1      66.555  27.551  22.466  1.00  0.00    -0.550 OA
ATOM     11  O   UNL     1      66.138  25.301  22.563  1.00  0.00    -0.550 OA
ENDBRANCH   7   9
ENDBRANCH   6   7
ENDBRANCH   5   6
ENDBRANCH   4   5
ENDBRANCH   3   4
ENDBRANCH   2   3
ENDBRANCH   1   2
BRANCH   1  12
ATOM     12  C   UNL     1      61.871  26.848  26.809  1.00  0.00     0.000 C 
BRANCH  12  13
ATOM     13  C   UNL     1      61.416  26.941  28.273  1.00  0.00    -0.000 C 
BRANCH  13  14
ATOM     14  C   UNL     1      62.208  27.989  29.070  1.00  0.00    -0.000 C 
BRANCH  14  15
ATOM     15  C   UNL     1      61.520  29.366  29.085  1.00  0.00    -0.000 C 
BRANCH  15  16
ATOM     16  C   UNL     1      62.518  30.519  28.855  1.00  0.00    -0.000 C 
BRANCH  16  17
ATOM     17  C   UNL     1      63.994  30.097  28.989  1.00  0.00    -0.000 C 
BRANCH  17  18
ATOM     18  C   UNL     1      65.004  31.100  28.411  1.00  0.00    -0.003 C 
ATOM     19  C   UNL     1      66.376  30.478  28.150  1.00  0.00     0.004 C 
ENDBRANCH  17  18
ENDBRANCH  16  17
ENDBRANCH  15  16
ENDBRANCH  14  15
ENDBRANCH  13  14
ENDBRANCH  12  13
ENDBRANCH   1  12
TORSDOF 14
ENDMDL
MODEL 2
REMARK VINA RESULT:    -4.601      1.552      2.642
REMARK INTER + INTRA:         -10.882
REMARK INTER:                  -8.688
REMARK INTRA:                  -2.193
REMARK UNBOUND:                -2.516
REMARK SMILES CCCCCCCCCCCCCC[C@H](C)C(=O)[O-]
REMARK SMILES IDX 9 1 10 2 11 3 12 4 13 5 14 6 15 7 16 8 17 9 18 10 19 11 8 12
REMARK SMILES IDX 7 13 6 14 5 15 4 16 3 17 2 18 1 19
REMARK H PARENT
REMARK Flexibility Score: inf
ROOT
ATOM      1  C   UNL     1      60.615  27.181  26.001  1.00  0.00     0.000 C 
ENDROOT
BRANCH   1   2
ATOM      2  C   UNL     1      61.781  27.268  25.003  1.00  0.00     0.000 C 
BRANCH   2   3
ATOM      3  C   UNL     1      63.000  26.440  25.440  1.00  0.00     0.000 C 
BRANCH   3   4
ATOM      4  C   UNL     1      63.644  25.674  24.271  1.00  0.00     0.000 C 
BRANCH   4   5
ATOM      5  C   UNL     1      65.164  25.891  24.179  1.00  0.00     0.001 C 
BRANCH   5   6
ATOM      6  C   UNL     1      65.758  25.821  22.756  1.00  0.00     0.009 C 
BRANCH   6   7
ATOM      7  C   UNL     1      66.366  27.143  22.233  1.00  0.00     0.032 C 
ATOM      8  C   UNL     1      65.432  28.341  22.451  1.00  0.00     0.014 C 
BRANCH   7   9
ATOM      9  C   UNL     1      66.678  27.008  20.768  1.00  0.00     0.044 C 
ATOM     10  O   UNL     1      66.837  25.867  20.258  1.00  0.00    -0.550 OA
ATOM     11  O   UNL     1      66.792  28.138  19.967  1.00  0.00    -0.550 OA
ENDBRANCH   7   9
ENDBRANCH   6   7
ENDBRANCH   5   6
ENDBRANCH   4   5
ENDBRANCH   3   4
ENDBRANCH   2   3
ENDBRANCH   1   2
BRANCH   1  12
ATOM     12  C   UNL     1      61.129  27.181  27.446  1.00  0.00     0.000 C 
BRANCH  12  13
ATOM     13  C   UNL     1      61.300  28.615  27.970  1.00  0.00    -0.000 C 
BRANCH  13  14
ATOM     14  C   UNL     1      62.564  28.782  28.827  1.00  0.00    -0.000 C 
BRANCH  14  15
ATOM     15  C   UNL     1      63.590  29.734  28.189  1.00  0.00    -0.000 C 
BRANCH  15  16
ATOM     16  C   UNL     1      63.176  30.169  26.768  1.00  0.00    -0.000 C 
BRANCH  16  17
ATOM     17  C   UNL     1      64.291  29.996  25.718  1.00  0.00    -0.000 C 
BRANCH  17  18
ATOM     18  C   UNL     1      65.435  29.063  26.146  1.00  0.00    -0.003 C 
ATOM     19  C   UNL     1      66.814  29.608  25.774  1.00  0.00     0.004 C 
ENDBRANCH  17  18
ENDBRANCH  16  17
ENDBRANCH  15  16
ENDBRANCH  14  15
ENDBRANCH  13  14
ENDBRANCH  12  13
ENDBRANCH   1  12
TORSDOF 14
ENDMDL
MODEL 3
REMARK VINA RESULT:    -4.569     11.636     14.687
REMARK INTER + INTRA:         -10.825
REMARK INTER:                  -8.759
REMARK INTRA:                  -2.066
REMARK UNBOUND:                -2.516
REMARK SMILES CCCCCCCCCCCCCC[C@H](C)C(=O)[O-]
REMARK SMILES IDX 9 1 10 2 11 3 12 4 13 5 14 6 15 7 16 8 17 9 18 10 19 11 8 12
REMARK SMILES IDX 7 13 6 14 5 15 4 16 3 17 2 18 1 19
REMARK H PARENT
REMARK Flexibility Score: inf
ROOT
ATOM      1  C   UNL     1      62.629  30.387  13.248  1.00  0.00     0.000 C 
ENDROOT
BRANCH   1   2
ATOM      2  C   UNL     1      62.234  31.712  12.579  1.00  0.00     0.000 C 
BRANCH   2   3
ATOM      3  C   UNL     1      60.722  31.980  12.638  1.00  0.00     0.000 C 
BRANCH   3   4
ATOM      4  C   UNL     1      60.351  33.055  13.674  1.00  0.00     0.000 C 
BRANCH   4   5
ATOM      5  C   UNL     1      60.505  32.566  15.125  1.00  0.00     0.001 C 
BRANCH   5   6
ATOM      6  C   UNL     1      60.950  33.639  16.142  1.00  0.00     0.009 C 
BRANCH   6   7
ATOM      7  C   UNL     1      62.470  33.915  16.181  1.00  0.00     0.032 C 
ATOM      8  C   UNL     1      63.300  32.638  15.990  1.00  0.00     0.014 C 
BRANCH   7   9
ATOM      9  C   UNL     1      62.830  34.558  17.491  1.00  0.00     0.044 C 
ATOM     10  O   UNL     1      62.188  34.270  18.536  1.00  0.00    -0.550 OA
ATOM     11  O   UNL     1      63.875  35.473  17.561  1.00  0.00    -0.550 OA
ENDBRANCH   7   9
ENDBRANCH   6   7
ENDBRANCH   5   6
ENDBRANCH   4   5
ENDBRANCH   3   4
ENDBRANCH   2   3
ENDBRANCH   1   2
BRANCH   1  12
ATOM     12  C   UNL     1      63.405  29.491  12.276  1.00  0.00     0.000 C 
BRANCH  12  13
ATOM     13  C   UNL     1      63.421  30.094  10.863  1.00  0.00    -0.000 C 
BRANCH  13  14
ATOM     14  C   UNL     1      63.385  29.021   9.764  1.00  0.00    -0.000 C 
BRANCH  14  15
ATOM     15  C   UNL     1      62.101  29.083   8.918  1.00  0.00    -0.000 C 
BRANCH  15  16
ATOM     16  C   UNL     1      60.873  29.503   9.754  1.00  0.00    -0.000 C 
BRANCH  16  17
ATOM     17  C   UNL     1      60.160  28.324  10.443  1.00  0.00    -0.000 C 
BRANCH  17  18
ATOM     18  C   UNL     1      59.485  28.675  11.778  1.00  0.00    -0.003 C 
ATOM     19  C   UNL     1      60.020  27.849  12.948  1.00  0.00     0.004 C 
ENDBRANCH  17  18
ENDBRANCH  16  17
ENDBRANCH  15  16
ENDBRANCH  14  15
ENDBRANCH  13  14
ENDBRANCH  12  13
ENDBRANCH   1  12
TORSDOF 14
ENDMDL
MODEL 4
REMARK VINA RESULT:    -4.553     11.430     14.236
REMARK INTER + INTRA:         -10.795
REMARK INTER:                  -8.663
REMARK INTRA:                  -2.132
REMARK UNBOUND:                -2.516
REMARK SMILES CCCCCCCCCCCCCC[C@H](C)C(=O)[O-]
REMARK SMILES IDX 9 1 10 2 11 3 12 4 13 5 14 6 15 7 16 8 17 9 18 10 19 11 8 12
REMARK SMILES IDX 7 13 6 14 5 15 4 16 3 17 2 18 1 19
REMARK H PARENT
REMARK Flexibility Score: inf
ROOT
ATOM      1  C   UNL     1      60.720  31.017  13.857  1.00  0.00     0.000 C 
ENDROOT
BRANCH   1   2
ATOM      2  C   UNL     1      61.558  31.368  12.618  1.00  0.00     0.000 C 
BRANCH   2   3
ATOM      3  C   UNL     1      62.555  32.509  12.879  1.00  0.00     0.000 C 
BRANCH   3   4
ATOM      4  C   UNL     1      63.854  32.018  13.540  1.00  0.00     0.000 C 
BRANCH   4   5
ATOM      5  C   UNL     1      63.924  32.350  15.041  1.00  0.00     0.001 C 
BRANCH   5   6
ATOM      6  C   UNL     1      63.264  33.682  15.456  1.00  0.00     0.009 C 
BRANCH   6   7
ATOM      7  C   UNL     1      62.100  33.552  16.464  1.00  0.00     0.032 C 
ATOM      8  C   UNL     1      60.752  33.959  15.855  1.00  0.00     0.014 C 
BRANCH   7   9
ATOM      9  C   UNL     1      62.383  34.401  17.673  1.00  0.00     0.044 C 
ATOM     10  O   UNL     1      61.573  34.420  18.637  1.00  0.00    -0.550 OA
ATOM     11  O   UNL     1      63.540  35.168  17.737  1.00  0.00    -0.550 OA
ENDBRANCH   7   9
ENDBRANCH   6   7
ENDBRANCH   5   6
ENDBRANCH   4   5
ENDBRANCH   3   4
ENDBRANCH   2   3
ENDBRANCH   1   2
BRANCH   1  12
ATOM     12  C   UNL     1      61.145  29.664  14.442  1.00  0.00     0.000 C 
BRANCH  12  13
ATOM     13  C   UNL     1      61.326  28.617  13.332  1.00  0.00    -0.000 C 
BRANCH  13  14
ATOM     14  C   UNL     1      59.995  27.985  12.897  1.00  0.00    -0.000 C 
BRANCH  14  15
ATOM     15  C   UNL     1      59.524  28.486  11.520  1.00  0.00    -0.000 C 
BRANCH  15  16
ATOM     16  C   UNL     1      60.559  28.199  10.411  1.00  0.00    -0.000 C 
BRANCH  16  17
ATOM     17  C   UNL     1      60.938  29.442   9.583  1.00  0.00    -0.000 C 
BRANCH  17  18
ATOM     18  C   UNL     1      62.375  29.435   9.038  1.00  0.00    -0.003 C 
ATOM     19  C   UNL     1      63.426  29.287  10.138  1.00  0.00     0.004 C 
ENDBRANCH  17  18
ENDBRANCH  16  17
ENDBRANCH  15  16
ENDBRANCH  14  15
ENDBRANCH  13  14
ENDBRANCH  12  13
ENDBRANCH   1  12
TORSDOF 14
ENDMDL
MODEL 5
REMARK VINA RESULT:    -4.532     11.461     14.190
REMARK INTER + INTRA:         -10.757
REMARK INTER:                  -8.472
REMARK INTRA:                  -2.285
REMARK UNBOUND:                -2.516
REMARK SMILES CCCCCCCCCCCCCC[C@H](C)C(=O)[O-]
REMARK SMILES IDX 9 1 10 2 11 3 12 4 13 5 14 6 15 7 16 8 17 9 18 10 19 11 8 12
REMARK SMILES IDX 7 13 6 14 5 15 4 16 3 17 2 18 1 19
REMARK H PARENT
REMARK Flexibility Score: inf
ROOT
ATOM      1  C   UNL     1      63.383  29.341  10.545  1.00  0.00     0.000 C 
ENDROOT
BRANCH   1   2
ATOM      2  C   UNL     1      63.511  30.252  11.776  1.00  0.00     0.000 C 
BRANCH   2   3
ATOM      3  C   UNL     1      63.669  31.735  11.403  1.00  0.00     0.000 C 
BRANCH   3   4
ATOM      4  C   UNL     1      64.362  32.551  12.507  1.00  0.00     0.000 C 
BRANCH   4   5
ATOM      5  C   UNL     1      63.785  32.277  13.907  1.00  0.00     0.001 C 
BRANCH   5   6
ATOM      6  C   UNL     1      63.159  33.496  14.616  1.00  0.00     0.009 C 
BRANCH   6   7
ATOM      7  C   UNL     1      62.331  33.167  15.879  1.00  0.00     0.032 C 
ATOM      8  C   UNL     1      60.929  33.790  15.837  1.00  0.00     0.014 C 
BRANCH   7   9
ATOM      9  C   UNL     1      63.062  33.653  17.100  1.00  0.00     0.044 C 
ATOM     10  O   UNL     1      64.217  33.222  17.359  1.00  0.00    -0.550 OA
ATOM     11  O   UNL     1      62.471  34.581  17.950  1.00  0.00    -0.550 OA
ENDBRANCH   7   9
ENDBRANCH   6   7
ENDBRANCH   5   6
ENDBRANCH   4   5
ENDBRANCH   3   4
ENDBRANCH   2   3
ENDBRANCH   1   2
BRANCH   1  12
ATOM     12  C   UNL     1      61.958  29.378   9.980  1.00  0.00     0.000 C 
BRANCH  12  13
ATOM     13  C   UNL     1      61.086  28.283  10.613  1.00  0.00    -0.000 C 
BRANCH  13  14
ATOM     14  C   UNL     1      59.702  28.803  11.033  1.00  0.00    -0.000 C 
BRANCH  14  15
ATOM     15  C   UNL     1      59.367  28.475  12.499  1.00  0.00    -0.000 C 
BRANCH  15  16
ATOM     16  C   UNL     1      60.606  28.566  13.414  1.00  0.00    -0.000 C 
BRANCH  16  17
ATOM     17  C   UNL     1      60.894  29.990  13.927  1.00  0.00    -0.000 C 
BRANCH  17  18
ATOM     18  C   UNL     1      59.791  31.016  13.623  1.00  0.00    -0.003 C 
ATOM     19  C   UNL     1      60.256  32.126  12.680  1.00  0.00     0.004 C 
ENDBRANCH  17  18
ENDBRANCH  16  17
ENDBRANCH  15  16
ENDBRANCH  14  15
ENDBRANCH  13  14
ENDBRANCH  12  13
ENDBRANCH   1  12
TORSDOF 14
ENDMDL
MODEL 6
REMARK VINA RESULT:    -4.524     12.604     15.525
REMARK INTER + INTRA:         -10.743
REMARK INTER:                  -8.575
REMARK INTRA:                  -2.169
REMARK UNBOUND:                -2.516
REMARK SMILES CCCCCCCCCCCCCC[C@H](C)C(=O)[O-]
REMARK SMILES IDX 9 1 10 2 11 3 12 4 13 5 14 6 15 7 16 8 17 9 18 10 19 11 8 12
REMARK SMILES IDX 7 13 6 14 5 15 4 16 3 17 2 18 1 19
REMARK H PARENT
REMARK Flexibility Score: inf
ROOT
ATOM      1  C   UNL     1      64.716  30.162   8.914  1.00  0.00     0.000 C 
ENDROOT
BRANCH   1   2
ATOM      2  C   UNL     1      64.451  31.588   9.423  1.00  0.00     0.000 C 
BRANCH   2   3
ATOM      3  C   UNL     1      65.262  31.928  10.684  1.00  0.00     0.000 C 
BRANCH   3   4
ATOM      4  C   UNL     1      64.461  32.771  11.692  1.00  0.00     0.000 C 
BRANCH   4   5
ATOM      5  C   UNL     1      63.216  32.041  12.225  1.00  0.00     0.001 C 
BRANCH   5   6
ATOM      6  C   UNL     1      62.999  32.130  13.751  1.00  0.00     0.009 C 
BRANCH   6   7
ATOM      7  C   UNL     1      61.534  32.347  14.194  1.00  0.00     0.032 C 
ATOM      8  C   UNL     1      60.617  32.711  13.018  1.00  0.00     0.014 C 
BRANCH   7   9
ATOM      9  C   UNL     1      61.478  33.434  15.231  1.00  0.00     0.044 C 
ATOM     10  O   UNL     1      60.371  33.931  15.569  1.00  0.00    -0.550 OA
ATOM     11  O   UNL     1      62.645  33.899  15.826  1.00  0.00    -0.550 OA
ENDBRANCH   7   9
ENDBRANCH   6   7
ENDBRANCH   5   6
ENDBRANCH   4   5
ENDBRANCH   3   4
ENDBRANCH   2   3
ENDBRANCH   1   2
BRANCH   1  12
ATOM     12  C   UNL     1      63.732  29.165   9.537  1.00  0.00     0.000 C 
BRANCH  12  13
ATOM     13  C   UNL     1      62.285  29.663   9.406  1.00  0.00    -0.000 C 
BRANCH  13  14
ATOM     14  C   UNL     1      61.300  28.530   9.076  1.00  0.00    -0.000 C 
BRANCH  14  15
ATOM     15  C   UNL     1      60.061  28.539   9.988  1.00  0.00    -0.000 C 
BRANCH  15  16
ATOM     16  C   UNL     1      60.147  29.629  11.077  1.00  0.00    -0.000 C 
BRANCH  16  17
ATOM     17  C   UNL     1      59.757  29.132  12.482  1.00  0.00    -0.000 C 
BRANCH  17  18
ATOM     18  C   UNL     1      60.734  28.119  13.099  1.00  0.00    -0.003 C 
ATOM     19  C   UNL     1      62.187  28.591  13.050  1.00  0.00     0.004 C 
ENDBRANCH  17  18
ENDBRANCH  16  17
ENDBRANCH  15  16
ENDBRANCH  14  15
ENDBRANCH  13  14
ENDBRANCH  12  13
ENDBRANCH   1  12
TORSDOF 14
ENDMDL
MODEL 7
REMARK VINA RESULT:    -4.514      2.805      5.102
REMARK INTER + INTRA:         -10.723
REMARK INTER:                  -8.262
REMARK INTRA:                  -2.461
REMARK UNBOUND:                -2.516
REMARK SMILES CCCCCCCCCCCCCC[C@H](C)C(=O)[O-]
REMARK SMILES IDX 9 1 10 2 11 3 12 4 13 5 14 6 15 7 16 8 17 9 18 10 19 11 8 12
REMARK SMILES IDX 7 13 6 14 5 15 4 16 3 17 2 18 1 19
REMARK H PARENT
REMARK Flexibility Score: inf
ROOT
ATOM      1  C   UNL     1      65.641  27.411  21.906  1.00  0.00     0.000 C 
ENDROOT
BRANCH   1   2
ATOM      2  C   UNL     1      66.020  26.145  22.691  1.00  0.00     0.000 C 
BRANCH   2   3
ATOM      3  C   UNL     1      64.876  25.633  23.581  1.00  0.00     0.000 C 
BRANCH   3   4
ATOM      4  C   UNL     1      64.996  26.121  25.036  1.00  0.00     0.000 C 
BRANCH   4   5
ATOM      5  C   UNL     1      63.750  26.884  25.516  1.00  0.00     0.001 C 
BRANCH   5   6
ATOM      6  C   UNL     1      62.580  26.943  24.510  1.00  0.00     0.009 C 
BRANCH   6   7
ATOM      7  C   UNL     1      61.421  27.885  24.906  1.00  0.00     0.032 C 
ATOM      8  C   UNL     1      61.912  29.135  25.647  1.00  0.00     0.014 C 
BRANCH   7   9
ATOM      9  C   UNL     1      60.441  27.140  25.771  1.00  0.00     0.044 C 
ATOM     10  O   UNL     1      60.625  27.064  27.015  1.00  0.00    -0.550 OA
ATOM     11  O   UNL     1      59.326  26.532  25.206  1.00  0.00    -0.550 OA
ENDBRANCH   7   9
ENDBRANCH   6   7
ENDBRANCH   5   6
ENDBRANCH   4   5
ENDBRANCH   3   4
ENDBRANCH   2   3
ENDBRANCH   1   2
BRANCH   1  12
ATOM     12  C   UNL     1      66.086  28.673  22.654  1.00  0.00     0.000 C 
BRANCH  12  13
ATOM     13  C   UNL     1      64.874  29.482  23.140  1.00  0.00    -0.000 C 
BRANCH  13  14
ATOM     14  C   UNL     1      65.141  30.199  24.473  1.00  0.00    -0.000 C 
BRANCH  14  15
ATOM     15  C   UNL     1      66.348  29.615  25.228  1.00  0.00    -0.000 C 
BRANCH  15  16
ATOM     16  C   UNL     1      66.358  30.023  26.716  1.00  0.00    -0.000 C 
BRANCH  16  17
ATOM     17  C   UNL     1      65.042  29.707  27.453  1.00  0.00    -0.000 C 
BRANCH  17  18
ATOM     18  C   UNL     1      64.669  30.709  28.557  1.00  0.00    -0.003 C 
ATOM     19  C   UNL     1      63.158  30.835  28.757  1.00  0.00     0.004 C 
ENDBRANCH  17  18
ENDBRANCH  16  17
ENDBRANCH  15  16
ENDBRANCH  14  15
ENDBRANCH  13  14
ENDBRANCH  12  13
ENDBRANCH   1  12
TORSDOF 14
ENDMDL
MODEL 8
REMARK VINA RESULT:    -4.449      1.666      3.844
REMARK INTER + INTRA:         -10.606
REMARK INTER:                  -8.574
REMARK INTRA:                  -2.032
REMARK UNBOUND:                -2.516
REMARK SMILES CCCCCCCCCCCCCC[C@H](C)C(=O)[O-]
REMARK SMILES IDX 9 1 10 2 11 3 12 4 13 5 14 6 15 7 16 8 17 9 18 10 19 11 8 12
REMARK SMILES IDX 7 13 6 14 5 15 4 16 3 17 2 18 1 19
REMARK H PARENT
REMARK Flexibility Score: inf
ROOT
ATOM      1  C   UNL     1      64.762  30.497  26.978  1.00  0.00     0.000 C 
ENDROOT
BRANCH   1   2
ATOM      2  C   UNL     1      65.573  29.315  26.422  1.00  0.00     0.000 C 
BRANCH   2   3
ATOM      3  C   UNL     1      66.783  29.765  25.588  1.00  0.00     0.000 C 
BRANCH   3   4
ATOM      4  C   UNL     1      66.902  29.001  24.258  1.00  0.00     0.000 C 
BRANCH   4   5
ATOM      5  C   UNL     1      65.690  29.215  23.335  1.00  0.00     0.001 C 
BRANCH   5   6
ATOM      6  C   UNL     1      64.904  27.939  22.967  1.00  0.00     0.009 C 
BRANCH   6   7
ATOM      7  C   UNL     1      65.459  26.629  23.572  1.00  0.00     0.032 C 
ATOM      8  C   UNL     1      65.919  25.638  22.495  1.00  0.00     0.014 C 
BRANCH   7   9
ATOM      9  C   UNL     1      64.405  25.986  24.431  1.00  0.00     0.044 C 
ATOM     10  O   UNL     1      64.466  26.083  25.685  1.00  0.00    -0.550 OA
ATOM     11  O   UNL     1      63.357  25.283  23.849  1.00  0.00    -0.550 OA
ENDBRANCH   7   9
ENDBRANCH   6   7
ENDBRANCH   5   6
ENDBRANCH   4   5
ENDBRANCH   3   4
ENDBRANCH   2   3
ENDBRANCH   1   2
BRANCH   1  12
ATOM     12  C   UNL     1      64.751  30.482  28.511  1.00  0.00     0.000 C 
BRANCH  12  13
ATOM     13  C   UNL     1      63.678  29.521  29.044  1.00  0.00    -0.000 C 
BRANCH  13  14
ATOM     14  C   UNL     1      62.252  30.051  28.827  1.00  0.00    -0.000 C 
BRANCH  14  15
ATOM     15  C   UNL     1      61.290  28.966  28.311  1.00  0.00    -0.000 C 
BRANCH  15  16
ATOM     16  C   UNL     1      62.036  27.810  27.613  1.00  0.00    -0.000 C 
BRANCH  16  17
ATOM     17  C   UNL     1      61.216  27.126  26.502  1.00  0.00    -0.000 C 
BRANCH  17  18
ATOM     18  C   UNL     1      60.757  28.062  25.374  1.00  0.00    -0.003 C 
ATOM     19  C   UNL     1      61.915  28.822  24.726  1.00  0.00     0.004 C 
ENDBRANCH  17  18
ENDBRANCH  16  17
ENDBRANCH  15  16
ENDBRANCH  14  15
ENDBRANCH  13  14
ENDBRANCH  12  13
ENDBRANCH   1  12
TORSDOF 14
ENDMDL
MODEL 9
REMARK VINA RESULT:    -4.415      1.760      4.038
REMARK INTER + INTRA:         -10.544
REMARK INTER:                  -8.589
REMARK INTRA:                  -1.955
REMARK UNBOUND:                -2.516
REMARK SMILES CCCCCCCCCCCCCC[C@H](C)C(=O)[O-]
REMARK SMILES IDX 9 1 10 2 11 3 12 4 13 5 14 6 15 7 16 8 17 9 18 10 19 11 8 12
REMARK SMILES IDX 7 13 6 14 5 15 4 16 3 17 2 18 1 19
REMARK H PARENT
REMARK Flexibility Score: inf
ROOT
ATOM      1  C   UNL     1      64.693  29.189  25.092  1.00  0.00     0.000 C 
ENDROOT
BRANCH   1   2
ATOM      2  C   UNL     1      65.473  27.867  25.015  1.00  0.00     0.000 C 
BRANCH   2   3
ATOM      3  C   UNL     1      64.588  26.638  25.280  1.00  0.00     0.000 C 
BRANCH   3   4
ATOM      4  C   UNL     1      64.359  25.791  24.016  1.00  0.00     0.000 C 
BRANCH   4   5
ATOM      5  C   UNL     1      64.775  26.518  22.725  1.00  0.00     0.001 C 
BRANCH   5   6
ATOM      6  C   UNL     1      65.979  25.905  21.978  1.00  0.00     0.009 C 
BRANCH   6   7
ATOM      7  C   UNL     1      66.798  26.900  21.125  1.00  0.00     0.032 C 
ATOM      8  C   UNL     1      66.580  28.356  21.559  1.00  0.00     0.014 C 
BRANCH   7   9
ATOM      9  C   UNL     1      66.426  26.745  19.677  1.00  0.00     0.044 C 
ATOM     10  O   UNL     1      66.823  27.588  18.828  1.00  0.00    -0.550 OA
ATOM     11  O   UNL     1      65.646  25.672  19.262  1.00  0.00    -0.550 OA
ENDBRANCH   7   9
ENDBRANCH   6   7
ENDBRANCH   5   6
ENDBRANCH   4   5
ENDBRANCH   3   4
ENDBRANCH   2   3
ENDBRANCH   1   2
BRANCH   1  12
ATOM     12  C   UNL     1      64.944  29.898  26.428  1.00  0.00     0.000 C 
BRANCH  12  13
ATOM     13  C   UNL     1      63.619  30.252  27.121  1.00  0.00    -0.000 C 
BRANCH  13  14
ATOM     14  C   UNL     1      63.242  29.246  28.219  1.00  0.00    -0.000 C 
BRANCH  14  15
ATOM     15  C   UNL     1      61.760  29.341  28.624  1.00  0.00    -0.000 C 
BRANCH  15  16
ATOM     16  C   UNL     1      61.003  28.018  28.380  1.00  0.00    -0.000 C 
BRANCH  16  17
ATOM     17  C   UNL     1      61.597  27.167  27.241  1.00  0.00    -0.000 C 
BRANCH  17  18
ATOM     18  C   UNL     1      60.756  27.139  25.955  1.00  0.00    -0.003 C 
ATOM     19  C   UNL     1      61.140  28.245  24.972  1.00  0.00     0.004 C 
ENDBRANCH  17  18
ENDBRANCH  16  17
ENDBRANCH  15  16
ENDBRANCH  14  15
ENDBRANCH  13  14
ENDBRANCH  12  13
ENDBRANCH   1  12
TORSDOF 14
ENDMDL
