MODEL 1
REMARK VINA RESULT:    -2.567      0.000      0.000
REMARK INTER + INTRA:          -2.793
REMARK INTER:                  -2.793
REMARK INTRA:                   0.000
REMARK UNBOUND:                 0.000
REMARK SMILES [NH3+]CC(=O)[O-]
REMARK SMILES IDX 2 1 1 2 3 6 4 7 5 8
REMARK H PARENT 1 3 1 4 1 5
REMARK Flexibility Score: inf
ROOT
ATOM      1  C   UNL     1    -138.134  59.692  71.945  1.00  0.00     0.312 C 
ENDROOT
BRANCH   1   2
ATOM      2  N   UNL     1    -137.763  58.297  72.179  1.00  0.00    -0.353 N 
ATOM      3  H   UNL     1    -138.302  57.932  72.997  1.00  0.00     0.344 HD
ATOM      4  H   UNL     1    -136.740  58.228  72.390  1.00  0.00     0.344 HD
ATOM      5  H   UNL     1    -137.991  57.719  71.338  1.00  0.00     0.344 HD
ENDBRANCH   1   2
BRANCH   1   6
ATOM      6  C   UNL     1    -139.498  59.975  72.494  1.00  0.00     0.096 C 
ATOM      7  O   UNL     1    -140.475  60.124  71.715  1.00  0.00    -0.544 OA
ATOM      8  O   UNL     1    -139.680  60.125  73.862  1.00  0.00    -0.544 OA
ENDBRANCH   1   6
TORSDOF 2
ENDMDL
MODEL 2
REMARK VINA RESULT:    -2.471     24.843     25.163
REMARK INTER + INTRA:          -2.688
REMARK INTER:                  -2.688
REMARK INTRA:                   0.000
REMARK UNBOUND:                 0.000
REMARK SMILES [NH3+]CC(=O)[O-]
REMARK SMILES IDX 2 1 1 2 3 6 4 7 5 8
REMARK H PARENT 1 3 1 4 1 5
REMARK Flexibility Score: inf
ROOT
ATOM      1  C   UNL     1    -139.111  41.988  88.757  1.00  0.00     0.312 C 
ENDROOT
BRANCH   1   2
ATOM      2  N   UNL     1    -137.961  42.504  89.497  1.00  0.00    -0.353 N 
ATOM      3  H   UNL     1    -138.189  43.456  89.862  1.00  0.00     0.344 HD
ATOM      4  H   UNL     1    -137.130  42.573  88.865  1.00  0.00     0.344 HD
ATOM      5  H   UNL     1    -137.742  41.875  90.303  1.00  0.00     0.344 HD
ENDBRANCH   1   2
BRANCH   1   6
ATOM      6  C   UNL     1    -139.804  40.914  89.539  1.00  0.00     0.096 C 
ATOM      7  O   UNL     1    -141.050  40.963  89.713  1.00  0.00    -0.544 OA
ATOM      8  O   UNL     1    -139.067  39.891  90.119  1.00  0.00    -0.544 OA
ENDBRANCH   1   6
TORSDOF 2
ENDMDL
MODEL 3
REMARK VINA RESULT:    -2.446     24.461     24.794
REMARK INTER + INTRA:          -2.661
REMARK INTER:                  -2.661
REMARK INTRA:                   0.000
REMARK UNBOUND:                 0.000
REMARK SMILES [NH3+]CC(=O)[O-]
REMARK SMILES IDX 2 1 1 2 3 6 4 7 5 8
REMARK H PARENT 1 3 1 4 1 5
REMARK Flexibility Score: inf
ROOT
ATOM      1  C   UNL     1    -139.205  41.609  88.684  1.00  0.00     0.312 C 
ENDROOT
BRANCH   1   2
ATOM      2  N   UNL     1    -138.351  42.134  89.749  1.00  0.00    -0.353 N 
ATOM      3  H   UNL     1    -137.558  42.663  89.322  1.00  0.00     0.344 HD
ATOM      4  H   UNL     1    -137.966  41.346  90.320  1.00  0.00     0.344 HD
ATOM      5  H   UNL     1    -138.899  42.780  90.362  1.00  0.00     0.344 HD
ENDBRANCH   1   2
BRANCH   1   6
ATOM      6  C   UNL     1    -140.598  41.383  89.187  1.00  0.00     0.096 C 
ATOM      7  O   UNL     1    -140.807  40.569  90.125  1.00  0.00    -0.544 OA
ATOM      8  O   UNL     1    -141.669  42.030  88.586  1.00  0.00    -0.544 OA
ENDBRANCH   1   6
TORSDOF 2
ENDMDL
MODEL 4
REMARK VINA RESULT:    -2.379     24.552     24.840
REMARK INTER + INTRA:          -2.588
REMARK INTER:                  -2.588
REMARK INTRA:                   0.000
REMARK UNBOUND:                 0.000
REMARK SMILES [NH3+]CC(=O)[O-]
REMARK SMILES IDX 2 1 1 2 3 6 4 7 5 8
REMARK H PARENT 1 3 1 4 1 5
REMARK Flexibility Score: inf
ROOT
ATOM      1  C   UNL     1    -139.054  41.143  88.868  1.00  0.00     0.312 C 
ENDROOT
BRANCH   1   2
ATOM      2  N   UNL     1    -138.367  42.107  89.726  1.00  0.00    -0.353 N 
ATOM      3  H   UNL     1    -138.156  42.968  89.173  1.00  0.00     0.344 HD
ATOM      4  H   UNL     1    -137.469  41.700  90.076  1.00  0.00     0.344 HD
ATOM      5  H   UNL     1    -138.977  42.365  90.535  1.00  0.00     0.344 HD
ENDBRANCH   1   2
BRANCH   1   6
ATOM      6  C   UNL     1    -138.075  40.421  87.994  1.00  0.00     0.096 C 
ATOM      7  O   UNL     1    -138.316  40.266  86.769  1.00  0.00    -0.544 OA
ATOM      8  O   UNL     1    -136.923  39.875  88.544  1.00  0.00    -0.544 OA
ENDBRANCH   1   6
TORSDOF 2
ENDMDL
MODEL 5
REMARK VINA RESULT:    -2.360     24.985     25.332
REMARK INTER + INTRA:          -2.567
REMARK INTER:                  -2.567
REMARK INTRA:                   0.000
REMARK UNBOUND:                 0.000
REMARK SMILES [NH3+]CC(=O)[O-]
REMARK SMILES IDX 2 1 1 2 3 6 4 7 5 8
REMARK H PARENT 1 3 1 4 1 5
REMARK Flexibility Score: inf
ROOT
ATOM      1  C   UNL     1    -140.681  41.571  89.071  1.00  0.00     0.312 C 
ENDROOT
BRANCH   1   2
ATOM      2  N   UNL     1    -141.660  40.896  89.921  1.00  0.00    -0.353 N 
ATOM      3  H   UNL     1    -142.030  41.576  90.624  1.00  0.00     0.344 HD
ATOM      4  H   UNL     1    -141.209  40.098  90.425  1.00  0.00     0.344 HD
ATOM      5  H   UNL     1    -142.456  40.543  89.340  1.00  0.00     0.344 HD
ENDBRANCH   1   2
BRANCH   1   6
ATOM      6  C   UNL     1    -139.287  41.272  89.531  1.00  0.00     0.096 C 
ATOM      7  O   UNL     1    -138.370  42.118  89.360  1.00  0.00    -0.544 OA
ATOM      8  O   UNL     1    -138.992  40.041  90.099  1.00  0.00    -0.544 OA
ENDBRANCH   1   6
TORSDOF 2
ENDMDL
MODEL 6
REMARK VINA RESULT:    -2.322     21.628     21.716
REMARK INTER + INTRA:          -2.525
REMARK INTER:                  -2.525
REMARK INTRA:                   0.000
REMARK UNBOUND:                 0.000
REMARK SMILES [NH3+]CC(=O)[O-]
REMARK SMILES IDX 2 1 1 2 3 6 4 7 5 8
REMARK H PARENT 1 3 1 4 1 5
REMARK Flexibility Score: inf
ROOT
ATOM      1  C   UNL     1    -151.680  55.871  89.683  1.00  0.00     0.312 C 
ENDROOT
BRANCH   1   2
ATOM      2  N   UNL     1    -151.967  56.772  88.569  1.00  0.00    -0.353 N 
ATOM      3  H   UNL     1    -151.580  56.363  87.688  1.00  0.00     0.344 HD
ATOM      4  H   UNL     1    -151.519  57.703  88.735  1.00  0.00     0.344 HD
ATOM      5  H   UNL     1    -153.001  56.891  88.461  1.00  0.00     0.344 HD
ENDBRANCH   1   2
BRANCH   1   6
ATOM      6  C   UNL     1    -151.925  54.447  89.288  1.00  0.00     0.096 C 
ATOM      7  O   UNL     1    -151.179  53.532  89.725  1.00  0.00    -0.544 OA
ATOM      8  O   UNL     1    -152.944  54.138  88.397  1.00  0.00    -0.544 OA
ENDBRANCH   1   6
TORSDOF 2
ENDMDL
MODEL 7
REMARK VINA RESULT:    -2.294     13.625     14.133
REMARK INTER + INTRA:          -2.495
REMARK INTER:                  -2.495
REMARK INTRA:                   0.000
REMARK UNBOUND:                 0.000
REMARK SMILES [NH3+]CC(=O)[O-]
REMARK SMILES IDX 2 1 1 2 3 6 4 7 5 8
REMARK H PARENT 1 3 1 4 1 5
REMARK Flexibility Score: inf
ROOT
ATOM      1  C   UNL     1    -140.761  58.165  85.616  1.00  0.00     0.312 C 
ENDROOT
BRANCH   1   2
ATOM      2  N   UNL     1    -141.438  57.305  86.586  1.00  0.00    -0.353 N 
ATOM      3  H   UNL     1    -142.101  56.675  86.080  1.00  0.00     0.344 HD
ATOM      4  H   UNL     1    -141.978  57.888  87.267  1.00  0.00     0.344 HD
ATOM      5  H   UNL     1    -140.737  56.721  87.097  1.00  0.00     0.344 HD
ENDBRANCH   1   2
BRANCH   1   6
ATOM      6  C   UNL     1    -139.735  59.021  86.294  1.00  0.00     0.096 C 
ATOM      7  O   UNL     1    -139.832  59.268  87.525  1.00  0.00    -0.544 OA
ATOM      8  O   UNL     1    -138.704  59.585  85.557  1.00  0.00    -0.544 OA
ENDBRANCH   1   6
TORSDOF 2
ENDMDL
MODEL 8
REMARK VINA RESULT:    -1.381     13.145     13.389
REMARK INTER + INTRA:          -1.502
REMARK INTER:                  -1.502
REMARK INTRA:                   0.000
REMARK UNBOUND:                 0.000
REMARK SMILES [NH3+]CC(=O)[O-]
REMARK SMILES IDX 2 1 1 2 3 6 4 7 5 8
REMARK H PARENT 1 3 1 4 1 5
REMARK Flexibility Score: inf
ROOT
ATOM      1  C   UNL     1    -151.357  54.122  71.086  1.00  0.00     0.312 C 
ENDROOT
BRANCH   1   2
ATOM      2  N   UNL     1    -151.881  53.493  69.875  1.00  0.00    -0.353 N 
ATOM      3  H   UNL     1    -152.407  54.205  69.319  1.00  0.00     0.344 HD
ATOM      4  H   UNL     1    -152.530  52.712  70.128  1.00  0.00     0.344 HD
ATOM      5  H   UNL     1    -151.093  53.124  69.294  1.00  0.00     0.344 HD
ENDBRANCH   1   2
BRANCH   1   6
ATOM      6  C   UNL     1    -151.488  55.612  71.006  1.00  0.00     0.096 C 
ATOM      7  O   UNL     1    -151.881  56.156  69.941  1.00  0.00    -0.544 OA
ATOM      8  O   UNL     1    -151.126  56.401  72.089  1.00  0.00    -0.544 OA
ENDBRANCH   1   6
TORSDOF 2
ENDMDL
