MODEL 1
REMARK VINA RESULT:    21.200      0.000      0.000
REMARK INTER + INTRA:          31.964
REMARK INTER:                  28.636
REMARK INTRA:                   3.327
REMARK UNBOUND:                 3.327
REMARK SMILES O=c1c(-c2ccc(O)cc2)coc2c([C@H]3O[C@@H](CO)[C@H](O)[C@H](O)[C@@H]3O)c(O)ccc12
REMARK SMILES IDX 3 1 11 2 12 3 13 4 30 5 2 6 1 7 29 8 28 9 26 10 14 11 4 12
REMARK SMILES IDX 5 13 6 14 7 15 10 16 9 17 8 18 15 20 24 21 16 22 22 23 17 24
REMARK SMILES IDX 20 25 25 26 23 28 18 30 19 31 21 33 27 35
REMARK H PARENT 8 19 25 27 23 29 19 32 21 34 27 36
REMARK Flexibility Score: inf
ROOT
ATOM      1  C   UNL     1      11.310  12.580  37.417  1.00  0.00     0.065 A 
ATOM      2  C   UNL     1       9.959  12.340  37.704  1.00  0.00     0.208 A 
ATOM      3  O   UNL     1       9.045  12.357  36.742  1.00  0.00    -0.463 OA
ATOM      4  C   UNL     1       9.335  12.595  35.466  1.00  0.00     0.147 A 
ATOM      5  C   UNL     1      10.674  12.846  35.086  1.00  0.00     0.066 A 
ATOM      6  C   UNL     1      11.670  12.830  36.080  1.00  0.00     0.200 A 
ATOM      7  O   UNL     1      12.880  13.017  35.773  1.00  0.00    -0.288 OA
ATOM      8  C   UNL     1      10.977  13.104  33.741  1.00  0.00     0.020 A 
ATOM      9  C   UNL     1       9.963  13.125  32.785  1.00  0.00     0.047 A 
ATOM     10  C   UNL     1       8.634  12.881  33.149  1.00  0.00     0.125 A 
ATOM     11  C   UNL     1       8.306  12.594  34.493  1.00  0.00     0.069 A 
ENDROOT
BRANCH   1  12
ATOM     12  C   UNL     1      12.313  12.562  38.512  1.00  0.00    -0.011 A 
ATOM     13  C   UNL     1      11.989  12.005  39.761  1.00  0.00     0.013 A 
ATOM     14  C   UNL     1      12.928  11.994  40.797  1.00  0.00     0.047 A 
ATOM     15  C   UNL     1      14.199  12.543  40.601  1.00  0.00     0.115 A 
ATOM     16  C   UNL     1      13.592  13.118  38.323  1.00  0.00     0.013 A 
ATOM     17  C   UNL     1      14.528  13.106  39.361  1.00  0.00     0.047 A 
BRANCH  15  18
ATOM     18  O   UNL     1      15.125  12.525  41.641  1.00  0.00    -0.508 OA
ATOM     19  H   UNL     1      14.851  12.722  42.597  1.00  0.00     0.293 HD
ENDBRANCH  15  18
ENDBRANCH   1  12
BRANCH  11  20
ATOM     20  C   UNL     1       6.858  12.346  34.896  1.00  0.00     0.188 C 
ATOM     21  C   UNL     1       6.773  12.034  36.408  1.00  0.00     0.179 C 
ATOM     22  O   UNL     1       6.341  11.270  34.130  1.00  0.00    -0.362 OA
ATOM     23  C   UNL     1       5.315  11.728  36.801  1.00  0.00     0.177 C 
ATOM     24  C   UNL     1       4.962  11.072  34.388  1.00  0.00     0.176 C 
ATOM     25  C   UNL     1       4.738  10.657  35.864  1.00  0.00     0.177 C 
BRANCH  21  26
ATOM     26  O   UNL     1       7.260  13.125  37.148  1.00  0.00    -0.387 OA
ATOM     27  H   UNL     1       6.472  13.559  37.567  1.00  0.00     0.211 HD
ENDBRANCH  21  26
BRANCH  23  28
ATOM     28  O   UNL     1       4.531  12.895  36.726  1.00  0.00    -0.387 OA
ATOM     29  H   UNL     1       5.071  13.577  36.248  1.00  0.00     0.211 HD
ENDBRANCH  23  28
BRANCH  24  30
ATOM     30  C   UNL     1       4.435  10.007  33.412  1.00  0.00     0.191 C 
BRANCH  30  31
ATOM     31  O   UNL     1       3.773  10.596  32.324  1.00  0.00    -0.394 OA
ATOM     32  H   UNL     1       2.803  10.435  32.458  1.00  0.00     0.210 HD
ENDBRANCH  30  31
ENDBRANCH  24  30
BRANCH  25  33
ATOM     33  O   UNL     1       3.366  10.501  36.131  1.00  0.00    -0.388 OA
ATOM     34  H   UNL     1       3.192  10.907  37.019  1.00  0.00     0.211 HD
ENDBRANCH  25  33
ENDBRANCH  11  20
BRANCH  10  35
ATOM     35  O   UNL     1       7.637  12.927  32.174  1.00  0.00    -0.507 OA
ATOM     36  H   UNL     1       6.813  13.508  32.280  1.00  0.00     0.293 HD
ENDBRANCH  10  35
TORSDOF 9
ENDMDL
