MODEL 1
REMARK VINA RESULT:    -5.195      0.000      0.000
REMARK INTER + INTRA:          -8.871
REMARK INTER:                  -8.232
REMARK INTRA:                  -0.638
REMARK UNBOUND:                -0.638
REMARK SMILES CCCCCCCCCCCC(=O)[O-]
REMARK SMILES IDX 7 1 8 2 9 3 10 4 11 5 12 6 13 7 14 8 6 9 5 10 4 11 3 12 2 13
REMARK SMILES IDX 1 14
REMARK H PARENT
REMARK Flexibility Score: inf
ROOT
ATOM      1  C   UNL     1       7.953   1.533 -37.289  1.00  0.00     0.000 C 
ENDROOT
BRANCH   1   2
ATOM      2  C   UNL     1       8.949   0.593 -37.987  1.00  0.00     0.000 C 
BRANCH   2   3
ATOM      3  C   UNL     1       8.275  -0.672 -38.548  1.00  0.00     0.000 C 
BRANCH   3   4
ATOM      4  C   UNL     1       8.443  -1.888 -37.623  1.00  0.00     0.006 C 
BRANCH   4   5
ATOM      5  C   UNL     1       7.310  -2.007 -36.594  1.00  0.00     0.053 C 
BRANCH   5   6
ATOM      6  C   UNL     1       6.870  -3.430 -36.465  1.00  0.00     0.041 C 
ATOM      7  O   UNL     1       7.665  -4.302 -36.027  1.00  0.00    -0.550 OA
ATOM      8  O   UNL     1       5.596  -3.804 -36.875  1.00  0.00    -0.550 OA
ENDBRANCH   5   6
ENDBRANCH   4   5
ENDBRANCH   3   4
ENDBRANCH   2   3
ENDBRANCH   1   2
BRANCH   1   9
ATOM      9  C   UNL     1       8.434   1.977 -35.899  1.00  0.00     0.000 C 
BRANCH   9  10
ATOM     10  C   UNL     1       9.957   1.839 -35.775  1.00  0.00    -0.000 C 
BRANCH  10  11
ATOM     11  C   UNL     1      10.352   1.367 -34.368  1.00  0.00    -0.000 C 
BRANCH  11  12
ATOM     12  C   UNL     1      11.555   2.140 -33.801  1.00  0.00    -0.000 C 
BRANCH  12  13
ATOM     13  C   UNL     1      12.887   1.412 -34.032  1.00  0.00    -0.003 C 
ATOM     14  C   UNL     1      13.657   2.035 -35.193  1.00  0.00     0.004 C 
ENDBRANCH  12  13
ENDBRANCH  11  12
ENDBRANCH  10  11
ENDBRANCH   9  10
ENDBRANCH   1   9
TORSDOF 10
ENDMDL
MODEL 2
REMARK VINA RESULT:    -5.014      4.374      6.519
REMARK INTER + INTRA:          -8.584
REMARK INTER:                  -7.706
REMARK INTRA:                  -0.878
REMARK UNBOUND:                -0.638
REMARK SMILES CCCCCCCCCCCC(=O)[O-]
REMARK SMILES IDX 7 1 8 2 9 3 10 4 11 5 12 6 13 7 14 8 6 9 5 10 4 11 3 12 2 13
REMARK SMILES IDX 1 14
REMARK H PARENT
REMARK Flexibility Score: inf
ROOT
ATOM      1  C   UNL     1       8.544   1.754 -36.135  1.00  0.00     0.000 C 
ENDROOT
BRANCH   1   2
ATOM      2  C   UNL     1       9.907   1.537 -35.459  1.00  0.00     0.000 C 
BRANCH   2   3
ATOM      3  C   UNL     1       9.804   1.477 -33.924  1.00  0.00     0.000 C 
BRANCH   3   4
ATOM      4  C   UNL     1      11.145   1.761 -33.231  1.00  0.00     0.006 C 
BRANCH   4   5
ATOM      5  C   UNL     1      12.342   1.199 -34.011  1.00  0.00     0.053 C 
BRANCH   5   6
ATOM      6  C   UNL     1      13.362   2.268 -34.243  1.00  0.00     0.041 C 
ATOM      7  O   UNL     1      13.397   2.882 -35.341  1.00  0.00    -0.550 OA
ATOM      8  O   UNL     1      14.306   2.553 -33.264  1.00  0.00    -0.550 OA
ENDBRANCH   5   6
ENDBRANCH   4   5
ENDBRANCH   3   4
ENDBRANCH   2   3
ENDBRANCH   1   2
BRANCH   1   9
ATOM      9  C   UNL     1       7.372   1.661 -35.145  1.00  0.00     0.000 C 
BRANCH   9  10
ATOM     10  C   UNL     1       6.658   0.309 -35.264  1.00  0.00    -0.000 C 
BRANCH  10  11
ATOM     11  C   UNL     1       5.688   0.095 -34.092  1.00  0.00    -0.000 C 
BRANCH  11  12
ATOM     12  C   UNL     1       5.741   1.237 -33.065  1.00  0.00    -0.000 C 
BRANCH  12  13
ATOM     13  C   UNL     1       6.401   0.814 -31.744  1.00  0.00    -0.003 C 
ATOM     14  C   UNL     1       7.146   1.982 -31.105  1.00  0.00     0.004 C 
ENDBRANCH  12  13
ENDBRANCH  11  12
ENDBRANCH  10  11
ENDBRANCH   9  10
ENDBRANCH   1   9
TORSDOF 10
ENDMDL
MODEL 3
REMARK VINA RESULT:    -4.978      1.941      3.291
REMARK INTER + INTRA:          -8.527
REMARK INTER:                  -7.468
REMARK INTRA:                  -1.059
REMARK UNBOUND:                -0.638
REMARK SMILES CCCCCCCCCCCC(=O)[O-]
REMARK SMILES IDX 7 1 8 2 9 3 10 4 11 5 12 6 13 7 14 8 6 9 5 10 4 11 3 12 2 13
REMARK SMILES IDX 1 14
REMARK H PARENT
REMARK Flexibility Score: inf
ROOT
ATOM      1  C   UNL     1       7.914   1.571 -37.640  1.00  0.00     0.000 C 
ENDROOT
BRANCH   1   2
ATOM      2  C   UNL     1       9.023   0.558 -37.967  1.00  0.00     0.000 C 
BRANCH   2   3
ATOM      3  C   UNL     1       8.480  -0.720 -38.631  1.00  0.00     0.000 C 
BRANCH   3   4
ATOM      4  C   UNL     1       8.438  -1.914 -37.665  1.00  0.00     0.006 C 
BRANCH   4   5
ATOM      5  C   UNL     1       7.313  -1.794 -36.628  1.00  0.00     0.053 C 
BRANCH   5   6
ATOM      6  C   UNL     1       6.816  -3.150 -36.239  1.00  0.00     0.041 C 
ATOM      7  O   UNL     1       7.592  -4.140 -36.262  1.00  0.00    -0.550 OA
ATOM      8  O   UNL     1       5.481  -3.330 -35.897  1.00  0.00    -0.550 OA
ENDBRANCH   5   6
ENDBRANCH   4   5
ENDBRANCH   3   4
ENDBRANCH   2   3
ENDBRANCH   1   2
BRANCH   1   9
ATOM      9  C   UNL     1       8.130   2.270 -36.289  1.00  0.00     0.000 C 
BRANCH   9  10
ATOM     10  C   UNL     1       9.071   1.453 -35.394  1.00  0.00    -0.000 C 
BRANCH  10  11
ATOM     11  C   UNL     1       8.454   1.234 -34.004  1.00  0.00    -0.000 C 
BRANCH  11  12
ATOM     12  C   UNL     1       6.970   1.628 -33.947  1.00  0.00    -0.000 C 
BRANCH  12  13
ATOM     13  C   UNL     1       6.150   0.713 -33.025  1.00  0.00    -0.003 C 
ATOM     14  C   UNL     1       5.328  -0.285 -33.834  1.00  0.00     0.004 C 
ENDBRANCH  12  13
ENDBRANCH  11  12
ENDBRANCH  10  11
ENDBRANCH   9  10
ENDBRANCH   1   9
TORSDOF 10
ENDMDL
MODEL 4
REMARK VINA RESULT:    -4.967      1.694      3.042
REMARK INTER + INTRA:          -8.509
REMARK INTER:                  -7.894
REMARK INTRA:                  -0.614
REMARK UNBOUND:                -0.638
REMARK SMILES CCCCCCCCCCCC(=O)[O-]
REMARK SMILES IDX 7 1 8 2 9 3 10 4 11 5 12 6 13 7 14 8 6 9 5 10 4 11 3 12 2 13
REMARK SMILES IDX 1 14
REMARK H PARENT
REMARK Flexibility Score: inf
ROOT
ATOM      1  C   UNL     1       8.595   1.614 -33.583  1.00  0.00     0.000 C 
ENDROOT
BRANCH   1   2
ATOM      2  C   UNL     1       8.986   1.367 -35.050  1.00  0.00     0.000 C 
BRANCH   2   3
ATOM      3  C   UNL     1       8.134   2.188 -36.034  1.00  0.00     0.000 C 
BRANCH   3   4
ATOM      4  C   UNL     1       7.875   1.443 -37.353  1.00  0.00     0.006 C 
BRANCH   4   5
ATOM      5  C   UNL     1       8.928   0.363 -37.637  1.00  0.00     0.053 C 
BRANCH   5   6
ATOM      6  C   UNL     1       8.267  -0.938 -37.961  1.00  0.00     0.041 C 
ATOM      7  O   UNL     1       8.032  -1.774 -37.050  1.00  0.00    -0.550 OA
ATOM      8  O   UNL     1       7.953  -1.250 -39.278  1.00  0.00    -0.550 OA
ENDBRANCH   5   6
ENDBRANCH   4   5
ENDBRANCH   3   4
ENDBRANCH   2   3
ENDBRANCH   1   2
BRANCH   1   9
ATOM      9  C   UNL     1       9.793   1.503 -32.627  1.00  0.00     0.000 C 
BRANCH   9  10
ATOM     10  C   UNL     1      11.076   1.155 -33.391  1.00  0.00    -0.000 C 
BRANCH  10  11
ATOM     11  C   UNL     1      12.137   2.251 -33.209  1.00  0.00    -0.000 C 
BRANCH  11  12
ATOM     12  C   UNL     1      13.516   1.833 -33.746  1.00  0.00    -0.000 C 
BRANCH  12  13
ATOM     13  C   UNL     1      13.766   2.327 -35.179  1.00  0.00    -0.003 C 
ATOM     14  C   UNL     1      12.603   3.180 -35.676  1.00  0.00     0.004 C 
ENDBRANCH  12  13
ENDBRANCH  11  12
ENDBRANCH  10  11
ENDBRANCH   9  10
ENDBRANCH   1   9
TORSDOF 10
ENDMDL
MODEL 5
REMARK VINA RESULT:    -4.938      3.200      6.023
REMARK INTER + INTRA:          -8.463
REMARK INTER:                  -7.775
REMARK INTRA:                  -0.687
REMARK UNBOUND:                -0.638
REMARK SMILES CCCCCCCCCCCC(=O)[O-]
REMARK SMILES IDX 7 1 8 2 9 3 10 4 11 5 12 6 13 7 14 8 6 9 5 10 4 11 3 12 2 13
REMARK SMILES IDX 1 14
REMARK H PARENT
REMARK Flexibility Score: inf
ROOT
ATOM      1  C   UNL     1       8.521  -1.232 -38.192  1.00  0.00     0.000 C 
ENDROOT
BRANCH   1   2
ATOM      2  C   UNL     1       8.910   0.247 -38.340  1.00  0.00     0.000 C 
BRANCH   2   3
ATOM      3  C   UNL     1       8.332   1.126 -37.216  1.00  0.00     0.000 C 
BRANCH   3   4
ATOM      4  C   UNL     1       9.425   1.787 -36.362  1.00  0.00     0.006 C 
BRANCH   4   5
ATOM      5  C   UNL     1       9.347   1.377 -34.885  1.00  0.00     0.053 C 
BRANCH   5   6
ATOM      6  C   UNL     1      10.680   1.543 -34.227  1.00  0.00     0.041 C 
ATOM      7  O   UNL     1      11.640   2.055 -34.859  1.00  0.00    -0.550 OA
ATOM      8  O   UNL     1      10.876   1.087 -32.929  1.00  0.00    -0.550 OA
ENDBRANCH   5   6
ENDBRANCH   4   5
ENDBRANCH   3   4
ENDBRANCH   2   3
ENDBRANCH   1   2
BRANCH   1   9
ATOM      9  C   UNL     1       7.804  -1.525 -36.864  1.00  0.00     0.000 C 
BRANCH   9  10
ATOM     10  C   UNL     1       7.264  -2.960 -36.837  1.00  0.00    -0.000 C 
BRANCH  10  11
ATOM     11  C   UNL     1       5.882  -3.013 -36.169  1.00  0.00    -0.000 C 
BRANCH  11  12
ATOM     12  C   UNL     1       5.839  -2.251 -34.835  1.00  0.00    -0.000 C 
BRANCH  12  13
ATOM     13  C   UNL     1       4.880  -1.052 -34.869  1.00  0.00    -0.003 C 
ATOM     14  C   UNL     1       5.168  -0.087 -33.723  1.00  0.00     0.004 C 
ENDBRANCH  12  13
ENDBRANCH  11  12
ENDBRANCH  10  11
ENDBRANCH   9  10
ENDBRANCH   1   9
TORSDOF 10
ENDMDL
MODEL 6
REMARK VINA RESULT:    -4.934      1.798      2.524
REMARK INTER + INTRA:          -8.456
REMARK INTER:                  -7.927
REMARK INTRA:                  -0.529
REMARK UNBOUND:                -0.638
REMARK SMILES CCCCCCCCCCCC(=O)[O-]
REMARK SMILES IDX 7 1 8 2 9 3 10 4 11 5 12 6 13 7 14 8 6 9 5 10 4 11 3 12 2 13
REMARK SMILES IDX 1 14
REMARK H PARENT
REMARK Flexibility Score: inf
ROOT
ATOM      1  C   UNL     1       7.397   0.521 -35.100  1.00  0.00     0.000 C 
ENDROOT
BRANCH   1   2
ATOM      2  C   UNL     1       6.353   0.806 -34.008  1.00  0.00     0.000 C 
BRANCH   2   3
ATOM      3  C   UNL     1       5.354  -0.351 -33.828  1.00  0.00     0.000 C 
BRANCH   3   4
ATOM      4  C   UNL     1       5.217  -1.213 -35.093  1.00  0.00     0.006 C 
BRANCH   4   5
ATOM      5  C   UNL     1       5.767  -2.633 -34.901  1.00  0.00     0.053 C 
BRANCH   5   6
ATOM      6  C   UNL     1       6.297  -3.166 -36.194  1.00  0.00     0.041 C 
ATOM      7  O   UNL     1       7.395  -2.752 -36.648  1.00  0.00    -0.550 OA
ATOM      8  O   UNL     1       5.554  -4.085 -36.924  1.00  0.00    -0.550 OA
ENDBRANCH   5   6
ENDBRANCH   4   5
ENDBRANCH   3   4
ENDBRANCH   2   3
ENDBRANCH   1   2
BRANCH   1   9
ATOM      9  C   UNL     1       8.128   1.790 -35.565  1.00  0.00     0.000 C 
BRANCH   9  10
ATOM     10  C   UNL     1       9.648   1.612 -35.474  1.00  0.00    -0.000 C 
BRANCH  10  11
ATOM     11  C   UNL     1      10.096   1.452 -34.013  1.00  0.00    -0.000 C 
BRANCH  11  12
ATOM     12  C   UNL     1      11.617   1.588 -33.842  1.00  0.00    -0.000 C 
BRANCH  12  13
ATOM     13  C   UNL     1      12.270   2.389 -34.979  1.00  0.00    -0.003 C 
ATOM     14  C   UNL     1      13.720   1.962 -35.187  1.00  0.00     0.004 C 
ENDBRANCH  12  13
ENDBRANCH  11  12
ENDBRANCH  10  11
ENDBRANCH   9  10
ENDBRANCH   1   9
TORSDOF 10
ENDMDL
MODEL 7
REMARK VINA RESULT:    -4.928      4.272      5.518
REMARK INTER + INTRA:          -8.447
REMARK INTER:                  -7.436
REMARK INTRA:                  -1.011
REMARK UNBOUND:                -0.638
REMARK SMILES CCCCCCCCCCCC(=O)[O-]
REMARK SMILES IDX 7 1 8 2 9 3 10 4 11 5 12 6 13 7 14 8 6 9 5 10 4 11 3 12 2 13
REMARK SMILES IDX 1 14
REMARK H PARENT
REMARK Flexibility Score: inf
ROOT
ATOM      1  C   UNL     1       5.512   0.019 -34.838  1.00  0.00     0.000 C 
ENDROOT
BRANCH   1   2
ATOM      2  C   UNL     1       5.592   0.223 -33.316  1.00  0.00     0.000 C 
BRANCH   2   3
ATOM      3  C   UNL     1       6.170   1.597 -32.933  1.00  0.00     0.000 C 
BRANCH   3   4
ATOM      4  C   UNL     1       7.368   1.487 -31.977  1.00  0.00     0.006 C 
BRANCH   4   5
ATOM      5  C   UNL     1       6.993   1.798 -30.522  1.00  0.00     0.053 C 
BRANCH   5   6
ATOM      6  C   UNL     1       7.055   0.557 -29.691  1.00  0.00     0.041 C 
ATOM      7  O   UNL     1       8.071   0.315 -28.988  1.00  0.00    -0.550 OA
ATOM      8  O   UNL     1       6.012  -0.360 -29.729  1.00  0.00    -0.550 OA
ENDBRANCH   5   6
ENDBRANCH   4   5
ENDBRANCH   3   4
ENDBRANCH   2   3
ENDBRANCH   1   2
BRANCH   1   9
ATOM      9  C   UNL     1       6.894   0.042 -35.510  1.00  0.00     0.000 C 
BRANCH   9  10
ATOM     10  C   UNL     1       7.063   1.298 -36.373  1.00  0.00    -0.000 C 
BRANCH  10  11
ATOM     11  C   UNL     1       8.485   1.866 -36.243  1.00  0.00    -0.000 C 
BRANCH  11  12
ATOM     12  C   UNL     1       9.318   1.135 -35.177  1.00  0.00    -0.000 C 
BRANCH  12  13
ATOM     13  C   UNL     1      10.647   1.845 -34.877  1.00  0.00    -0.003 C 
ATOM     14  C   UNL     1      11.150   1.498 -33.479  1.00  0.00     0.004 C 
ENDBRANCH  12  13
ENDBRANCH  11  12
ENDBRANCH  10  11
ENDBRANCH   9  10
ENDBRANCH   1   9
TORSDOF 10
ENDMDL
MODEL 8
REMARK VINA RESULT:    -4.900      5.563      6.935
REMARK INTER + INTRA:          -8.403
REMARK INTER:                  -7.590
REMARK INTRA:                  -0.812
REMARK UNBOUND:                -0.638
REMARK SMILES CCCCCCCCCCCC(=O)[O-]
REMARK SMILES IDX 7 1 8 2 9 3 10 4 11 5 12 6 13 7 14 8 6 9 5 10 4 11 3 12 2 13
REMARK SMILES IDX 1 14
REMARK H PARENT
REMARK Flexibility Score: inf
ROOT
ATOM      1  C   UNL     1       7.405   1.313 -32.424  1.00  0.00     0.000 C 
ENDROOT
BRANCH   1   2
ATOM      2  C   UNL     1       7.304   2.272 -31.227  1.00  0.00     0.000 C 
BRANCH   2   3
ATOM      3  C   UNL     1       6.602   1.633 -30.015  1.00  0.00     0.000 C 
BRANCH   3   4
ATOM      4  C   UNL     1       7.189   0.260 -29.650  1.00  0.00     0.006 C 
BRANCH   4   5
ATOM      5  C   UNL     1       8.445   0.369 -28.775  1.00  0.00     0.053 C 
BRANCH   5   6
ATOM      6  C   UNL     1       8.087   0.856 -27.407  1.00  0.00     0.041 C 
ATOM      7  O   UNL     1       7.305   0.187 -26.681  1.00  0.00    -0.550 OA
ATOM      8  O   UNL     1       8.579   2.072 -26.950  1.00  0.00    -0.550 OA
ENDBRANCH   5   6
ENDBRANCH   4   5
ENDBRANCH   3   4
ENDBRANCH   2   3
ENDBRANCH   1   2
BRANCH   1   9
ATOM      9  C   UNL     1       8.746   1.431 -33.165  1.00  0.00     0.000 C 
BRANCH   9  10
ATOM     10  C   UNL     1       9.908   1.581 -32.175  1.00  0.00    -0.000 C 
BRANCH  10  11
ATOM     11  C   UNL     1      11.195   2.001 -32.900  1.00  0.00    -0.000 C 
BRANCH  11  12
ATOM     12  C   UNL     1      11.129   1.753 -34.415  1.00  0.00    -0.000 C 
BRANCH  12  13
ATOM     13  C   UNL     1      12.324   2.360 -35.166  1.00  0.00    -0.003 C 
ATOM     14  C   UNL     1      13.645   1.883 -34.571  1.00  0.00     0.004 C 
ENDBRANCH  12  13
ENDBRANCH  11  12
ENDBRANCH  10  11
ENDBRANCH   9  10
ENDBRANCH   1   9
TORSDOF 10
ENDMDL
MODEL 9
REMARK VINA RESULT:    -4.716      5.360      6.984
REMARK INTER + INTRA:          -8.111
REMARK INTER:                  -7.705
REMARK INTRA:                  -0.405
REMARK UNBOUND:                -0.638
REMARK SMILES CCCCCCCCCCCC(=O)[O-]
REMARK SMILES IDX 7 1 8 2 9 3 10 4 11 5 12 6 13 7 14 8 6 9 5 10 4 11 3 12 2 13
REMARK SMILES IDX 1 14
REMARK H PARENT
REMARK Flexibility Score: inf
ROOT
ATOM      1  C   UNL     1       6.208   0.831 -33.195  1.00  0.00     0.000 C 
ENDROOT
BRANCH   1   2
ATOM      2  C   UNL     1       6.129   1.461 -31.795  1.00  0.00     0.000 C 
BRANCH   2   3
ATOM      3  C   UNL     1       7.493   1.492 -31.084  1.00  0.00     0.000 C 
BRANCH   3   4
ATOM      4  C   UNL     1       7.363   1.404 -29.555  1.00  0.00     0.006 C 
BRANCH   4   5
ATOM      5  C   UNL     1       6.570   0.171 -29.100  1.00  0.00     0.053 C 
BRANCH   5   6
ATOM      6  C   UNL     1       6.739  -0.045 -27.630  1.00  0.00     0.041 C 
ATOM      7  O   UNL     1       7.640   0.567 -26.999  1.00  0.00    -0.550 OA
ATOM      8  O   UNL     1       5.933  -0.960 -26.965  1.00  0.00    -0.550 OA
ENDBRANCH   5   6
ENDBRANCH   4   5
ENDBRANCH   3   4
ENDBRANCH   2   3
ENDBRANCH   1   2
BRANCH   1   9
ATOM      9  C   UNL     1       7.453   1.280 -33.976  1.00  0.00     0.000 C 
BRANCH   9  10
ATOM     10  C   UNL     1       7.194   1.249 -35.487  1.00  0.00    -0.000 C 
BRANCH  10  11
ATOM     11  C   UNL     1       8.257   2.061 -36.243  1.00  0.00    -0.000 C 
BRANCH  11  12
ATOM     12  C   UNL     1       9.316   1.170 -36.912  1.00  0.00    -0.000 C 
BRANCH  12  13
ATOM     13  C   UNL     1       8.809   0.522 -38.210  1.00  0.00    -0.003 C 
ATOM     14  C   UNL     1       8.589  -0.976 -38.025  1.00  0.00     0.004 C 
ENDBRANCH  12  13
ENDBRANCH  11  12
ENDBRANCH  10  11
ENDBRANCH   9  10
ENDBRANCH   1   9
TORSDOF 10
ENDMDL
