MODEL 1
REMARK VINA RESULT:    -4.329      0.000      0.000
REMARK INTER + INTRA:          -8.425
REMARK INTER:                  -6.860
REMARK INTRA:                  -1.564
REMARK UNBOUND:                -1.564
REMARK SMILES CCCCCCCCCCCC(=O)[O-]
REMARK SMILES IDX 7 1 8 2 9 3 10 4 11 5 12 6 13 7 14 8 6 9 5 10 4 11 3 12 2 13
REMARK SMILES IDX 1 14
REMARK H PARENT
REMARK Flexibility Score: inf
ROOT
ATOM      1  C   UNL     1      21.018  -1.767  23.730  1.00  0.00     0.000 C 
ENDROOT
BRANCH   1   2
ATOM      2  C   UNL     1      21.063  -3.133  23.021  1.00  0.00     0.000 C 
BRANCH   2   3
ATOM      3  C   UNL     1      22.063  -3.169  21.853  1.00  0.00     0.000 C 
BRANCH   3   4
ATOM      4  C   UNL     1      21.379  -3.461  20.501  1.00  0.00     0.006 C 
BRANCH   4   5
ATOM      5  C   UNL     1      19.853  -3.612  20.607  1.00  0.00     0.053 C 
BRANCH   5   6
ATOM      6  C   UNL     1      19.305  -4.572  19.600  1.00  0.00     0.041 C 
ATOM      7  O   UNL     1      18.122  -4.993  19.703  1.00  0.00    -0.550 OA
ATOM      8  O   UNL     1      20.108  -5.025  18.561  1.00  0.00    -0.550 OA
ENDBRANCH   5   6
ENDBRANCH   4   5
ENDBRANCH   3   4
ENDBRANCH   2   3
ENDBRANCH   1   2
BRANCH   1   9
ATOM      9  C   UNL     1      19.946  -0.795  23.205  1.00  0.00     0.000 C 
BRANCH   9  10
ATOM     10  C   UNL     1      20.541   0.491  22.613  1.00  0.00    -0.000 C 
BRANCH  10  11
ATOM     11  C   UNL     1      20.707   0.372  21.094  1.00  0.00    -0.000 C 
BRANCH  11  12
ATOM     12  C   UNL     1      22.189   0.329  20.702  1.00  0.00    -0.000 C 
BRANCH  12  13
ATOM     13  C   UNL     1      23.076   0.820  21.852  1.00  0.00    -0.003 C 
ATOM     14  C   UNL     1      24.220  -0.154  22.119  1.00  0.00     0.004 C 
ENDBRANCH  12  13
ENDBRANCH  11  12
ENDBRANCH  10  11
ENDBRANCH   9  10
ENDBRANCH   1   9
TORSDOF 10
ENDMDL
MODEL 2
REMARK VINA RESULT:    -4.274      1.562      2.982
REMARK INTER + INTRA:          -8.336
REMARK INTER:                  -6.646
REMARK INTRA:                  -1.690
REMARK UNBOUND:                -1.564
REMARK SMILES CCCCCCCCCCCC(=O)[O-]
REMARK SMILES IDX 7 1 8 2 9 3 10 4 11 5 12 6 13 7 14 8 6 9 5 10 4 11 3 12 2 13
REMARK SMILES IDX 1 14
REMARK H PARENT
REMARK Flexibility Score: inf
ROOT
ATOM      1  C   UNL     1      19.185   0.087  21.667  1.00  0.00     0.000 C 
ENDROOT
BRANCH   1   2
ATOM      2  C   UNL     1      19.813  -0.422  20.357  1.00  0.00     0.000 C 
BRANCH   2   3
ATOM      3  C   UNL     1      19.092  -1.655  19.786  1.00  0.00     0.000 C 
BRANCH   3   4
ATOM      4  C   UNL     1      18.043  -2.227  20.763  1.00  0.00     0.006 C 
BRANCH   4   5
ATOM      5  C   UNL     1      18.160  -3.746  20.967  1.00  0.00     0.053 C 
BRANCH   5   6
ATOM      6  C   UNL     1      18.170  -4.495  19.672  1.00  0.00     0.041 C 
ATOM      7  O   UNL     1      17.107  -4.633  19.011  1.00  0.00    -0.550 OA
ATOM      8  O   UNL     1      19.349  -5.064  19.206  1.00  0.00    -0.550 OA
ENDBRANCH   5   6
ENDBRANCH   4   5
ENDBRANCH   3   4
ENDBRANCH   2   3
ENDBRANCH   1   2
BRANCH   1   9
ATOM      9  C   UNL     1      20.157   0.190  22.857  1.00  0.00     0.000 C 
BRANCH   9  10
ATOM     10  C   UNL     1      20.086  -1.024  23.794  1.00  0.00    -0.000 C 
BRANCH  10  11
ATOM     11  C   UNL     1      21.360  -1.871  23.694  1.00  0.00    -0.000 C 
BRANCH  11  12
ATOM     12  C   UNL     1      21.072  -3.228  23.040  1.00  0.00    -0.000 C 
BRANCH  12  13
ATOM     13  C   UNL     1      21.808  -3.361  21.703  1.00  0.00    -0.003 C 
ATOM     14  C   UNL     1      22.855  -2.263  21.538  1.00  0.00     0.004 C 
ENDBRANCH  12  13
ENDBRANCH  11  12
ENDBRANCH  10  11
ENDBRANCH   9  10
ENDBRANCH   1   9
TORSDOF 10
ENDMDL
MODEL 3
REMARK VINA RESULT:    -4.238      3.244      5.085
REMARK INTER + INTRA:          -8.280
REMARK INTER:                  -6.712
REMARK INTRA:                  -1.568
REMARK UNBOUND:                -1.564
REMARK SMILES CCCCCCCCCCCC(=O)[O-]
REMARK SMILES IDX 7 1 8 2 9 3 10 4 11 5 12 6 13 7 14 8 6 9 5 10 4 11 3 12 2 13
REMARK SMILES IDX 1 14
REMARK H PARENT
REMARK Flexibility Score: inf
ROOT
ATOM      1  C   UNL     1      19.638  -1.727  20.835  1.00  0.00     0.000 C 
ENDROOT
BRANCH   1   2
ATOM      2  C   UNL     1      19.349  -0.674  19.750  1.00  0.00     0.000 C 
BRANCH   2   3
ATOM      3  C   UNL     1      19.731  -1.149  18.338  1.00  0.00     0.000 C 
BRANCH   3   4
ATOM      4  C   UNL     1      18.496  -1.455  17.465  1.00  0.00     0.006 C 
BRANCH   4   5
ATOM      5  C   UNL     1      17.197  -0.834  18.004  1.00  0.00     0.053 C 
BRANCH   5   6
ATOM      6  C   UNL     1      16.164  -1.868  18.326  1.00  0.00     0.041 C 
ATOM      7  O   UNL     1      15.524  -1.807  19.409  1.00  0.00    -0.550 OA
ATOM      8  O   UNL     1      15.928  -2.915  17.445  1.00  0.00    -0.550 OA
ENDBRANCH   5   6
ENDBRANCH   4   5
ENDBRANCH   3   4
ENDBRANCH   2   3
ENDBRANCH   1   2
BRANCH   1   9
ATOM      9  C   UNL     1      18.511  -2.749  21.066  1.00  0.00     0.000 C 
BRANCH   9  10
ATOM     10  C   UNL     1      18.965  -4.200  20.852  1.00  0.00    -0.000 C 
BRANCH  10  11
ATOM     11  C   UNL     1      18.271  -4.820  19.633  1.00  0.00    -0.000 C 
BRANCH  11  12
ATOM     12  C   UNL     1      19.193  -4.809  18.408  1.00  0.00    -0.000 C 
BRANCH  12  13
ATOM     13  C   UNL     1      20.664  -4.706  18.828  1.00  0.00    -0.003 C 
ATOM     14  C   UNL     1      21.590  -4.818  17.621  1.00  0.00     0.004 C 
ENDBRANCH  12  13
ENDBRANCH  11  12
ENDBRANCH  10  11
ENDBRANCH   9  10
ENDBRANCH   1   9
TORSDOF 10
ENDMDL
MODEL 4
REMARK VINA RESULT:    -4.222      1.531      1.884
REMARK INTER + INTRA:          -8.254
REMARK INTER:                  -6.705
REMARK INTRA:                  -1.549
REMARK UNBOUND:                -1.564
REMARK SMILES CCCCCCCCCCCC(=O)[O-]
REMARK SMILES IDX 7 1 8 2 9 3 10 4 11 5 12 6 13 7 14 8 6 9 5 10 4 11 3 12 2 13
REMARK SMILES IDX 1 14
REMARK H PARENT
REMARK Flexibility Score: inf
ROOT
ATOM      1  C   UNL     1      20.828  -2.962  22.922  1.00  0.00     0.000 C 
ENDROOT
BRANCH   1   2
ATOM      2  C   UNL     1      22.018  -3.307  22.007  1.00  0.00     0.000 C 
BRANCH   2   3
ATOM      3  C   UNL     1      21.786  -2.897  20.543  1.00  0.00     0.000 C 
BRANCH   3   4
ATOM      4  C   UNL     1      20.288  -2.798  20.190  1.00  0.00     0.006 C 
BRANCH   4   5
ATOM      5  C   UNL     1      19.994  -1.838  19.026  1.00  0.00     0.053 C 
BRANCH   5   6
ATOM      6  C   UNL     1      19.743  -2.561  17.741  1.00  0.00     0.041 C 
ATOM      7  O   UNL     1      18.781  -2.224  17.002  1.00  0.00    -0.550 OA
ATOM      8  O   UNL     1      20.555  -3.626  17.371  1.00  0.00    -0.550 OA
ENDBRANCH   5   6
ENDBRANCH   4   5
ENDBRANCH   3   4
ENDBRANCH   2   3
ENDBRANCH   1   2
BRANCH   1   9
ATOM      9  C   UNL     1      20.998  -1.679  23.754  1.00  0.00     0.000 C 
BRANCH   9  10
ATOM     10  C   UNL     1      20.073  -0.541  23.296  1.00  0.00    -0.000 C 
BRANCH  10  11
ATOM     11  C   UNL     1      20.753   0.324  22.229  1.00  0.00    -0.000 C 
BRANCH  11  12
ATOM     12  C   UNL     1      22.151   0.763  22.682  1.00  0.00    -0.000 C 
BRANCH  12  13
ATOM     13  C   UNL     1      23.207   0.405  21.631  1.00  0.00    -0.003 C 
ATOM     14  C   UNL     1      24.331  -0.429  22.241  1.00  0.00     0.004 C 
ENDBRANCH  12  13
ENDBRANCH  11  12
ENDBRANCH  10  11
ENDBRANCH   9  10
ENDBRANCH   1   9
TORSDOF 10
ENDMDL
MODEL 5
REMARK VINA RESULT:    -4.221      2.106      4.514
REMARK INTER + INTRA:          -8.253
REMARK INTER:                  -6.826
REMARK INTRA:                  -1.426
REMARK UNBOUND:                -1.564
REMARK SMILES CCCCCCCCCCCC(=O)[O-]
REMARK SMILES IDX 7 1 8 2 9 3 10 4 11 5 12 6 13 7 14 8 6 9 5 10 4 11 3 12 2 13
REMARK SMILES IDX 1 14
REMARK H PARENT
REMARK Flexibility Score: inf
ROOT
ATOM      1  C   UNL     1      20.492   0.510  20.941  1.00  0.00     0.000 C 
ENDROOT
BRANCH   1   2
ATOM      2  C   UNL     1      20.825   0.276  22.426  1.00  0.00     0.000 C 
BRANCH   2   3
ATOM      3  C   UNL     1      20.113  -0.955  23.013  1.00  0.00     0.000 C 
BRANCH   3   4
ATOM      4  C   UNL     1      21.097  -1.948  23.666  1.00  0.00     0.006 C 
BRANCH   4   5
ATOM      5  C   UNL     1      21.317  -3.225  22.841  1.00  0.00     0.053 C 
BRANCH   5   6
ATOM      6  C   UNL     1      22.171  -2.985  21.636  1.00  0.00     0.041 C 
ATOM      7  O   UNL     1      21.736  -3.258  20.486  1.00  0.00    -0.550 OA
ATOM      8  O   UNL     1      23.458  -2.484  21.784  1.00  0.00    -0.550 OA
ENDBRANCH   5   6
ENDBRANCH   4   5
ENDBRANCH   3   4
ENDBRANCH   2   3
ENDBRANCH   1   2
BRANCH   1   9
ATOM      9  C   UNL     1      19.196  -0.161  20.452  1.00  0.00     0.000 C 
BRANCH   9  10
ATOM     10  C   UNL     1      19.407  -1.037  19.208  1.00  0.00    -0.000 C 
BRANCH  10  11
ATOM     11  C   UNL     1      18.467  -2.247  19.222  1.00  0.00    -0.000 C 
BRANCH  11  12
ATOM     12  C   UNL     1      17.972  -2.546  20.642  1.00  0.00    -0.000 C 
BRANCH  12  13
ATOM     13  C   UNL     1      18.294  -3.989  21.044  1.00  0.00    -0.003 C 
ATOM     14  C   UNL     1      18.609  -4.845  19.821  1.00  0.00     0.004 C 
ENDBRANCH  12  13
ENDBRANCH  11  12
ENDBRANCH  10  11
ENDBRANCH   9  10
ENDBRANCH   1   9
TORSDOF 10
ENDMDL
MODEL 6
REMARK VINA RESULT:    -4.157      2.385      3.442
REMARK INTER + INTRA:          -8.151
REMARK INTER:                  -6.570
REMARK INTRA:                  -1.581
REMARK UNBOUND:                -1.564
REMARK SMILES CCCCCCCCCCCC(=O)[O-]
REMARK SMILES IDX 7 1 8 2 9 3 10 4 11 5 12 6 13 7 14 8 6 9 5 10 4 11 3 12 2 13
REMARK SMILES IDX 1 14
REMARK H PARENT
REMARK Flexibility Score: inf
ROOT
ATOM      1  C   UNL     1      21.464  -3.150  21.573  1.00  0.00     0.000 C 
ENDROOT
BRANCH   1   2
ATOM      2  C   UNL     1      20.349  -3.403  20.542  1.00  0.00     0.000 C 
BRANCH   2   3
ATOM      3  C   UNL     1      19.064  -3.962  21.175  1.00  0.00     0.000 C 
BRANCH   3   4
ATOM      4  C   UNL     1      17.831  -3.083  20.878  1.00  0.00     0.006 C 
BRANCH   4   5
ATOM      5  C   UNL     1      18.157  -1.831  20.047  1.00  0.00     0.053 C 
BRANCH   5   6
ATOM      6  C   UNL     1      17.163  -0.734  20.258  1.00  0.00     0.041 C 
ATOM      7  O   UNL     1      16.933  -0.301  21.418  1.00  0.00    -0.550 OA
ATOM      8  O   UNL     1      16.469  -0.206  19.176  1.00  0.00    -0.550 OA
ENDBRANCH   5   6
ENDBRANCH   4   5
ENDBRANCH   3   4
ENDBRANCH   2   3
ENDBRANCH   1   2
BRANCH   1   9
ATOM      9  C   UNL     1      20.997  -3.103  23.039  1.00  0.00     0.000 C 
BRANCH   9  10
ATOM     10  C   UNL     1      21.114  -1.703  23.660  1.00  0.00    -0.000 C 
BRANCH  10  11
ATOM     11  C   UNL     1      19.943  -0.811  23.231  1.00  0.00    -0.000 C 
BRANCH  11  12
ATOM     12  C   UNL     1      20.438   0.567  22.776  1.00  0.00    -0.000 C 
BRANCH  12  13
ATOM     13  C   UNL     1      20.588   0.622  21.252  1.00  0.00    -0.003 C 
ATOM     14  C   UNL     1      22.057   0.563  20.841  1.00  0.00     0.004 C 
ENDBRANCH  12  13
ENDBRANCH  11  12
ENDBRANCH  10  11
ENDBRANCH   9  10
ENDBRANCH   1   9
TORSDOF 10
ENDMDL
MODEL 7
REMARK VINA RESULT:    -4.148      1.911      3.054
REMARK INTER + INTRA:          -8.138
REMARK INTER:                  -6.780
REMARK INTRA:                  -1.358
REMARK UNBOUND:                -1.564
REMARK SMILES CCCCCCCCCCCC(=O)[O-]
REMARK SMILES IDX 7 1 8 2 9 3 10 4 11 5 12 6 13 7 14 8 6 9 5 10 4 11 3 12 2 13
REMARK SMILES IDX 1 14
REMARK H PARENT
REMARK Flexibility Score: inf
ROOT
ATOM      1  C   UNL     1      20.238  -1.121  23.686  1.00  0.00     0.000 C 
ENDROOT
BRANCH   1   2
ATOM      2  C   UNL     1      21.284  -2.076  23.082  1.00  0.00     0.000 C 
BRANCH   2   3
ATOM      3  C   UNL     1      20.690  -3.438  22.682  1.00  0.00     0.000 C 
BRANCH   3   4
ATOM      4  C   UNL     1      20.102  -3.427  21.256  1.00  0.00     0.006 C 
BRANCH   4   5
ATOM      5  C   UNL     1      18.763  -4.173  21.140  1.00  0.00     0.053 C 
BRANCH   5   6
ATOM      6  C   UNL     1      18.485  -4.630  19.743  1.00  0.00     0.041 C 
ATOM      7  O   UNL     1      17.301  -4.680  19.316  1.00  0.00    -0.550 OA
ATOM      8  O   UNL     1      19.531  -5.026  18.919  1.00  0.00    -0.550 OA
ENDBRANCH   5   6
ENDBRANCH   4   5
ENDBRANCH   3   4
ENDBRANCH   2   3
ENDBRANCH   1   2
BRANCH   1   9
ATOM      9  C   UNL     1      20.125   0.246  22.987  1.00  0.00     0.000 C 
BRANCH   9  10
ATOM     10  C   UNL     1      19.348   0.180  21.665  1.00  0.00    -0.000 C 
BRANCH  10  11
ATOM     11  C   UNL     1      17.961  -0.439  21.872  1.00  0.00    -0.000 C 
BRANCH  11  12
ATOM     12  C   UNL     1      17.355  -0.896  20.540  1.00  0.00    -0.000 C 
BRANCH  12  13
ATOM     13  C   UNL     1      18.039  -0.200  19.358  1.00  0.00    -0.003 C 
ATOM     14  C   UNL     1      18.407  -1.201  18.266  1.00  0.00     0.004 C 
ENDBRANCH  12  13
ENDBRANCH  11  12
ENDBRANCH  10  11
ENDBRANCH   9  10
ENDBRANCH   1   9
TORSDOF 10
ENDMDL
MODEL 8
REMARK VINA RESULT:    -4.141      2.038      3.202
REMARK INTER + INTRA:          -8.126
REMARK INTER:                  -6.705
REMARK INTRA:                  -1.421
REMARK UNBOUND:                -1.564
REMARK SMILES CCCCCCCCCCCC(=O)[O-]
REMARK SMILES IDX 7 1 8 2 9 3 10 4 11 5 12 6 13 7 14 8 6 9 5 10 4 11 3 12 2 13
REMARK SMILES IDX 1 14
REMARK H PARENT
REMARK Flexibility Score: inf
ROOT
ATOM      1  C   UNL     1      21.030  -1.855  23.581  1.00  0.00     0.000 C 
ENDROOT
BRANCH   1   2
ATOM      2  C   UNL     1      20.982  -3.029  22.586  1.00  0.00     0.000 C 
BRANCH   2   3
ATOM      3  C   UNL     1      22.178  -3.044  21.619  1.00  0.00     0.000 C 
BRANCH   3   4
ATOM      4  C   UNL     1      21.747  -2.863  20.148  1.00  0.00     0.006 C 
BRANCH   4   5
ATOM      5  C   UNL     1      21.422  -4.186  19.437  1.00  0.00     0.053 C 
BRANCH   5   6
ATOM      6  C   UNL     1      21.142  -3.995  17.980  1.00  0.00     0.041 C 
ATOM      7  O   UNL     1      20.437  -3.027  17.592  1.00  0.00    -0.550 OA
ATOM      8  O   UNL     1      21.636  -4.902  17.051  1.00  0.00    -0.550 OA
ENDBRANCH   5   6
ENDBRANCH   4   5
ENDBRANCH   3   4
ENDBRANCH   2   3
ENDBRANCH   1   2
BRANCH   1   9
ATOM      9  C   UNL     1      19.965  -0.767  23.355  1.00  0.00     0.000 C 
BRANCH   9  10
ATOM     10  C   UNL     1      20.099  -0.072  21.993  1.00  0.00    -0.000 C 
BRANCH  10  11
ATOM     11  C   UNL     1      18.722   0.173  21.363  1.00  0.00    -0.000 C 
BRANCH  11  12
ATOM     12  C   UNL     1      17.854  -1.089  21.429  1.00  0.00    -0.000 C 
BRANCH  12  13
ATOM     13  C   UNL     1      18.187  -2.047  20.280  1.00  0.00    -0.003 C 
ATOM     14  C   UNL     1      17.926  -3.497  20.678  1.00  0.00     0.004 C 
ENDBRANCH  12  13
ENDBRANCH  11  12
ENDBRANCH  10  11
ENDBRANCH   9  10
ENDBRANCH   1   9
TORSDOF 10
ENDMDL
MODEL 9
REMARK VINA RESULT:    -4.109      2.234      3.769
REMARK INTER + INTRA:          -8.075
REMARK INTER:                  -6.716
REMARK INTRA:                  -1.359
REMARK UNBOUND:                -1.564
REMARK SMILES CCCCCCCCCCCC(=O)[O-]
REMARK SMILES IDX 7 1 8 2 9 3 10 4 11 5 12 6 13 7 14 8 6 9 5 10 4 11 3 12 2 13
REMARK SMILES IDX 1 14
REMARK H PARENT
REMARK Flexibility Score: inf
ROOT
ATOM      1  C   UNL     1      20.973  -2.438  19.980  1.00  0.00     0.000 C 
ENDROOT
BRANCH   1   2
ATOM      2  C   UNL     1      20.474  -1.166  19.269  1.00  0.00     0.000 C 
BRANCH   2   3
ATOM      3  C   UNL     1      18.940  -1.072  19.216  1.00  0.00     0.000 C 
BRANCH   3   4
ATOM      4  C   UNL     1      18.402  -1.038  17.770  1.00  0.00     0.006 C 
BRANCH   4   5
ATOM      5  C   UNL     1      18.728  -2.306  16.965  1.00  0.00     0.053 C 
BRANCH   5   6
ATOM      6  C   UNL     1      17.907  -3.480  17.395  1.00  0.00     0.041 C 
ATOM      7  O   UNL     1      18.468  -4.532  17.802  1.00  0.00    -0.550 OA
ATOM      8  O   UNL     1      16.521  -3.425  17.321  1.00  0.00    -0.550 OA
ENDBRANCH   5   6
ENDBRANCH   4   5
ENDBRANCH   3   4
ENDBRANCH   2   3
ENDBRANCH   1   2
BRANCH   1   9
ATOM      9  C   UNL     1      19.890  -3.226  20.738  1.00  0.00     0.000 C 
BRANCH   9  10
ATOM     10  C   UNL     1      20.253  -3.477  22.210  1.00  0.00    -0.000 C 
BRANCH  10  11
ATOM     11  C   UNL     1      21.377  -2.541  22.666  1.00  0.00    -0.000 C 
BRANCH  11  12
ATOM     12  C   UNL     1      20.898  -1.606  23.783  1.00  0.00    -0.000 C 
BRANCH  12  13
ATOM     13  C   UNL     1      20.098  -0.431  23.212  1.00  0.00    -0.003 C 
ATOM     14  C   UNL     1      21.017   0.589  22.545  1.00  0.00     0.004 C 
ENDBRANCH  12  13
ENDBRANCH  11  12
ENDBRANCH  10  11
ENDBRANCH   9  10
ENDBRANCH   1   9
TORSDOF 10
ENDMDL
