MODEL 1
REMARK VINA RESULT:    -3.598      0.000      0.000
REMARK INTER + INTRA:          -3.703
REMARK INTER:                  -3.703
REMARK INTRA:                   0.000
REMARK UNBOUND:                 0.000
REMARK SMILES CC1(C)[C@H]2CC[C@](C)(C2)[C@@H]1O
REMARK SMILES IDX 1 1 2 2 4 3 5 4 6 5 7 6 9 7 10 8 8 9 3 10 11 11
REMARK H PARENT 11 12
REMARK Flexibility Score: inf
ROOT
ATOM      1  C   UNL     1     142.263 145.042 141.658  1.00  0.00     0.014 C 
ATOM      2  C   UNL     1     141.777 146.500 141.870  1.00  0.00    -0.006 C 
ATOM      3  C   UNL     1     140.607 146.818 140.876  1.00  0.00    -0.002 C 
ATOM      4  C   UNL     1     139.904 148.142 141.244  1.00  0.00     0.005 C 
ATOM      5  C   UNL     1     140.980 149.195 140.935  1.00  0.00     0.010 C 
ATOM      6  C   UNL     1     142.122 148.349 140.324  1.00  0.00    -0.006 C 
ATOM      7  C   UNL     1     141.351 147.251 139.625  1.00  0.00     0.013 C 
ATOM      8  C   UNL     1     142.842 147.577 141.466  1.00  0.00     0.126 C 
ATOM      9  C   UNL     1     143.043 149.156 139.399  1.00  0.00     0.014 C 
ATOM     10  C   UNL     1     141.378 146.638 143.360  1.00  0.00     0.014 C 
ENDROOT
BRANCH   8  11
ATOM     11  O   UNL     1     144.030 146.981 141.002  1.00  0.00    -0.392 OA
ATOM     12  H   UNL     1     144.704 147.705 140.918  1.00  0.00     0.211 HD
ENDBRANCH   8  11
TORSDOF 1
ENDMDL
MODEL 2
REMARK VINA RESULT:    -3.590      8.623      9.734
REMARK INTER + INTRA:          -3.695
REMARK INTER:                  -3.695
REMARK INTRA:                   0.000
REMARK UNBOUND:                 0.000
REMARK SMILES CC1(C)[C@H]2CC[C@](C)(C2)[C@@H]1O
REMARK SMILES IDX 1 1 2 2 4 3 5 4 6 5 7 6 9 7 10 8 8 9 3 10 11 11
REMARK H PARENT 11 12
REMARK Flexibility Score: inf
ROOT
ATOM      1  C   UNL     1     136.577 142.231 141.573  1.00  0.00     0.014 C 
ATOM      2  C   UNL     1     135.110 141.784 141.806  1.00  0.00    -0.006 C 
ATOM      3  C   UNL     1     134.748 140.622 140.819  1.00  0.00    -0.002 C 
ATOM      4  C   UNL     1     133.412 139.954 141.205  1.00  0.00     0.005 C 
ATOM      5  C   UNL     1     132.383 141.056 140.910  1.00  0.00     0.010 C 
ATOM      6  C   UNL     1     133.250 142.175 140.286  1.00  0.00    -0.006 C 
ATOM      7  C   UNL     1     134.317 141.375 139.573  1.00  0.00     0.013 C 
ATOM      8  C   UNL     1     134.056 142.876 141.416  1.00  0.00     0.126 C 
ATOM      9  C   UNL     1     132.454 143.116 139.371  1.00  0.00     0.014 C 
ATOM     10  C   UNL     1     134.983 141.390 143.298  1.00  0.00     0.014 C 
ENDROOT
BRANCH   8  11
ATOM     11  O   UNL     1     134.677 144.048 140.942  1.00  0.00    -0.392 OA
ATOM     12  H   UNL     1     134.207 144.308 140.107  1.00  0.00     0.211 HD
ENDBRANCH   8  11
TORSDOF 1
ENDMDL
MODEL 3
REMARK VINA RESULT:    -3.573      8.666      9.778
REMARK INTER + INTRA:          -3.678
REMARK INTER:                  -3.678
REMARK INTRA:                   0.000
REMARK UNBOUND:                 0.000
REMARK SMILES CC1(C)[C@H]2CC[C@](C)(C2)[C@@H]1O
REMARK SMILES IDX 1 1 2 2 4 3 5 4 6 5 7 6 9 7 10 8 8 9 3 10 11 11
REMARK H PARENT 11 12
REMARK Flexibility Score: inf
ROOT
ATOM      1  C   UNL     1     145.070 139.373 141.583  1.00  0.00     0.014 C 
ATOM      2  C   UNL     1     146.530 139.849 141.805  1.00  0.00    -0.006 C 
ATOM      3  C   UNL     1     146.868 141.003 140.799  1.00  0.00    -0.002 C 
ATOM      4  C   UNL     1     148.194 141.699 141.172  1.00  0.00     0.005 C 
ATOM      5  C   UNL     1     149.241 140.611 140.891  1.00  0.00     0.010 C 
ATOM      6  C   UNL     1     148.392 139.468 140.286  1.00  0.00    -0.006 C 
ATOM      7  C   UNL     1     147.310 140.238 139.564  1.00  0.00     0.013 C 
ATOM      8  C   UNL     1     147.602 138.770 141.429  1.00  0.00     0.126 C 
ATOM      9  C   UNL     1     149.202 138.527 139.384  1.00  0.00     0.014 C 
ATOM     10  C   UNL     1     146.654 140.269 143.291  1.00  0.00     0.014 C 
ENDROOT
BRANCH   8  11
ATOM     11  O   UNL     1     147.001 137.580 140.975  1.00  0.00    -0.392 OA
ATOM     12  H   UNL     1     147.172 136.887 141.666  1.00  0.00     0.211 HD
ENDBRANCH   8  11
TORSDOF 1
ENDMDL
MODEL 4
REMARK VINA RESULT:    -3.565     11.547     13.767
REMARK INTER + INTRA:          -3.669
REMARK INTER:                  -3.669
REMARK INTRA:                   0.000
REMARK UNBOUND:                 0.000
REMARK SMILES CC1(C)[C@H]2CC[C@](C)(C2)[C@@H]1O
REMARK SMILES IDX 1 1 2 2 4 3 5 4 6 5 7 6 9 7 10 8 8 9 3 10 11 11
REMARK H PARENT 11 12
REMARK Flexibility Score: inf
ROOT
ATOM      1  C   UNL     1     139.352 136.614 141.619  1.00  0.00     0.014 C 
ATOM      2  C   UNL     1     139.845 135.163 141.861  1.00  0.00    -0.006 C 
ATOM      3  C   UNL     1     140.983 134.814 140.841  1.00  0.00    -0.002 C 
ATOM      4  C   UNL     1     141.698 133.502 141.227  1.00  0.00     0.005 C 
ATOM      5  C   UNL     1     140.614 132.440 140.987  1.00  0.00     0.010 C 
ATOM      6  C   UNL     1     139.453 133.267 140.386  1.00  0.00    -0.006 C 
ATOM      7  C   UNL     1     140.201 134.342 139.629  1.00  0.00     0.013 C 
ATOM      8  C   UNL     1     138.769 134.074 141.525  1.00  0.00     0.126 C 
ATOM      9  C   UNL     1     138.504 132.432 139.517  1.00  0.00     0.014 C 
ATOM     10  C   UNL     1     140.292 135.072 143.341  1.00  0.00     0.014 C 
ENDROOT
BRANCH   8  11
ATOM     11  O   UNL     1     137.566 134.656 141.081  1.00  0.00    -0.392 OA
ATOM     12  H   UNL     1     137.507 135.555 141.499  1.00  0.00     0.211 HD
ENDBRANCH   8  11
TORSDOF 1
ENDMDL
MODEL 5
REMARK VINA RESULT:    -3.542      8.621      9.957
REMARK INTER + INTRA:          -3.646
REMARK INTER:                  -3.646
REMARK INTRA:                   0.000
REMARK UNBOUND:                 0.000
REMARK SMILES CC1(C)[C@H]2CC[C@](C)(C2)[C@@H]1O
REMARK SMILES IDX 1 1 2 2 4 3 5 4 6 5 7 6 9 7 10 8 8 9 3 10 11 11
REMARK H PARENT 11 12
REMARK Flexibility Score: inf
ROOT
ATOM      1  C   UNL     1     132.065 143.176 141.003  1.00  0.00     0.014 C 
ATOM      2  C   UNL     1     133.106 142.250 140.320  1.00  0.00    -0.006 C 
ATOM      3  C   UNL     1     133.240 140.916 141.131  1.00  0.00    -0.002 C 
ATOM      4  C   UNL     1     134.036 139.857 140.340  1.00  0.00     0.005 C 
ATOM      5  C   UNL     1     135.454 140.446 140.314  1.00  0.00     0.010 C 
ATOM      6  C   UNL     1     135.314 141.713 141.191  1.00  0.00    -0.006 C 
ATOM      7  C   UNL     1     134.265 141.280 142.190  1.00  0.00     0.013 C 
ATOM      8  C   UNL     1     134.569 142.808 140.376  1.00  0.00     0.126 C 
ATOM      9  C   UNL     1     136.639 142.159 141.824  1.00  0.00     0.014 C 
ATOM     10  C   UNL     1     132.642 142.040 138.857  1.00  0.00     0.014 C 
ENDROOT
BRANCH   8  11
ATOM     11  O   UNL     1     134.623 144.052 141.034  1.00  0.00    -0.392 OA
ATOM     12  H   UNL     1     135.567 144.358 140.999  1.00  0.00     0.211 HD
ENDBRANCH   8  11
TORSDOF 1
ENDMDL
MODEL 6
REMARK VINA RESULT:    -3.523      8.183      9.934
REMARK INTER + INTRA:          -3.626
REMARK INTER:                  -3.626
REMARK INTRA:                   0.000
REMARK UNBOUND:                 0.000
REMARK SMILES CC1(C)[C@H]2CC[C@](C)(C2)[C@@H]1O
REMARK SMILES IDX 1 1 2 2 4 3 5 4 6 5 7 6 9 7 10 8 8 9 3 10 11 11
REMARK H PARENT 11 12
REMARK Flexibility Score: inf
ROOT
ATOM      1  C   UNL     1     149.578 138.503 141.012  1.00  0.00     0.014 C 
ATOM      2  C   UNL     1     148.511 139.407 140.340  1.00  0.00    -0.006 C 
ATOM      3  C   UNL     1     148.380 140.751 141.136  1.00  0.00    -0.002 C 
ATOM      4  C   UNL     1     147.553 141.790 140.349  1.00  0.00     0.005 C 
ATOM      5  C   UNL     1     146.142 141.183 140.363  1.00  0.00     0.010 C 
ATOM      6  C   UNL     1     146.317 139.930 141.254  1.00  0.00    -0.006 C 
ATOM      7  C   UNL     1     147.384 140.389 142.223  1.00  0.00     0.013 C 
ATOM      8  C   UNL     1     147.057 138.833 140.437  1.00  0.00     0.126 C 
ATOM      9  C   UNL     1     145.013 139.478 141.924  1.00  0.00     0.014 C 
ATOM     10  C   UNL     1     148.939 139.602 138.864  1.00  0.00     0.014 C 
ENDROOT
BRANCH   8  11
ATOM     11  O   UNL     1     147.033 137.597 141.113  1.00  0.00    -0.392 OA
ATOM     12  H   UNL     1     147.436 136.926 140.503  1.00  0.00     0.211 HD
ENDBRANCH   8  11
TORSDOF 1
ENDMDL
MODEL 7
REMARK VINA RESULT:    -3.518      0.973      3.104
REMARK INTER + INTRA:          -3.620
REMARK INTER:                  -3.620
REMARK INTRA:                   0.000
REMARK UNBOUND:                 0.000
REMARK SMILES CC1(C)[C@H]2CC[C@](C)(C2)[C@@H]1O
REMARK SMILES IDX 1 1 2 2 4 3 5 4 6 5 7 6 9 7 10 8 8 9 3 10 11 11
REMARK H PARENT 11 12
REMARK Flexibility Score: inf
ROOT
ATOM      1  C   UNL     1     143.054 149.559 140.972  1.00  0.00     0.014 C 
ATOM      2  C   UNL     1     142.179 148.448 140.333  1.00  0.00    -0.006 C 
ATOM      3  C   UNL     1     140.843 148.300 141.139  1.00  0.00    -0.002 C 
ATOM      4  C   UNL     1     139.825 147.422 140.379  1.00  0.00     0.005 C 
ATOM      5  C   UNL     1     140.473 146.030 140.430  1.00  0.00     0.010 C 
ATOM      6  C   UNL     1     141.723 146.266 141.310  1.00  0.00    -0.006 C 
ATOM      7  C   UNL     1     141.237 147.345 142.252  1.00  0.00     0.013 C 
ATOM      8  C   UNL     1     142.796 147.014 140.469  1.00  0.00     0.126 C 
ATOM      9  C   UNL     1     142.215 144.994 142.014  1.00  0.00     0.014 C 
ATOM     10  C   UNL     1     141.966 148.829 138.848  1.00  0.00     0.014 C 
ENDROOT
BRANCH   8  11
ATOM     11  O   UNL     1     144.034 147.044 141.139  1.00  0.00    -0.392 OA
ATOM     12  H   UNL     1     144.015 146.318 141.816  1.00  0.00     0.211 HD
ENDBRANCH   8  11
TORSDOF 1
ENDMDL
MODEL 8
REMARK VINA RESULT:    -3.488     11.504     13.637
REMARK INTER + INTRA:          -3.590
REMARK INTER:                  -3.590
REMARK INTRA:                   0.000
REMARK UNBOUND:                 0.000
REMARK SMILES CC1(C)[C@H]2CC[C@](C)(C2)[C@@H]1O
REMARK SMILES IDX 1 1 2 2 4 3 5 4 6 5 7 6 9 7 10 8 8 9 3 10 11 11
REMARK H PARENT 11 12
REMARK Flexibility Score: inf
ROOT
ATOM      1  C   UNL     1     138.483 132.152 140.995  1.00  0.00     0.014 C 
ATOM      2  C   UNL     1     139.401 133.210 140.327  1.00  0.00    -0.006 C 
ATOM      3  C   UNL     1     140.733 133.345 141.143  1.00  0.00    -0.002 C 
ATOM      4  C   UNL     1     141.786 134.161 140.364  1.00  0.00     0.005 C 
ATOM      5  C   UNL     1     141.184 135.574 140.355  1.00  0.00     0.010 C 
ATOM      6  C   UNL     1     139.917 135.411 141.228  1.00  0.00    -0.006 C 
ATOM      7  C   UNL     1     140.357 134.353 142.214  1.00  0.00     0.013 C 
ATOM      8  C   UNL     1     138.830 134.667 140.402  1.00  0.00     0.126 C 
ATOM      9  C   UNL     1     139.459 136.723 141.878  1.00  0.00     0.014 C 
ATOM     10  C   UNL     1     139.618 132.767 138.859  1.00  0.00     0.014 C 
ENDROOT
BRANCH   8  11
ATOM     11  O   UNL     1     137.584 134.701 141.058  1.00  0.00    -0.392 OA
ATOM     12  H   UNL     1     137.749 135.039 141.977  1.00  0.00     0.211 HD
ENDBRANCH   8  11
TORSDOF 1
ENDMDL
MODEL 9
REMARK VINA RESULT:    -3.221      8.855     10.033
REMARK INTER + INTRA:          -3.315
REMARK INTER:                  -3.315
REMARK INTRA:                   0.000
REMARK UNBOUND:                 0.000
REMARK SMILES CC1(C)[C@H]2CC[C@](C)(C2)[C@@H]1O
REMARK SMILES IDX 1 1 2 2 4 3 5 4 6 5 7 6 9 7 10 8 8 9 3 10 11 11
REMARK H PARENT 11 12
REMARK Flexibility Score: inf
ROOT
ATOM      1  C   UNL     1     133.018 140.693 138.643  1.00  0.00     0.014 C 
ATOM      2  C   UNL     1     133.207 141.181 140.104  1.00  0.00    -0.006 C 
ATOM      3  C   UNL     1     133.918 142.578 140.107  1.00  0.00    -0.002 C 
ATOM      4  C   UNL     1     133.865 143.230 141.504  1.00  0.00     0.005 C 
ATOM      5  C   UNL     1     134.779 142.320 142.339  1.00  0.00     0.010 C 
ATOM      6  C   UNL     1     135.329 141.329 141.286  1.00  0.00    -0.006 C 
ATOM      7  C   UNL     1     135.386 142.196 140.048  1.00  0.00     0.013 C 
ATOM      8  C   UNL     1     134.213 140.307 140.928  1.00  0.00     0.126 C 
ATOM      9  C   UNL     1     136.676 140.711 141.683  1.00  0.00     0.014 C 
ATOM     10  C   UNL     1     131.807 141.199 140.765  1.00  0.00     0.014 C 
ENDROOT
BRANCH   8  11
ATOM     11  O   UNL     1     134.727 139.246 140.158  1.00  0.00    -0.392 OA
ATOM     12  H   UNL     1     135.439 139.625 139.580  1.00  0.00     0.211 HD
ENDBRANCH   8  11
TORSDOF 1
ENDMDL
