MODEL 1
REMARK VINA RESULT:    -3.556      0.000      0.000
REMARK INTER + INTRA:          -9.069
REMARK INTER:                  -6.674
REMARK INTRA:                  -2.396
REMARK UNBOUND:                -2.396
REMARK SMILES CCCCCCCCC=CCCCCCCCC(=O)[O-]
REMARK SMILES IDX 10 1 9 2 11 3 12 4 13 5 14 6 15 7 16 8 17 9 18 10 19 11
REMARK SMILES IDX 20 12 8 13 7 14 6 15 5 16 4 17 3 18 2 19 1 20
REMARK H PARENT
REMARK Flexibility Score: inf
ROOT
ATOM      1  C   UNL     1      35.277   6.866 -30.964  1.00  0.00    -0.031 C 
ATOM      2  C   UNL     1      35.700   5.939 -31.844  1.00  0.00    -0.031 C 
ENDROOT
BRANCH   1   3
ATOM      3  C   UNL     1      34.033   7.703 -31.132  1.00  0.00     0.027 C 
BRANCH   3   4
ATOM      4  C   UNL     1      33.041   7.532 -29.966  1.00  0.00     0.004 C 
BRANCH   4   5
ATOM      5  C   UNL     1      32.417   6.126 -29.874  1.00  0.00     0.000 C 
BRANCH   5   6
ATOM      6  C   UNL     1      32.831   5.299 -28.641  1.00  0.00     0.000 C 
BRANCH   6   7
ATOM      7  C   UNL     1      33.481   3.938 -28.951  1.00  0.00     0.000 C 
BRANCH   7   8
ATOM      8  C   UNL     1      35.017   3.970 -28.857  1.00  0.00     0.006 C 
BRANCH   8   9
ATOM      9  C   UNL     1      35.504   4.875 -27.718  1.00  0.00     0.053 C 
BRANCH   9  10
ATOM     10  C   UNL     1      35.831   4.087 -26.486  1.00  0.00     0.041 C 
ATOM     11  O   UNL     1      36.045   2.848 -26.564  1.00  0.00    -0.550 OA
ATOM     12  O   UNL     1      35.866   4.713 -25.246  1.00  0.00    -0.550 OA
ENDBRANCH   9  10
ENDBRANCH   8   9
ENDBRANCH   7   8
ENDBRANCH   6   7
ENDBRANCH   5   6
ENDBRANCH   4   5
ENDBRANCH   3   4
ENDBRANCH   1   3
BRANCH   2  13
ATOM     13  C   UNL     1      34.951   5.529 -33.086  1.00  0.00     0.027 C 
BRANCH  13  14
ATOM     14  C   UNL     1      34.240   4.190 -32.868  1.00  0.00     0.004 C 
BRANCH  14  15
ATOM     15  C   UNL     1      32.716   4.359 -32.942  1.00  0.00     0.000 C 
BRANCH  15  16
ATOM     16  C   UNL     1      31.965   3.025 -32.806  1.00  0.00     0.000 C 
BRANCH  16  17
ATOM     17  C   UNL     1      31.261   2.606 -34.108  1.00  0.00    -0.000 C 
BRANCH  17  18
ATOM     18  C   UNL     1      31.475   1.121 -34.443  1.00  0.00    -0.000 C 
BRANCH  18  19
ATOM     19  C   UNL     1      32.877   0.626 -34.061  1.00  0.00    -0.003 C 
ATOM     20  C   UNL     1      33.671   0.214 -35.298  1.00  0.00     0.004 C 
ENDBRANCH  18  19
ENDBRANCH  17  18
ENDBRANCH  16  17
ENDBRANCH  15  16
ENDBRANCH  14  15
ENDBRANCH  13  14
ENDBRANCH   2  13
TORSDOF 15
ENDMDL
MODEL 2
REMARK VINA RESULT:    -3.531      9.619     12.054
REMARK INTER + INTRA:          -9.023
REMARK INTER:                  -6.381
REMARK INTRA:                  -2.642
REMARK UNBOUND:                -2.396
REMARK SMILES CCCCCCCCC=CCCCCCCCC(=O)[O-]
REMARK SMILES IDX 10 1 9 2 11 3 12 4 13 5 14 6 15 7 16 8 17 9 18 10 19 11
REMARK SMILES IDX 20 12 8 13 7 14 6 15 5 16 4 17 3 18 2 19 1 20
REMARK H PARENT
REMARK Flexibility Score: inf
ROOT
ATOM      1  C   UNL     1      30.825  -3.555 -39.345  1.00  0.00    -0.031 C 
ATOM      2  C   UNL     1      30.095  -2.717 -40.105  1.00  0.00    -0.031 C 
ENDROOT
BRANCH   1   3
ATOM      3  C   UNL     1      30.253  -4.488 -38.305  1.00  0.00     0.027 C 
BRANCH   3   4
ATOM      4  C   UNL     1      30.201  -3.851 -36.902  1.00  0.00     0.004 C 
BRANCH   4   5
ATOM      5  C   UNL     1      28.773  -3.582 -36.389  1.00  0.00     0.000 C 
BRANCH   5   6
ATOM      6  C   UNL     1      27.656  -4.375 -37.095  1.00  0.00     0.000 C 
BRANCH   6   7
ATOM      7  C   UNL     1      26.231  -4.104 -36.578  1.00  0.00     0.000 C 
BRANCH   7   8
ATOM      8  C   UNL     1      26.055  -4.458 -35.091  1.00  0.00     0.006 C 
BRANCH   8   9
ATOM      9  C   UNL     1      25.017  -3.559 -34.406  1.00  0.00     0.053 C 
BRANCH   9  10
ATOM     10  C   UNL     1      24.417  -4.224 -33.204  1.00  0.00     0.041 C 
ATOM     11  O   UNL     1      24.773  -5.388 -32.879  1.00  0.00    -0.550 OA
ATOM     12  O   UNL     1      23.437  -3.573 -32.464  1.00  0.00    -0.550 OA
ENDBRANCH   9  10
ENDBRANCH   8   9
ENDBRANCH   7   8
ENDBRANCH   6   7
ENDBRANCH   5   6
ENDBRANCH   4   5
ENDBRANCH   3   4
ENDBRANCH   1   3
BRANCH   2  13
ATOM     13  C   UNL     1      28.589  -2.644 -40.100  1.00  0.00     0.027 C 
BRANCH  13  14
ATOM     14  C   UNL     1      28.119  -1.265 -39.627  1.00  0.00     0.004 C 
BRANCH  14  15
ATOM     15  C   UNL     1      29.313  -0.385 -39.229  1.00  0.00     0.000 C 
BRANCH  15  16
ATOM     16  C   UNL     1      29.402  -0.159 -37.711  1.00  0.00     0.000 C 
BRANCH  16  17
ATOM     17  C   UNL     1      30.853  -0.118 -37.203  1.00  0.00    -0.000 C 
BRANCH  17  18
ATOM     18  C   UNL     1      31.852   0.286 -38.300  1.00  0.00    -0.000 C 
BRANCH  18  19
ATOM     19  C   UNL     1      33.014  -0.708 -38.433  1.00  0.00    -0.003 C 
ATOM     20  C   UNL     1      33.127  -1.591 -37.194  1.00  0.00     0.004 C 
ENDBRANCH  18  19
ENDBRANCH  17  18
ENDBRANCH  16  17
ENDBRANCH  15  16
ENDBRANCH  14  15
ENDBRANCH  13  14
ENDBRANCH   2  13
TORSDOF 15
ENDMDL
MODEL 3
REMARK VINA RESULT:    -3.492     10.965     13.493
REMARK INTER + INTRA:          -8.951
REMARK INTER:                  -5.842
REMARK INTRA:                  -3.109
REMARK UNBOUND:                -2.396
REMARK SMILES CCCCCCCCC=CCCCCCCCC(=O)[O-]
REMARK SMILES IDX 10 1 9 2 11 3 12 4 13 5 14 6 15 7 16 8 17 9 18 10 19 11
REMARK SMILES IDX 20 12 8 13 7 14 6 15 5 16 4 17 3 18 2 19 1 20
REMARK H PARENT
REMARK Flexibility Score: inf
ROOT
ATOM      1  C   UNL     1      26.955  -4.078 -29.021  1.00  0.00    -0.031 C 
ATOM      2  C   UNL     1      25.784  -3.571 -28.592  1.00  0.00    -0.031 C 
ENDROOT
BRANCH   1   3
ATOM      3  C   UNL     1      27.168  -5.514 -29.434  1.00  0.00     0.027 C 
BRANCH   3   4
ATOM      4  C   UNL     1      27.725  -6.384 -28.291  1.00  0.00     0.004 C 
BRANCH   4   5
ATOM      5  C   UNL     1      27.047  -7.762 -28.163  1.00  0.00     0.000 C 
BRANCH   5   6
ATOM      6  C   UNL     1      25.665  -7.882 -28.835  1.00  0.00     0.000 C 
BRANCH   6   7
ATOM      7  C   UNL     1      24.464  -7.883 -27.871  1.00  0.00     0.000 C 
BRANCH   7   8
ATOM      8  C   UNL     1      24.882  -7.962 -26.392  1.00  0.00     0.006 C 
BRANCH   8   9
ATOM      9  C   UNL     1      24.573  -6.662 -25.637  1.00  0.00     0.053 C 
BRANCH   9  10
ATOM     10  C   UNL     1      25.820  -6.017 -25.113  1.00  0.00     0.041 C 
ATOM     11  O   UNL     1      26.043  -4.797 -25.334  1.00  0.00    -0.550 OA
ATOM     12  O   UNL     1      26.753  -6.771 -24.413  1.00  0.00    -0.550 OA
ENDBRANCH   9  10
ENDBRANCH   8   9
ENDBRANCH   7   8
ENDBRANCH   6   7
ENDBRANCH   5   6
ENDBRANCH   4   5
ENDBRANCH   3   4
ENDBRANCH   1   3
BRANCH   2  13
ATOM     13  C   UNL     1      24.484  -4.334 -28.544  1.00  0.00     0.027 C 
BRANCH  13  14
ATOM     14  C   UNL     1      23.721  -4.179 -29.863  1.00  0.00     0.004 C 
BRANCH  14  15
ATOM     15  C   UNL     1      23.712  -5.498 -30.650  1.00  0.00     0.000 C 
BRANCH  15  16
ATOM     16  C   UNL     1      24.428  -5.383 -32.005  1.00  0.00     0.000 C 
BRANCH  16  17
ATOM     17  C   UNL     1      23.710  -4.427 -32.974  1.00  0.00    -0.000 C 
BRANCH  17  18
ATOM     18  C   UNL     1      24.623  -3.295 -33.471  1.00  0.00    -0.000 C 
BRANCH  18  19
ATOM     19  C   UNL     1      26.000  -3.308 -32.794  1.00  0.00    -0.003 C 
ATOM     20  C   UNL     1      26.227  -2.035 -31.983  1.00  0.00     0.004 C 
ENDBRANCH  18  19
ENDBRANCH  17  18
ENDBRANCH  16  17
ENDBRANCH  15  16
ENDBRANCH  14  15
ENDBRANCH  13  14
ENDBRANCH   2  13
TORSDOF 15
ENDMDL
MODEL 4
REMARK VINA RESULT:    -3.486     11.694     14.405
REMARK INTER + INTRA:          -8.938
REMARK INTER:                  -5.973
REMARK INTRA:                  -2.965
REMARK UNBOUND:                -2.396
REMARK SMILES CCCCCCCCC=CCCCCCCCC(=O)[O-]
REMARK SMILES IDX 10 1 9 2 11 3 12 4 13 5 14 6 15 7 16 8 17 9 18 10 19 11
REMARK SMILES IDX 20 12 8 13 7 14 6 15 5 16 4 17 3 18 2 19 1 20
REMARK H PARENT
REMARK Flexibility Score: inf
ROOT
ATOM      1  C   UNL     1      25.302  -4.027 -26.739  1.00  0.00    -0.031 C 
ATOM      2  C   UNL     1      25.197  -5.210 -26.103  1.00  0.00    -0.031 C 
ENDROOT
BRANCH   1   3
ATOM      3  C   UNL     1      24.340  -3.532 -27.791  1.00  0.00     0.027 C 
BRANCH   3   4
ATOM      4  C   UNL     1      24.758  -3.940 -29.217  1.00  0.00     0.004 C 
BRANCH   4   5
ATOM      5  C   UNL     1      23.669  -4.702 -29.996  1.00  0.00     0.000 C 
BRANCH   5   6
ATOM      6  C   UNL     1      24.174  -5.552 -31.178  1.00  0.00     0.000 C 
BRANCH   6   7
ATOM      7  C   UNL     1      25.499  -5.080 -31.806  1.00  0.00     0.000 C 
BRANCH   7   8
ATOM      8  C   UNL     1      25.433  -4.977 -33.340  1.00  0.00     0.006 C 
BRANCH   8   9
ATOM      9  C   UNL     1      25.429  -3.519 -33.819  1.00  0.00     0.053 C 
BRANCH   9  10
ATOM     10  C   UNL     1      24.047  -3.054 -34.163  1.00  0.00     0.041 C 
ATOM     11  O   UNL     1      23.374  -2.393 -33.327  1.00  0.00    -0.550 OA
ATOM     12  O   UNL     1      23.486  -3.381 -35.392  1.00  0.00    -0.550 OA
ENDBRANCH   9  10
ENDBRANCH   8   9
ENDBRANCH   7   8
ENDBRANCH   6   7
ENDBRANCH   5   6
ENDBRANCH   4   5
ENDBRANCH   3   4
ENDBRANCH   1   3
BRANCH   2  13
ATOM     13  C   UNL     1      24.057  -6.180 -26.277  1.00  0.00     0.027 C 
BRANCH  13  14
ATOM     14  C   UNL     1      24.588  -7.584 -26.582  1.00  0.00     0.004 C 
BRANCH  14  15
ATOM     15  C   UNL     1      24.504  -7.888 -28.085  1.00  0.00     0.000 C 
BRANCH  15  16
ATOM     16  C   UNL     1      25.866  -7.771 -28.789  1.00  0.00     0.000 C 
BRANCH  16  17
ATOM     17  C   UNL     1      27.047  -8.048 -27.843  1.00  0.00    -0.000 C 
BRANCH  17  18
ATOM     18  C   UNL     1      28.077  -6.908 -27.836  1.00  0.00    -0.000 C 
BRANCH  18  19
ATOM     19  C   UNL     1      27.873  -5.921 -28.993  1.00  0.00    -0.003 C 
ATOM     20  C   UNL     1      28.403  -4.535 -28.635  1.00  0.00     0.004 C 
ENDBRANCH  18  19
ENDBRANCH  17  18
ENDBRANCH  16  17
ENDBRANCH  15  16
ENDBRANCH  14  15
ENDBRANCH  13  14
ENDBRANCH   2  13
TORSDOF 15
ENDMDL
MODEL 5
REMARK VINA RESULT:    -3.472      8.185     11.149
REMARK INTER + INTRA:          -8.912
REMARK INTER:                  -6.236
REMARK INTRA:                  -2.676
REMARK UNBOUND:                -2.396
REMARK SMILES CCCCCCCCC=CCCCCCCCC(=O)[O-]
REMARK SMILES IDX 10 1 9 2 11 3 12 4 13 5 14 6 15 7 16 8 17 9 18 10 19 11
REMARK SMILES IDX 20 12 8 13 7 14 6 15 5 16 4 17 3 18 2 19 1 20
REMARK H PARENT
REMARK Flexibility Score: inf
ROOT
ATOM      1  C   UNL     1      29.644   0.032 -35.756  1.00  0.00    -0.031 C 
ATOM      2  C   UNL     1      29.914   1.068 -36.574  1.00  0.00    -0.031 C 
ENDROOT
BRANCH   1   3
ATOM      3  C   UNL     1      28.738  -1.123 -36.107  1.00  0.00     0.027 C 
BRANCH   3   4
ATOM      4  C   UNL     1      29.264  -2.471 -35.577  1.00  0.00     0.004 C 
BRANCH   4   5
ATOM      5  C   UNL     1      29.228  -3.609 -36.614  1.00  0.00     0.000 C 
BRANCH   5   6
ATOM      6  C   UNL     1      27.881  -3.801 -37.339  1.00  0.00     0.000 C 
BRANCH   6   7
ATOM      7  C   UNL     1      26.799  -4.538 -36.528  1.00  0.00     0.000 C 
BRANCH   7   8
ATOM      8  C   UNL     1      25.624  -3.629 -36.130  1.00  0.00     0.006 C 
BRANCH   8   9
ATOM      9  C   UNL     1      25.629  -3.306 -34.630  1.00  0.00     0.053 C 
BRANCH   9  10
ATOM     10  C   UNL     1      24.774  -4.263 -33.855  1.00  0.00     0.041 C 
ATOM     11  O   UNL     1      25.285  -5.287 -33.329  1.00  0.00    -0.550 OA
ATOM     12  O   UNL     1      23.407  -4.043 -33.745  1.00  0.00    -0.550 OA
ENDBRANCH   9  10
ENDBRANCH   8   9
ENDBRANCH   7   8
ENDBRANCH   6   7
ENDBRANCH   5   6
ENDBRANCH   4   5
ENDBRANCH   3   4
ENDBRANCH   1   3
BRANCH   2  13
ATOM     13  C   UNL     1      29.427   1.190 -37.995  1.00  0.00     0.027 C 
BRANCH  13  14
ATOM     14  C   UNL     1      30.474   0.643 -38.971  1.00  0.00     0.004 C 
BRANCH  14  15
ATOM     15  C   UNL     1      30.139  -0.798 -39.384  1.00  0.00     0.000 C 
BRANCH  15  16
ATOM     16  C   UNL     1      31.260  -1.789 -39.032  1.00  0.00     0.000 C 
BRANCH  16  17
ATOM     17  C   UNL     1      32.544  -1.087 -38.558  1.00  0.00    -0.000 C 
BRANCH  17  18
ATOM     18  C   UNL     1      32.890  -1.413 -37.096  1.00  0.00    -0.000 C 
BRANCH  18  19
ATOM     19  C   UNL     1      33.530  -0.226 -36.363  1.00  0.00    -0.003 C 
ATOM     20  C   UNL     1      33.174  -0.240 -34.879  1.00  0.00     0.004 C 
ENDBRANCH  18  19
ENDBRANCH  17  18
ENDBRANCH  16  17
ENDBRANCH  15  16
ENDBRANCH  14  15
ENDBRANCH  13  14
ENDBRANCH   2  13
TORSDOF 15
ENDMDL
MODEL 6
REMARK VINA RESULT:    -3.455      3.538      6.951
REMARK INTER + INTRA:          -8.880
REMARK INTER:                  -6.272
REMARK INTRA:                  -2.608
REMARK UNBOUND:                -2.396
REMARK SMILES CCCCCCCCC=CCCCCCCCC(=O)[O-]
REMARK SMILES IDX 10 1 9 2 11 3 12 4 13 5 14 6 15 7 16 8 17 9 18 10 19 11
REMARK SMILES IDX 20 12 8 13 7 14 6 15 5 16 4 17 3 18 2 19 1 20
REMARK H PARENT
REMARK Flexibility Score: inf
ROOT
ATOM      1  C   UNL     1      33.176  -0.985 -37.468  1.00  0.00    -0.031 C 
ATOM      2  C   UNL     1      32.393  -0.569 -38.482  1.00  0.00    -0.031 C 
ENDROOT
BRANCH   1   3
ATOM      3  C   UNL     1      33.546  -0.146 -36.270  1.00  0.00     0.027 C 
BRANCH   3   4
ATOM      4  C   UNL     1      32.637  -0.414 -35.055  1.00  0.00     0.004 C 
BRANCH   4   5
ATOM      5  C   UNL     1      31.900   0.836 -34.535  1.00  0.00     0.000 C 
BRANCH   5   6
ATOM      6  C   UNL     1      31.765   0.933 -33.003  1.00  0.00     0.000 C 
BRANCH   6   7
ATOM      7  C   UNL     1      32.777   1.867 -32.313  1.00  0.00     0.000 C 
BRANCH   7   8
ATOM      8  C   UNL     1      33.576   2.726 -33.309  1.00  0.00     0.006 C 
BRANCH   8   9
ATOM      9  C   UNL     1      33.358   4.227 -33.077  1.00  0.00     0.053 C 
BRANCH   9  10
ATOM     10  C   UNL     1      34.591   4.890 -32.543  1.00  0.00     0.041 C 
ATOM     11  O   UNL     1      35.390   5.469 -33.326  1.00  0.00    -0.550 OA
ATOM     12  O   UNL     1      34.879   4.836 -31.184  1.00  0.00    -0.550 OA
ENDBRANCH   9  10
ENDBRANCH   8   9
ENDBRANCH   7   8
ENDBRANCH   6   7
ENDBRANCH   5   6
ENDBRANCH   4   5
ENDBRANCH   3   4
ENDBRANCH   1   3
BRANCH   2  13
ATOM     13  C   UNL     1      31.693   0.764 -38.533  1.00  0.00     0.027 C 
BRANCH  13  14
ATOM     14  C   UNL     1      30.173   0.574 -38.527  1.00  0.00     0.004 C 
BRANCH  14  15
ATOM     15  C   UNL     1      29.550   1.169 -37.255  1.00  0.00     0.000 C 
BRANCH  15  16
ATOM     16  C   UNL     1      28.757   0.133 -36.443  1.00  0.00     0.000 C 
BRANCH  16  17
ATOM     17  C   UNL     1      28.919  -1.296 -36.989  1.00  0.00    -0.000 C 
BRANCH  17  18
ATOM     18  C   UNL     1      29.660  -2.222 -36.011  1.00  0.00    -0.000 C 
BRANCH  18  19
ATOM     19  C   UNL     1      30.483  -3.301 -36.729  1.00  0.00    -0.003 C 
ATOM     20  C   UNL     1      31.436  -3.999 -35.762  1.00  0.00     0.004 C 
ENDBRANCH  18  19
ENDBRANCH  17  18
ENDBRANCH  16  17
ENDBRANCH  15  16
ENDBRANCH  14  15
ENDBRANCH  13  14
ENDBRANCH   2  13
TORSDOF 15
ENDMDL
MODEL 7
REMARK VINA RESULT:    -3.430      9.049     11.454
REMARK INTER + INTRA:          -8.834
REMARK INTER:                  -6.315
REMARK INTRA:                  -2.518
REMARK UNBOUND:                -2.396
REMARK SMILES CCCCCCCCC=CCCCCCCCC(=O)[O-]
REMARK SMILES IDX 10 1 9 2 11 3 12 4 13 5 14 6 15 7 16 8 17 9 18 10 19 11
REMARK SMILES IDX 20 12 8 13 7 14 6 15 5 16 4 17 3 18 2 19 1 20
REMARK H PARENT
REMARK Flexibility Score: inf
ROOT
ATOM      1  C   UNL     1      30.679  -3.593 -35.631  1.00  0.00    -0.031 C 
ATOM      2  C   UNL     1      31.990  -3.332 -35.467  1.00  0.00    -0.031 C 
ENDROOT
BRANCH   1   3
ATOM      3  C   UNL     1      29.562  -2.677 -35.194  1.00  0.00     0.027 C 
BRANCH   3   4
ATOM      4  C   UNL     1      28.901  -1.943 -36.377  1.00  0.00     0.004 C 
BRANCH   4   5
ATOM      5  C   UNL     1      27.415  -2.296 -36.582  1.00  0.00     0.000 C 
BRANCH   5   6
ATOM      6  C   UNL     1      27.144  -3.690 -37.182  1.00  0.00     0.000 C 
BRANCH   6   7
ATOM      7  C   UNL     1      26.632  -4.746 -36.186  1.00  0.00     0.000 C 
BRANCH   7   8
ATOM      8  C   UNL     1      25.756  -4.146 -35.072  1.00  0.00     0.006 C 
BRANCH   8   9
ATOM      9  C   UNL     1      25.835  -4.962 -33.776  1.00  0.00     0.053 C 
BRANCH   9  10
ATOM     10  C   UNL     1      24.538  -4.935 -33.025  1.00  0.00     0.041 C 
ATOM     11  O   UNL     1      24.392  -5.633 -31.986  1.00  0.00    -0.550 OA
ATOM     12  O   UNL     1      23.478  -4.167 -33.492  1.00  0.00    -0.550 OA
ENDBRANCH   9  10
ENDBRANCH   8   9
ENDBRANCH   7   8
ENDBRANCH   6   7
ENDBRANCH   5   6
ENDBRANCH   4   5
ENDBRANCH   3   4
ENDBRANCH   1   3
BRANCH   2  13
ATOM     13  C   UNL     1      32.547  -2.048 -34.907  1.00  0.00     0.027 C 
BRANCH  13  14
ATOM     14  C   UNL     1      33.241  -1.238 -36.007  1.00  0.00     0.004 C 
BRANCH  14  15
ATOM     15  C   UNL     1      32.258  -0.267 -36.677  1.00  0.00     0.000 C 
BRANCH  15  16
ATOM     16  C   UNL     1      32.419  -0.223 -38.205  1.00  0.00     0.000 C 
BRANCH  16  17
ATOM     17  C   UNL     1      32.607  -1.620 -38.820  1.00  0.00    -0.000 C 
BRANCH  17  18
ATOM     18  C   UNL     1      31.271  -2.301 -39.158  1.00  0.00    -0.000 C 
BRANCH  18  19
ATOM     19  C   UNL     1      31.420  -3.813 -39.382  1.00  0.00    -0.003 C 
ATOM     20  C   UNL     1      30.092  -4.534 -39.165  1.00  0.00     0.004 C 
ENDBRANCH  18  19
ENDBRANCH  17  18
ENDBRANCH  16  17
ENDBRANCH  15  16
ENDBRANCH  14  15
ENDBRANCH  13  14
ENDBRANCH   2  13
TORSDOF 15
ENDMDL
MODEL 8
REMARK VINA RESULT:    -3.407      8.357     11.458
REMARK INTER + INTRA:          -8.791
REMARK INTER:                  -6.378
REMARK INTRA:                  -2.413
REMARK UNBOUND:                -2.396
REMARK SMILES CCCCCCCCC=CCCCCCCCC(=O)[O-]
REMARK SMILES IDX 10 1 9 2 11 3 12 4 13 5 14 6 15 7 16 8 17 9 18 10 19 11
REMARK SMILES IDX 20 12 8 13 7 14 6 15 5 16 4 17 3 18 2 19 1 20
REMARK H PARENT
REMARK Flexibility Score: inf
ROOT
ATOM      1  C   UNL     1      31.994  -2.984 -35.192  1.00  0.00    -0.031 C 
ATOM      2  C   UNL     1      33.028  -2.402 -35.829  1.00  0.00    -0.031 C 
ENDROOT
BRANCH   1   3
ATOM      3  C   UNL     1      31.025  -3.947 -35.833  1.00  0.00     0.027 C 
BRANCH   3   4
ATOM      4  C   UNL     1      29.605  -3.361 -35.961  1.00  0.00     0.004 C 
BRANCH   4   5
ATOM      5  C   UNL     1      28.810  -3.903 -37.165  1.00  0.00     0.000 C 
BRANCH   5   6
ATOM      6  C   UNL     1      27.288  -3.666 -37.111  1.00  0.00     0.000 C 
BRANCH   6   7
ATOM      7  C   UNL     1      26.490  -4.706 -36.303  1.00  0.00     0.000 C 
BRANCH   7   8
ATOM      8  C   UNL     1      25.815  -4.109 -35.056  1.00  0.00     0.006 C 
BRANCH   8   9
ATOM      9  C   UNL     1      25.812  -5.092 -33.878  1.00  0.00     0.053 C 
BRANCH   9  10
ATOM     10  C   UNL     1      24.562  -4.971 -33.060  1.00  0.00     0.041 C 
ATOM     11  O   UNL     1      24.451  -5.601 -31.975  1.00  0.00    -0.550 OA
ATOM     12  O   UNL     1      23.504  -4.193 -33.514  1.00  0.00    -0.550 OA
ENDBRANCH   9  10
ENDBRANCH   8   9
ENDBRANCH   7   8
ENDBRANCH   6   7
ENDBRANCH   5   6
ENDBRANCH   4   5
ENDBRANCH   3   4
ENDBRANCH   1   3
BRANCH   2  13
ATOM     13  C   UNL     1      33.430  -2.688 -37.253  1.00  0.00     0.027 C 
BRANCH  13  14
ATOM     14  C   UNL     1      32.878  -1.613 -38.194  1.00  0.00     0.004 C 
BRANCH  14  15
ATOM     15  C   UNL     1      31.677  -2.145 -38.990  1.00  0.00     0.000 C 
BRANCH  15  16
ATOM     16  C   UNL     1      30.500  -1.156 -39.016  1.00  0.00     0.000 C 
BRANCH  16  17
ATOM     17  C   UNL     1      30.843   0.189 -38.352  1.00  0.00    -0.000 C 
BRANCH  17  18
ATOM     18  C   UNL     1      30.101   0.396 -37.022  1.00  0.00    -0.000 C 
BRANCH  18  19
ATOM     19  C   UNL     1      31.047   0.772 -35.872  1.00  0.00    -0.003 C 
ATOM     20  C   UNL     1      30.495   0.299 -34.530  1.00  0.00     0.004 C 
ENDBRANCH  18  19
ENDBRANCH  17  18
ENDBRANCH  16  17
ENDBRANCH  15  16
ENDBRANCH  14  15
ENDBRANCH  13  14
ENDBRANCH   2  13
TORSDOF 15
ENDMDL
MODEL 9
REMARK VINA RESULT:    -3.367      9.351     11.397
REMARK INTER + INTRA:          -8.715
REMARK INTER:                  -5.926
REMARK INTRA:                  -2.789
REMARK UNBOUND:                -2.396
REMARK SMILES CCCCCCCCC=CCCCCCCCC(=O)[O-]
REMARK SMILES IDX 10 1 9 2 11 3 12 4 13 5 14 6 15 7 16 8 17 9 18 10 19 11
REMARK SMILES IDX 20 12 8 13 7 14 6 15 5 16 4 17 3 18 2 19 1 20
REMARK H PARENT
REMARK Flexibility Score: inf
ROOT
ATOM      1  C   UNL     1      29.446   0.184 -37.674  1.00  0.00    -0.031 C 
ATOM      2  C   UNL     1      30.696   0.542 -37.325  1.00  0.00    -0.031 C 
ENDROOT
BRANCH   1   3
ATOM      3  C   UNL     1      28.996  -0.093 -39.088  1.00  0.00     0.027 C 
BRANCH   3   4
ATOM      4  C   UNL     1      28.479  -1.533 -39.274  1.00  0.00     0.004 C 
BRANCH   4   5
ATOM      5  C   UNL     1      28.981  -2.522 -38.204  1.00  0.00     0.000 C 
BRANCH   5   6
ATOM      6  C   UNL     1      28.452  -3.964 -38.338  1.00  0.00     0.000 C 
BRANCH   6   7
ATOM      7  C   UNL     1      27.738  -4.519 -37.091  1.00  0.00     0.000 C 
BRANCH   7   8
ATOM      8  C   UNL     1      26.448  -3.754 -36.747  1.00  0.00     0.006 C 
BRANCH   8   9
ATOM      9  C   UNL     1      26.388  -3.365 -35.264  1.00  0.00     0.053 C 
BRANCH   9  10
ATOM     10  C   UNL     1      25.522  -4.304 -34.481  1.00  0.00     0.041 C 
ATOM     11  O   UNL     1      25.960  -5.433 -34.134  1.00  0.00    -0.550 OA
ATOM     12  O   UNL     1      24.216  -3.948 -34.164  1.00  0.00    -0.550 OA
ENDBRANCH   9  10
ENDBRANCH   8   9
ENDBRANCH   7   8
ENDBRANCH   6   7
ENDBRANCH   5   6
ENDBRANCH   4   5
ENDBRANCH   3   4
ENDBRANCH   1   3
BRANCH   2  13
ATOM     13  C   UNL     1      31.860   0.633 -38.279  1.00  0.00     0.027 C 
BRANCH  13  14
ATOM     14  C   UNL     1      32.826  -0.536 -38.061  1.00  0.00     0.004 C 
BRANCH  14  15
ATOM     15  C   UNL     1      32.429  -1.743 -38.923  1.00  0.00     0.000 C 
BRANCH  15  16
ATOM     16  C   UNL     1      32.747  -3.085 -38.243  1.00  0.00     0.000 C 
BRANCH  16  17
ATOM     17  C   UNL     1      32.531  -3.042 -36.720  1.00  0.00    -0.000 C 
BRANCH  17  18
ATOM     18  C   UNL     1      31.609  -4.168 -36.223  1.00  0.00    -0.000 C 
BRANCH  18  19
ATOM     19  C   UNL     1      30.650  -3.700 -35.119  1.00  0.00    -0.003 C 
ATOM     20  C   UNL     1      30.699  -2.184 -34.954  1.00  0.00     0.004 C 
ENDBRANCH  18  19
ENDBRANCH  17  18
ENDBRANCH  16  17
ENDBRANCH  15  16
ENDBRANCH  14  15
ENDBRANCH  13  14
ENDBRANCH   2  13
TORSDOF 15
ENDMDL
