MODEL 1
REMARK VINA RESULT:    -7.353      0.000      0.000
REMARK INTER + INTRA:         -10.210
REMARK INTER:                  -9.932
REMARK INTRA:                  -0.278
REMARK UNBOUND:                -0.278
REMARK SMILES C[C@@H]1O[C@@H](Oc2cc(O)c3c(=O)c(O)c(-c4ccc(O)cc4)oc3c2)[C@H](O)[C@@H](O)[C@@H]1O
REMARK SMILES IDX 6 1 7 2 8 3 10 4 24 5 25 6 23 7 15 8 13 9 11 10 12 11 5 12
REMARK SMILES IDX 4 13 1 14 2 15 30 16 3 17 28 18 26 19 31 20 29 22 27 24 9 26
REMARK SMILES IDX 16 28 17 29 22 30 18 31 21 32 19 33 20 34 14 36
REMARK H PARENT 31 21 29 23 27 25 9 27 20 35 14 37
REMARK Flexibility Score: inf
ROOT
ATOM      1  C   UNL     1      -9.496  34.772   6.927  1.00  0.00     0.130 A 
ATOM      2  C   UNL     1     -10.431  34.325   7.876  1.00  0.00     0.093 A 
ATOM      3  C   UNL     1     -10.701  32.955   8.020  1.00  0.00     0.134 A 
ATOM      4  C   UNL     1      -9.971  32.014   7.267  1.00  0.00     0.111 A 
ATOM      5  C   UNL     1      -8.998  32.470   6.357  1.00  0.00     0.146 A 
ATOM      6  C   UNL     1      -8.800  33.834   6.166  1.00  0.00     0.094 A 
ATOM      7  O   UNL     1      -8.242  31.614   5.687  1.00  0.00    -0.452 OA
ATOM      8  C   UNL     1      -8.322  30.300   5.825  1.00  0.00     0.180 A 
ATOM      9  C   UNL     1      -9.314  29.750   6.656  1.00  0.00     0.208 A 
ATOM     10  C   UNL     1     -10.122  30.616   7.407  1.00  0.00     0.238 A 
ATOM     11  O   UNL     1     -10.891  30.133   8.277  1.00  0.00    -0.285 OA
ENDROOT
BRANCH   1  12
ATOM     12  O   UNL     1      -9.178  36.120   6.707  1.00  0.00    -0.462 OA
BRANCH  12  13
ATOM     13  C   UNL     1      -9.801  37.267   7.289  1.00  0.00     0.339 C 
ATOM     14  C   UNL     1     -11.525  38.625   9.155  1.00  0.00     0.042 C 
ATOM     15  C   UNL     1     -11.924  38.189   7.722  1.00  0.00     0.151 C 
ATOM     16  C   UNL     1     -11.845  39.328   6.679  1.00  0.00     0.174 C 
ATOM     17  O   UNL     1     -11.199  37.052   7.273  1.00  0.00    -0.335 OA
ATOM     18  C   UNL     1     -10.568  39.263   5.810  1.00  0.00     0.180 C 
ATOM     19  C   UNL     1      -9.384  38.524   6.466  1.00  0.00     0.214 C 
BRANCH  16  20
ATOM     20  O   UNL     1     -11.975  40.589   7.290  1.00  0.00    -0.388 OA
ATOM     21  H   UNL     1     -12.288  41.218   6.589  1.00  0.00     0.211 HD
ENDBRANCH  16  20
BRANCH  18  22
ATOM     22  O   UNL     1     -10.872  38.608   4.598  1.00  0.00    -0.387 OA
ATOM     23  H   UNL     1     -10.852  37.629   4.776  1.00  0.00     0.211 HD
ENDBRANCH  18  22
BRANCH  19  24
ATOM     24  O   UNL     1      -8.609  39.413   7.236  1.00  0.00    -0.384 OA
ATOM     25  H   UNL     1      -8.988  40.330   7.095  1.00  0.00     0.211 HD
ENDBRANCH  19  24
ENDBRANCH  12  13
ENDBRANCH   1  12
BRANCH   3  26
ATOM     26  O   UNL     1     -11.658  32.551   8.939  1.00  0.00    -0.507 OA
ATOM     27  H   UNL     1     -11.454  32.495   9.936  1.00  0.00     0.293 HD
ENDBRANCH   3  26
BRANCH   8  28
ATOM     28  C   UNL     1      -7.301  29.480   5.126  1.00  0.00     0.021 A 
ATOM     29  C   UNL     1      -5.993  29.353   5.628  1.00  0.00     0.016 A 
ATOM     30  C   UNL     1      -7.576  28.982   3.831  1.00  0.00     0.016 A 
ATOM     31  C   UNL     1      -4.997  28.743   4.871  1.00  0.00     0.047 A 
ATOM     32  C   UNL     1      -6.571  28.365   3.076  1.00  0.00     0.047 A 
ATOM     33  C   UNL     1      -5.278  28.253   3.588  1.00  0.00     0.115 A 
BRANCH  33  34
ATOM     34  O   UNL     1      -4.286  27.656   2.825  1.00  0.00    -0.508 OA
ATOM     35  H   UNL     1      -4.461  26.832   2.255  1.00  0.00     0.293 HD
ENDBRANCH  33  34
ENDBRANCH   8  28
BRANCH   9  36
ATOM     36  O   UNL     1      -9.469  28.370   6.754  1.00  0.00    -0.502 OA
ATOM     37  H   UNL     1     -10.016  27.838   6.083  1.00  0.00     0.293 HD
ENDBRANCH   9  36
TORSDOF 9
ENDMDL
MODEL 2
REMARK VINA RESULT:    -6.827      1.716      9.743
REMARK INTER + INTRA:          -9.501
REMARK INTER:                  -9.822
REMARK INTRA:                   0.322
REMARK UNBOUND:                -0.278
REMARK SMILES C[C@@H]1O[C@@H](Oc2cc(O)c3c(=O)c(O)c(-c4ccc(O)cc4)oc3c2)[C@H](O)[C@@H](O)[C@@H]1O
REMARK SMILES IDX 6 1 7 2 8 3 10 4 24 5 25 6 23 7 15 8 13 9 11 10 12 11 5 12
REMARK SMILES IDX 4 13 1 14 2 15 30 16 3 17 28 18 26 19 31 20 29 22 27 24 9 26
REMARK SMILES IDX 16 28 17 29 22 30 18 31 21 32 19 33 20 34 14 36
REMARK H PARENT 31 21 29 23 27 25 9 27 20 35 14 37
REMARK Flexibility Score: inf
ROOT
ATOM      1  C   UNL     1      -9.034  32.775   6.392  1.00  0.00     0.130 A 
ATOM      2  C   UNL     1      -8.028  33.240   5.528  1.00  0.00     0.093 A 
ATOM      3  C   UNL     1      -7.930  34.606   5.219  1.00  0.00     0.134 A 
ATOM      4  C   UNL     1      -8.794  35.530   5.841  1.00  0.00     0.111 A 
ATOM      5  C   UNL     1      -9.763  35.059   6.746  1.00  0.00     0.146 A 
ATOM      6  C   UNL     1      -9.902  33.694   6.980  1.00  0.00     0.094 A 
ATOM      7  O   UNL     1     -10.543  35.903   7.405  1.00  0.00    -0.452 OA
ATOM      8  C   UNL     1     -10.464  37.219   7.286  1.00  0.00     0.180 A 
ATOM      9  C   UNL     1      -9.576  37.779   6.351  1.00  0.00     0.208 A 
ATOM     10  C   UNL     1      -8.711  36.928   5.648  1.00  0.00     0.238 A 
ATOM     11  O   UNL     1      -7.801  37.430   4.941  1.00  0.00    -0.285 OA
ENDROOT
BRANCH   1  12
ATOM     12  O   UNL     1      -9.213  31.430   6.742  1.00  0.00    -0.462 OA
BRANCH  12  13
ATOM     13  C   UNL     1      -8.464  30.303   6.280  1.00  0.00     0.339 C 
ATOM     14  C   UNL     1      -6.232  29.014   4.993  1.00  0.00     0.042 C 
ATOM     15  C   UNL     1      -7.581  29.361   4.312  1.00  0.00     0.151 C 
ATOM     16  C   UNL     1      -8.560  28.168   4.223  1.00  0.00     0.174 C 
ATOM     17  O   UNL     1      -8.219  30.487   4.899  1.00  0.00    -0.335 OA
ATOM     18  C   UNL     1      -9.663  28.212   5.306  1.00  0.00     0.180 C 
ATOM     19  C   UNL     1      -9.289  29.012   6.570  1.00  0.00     0.214 C 
BRANCH  16  20
ATOM     20  O   UNL     1      -7.873  26.940   4.255  1.00  0.00    -0.388 OA
ATOM     21  H   UNL     1      -6.974  27.122   4.634  1.00  0.00     0.211 HD
ENDBRANCH  16  20
BRANCH  18  22
ATOM     22  O   UNL     1     -10.824  28.792   4.752  1.00  0.00    -0.387 OA
ATOM     23  H   UNL     1     -10.636  28.973   3.792  1.00  0.00     0.211 HD
ENDBRANCH  18  22
BRANCH  19  24
ATOM     24  O   UNL     1      -8.641  28.184   7.507  1.00  0.00    -0.384 OA
ATOM     25  H   UNL     1      -7.813  27.832   7.065  1.00  0.00     0.211 HD
ENDBRANCH  19  24
ENDBRANCH  12  13
ENDBRANCH   1  12
BRANCH   3  26
ATOM     26  O   UNL     1      -6.949  35.026   4.332  1.00  0.00    -0.507 OA
ATOM     27  H   UNL     1      -6.821  34.582   3.425  1.00  0.00     0.293 HD
ENDBRANCH   3  26
BRANCH   8  28
ATOM     28  C   UNL     1     -11.294  38.035   8.207  1.00  0.00     0.021 A 
ATOM     29  C   UNL     1     -11.791  39.295   7.825  1.00  0.00     0.016 A 
ATOM     30  C   UNL     1     -11.422  37.643   9.560  1.00  0.00     0.016 A 
ATOM     31  C   UNL     1     -12.402  40.130   8.756  1.00  0.00     0.047 A 
ATOM     32  C   UNL     1     -12.042  38.486  10.491  1.00  0.00     0.047 A 
ATOM     33  C   UNL     1     -12.523  39.735  10.095  1.00  0.00     0.115 A 
BRANCH  33  34
ATOM     34  O   UNL     1     -13.121  40.568  11.029  1.00  0.00    -0.508 OA
ATOM     35  H   UNL     1     -13.146  41.579  10.918  1.00  0.00     0.293 HD
ENDBRANCH  33  34
ENDBRANCH   8  28
BRANCH   9  36
ATOM     36  O   UNL     1      -9.534  39.156   6.151  1.00  0.00    -0.502 OA
ATOM     37  H   UNL     1     -10.377  39.713   6.043  1.00  0.00     0.293 HD
ENDBRANCH   9  36
TORSDOF 9
ENDMDL
MODEL 3
REMARK VINA RESULT:    -6.409      2.654      9.487
REMARK INTER + INTRA:          -8.936
REMARK INTER:                  -8.867
REMARK INTRA:                  -0.068
REMARK UNBOUND:                -0.278
REMARK SMILES C[C@@H]1O[C@@H](Oc2cc(O)c3c(=O)c(O)c(-c4ccc(O)cc4)oc3c2)[C@H](O)[C@@H](O)[C@@H]1O
REMARK SMILES IDX 6 1 7 2 8 3 10 4 24 5 25 6 23 7 15 8 13 9 11 10 12 11 5 12
REMARK SMILES IDX 4 13 1 14 2 15 30 16 3 17 28 18 26 19 31 20 29 22 27 24 9 26
REMARK SMILES IDX 16 28 17 29 22 30 18 31 21 32 19 33 20 34 14 36
REMARK H PARENT 31 21 29 23 27 25 9 27 20 35 14 37
REMARK Flexibility Score: inf
ROOT
ATOM      1  C   UNL     1      -8.976  32.600   6.621  1.00  0.00     0.130 A 
ATOM      2  C   UNL     1      -7.975  33.037   5.737  1.00  0.00     0.093 A 
ATOM      3  C   UNL     1      -7.883  34.391   5.379  1.00  0.00     0.134 A 
ATOM      4  C   UNL     1      -8.746  35.334   5.972  1.00  0.00     0.111 A 
ATOM      5  C   UNL     1      -9.710  34.893   6.897  1.00  0.00     0.146 A 
ATOM      6  C   UNL     1      -9.844  33.537   7.180  1.00  0.00     0.094 A 
ATOM      7  O   UNL     1     -10.489  35.758   7.529  1.00  0.00    -0.452 OA
ATOM      8  C   UNL     1     -10.415  37.069   7.362  1.00  0.00     0.180 A 
ATOM      9  C   UNL     1      -9.533  37.598   6.404  1.00  0.00     0.208 A 
ATOM     10  C   UNL     1      -8.669  36.724   5.728  1.00  0.00     0.238 A 
ATOM     11  O   UNL     1      -7.763  37.203   5.000  1.00  0.00    -0.285 OA
ENDROOT
BRANCH   1  12
ATOM     12  O   UNL     1      -9.149  31.268   7.020  1.00  0.00    -0.462 OA
BRANCH  12  13
ATOM     13  C   UNL     1     -10.344  30.486   6.950  1.00  0.00     0.339 C 
ATOM     14  C   UNL     1     -13.125  29.936   7.462  1.00  0.00     0.042 C 
ATOM     15  C   UNL     1     -11.939  29.435   8.326  1.00  0.00     0.151 C 
ATOM     16  C   UNL     1     -11.515  27.980   8.021  1.00  0.00     0.174 C 
ATOM     17  O   UNL     1     -10.816  30.303   8.271  1.00  0.00    -0.335 OA
ATOM     18  C   UNL     1     -10.256  27.894   7.128  1.00  0.00     0.180 C 
ATOM     19  C   UNL     1     -10.009  29.135   6.247  1.00  0.00     0.214 C 
BRANCH  16  20
ATOM     20  O   UNL     1     -12.579  27.244   7.463  1.00  0.00    -0.388 OA
ATOM     21  H   UNL     1     -12.201  26.379   7.158  1.00  0.00     0.211 HD
ENDBRANCH  16  20
BRANCH  18  22
ATOM     22  O   UNL     1      -9.124  27.712   7.950  1.00  0.00    -0.387 OA
ATOM     23  H   UNL     1      -9.435  27.746   8.895  1.00  0.00     0.211 HD
ENDBRANCH  18  22
BRANCH  19  24
ATOM     24  O   UNL     1     -10.681  29.012   5.016  1.00  0.00    -0.384 OA
ATOM     25  H   UNL     1     -10.573  29.885   4.534  1.00  0.00     0.211 HD
ENDBRANCH  19  24
ENDBRANCH  12  13
ENDBRANCH   1  12
BRANCH   3  26
ATOM     26  O   UNL     1      -6.907  34.782   4.473  1.00  0.00    -0.507 OA
ATOM     27  H   UNL     1      -6.293  35.575   4.656  1.00  0.00     0.293 HD
ENDBRANCH   3  26
BRANCH   8  28
ATOM     28  C   UNL     1     -11.243  37.915   8.258  1.00  0.00     0.021 A 
ATOM     29  C   UNL     1     -11.605  39.227   7.899  1.00  0.00     0.016 A 
ATOM     30  C   UNL     1     -11.506  37.482   9.579  1.00  0.00     0.016 A 
ATOM     31  C   UNL     1     -12.215  40.073   8.821  1.00  0.00     0.047 A 
ATOM     32  C   UNL     1     -12.123  38.337  10.500  1.00  0.00     0.047 A 
ATOM     33  C   UNL     1     -12.470  39.636  10.128  1.00  0.00     0.115 A 
BRANCH  33  34
ATOM     34  O   UNL     1     -13.066  40.480  11.054  1.00  0.00    -0.508 OA
ATOM     35  H   UNL     1     -13.159  41.480  10.897  1.00  0.00     0.293 HD
ENDBRANCH  33  34
ENDBRANCH   8  28
BRANCH   9  36
ATOM     36  O   UNL     1      -9.496  38.967   6.155  1.00  0.00    -0.502 OA
ATOM     37  H   UNL     1      -8.718  39.550   6.450  1.00  0.00     0.293 HD
ENDBRANCH   9  36
TORSDOF 9
ENDMDL
MODEL 4
REMARK VINA RESULT:    -6.393      2.269      8.671
REMARK INTER + INTRA:          -8.914
REMARK INTER:                  -8.709
REMARK INTRA:                  -0.205
REMARK UNBOUND:                -0.278
REMARK SMILES C[C@@H]1O[C@@H](Oc2cc(O)c3c(=O)c(O)c(-c4ccc(O)cc4)oc3c2)[C@H](O)[C@@H](O)[C@@H]1O
REMARK SMILES IDX 6 1 7 2 8 3 10 4 24 5 25 6 23 7 15 8 13 9 11 10 12 11 5 12
REMARK SMILES IDX 4 13 1 14 2 15 30 16 3 17 28 18 26 19 31 20 29 22 27 24 9 26
REMARK SMILES IDX 16 28 17 29 22 30 18 31 21 32 19 33 20 34 14 36
REMARK H PARENT 31 21 29 23 27 25 9 27 20 35 14 37
REMARK Flexibility Score: inf
ROOT
ATOM      1  C   UNL     1      -7.560  29.454   5.982  1.00  0.00     0.130 A 
ATOM      2  C   UNL     1      -8.675  28.792   6.523  1.00  0.00     0.093 A 
ATOM      3  C   UNL     1      -9.695  29.518   7.158  1.00  0.00     0.134 A 
ATOM      4  C   UNL     1      -9.644  30.926   7.181  1.00  0.00     0.111 A 
ATOM      5  C   UNL     1      -8.549  31.581   6.589  1.00  0.00     0.146 A 
ATOM      6  C   UNL     1      -7.505  30.845   6.036  1.00  0.00     0.094 A 
ATOM      7  O   UNL     1      -8.502  32.904   6.526  1.00  0.00    -0.452 OA
ATOM      8  C   UNL     1      -9.460  33.693   6.985  1.00  0.00     0.180 A 
ATOM      9  C   UNL     1     -10.558  33.132   7.659  1.00  0.00     0.208 A 
ATOM     10  C   UNL     1     -10.666  31.735   7.728  1.00  0.00     0.238 A 
ATOM     11  O   UNL     1     -11.724  31.226   8.175  1.00  0.00    -0.285 OA
ENDROOT
BRANCH   1  12
ATOM     12  O   UNL     1      -6.491  28.807   5.346  1.00  0.00    -0.462 OA
BRANCH  12  13
ATOM     13  C   UNL     1      -5.218  28.475   5.904  1.00  0.00     0.339 C 
ATOM     14  C   UNL     1      -3.400  26.875   7.464  1.00  0.00     0.042 C 
ATOM     15  C   UNL     1      -4.147  28.134   7.973  1.00  0.00     0.151 C 
ATOM     16  C   UNL     1      -3.290  29.421   7.950  1.00  0.00     0.174 C 
ATOM     17  O   UNL     1      -5.383  28.347   7.303  1.00  0.00    -0.335 OA
ATOM     18  C   UNL     1      -3.602  30.331   6.740  1.00  0.00     0.180 C 
ATOM     19  C   UNL     1      -4.206  29.599   5.525  1.00  0.00     0.214 C 
BRANCH  16  20
ATOM     20  O   UNL     1      -1.916  29.120   8.012  1.00  0.00    -0.388 OA
ATOM     21  H   UNL     1      -1.684  29.030   8.973  1.00  0.00     0.211 HD
ENDBRANCH  16  20
BRANCH  18  22
ATOM     22  O   UNL     1      -4.513  31.330   7.143  1.00  0.00    -0.387 OA
ATOM     23  H   UNL     1      -5.330  30.870   7.478  1.00  0.00     0.211 HD
ENDBRANCH  18  22
BRANCH  19  24
ATOM     24  O   UNL     1      -3.188  29.115   4.681  1.00  0.00    -0.384 OA
ATOM     25  H   UNL     1      -2.373  28.983   5.250  1.00  0.00     0.211 HD
ENDBRANCH  19  24
ENDBRANCH  12  13
ENDBRANCH   1  12
BRANCH   3  26
ATOM     26  O   UNL     1     -10.763  28.830   7.716  1.00  0.00    -0.507 OA
ATOM     27  H   UNL     1     -10.628  27.975   8.253  1.00  0.00     0.293 HD
ENDBRANCH   3  26
BRANCH   8  28
ATOM     28  C   UNL     1      -9.338  35.145   6.699  1.00  0.00     0.021 A 
ATOM     29  C   UNL     1      -8.570  35.619   5.619  1.00  0.00     0.016 A 
ATOM     30  C   UNL     1      -9.828  36.083   7.639  1.00  0.00     0.016 A 
ATOM     31  C   UNL     1      -8.307  36.978   5.476  1.00  0.00     0.047 A 
ATOM     32  C   UNL     1      -9.564  37.449   7.487  1.00  0.00     0.047 A 
ATOM     33  C   UNL     1      -8.795  37.900   6.413  1.00  0.00     0.115 A 
BRANCH  33  34
ATOM     34  O   UNL     1      -8.526  39.254   6.280  1.00  0.00    -0.508 OA
ATOM     35  H   UNL     1      -7.872  39.613   5.590  1.00  0.00     0.293 HD
ENDBRANCH  33  34
ENDBRANCH   8  28
BRANCH   9  36
ATOM     36  O   UNL     1     -11.537  33.948   8.220  1.00  0.00    -0.502 OA
ATOM     37  H   UNL     1     -12.390  34.188   7.724  1.00  0.00     0.293 HD
ENDBRANCH   9  36
TORSDOF 9
ENDMDL
MODEL 5
REMARK VINA RESULT:    -6.278      2.889      8.771
REMARK INTER + INTRA:          -8.758
REMARK INTER:                  -8.306
REMARK INTRA:                  -0.453
REMARK UNBOUND:                -0.278
REMARK SMILES C[C@@H]1O[C@@H](Oc2cc(O)c3c(=O)c(O)c(-c4ccc(O)cc4)oc3c2)[C@H](O)[C@@H](O)[C@@H]1O
REMARK SMILES IDX 6 1 7 2 8 3 10 4 24 5 25 6 23 7 15 8 13 9 11 10 12 11 5 12
REMARK SMILES IDX 4 13 1 14 2 15 30 16 3 17 28 18 26 19 31 20 29 22 27 24 9 26
REMARK SMILES IDX 16 28 17 29 22 30 18 31 21 32 19 33 20 34 14 36
REMARK H PARENT 31 21 29 23 27 25 9 27 20 35 14 37
REMARK Flexibility Score: inf
ROOT
ATOM      1  C   UNL     1     -10.837  29.906   7.777  1.00  0.00     0.130 A 
ATOM      2  C   UNL     1      -9.640  29.300   7.360  1.00  0.00     0.093 A 
ATOM      3  C   UNL     1      -8.630  30.062   6.752  1.00  0.00     0.134 A 
ATOM      4  C   UNL     1      -8.780  31.458   6.634  1.00  0.00     0.111 A 
ATOM      5  C   UNL     1      -9.960  32.062   7.104  1.00  0.00     0.146 A 
ATOM      6  C   UNL     1     -10.988  31.284   7.629  1.00  0.00     0.094 A 
ATOM      7  O   UNL     1     -10.106  33.379   7.076  1.00  0.00    -0.452 OA
ATOM      8  C   UNL     1      -9.175  34.210   6.636  1.00  0.00     0.180 A 
ATOM      9  C   UNL     1      -7.992  33.695   6.078  1.00  0.00     0.208 A 
ATOM     10  C   UNL     1      -7.780  32.309   6.108  1.00  0.00     0.238 A 
ATOM     11  O   UNL     1      -6.658  31.855   5.771  1.00  0.00    -0.285 OA
ENDROOT
BRANCH   1  12
ATOM     12  O   UNL     1     -11.901  29.219   8.377  1.00  0.00    -0.462 OA
BRANCH  12  13
ATOM     13  C   UNL     1     -12.138  29.028   9.773  1.00  0.00     0.339 C 
ATOM     14  C   UNL     1     -12.743  29.900  12.452  1.00  0.00     0.042 C 
ATOM     15  C   UNL     1     -11.318  29.672  11.884  1.00  0.00     0.151 C 
ATOM     16  C   UNL     1     -10.705  28.305  12.268  1.00  0.00     0.174 C 
ATOM     17  O   UNL     1     -11.249  29.872  10.479  1.00  0.00    -0.335 OA
ATOM     18  C   UNL     1     -10.790  27.266  11.127  1.00  0.00     0.180 C 
ATOM     19  C   UNL     1     -11.919  27.521  10.108  1.00  0.00     0.214 C 
BRANCH  16  20
ATOM     20  O   UNL     1     -11.280  27.802  13.451  1.00  0.00    -0.388 OA
ATOM     21  H   UNL     1     -11.248  26.813  13.388  1.00  0.00     0.211 HD
ENDBRANCH  16  20
BRANCH  18  22
ATOM     22  O   UNL     1      -9.565  27.256  10.426  1.00  0.00    -0.387 OA
ATOM     23  H   UNL     1      -8.999  26.542  10.827  1.00  0.00     0.211 HD
ENDBRANCH  18  22
BRANCH  19  24
ATOM     24  O   UNL     1     -13.114  26.905  10.527  1.00  0.00    -0.384 OA
ATOM     25  H   UNL     1     -13.237  27.133  11.496  1.00  0.00     0.211 HD
ENDBRANCH  19  24
ENDBRANCH  12  13
ENDBRANCH   1  12
BRANCH   3  26
ATOM     26  O   UNL     1      -7.477  29.425   6.317  1.00  0.00    -0.507 OA
ATOM     27  H   UNL     1      -6.572  29.596   6.753  1.00  0.00     0.293 HD
ENDBRANCH   3  26
BRANCH   8  28
ATOM     28  C   UNL     1      -9.421  35.663   6.817  1.00  0.00     0.021 A 
ATOM     29  C   UNL     1      -9.908  36.179   8.033  1.00  0.00     0.016 A 
ATOM     30  C   UNL     1      -9.365  36.523   5.695  1.00  0.00     0.016 A 
ATOM     31  C   UNL     1     -10.314  37.507   8.129  1.00  0.00     0.047 A 
ATOM     32  C   UNL     1      -9.771  37.859   5.800  1.00  0.00     0.047 A 
ATOM     33  C   UNL     1     -10.256  38.352   7.012  1.00  0.00     0.115 A 
BRANCH  33  34
ATOM     34  O   UNL     1     -10.671  39.672   7.101  1.00  0.00    -0.508 OA
ATOM     35  H   UNL     1     -11.290  39.999   7.838  1.00  0.00     0.293 HD
ENDBRANCH  33  34
ENDBRANCH   8  28
BRANCH   9  36
ATOM     36  O   UNL     1      -7.035  34.547   5.536  1.00  0.00    -0.502 OA
ATOM     37  H   UNL     1      -6.042  34.432   5.717  1.00  0.00     0.293 HD
ENDBRANCH   9  36
TORSDOF 9
ENDMDL
MODEL 6
REMARK VINA RESULT:    -6.257      1.380      2.474
REMARK INTER + INTRA:          -8.731
REMARK INTER:                  -8.104
REMARK INTRA:                  -0.627
REMARK UNBOUND:                -0.278
REMARK SMILES C[C@@H]1O[C@@H](Oc2cc(O)c3c(=O)c(O)c(-c4ccc(O)cc4)oc3c2)[C@H](O)[C@@H](O)[C@@H]1O
REMARK SMILES IDX 6 1 7 2 8 3 10 4 24 5 25 6 23 7 15 8 13 9 11 10 12 11 5 12
REMARK SMILES IDX 4 13 1 14 2 15 30 16 3 17 28 18 26 19 31 20 29 22 27 24 9 26
REMARK SMILES IDX 16 28 17 29 22 30 18 31 21 32 19 33 20 34 14 36
REMARK H PARENT 31 21 29 23 27 25 9 27 20 35 14 37
REMARK Flexibility Score: inf
ROOT
ATOM      1  C   UNL     1     -10.487  32.880   8.084  1.00  0.00     0.130 A 
ATOM      2  C   UNL     1     -11.489  32.016   8.557  1.00  0.00     0.093 A 
ATOM      3  C   UNL     1     -11.531  30.677   8.134  1.00  0.00     0.134 A 
ATOM      4  C   UNL     1     -10.517  30.174   7.297  1.00  0.00     0.111 A 
ATOM      5  C   UNL     1      -9.488  31.035   6.872  1.00  0.00     0.146 A 
ATOM      6  C   UNL     1      -9.504  32.380   7.232  1.00  0.00     0.094 A 
ATOM      7  O   UNL     1      -8.478  30.580   6.145  1.00  0.00    -0.452 OA
ATOM      8  C   UNL     1      -8.348  29.314   5.784  1.00  0.00     0.180 A 
ATOM      9  C   UNL     1      -9.363  28.394   6.099  1.00  0.00     0.208 A 
ATOM     10  C   UNL     1     -10.439  28.822   6.890  1.00  0.00     0.238 A 
ATOM     11  O   UNL     1     -11.259  27.971   7.318  1.00  0.00    -0.285 OA
ENDROOT
BRANCH   1  12
ATOM     12  O   UNL     1     -10.379  34.232   8.441  1.00  0.00    -0.462 OA
BRANCH  12  13
ATOM     13  C   UNL     1     -10.611  35.373   7.612  1.00  0.00     0.339 C 
ATOM     14  C   UNL     1     -10.037  37.158   5.426  1.00  0.00     0.042 C 
ATOM     15  C   UNL     1      -9.584  37.365   6.893  1.00  0.00     0.151 C 
ATOM     16  C   UNL     1     -10.483  38.335   7.694  1.00  0.00     0.174 C 
ATOM     17  O   UNL     1      -9.423  36.141   7.596  1.00  0.00    -0.335 OA
ATOM     18  C   UNL     1     -11.478  37.604   8.625  1.00  0.00     0.180 C 
ATOM     19  C   UNL     1     -11.822  36.165   8.192  1.00  0.00     0.214 C 
BRANCH  16  20
ATOM     20  O   UNL     1     -11.157  39.229   6.839  1.00  0.00    -0.388 OA
ATOM     21  H   UNL     1     -11.131  40.119   7.276  1.00  0.00     0.211 HD
ENDBRANCH  16  20
BRANCH  18  22
ATOM     22  O   UNL     1     -10.932  37.550   9.924  1.00  0.00    -0.387 OA
ATOM     23  H   UNL     1     -10.289  38.305  10.008  1.00  0.00     0.211 HD
ENDBRANCH  18  22
BRANCH  19  24
ATOM     24  O   UNL     1     -12.916  36.161   7.305  1.00  0.00    -0.384 OA
ATOM     25  H   UNL     1     -12.674  36.761   6.539  1.00  0.00     0.211 HD
ENDBRANCH  19  24
ENDBRANCH  12  13
ENDBRANCH   1  12
BRANCH   3  26
ATOM     26  O   UNL     1     -12.556  29.861   8.590  1.00  0.00    -0.507 OA
ATOM     27  H   UNL     1     -13.386  29.678   8.028  1.00  0.00     0.293 HD
ENDBRANCH   3  26
BRANCH   8  28
ATOM     28  C   UNL     1      -7.084  28.927   5.108  1.00  0.00     0.021 A 
ATOM     29  C   UNL     1      -5.853  28.935   5.792  1.00  0.00     0.016 A 
ATOM     30  C   UNL     1      -7.072  28.745   3.705  1.00  0.00     0.016 A 
ATOM     31  C   UNL     1      -4.657  28.758   5.104  1.00  0.00     0.047 A 
ATOM     32  C   UNL     1      -5.865  28.563   3.020  1.00  0.00     0.047 A 
ATOM     33  C   UNL     1      -4.655  28.579   3.714  1.00  0.00     0.115 A 
BRANCH  33  34
ATOM     34  O   UNL     1      -3.464  28.414   3.023  1.00  0.00    -0.508 OA
ATOM     35  H   UNL     1      -3.415  27.920   2.135  1.00  0.00     0.293 HD
ENDBRANCH  33  34
ENDBRANCH   8  28
BRANCH   9  36
ATOM     36  O   UNL     1      -9.285  27.076   5.660  1.00  0.00    -0.502 OA
ATOM     37  H   UNL     1      -9.019  26.314   6.278  1.00  0.00     0.293 HD
ENDBRANCH   9  36
TORSDOF 9
ENDMDL
MODEL 7
REMARK VINA RESULT:    -6.138      1.767      8.654
REMARK INTER + INTRA:          -8.569
REMARK INTER:                  -8.646
REMARK INTRA:                   0.077
REMARK UNBOUND:                -0.278
REMARK SMILES C[C@@H]1O[C@@H](Oc2cc(O)c3c(=O)c(O)c(-c4ccc(O)cc4)oc3c2)[C@H](O)[C@@H](O)[C@@H]1O
REMARK SMILES IDX 6 1 7 2 8 3 10 4 24 5 25 6 23 7 15 8 13 9 11 10 12 11 5 12
REMARK SMILES IDX 4 13 1 14 2 15 30 16 3 17 28 18 26 19 31 20 29 22 27 24 9 26
REMARK SMILES IDX 16 28 17 29 22 30 18 31 21 32 19 33 20 34 14 36
REMARK H PARENT 31 21 29 23 27 25 9 27 20 35 14 37
REMARK Flexibility Score: inf
ROOT
ATOM      1  C   UNL     1      -9.357  29.839   7.039  1.00  0.00     0.130 A 
ATOM      2  C   UNL     1     -10.596  29.508   7.614  1.00  0.00     0.093 A 
ATOM      3  C   UNL     1     -11.441  30.514   8.111  1.00  0.00     0.134 A 
ATOM      4  C   UNL     1     -11.084  31.868   7.958  1.00  0.00     0.111 A 
ATOM      5  C   UNL     1      -9.865  32.190   7.333  1.00  0.00     0.146 A 
ATOM      6  C   UNL     1      -9.000  31.181   6.920  1.00  0.00     0.094 A 
ATOM      7  O   UNL     1      -9.530  33.451   7.106  1.00  0.00    -0.452 OA
ATOM      8  C   UNL     1     -10.299  34.481   7.421  1.00  0.00     0.180 A 
ATOM      9  C   UNL     1     -11.501  34.263   8.116  1.00  0.00     0.208 A 
ATOM     10  C   UNL     1     -11.911  32.943   8.356  1.00  0.00     0.238 A 
ATOM     11  O   UNL     1     -13.061  32.736   8.821  1.00  0.00    -0.285 OA
ENDROOT
BRANCH   1  12
ATOM     12  O   UNL     1      -8.447  28.899   6.534  1.00  0.00    -0.462 OA
BRANCH  12  13
ATOM     13  C   UNL     1      -7.477  29.094   5.503  1.00  0.00     0.339 C 
ATOM     14  C   UNL     1      -6.516  29.017   2.788  1.00  0.00     0.042 C 
ATOM     15  C   UNL     1      -6.283  27.914   3.852  1.00  0.00     0.151 C 
ATOM     16  C   UNL     1      -4.899  27.989   4.537  1.00  0.00     0.174 C 
ATOM     17  O   UNL     1      -7.318  27.863   4.825  1.00  0.00    -0.335 OA
ATOM     18  C   UNL     1      -4.955  28.637   5.940  1.00  0.00     0.180 C 
ATOM     19  C   UNL     1      -6.151  29.585   6.161  1.00  0.00     0.214 C 
BRANCH  16  20
ATOM     20  O   UNL     1      -3.959  28.643   3.717  1.00  0.00    -0.388 OA
ATOM     21  H   UNL     1      -4.362  29.511   3.453  1.00  0.00     0.211 HD
ENDBRANCH  16  20
BRANCH  18  22
ATOM     22  O   UNL     1      -5.023  27.617   6.911  1.00  0.00    -0.387 OA
ATOM     23  H   UNL     1      -4.214  27.700   7.486  1.00  0.00     0.211 HD
ENDBRANCH  18  22
BRANCH  19  24
ATOM     24  O   UNL     1      -5.827  30.895   5.756  1.00  0.00    -0.384 OA
ATOM     25  H   UNL     1      -5.173  30.815   5.002  1.00  0.00     0.211 HD
ENDBRANCH  19  24
ENDBRANCH  12  13
ENDBRANCH   1  12
BRANCH   3  26
ATOM     26  O   UNL     1     -12.639  30.151   8.707  1.00  0.00    -0.507 OA
ATOM     27  H   UNL     1     -13.183  29.356   8.376  1.00  0.00     0.293 HD
ENDBRANCH   3  26
BRANCH   8  28
ATOM     28  C   UNL     1      -9.860  35.823   6.960  1.00  0.00     0.021 A 
ATOM     29  C   UNL     1      -8.922  35.971   5.922  1.00  0.00     0.016 A 
ATOM     30  C   UNL     1     -10.227  36.969   7.704  1.00  0.00     0.016 A 
ATOM     31  C   UNL     1      -8.377  37.217   5.629  1.00  0.00     0.047 A 
ATOM     32  C   UNL     1      -9.678  38.221   7.401  1.00  0.00     0.047 A 
ATOM     33  C   UNL     1      -8.745  38.348   6.372  1.00  0.00     0.115 A 
BRANCH  33  34
ATOM     34  O   UNL     1      -8.196  39.590   6.091  1.00  0.00    -0.508 OA
ATOM     35  H   UNL     1      -8.682  40.458   6.300  1.00  0.00     0.293 HD
ENDBRANCH  33  34
ENDBRANCH   8  28
BRANCH   9  36
ATOM     36  O   UNL     1     -12.285  35.336   8.530  1.00  0.00    -0.502 OA
ATOM     37  H   UNL     1     -12.622  35.424   9.484  1.00  0.00     0.293 HD
ENDBRANCH   9  36
TORSDOF 9
ENDMDL
