MODEL 1
REMARK VINA RESULT:    -4.013      0.000      0.000
REMARK INTER + INTRA:          -4.013
REMARK INTER:                  -4.013
REMARK INTRA:                   0.000
REMARK UNBOUND:                 0.000
REMARK SMILES C=C1CC[C@@H]2C[C@H]1C2(C)C
REMARK SMILES IDX 9 1 8 2 5 3 4 4 3 5 2 6 1 7 7 8 6 9 10 10
REMARK H PARENT
REMARK Flexibility Score: inf
ROOT
ATOM      1  C   UNL     1      12.803   7.226  19.049  1.00  0.00     0.012 C 
ATOM      2  C   UNL     1      11.742   7.141  17.918  1.00  0.00    -0.026 C 
ATOM      3  C   UNL     1      10.875   5.862  17.804  1.00  0.00    -0.004 C 
ATOM      4  C   UNL     1      11.706   4.588  18.164  1.00  0.00     0.008 C 
ATOM      5  C   UNL     1      13.062   4.506  17.365  1.00  0.00     0.031 C 
ATOM      6  C   UNL     1      13.335   5.776  16.546  1.00  0.00    -0.074 C 
ATOM      7  C   UNL     1      14.498   5.959  15.911  1.00  0.00     0.008 C 
ATOM      8  C   UNL     1      12.221   6.816  16.484  1.00  0.00     0.021 C 
ATOM      9  C   UNL     1      10.932   6.004  16.275  1.00  0.00     0.012 C 
ATOM     10  C   UNL     1      10.875   8.425  17.964  1.00  0.00     0.012 C 
ENDROOT
TORSDOF 0
ENDMDL
MODEL 2
REMARK VINA RESULT:    -3.933      1.133      3.318
REMARK INTER + INTRA:          -3.933
REMARK INTER:                  -3.933
REMARK INTRA:                   0.000
REMARK UNBOUND:                 0.000
REMARK SMILES C=C1CC[C@@H]2C[C@H]1C2(C)C
REMARK SMILES IDX 9 1 8 2 5 3 4 4 3 5 2 6 1 7 7 8 6 9 10 10
REMARK H PARENT
REMARK Flexibility Score: inf
ROOT
ATOM      1  C   UNL     1      13.891   7.616  17.014  1.00  0.00     0.012 C 
ATOM      2  C   UNL     1      12.905   6.471  16.655  1.00  0.00    -0.026 C 
ATOM      3  C   UNL     1      11.608   6.819  15.883  1.00  0.00    -0.004 C 
ATOM      4  C   UNL     1      11.035   8.199  16.342  1.00  0.00     0.008 C 
ATOM      5  C   UNL     1      10.885   8.300  17.908  1.00  0.00     0.031 C 
ATOM      6  C   UNL     1      11.492   7.089  18.632  1.00  0.00    -0.074 C 
ATOM      7  C   UNL     1      11.590   7.052  19.965  1.00  0.00     0.008 C 
ATOM      8  C   UNL     1      11.973   5.929  17.765  1.00  0.00     0.021 C 
ATOM      9  C   UNL     1      10.875   5.746  16.704  1.00  0.00     0.012 C 
ATOM     10  C   UNL     1      13.704   5.337  15.964  1.00  0.00     0.012 C 
ENDROOT
TORSDOF 0
ENDMDL
MODEL 3
REMARK VINA RESULT:    -3.723      1.116      2.356
REMARK INTER + INTRA:          -3.723
REMARK INTER:                  -3.723
REMARK INTRA:                   0.000
REMARK UNBOUND:                 0.000
REMARK SMILES C=C1CC[C@@H]2C[C@H]1C2(C)C
REMARK SMILES IDX 9 1 8 2 5 3 4 4 3 5 2 6 1 7 7 8 6 9 10 10
REMARK H PARENT
REMARK Flexibility Score: inf
ROOT
ATOM      1  C   UNL     1      13.346   7.440  18.796  1.00  0.00     0.012 C 
ATOM      2  C   UNL     1      12.269   6.324  18.893  1.00  0.00    -0.026 C 
ATOM      3  C   UNL     1      12.571   4.941  18.262  1.00  0.00    -0.004 C 
ATOM      4  C   UNL     1      13.389   5.095  16.939  1.00  0.00     0.008 C 
ATOM      5  C   UNL     1      12.730   6.117  15.937  1.00  0.00     0.031 C 
ATOM      6  C   UNL     1      11.532   6.853  16.557  1.00  0.00    -0.074 C 
ATOM      7  C   UNL     1      10.925   7.858  15.916  1.00  0.00     0.008 C 
ATOM      8  C   UNL     1      11.061   6.383  17.929  1.00  0.00     0.021 C 
ATOM      9  C   UNL     1      11.092   4.847  17.854  1.00  0.00     0.012 C 
ATOM     10  C   UNL     1      11.826   6.201  20.373  1.00  0.00     0.012 C 
ENDROOT
TORSDOF 0
ENDMDL
MODEL 4
REMARK VINA RESULT:    -3.582      1.364      3.195
REMARK INTER + INTRA:          -3.582
REMARK INTER:                  -3.582
REMARK INTRA:                   0.000
REMARK UNBOUND:                 0.000
REMARK SMILES C=C1CC[C@@H]2C[C@H]1C2(C)C
REMARK SMILES IDX 9 1 8 2 5 3 4 4 3 5 2 6 1 7 7 8 6 9 10 10
REMARK H PARENT
REMARK Flexibility Score: inf
ROOT
ATOM      1  C   UNL     1      14.388   4.751  15.879  1.00  0.00     0.012 C 
ATOM      2  C   UNL     1      14.417   5.877  16.950  1.00  0.00    -0.026 C 
ATOM      3  C   UNL     1      14.301   5.486  18.445  1.00  0.00    -0.004 C 
ATOM      4  C   UNL     1      13.323   4.281  18.635  1.00  0.00     0.008 C 
ATOM      5  C   UNL     1      11.932   4.516  17.932  1.00  0.00     0.031 C 
ATOM      6  C   UNL     1      11.916   5.795  17.082  1.00  0.00    -0.074 C 
ATOM      7  C   UNL     1      10.875   6.096  16.297  1.00  0.00     0.008 C 
ATOM      8  C   UNL     1      13.134   6.709  17.176  1.00  0.00     0.021 C 
ATOM      9  C   UNL     1      13.474   6.761  18.675  1.00  0.00     0.012 C 
ATOM     10  C   UNL     1      15.652   6.775  16.681  1.00  0.00     0.012 C 
ENDROOT
TORSDOF 0
ENDMDL
MODEL 5
REMARK VINA RESULT:    -3.554      1.904      3.799
REMARK INTER + INTRA:          -3.554
REMARK INTER:                  -3.554
REMARK INTRA:                   0.000
REMARK UNBOUND:                 0.000
REMARK SMILES C=C1CC[C@@H]2C[C@H]1C2(C)C
REMARK SMILES IDX 9 1 8 2 5 3 4 4 3 5 2 6 1 7 7 8 6 9 10 10
REMARK H PARENT
REMARK Flexibility Score: inf
ROOT
ATOM      1  C   UNL     1      15.049   6.757  18.154  1.00  0.00     0.012 C 
ATOM      2  C   UNL     1      15.335   5.698  17.052  1.00  0.00    -0.026 C 
ATOM      3  C   UNL     1      14.325   5.546  15.887  1.00  0.00    -0.004 C 
ATOM      4  C   UNL     1      12.858   5.746  16.386  1.00  0.00     0.008 C 
ATOM      5  C   UNL     1      12.518   4.851  17.638  1.00  0.00     0.031 C 
ATOM      6  C   UNL     1      13.753   4.117  18.183  1.00  0.00    -0.074 C 
ATOM      7  C   UNL     1      13.701   3.419  19.323  1.00  0.00     0.008 C 
ATOM      8  C   UNL     1      15.037   4.214  17.365  1.00  0.00     0.021 C 
ATOM      9  C   UNL     1      14.591   4.032  15.905  1.00  0.00     0.012 C 
ATOM     10  C   UNL     1      16.783   5.905  16.540  1.00  0.00     0.012 C 
ENDROOT
TORSDOF 0
ENDMDL
MODEL 6
REMARK VINA RESULT:    -3.495      1.230      2.427
REMARK INTER + INTRA:          -3.495
REMARK INTER:                  -3.495
REMARK INTRA:                   0.000
REMARK UNBOUND:                 0.000
REMARK SMILES C=C1CC[C@@H]2C[C@H]1C2(C)C
REMARK SMILES IDX 9 1 8 2 5 3 4 4 3 5 2 6 1 7 7 8 6 9 10 10
REMARK H PARENT
REMARK Flexibility Score: inf
ROOT
ATOM      1  C   UNL     1      13.897   7.702  18.546  1.00  0.00     0.012 C 
ATOM      2  C   UNL     1      13.309   7.557  17.114  1.00  0.00    -0.026 C 
ATOM      3  C   UNL     1      11.826   7.935  16.876  1.00  0.00    -0.004 C 
ATOM      4  C   UNL     1      10.942   7.540  18.104  1.00  0.00     0.008 C 
ATOM      5  C   UNL     1      11.151   6.039  18.540  1.00  0.00     0.031 C 
ATOM      6  C   UNL     1      12.294   5.361  17.770  1.00  0.00    -0.074 C 
ATOM      7  C   UNL     1      12.719   4.134  18.092  1.00  0.00     0.008 C 
ATOM      8  C   UNL     1      12.919   6.145  16.620  1.00  0.00     0.021 C 
ATOM      9  C   UNL     1      11.730   6.773  15.875  1.00  0.00     0.012 C 
ATOM     10  C   UNL     1      14.257   8.279  16.123  1.00  0.00     0.012 C 
ENDROOT
TORSDOF 0
ENDMDL
MODEL 7
REMARK VINA RESULT:    -3.455      1.835      3.759
REMARK INTER + INTRA:          -3.455
REMARK INTER:                  -3.455
REMARK INTRA:                   0.000
REMARK UNBOUND:                 0.000
REMARK SMILES C=C1CC[C@@H]2C[C@H]1C2(C)C
REMARK SMILES IDX 9 1 8 2 5 3 4 4 3 5 2 6 1 7 7 8 6 9 10 10
REMARK H PARENT
REMARK Flexibility Score: inf
ROOT
ATOM      1  C   UNL     1      14.120   5.824  18.992  1.00  0.00     0.012 C 
ATOM      2  C   UNL     1      14.336   4.704  17.937  1.00  0.00    -0.026 C 
ATOM      3  C   UNL     1      15.579   4.779  17.015  1.00  0.00    -0.004 C 
ATOM      4  C   UNL     1      15.903   6.259  16.629  1.00  0.00     0.008 C 
ATOM      5  C   UNL     1      14.647   7.023  16.061  1.00  0.00     0.031 C 
ATOM      6  C   UNL     1      13.358   6.195  16.175  1.00  0.00    -0.074 C 
ATOM      7  C   UNL     1      12.165   6.720  15.877  1.00  0.00     0.008 C 
ATOM      8  C   UNL     1      13.500   4.748  16.637  1.00  0.00     0.021 C 
ATOM      9  C   UNL     1      14.721   4.207  15.875  1.00  0.00     0.012 C 
ATOM     10  C   UNL     1      14.227   3.333  18.652  1.00  0.00     0.012 C 
ENDROOT
TORSDOF 0
ENDMDL
MODEL 8
REMARK VINA RESULT:    -3.407      1.649      2.227
REMARK INTER + INTRA:          -3.407
REMARK INTER:                  -3.407
REMARK INTRA:                   0.000
REMARK UNBOUND:                 0.000
REMARK SMILES C=C1CC[C@@H]2C[C@H]1C2(C)C
REMARK SMILES IDX 9 1 8 2 5 3 4 4 3 5 2 6 1 7 7 8 6 9 10 10
REMARK H PARENT
REMARK Flexibility Score: inf
ROOT
ATOM      1  C   UNL     1      14.736   6.243  19.457  1.00  0.00     0.012 C 
ATOM      2  C   UNL     1      13.274   5.870  19.085  1.00  0.00    -0.026 C 
ATOM      3  C   UNL     1      12.755   4.452  19.434  1.00  0.00    -0.004 C 
ATOM      4  C   UNL     1      13.882   3.383  19.254  1.00  0.00     0.008 C 
ATOM      5  C   UNL     1      14.580   3.472  17.844  1.00  0.00     0.031 C 
ATOM      6  C   UNL     1      14.112   4.693  17.037  1.00  0.00    -0.074 C 
ATOM      7  C   UNL     1      14.688   5.021  15.875  1.00  0.00     0.008 C 
ATOM      8  C   UNL     1      12.960   5.508  17.614  1.00  0.00     0.021 C 
ATOM      9  C   UNL     1      11.952   4.465  18.123  1.00  0.00     0.012 C 
ATOM     10  C   UNL     1      12.334   6.979  19.624  1.00  0.00     0.012 C 
ENDROOT
TORSDOF 0
ENDMDL
