MODEL 1
REMARK VINA RESULT:    -7.047      0.000      0.000
REMARK INTER + INTRA:          -9.371
REMARK INTER:                  -8.901
REMARK INTRA:                  -0.470
REMARK UNBOUND:                -0.470
REMARK SMILES Oc1cc(O)cc(CCc2ccccc2O)c1
REMARK SMILES IDX 9 1 10 2 12 3 13 4 11 5 14 6 15 7 16 8 8 10 7 11 6 12 17 13
REMARK SMILES IDX 4 14 2 15 3 16 5 17 1 19
REMARK H PARENT 16 9 5 18 1 20
REMARK Flexibility Score: inf
ROOT
ATOM      1  C   UNL     1      20.220  28.540 -14.687  1.00  0.00     0.044 C 
ENDROOT
BRANCH   1   2
ATOM      2  C   UNL     1      19.081  27.725 -14.131  1.00  0.00    -0.006 A 
ATOM      3  C   UNL     1      17.190  26.241 -14.507  1.00  0.00     0.001 A 
ATOM      4  C   UNL     1      16.906  26.249 -13.141  1.00  0.00     0.004 A 
ATOM      5  C   UNL     1      18.268  26.979 -15.003  1.00  0.00     0.007 A 
ATOM      6  C   UNL     1      17.697  26.997 -12.266  1.00  0.00     0.046 A 
ATOM      7  C   UNL     1      18.782  27.742 -12.753  1.00  0.00     0.118 A 
BRANCH   7   8
ATOM      8  O   UNL     1      19.558  28.498 -11.876  1.00  0.00    -0.508 OA
ATOM      9  H   UNL     1      20.550  28.638 -12.029  1.00  0.00     0.293 HD
ENDBRANCH   7   8
ENDBRANCH   1   2
BRANCH   1  10
ATOM     10  C   UNL     1      20.283  28.408 -16.213  1.00  0.00     0.040 C 
BRANCH  10  11
ATOM     11  C   UNL     1      21.713  28.378 -16.682  1.00  0.00    -0.040 A 
ATOM     12  C   UNL     1      22.644  27.531 -16.061  1.00  0.00     0.050 A 
ATOM     13  C   UNL     1      22.139  29.240 -17.706  1.00  0.00     0.050 A 
ATOM     14  C   UNL     1      23.983  27.527 -16.476  1.00  0.00     0.119 A 
ATOM     15  C   UNL     1      23.478  29.236 -18.122  1.00  0.00     0.119 A 
ATOM     16  C   UNL     1      24.395  28.378 -17.507  1.00  0.00     0.092 A 
BRANCH  14  17
ATOM     17  O   UNL     1      24.912  26.684 -15.870  1.00  0.00    -0.508 OA
ATOM     18  H   UNL     1      25.435  26.974 -15.052  1.00  0.00     0.293 HD
ENDBRANCH  14  17
BRANCH  15  19
ATOM     19  O   UNL     1      23.907  30.083 -19.142  1.00  0.00    -0.508 OA
ATOM     20  H   UNL     1      23.936  29.775 -20.107  1.00  0.00     0.293 HD
ENDBRANCH  15  19
ENDBRANCH  10  11
ENDBRANCH   1  10
TORSDOF 6
ENDMDL
MODEL 2
REMARK VINA RESULT:    -7.023      0.209      2.032
REMARK INTER + INTRA:          -9.341
REMARK INTER:                  -8.866
REMARK INTRA:                  -0.475
REMARK UNBOUND:                -0.470
REMARK SMILES Oc1cc(O)cc(CCc2ccccc2O)c1
REMARK SMILES IDX 9 1 10 2 12 3 13 4 11 5 14 6 15 7 16 8 8 10 7 11 6 12 17 13
REMARK SMILES IDX 4 14 2 15 3 16 5 17 1 19
REMARK H PARENT 16 9 5 18 1 20
REMARK Flexibility Score: inf
ROOT
ATOM      1  C   UNL     1      20.268  28.508 -14.621  1.00  0.00     0.044 C 
ENDROOT
BRANCH   1   2
ATOM      2  C   UNL     1      19.111  27.707 -14.079  1.00  0.00    -0.006 A 
ATOM      3  C   UNL     1      17.185  26.277 -14.481  1.00  0.00     0.001 A 
ATOM      4  C   UNL     1      16.906  26.262 -13.113  1.00  0.00     0.004 A 
ATOM      5  C   UNL     1      18.279  27.001 -14.964  1.00  0.00     0.007 A 
ATOM      6  C   UNL     1      17.716  26.971 -12.225  1.00  0.00     0.046 A 
ATOM      7  C   UNL     1      18.817  27.701 -12.700  1.00  0.00     0.118 A 
BRANCH   7   8
ATOM      8  O   UNL     1      19.613  28.420 -11.808  1.00  0.00    -0.508 OA
ATOM      9  H   UNL     1      19.451  29.403 -11.625  1.00  0.00     0.293 HD
ENDBRANCH   7   8
ENDBRANCH   1   2
BRANCH   1  10
ATOM     10  C   UNL     1      20.283  28.464 -16.152  1.00  0.00     0.040 C 
BRANCH  10  11
ATOM     11  C   UNL     1      21.695  28.374 -16.665  1.00  0.00    -0.040 A 
ATOM     12  C   UNL     1      22.065  29.045 -17.842  1.00  0.00     0.050 A 
ATOM     13  C   UNL     1      22.639  27.573 -16.001  1.00  0.00     0.050 A 
ATOM     14  C   UNL     1      23.371  28.934 -18.338  1.00  0.00     0.119 A 
ATOM     15  C   UNL     1      23.946  27.463 -16.496  1.00  0.00     0.119 A 
ATOM     16  C   UNL     1      24.308  28.146 -17.662  1.00  0.00     0.092 A 
BRANCH  14  17
ATOM     17  O   UNL     1      23.748  29.602 -19.501  1.00  0.00    -0.508 OA
ATOM     18  H   UNL     1      24.637  30.085 -19.570  1.00  0.00     0.293 HD
ENDBRANCH  14  17
BRANCH  15  19
ATOM     19  O   UNL     1      24.889  26.676 -15.840  1.00  0.00    -0.508 OA
ATOM     20  H   UNL     1      25.744  26.382 -16.298  1.00  0.00     0.293 HD
ENDBRANCH  15  19
ENDBRANCH  10  11
ENDBRANCH   1  10
TORSDOF 6
ENDMDL
MODEL 3
REMARK VINA RESULT:    -6.942      1.446      2.282
REMARK INTER + INTRA:          -9.238
REMARK INTER:                  -8.761
REMARK INTRA:                  -0.478
REMARK UNBOUND:                -0.470
REMARK SMILES Oc1cc(O)cc(CCc2ccccc2O)c1
REMARK SMILES IDX 9 1 10 2 12 3 13 4 11 5 14 6 15 7 16 8 8 10 7 11 6 12 17 13
REMARK SMILES IDX 4 14 2 15 3 16 5 17 1 19
REMARK H PARENT 16 9 5 18 1 20
REMARK Flexibility Score: inf
ROOT
ATOM      1  C   UNL     1      21.030  28.588 -14.510  1.00  0.00     0.044 C 
ENDROOT
BRANCH   1   2
ATOM      2  C   UNL     1      19.668  28.142 -14.039  1.00  0.00    -0.006 A 
ATOM      3  C   UNL     1      17.314  27.756 -14.511  1.00  0.00     0.001 A 
ATOM      4  C   UNL     1      17.104  27.386 -13.181  1.00  0.00     0.004 A 
ATOM      5  C   UNL     1      18.588  28.138 -14.938  1.00  0.00     0.007 A 
ATOM      6  C   UNL     1      18.165  27.400 -12.274  1.00  0.00     0.046 A 
ATOM      7  C   UNL     1      19.449  27.782 -12.694  1.00  0.00     0.118 A 
BRANCH   7   8
ATOM      8  O   UNL     1      20.501  27.808 -11.779  1.00  0.00    -0.508 OA
ATOM      9  H   UNL     1      21.082  26.994 -11.613  1.00  0.00     0.293 HD
ENDBRANCH   7   8
ENDBRANCH   1   2
BRANCH   1  10
ATOM     10  C   UNL     1      21.500  27.727 -15.688  1.00  0.00     0.040 C 
BRANCH  10  11
ATOM     11  C   UNL     1      22.214  28.573 -16.708  1.00  0.00    -0.040 A 
ATOM     12  C   UNL     1      21.512  29.108 -17.800  1.00  0.00     0.050 A 
ATOM     13  C   UNL     1      23.600  28.784 -16.607  1.00  0.00     0.050 A 
ATOM     14  C   UNL     1      22.184  29.868 -18.767  1.00  0.00     0.119 A 
ATOM     15  C   UNL     1      24.271  29.544 -17.574  1.00  0.00     0.119 A 
ATOM     16  C   UNL     1      23.561  30.085 -18.650  1.00  0.00     0.092 A 
BRANCH  14  17
ATOM     17  O   UNL     1      21.494  30.409 -19.850  1.00  0.00    -0.508 OA
ATOM     18  H   UNL     1      21.547  29.993 -20.773  1.00  0.00     0.293 HD
ENDBRANCH  14  17
BRANCH  15  19
ATOM     19  O   UNL     1      25.644  29.764 -17.477  1.00  0.00    -0.508 OA
ATOM     20  H   UNL     1      26.284  29.436 -18.191  1.00  0.00     0.293 HD
ENDBRANCH  15  19
ENDBRANCH  10  11
ENDBRANCH   1  10
TORSDOF 6
ENDMDL
MODEL 4
REMARK VINA RESULT:    -6.861      3.033      4.931
REMARK INTER + INTRA:          -9.135
REMARK INTER:                  -8.550
REMARK INTRA:                  -0.586
REMARK UNBOUND:                -0.470
REMARK SMILES Oc1cc(O)cc(CCc2ccccc2O)c1
REMARK SMILES IDX 9 1 10 2 12 3 13 4 11 5 14 6 15 7 16 8 8 10 7 11 6 12 17 13
REMARK SMILES IDX 4 14 2 15 3 16 5 17 1 19
REMARK H PARENT 16 9 5 18 1 20
REMARK Flexibility Score: inf
ROOT
ATOM      1  C   UNL     1      23.630  29.459 -17.290  1.00  0.00     0.044 C 
ENDROOT
BRANCH   1   2
ATOM      2  C   UNL     1      22.759  29.105 -16.111  1.00  0.00    -0.006 A 
ATOM      3  C   UNL     1      20.870  27.874 -15.199  1.00  0.00     0.001 A 
ATOM      4  C   UNL     1      21.073  28.475 -13.955  1.00  0.00     0.004 A 
ATOM      5  C   UNL     1      21.704  28.191 -16.274  1.00  0.00     0.007 A 
ATOM      6  C   UNL     1      22.108  29.396 -13.783  1.00  0.00     0.046 A 
ATOM      7  C   UNL     1      22.952  29.721 -14.857  1.00  0.00     0.118 A 
BRANCH   7   8
ATOM      8  O   UNL     1      23.974  30.653 -14.682  1.00  0.00    -0.508 OA
ATOM      9  H   UNL     1      24.203  31.025 -13.767  1.00  0.00     0.293 HD
ENDBRANCH   7   8
ENDBRANCH   1   2
BRANCH   1  10
ATOM     10  C   UNL     1      22.933  30.491 -18.184  1.00  0.00     0.040 C 
BRANCH  10  11
ATOM     11  C   UNL     1      22.517  29.865 -19.488  1.00  0.00    -0.040 A 
ATOM     12  C   UNL     1      21.768  30.602 -20.419  1.00  0.00     0.050 A 
ATOM     13  C   UNL     1      22.827  28.522 -19.758  1.00  0.00     0.050 A 
ATOM     14  C   UNL     1      21.352  30.009 -21.619  1.00  0.00     0.119 A 
ATOM     15  C   UNL     1      22.412  27.929 -20.959  1.00  0.00     0.119 A 
ATOM     16  C   UNL     1      21.678  28.676 -21.886  1.00  0.00     0.092 A 
BRANCH  14  17
ATOM     17  O   UNL     1      20.614  30.735 -22.551  1.00  0.00    -0.508 OA
ATOM     18  H   UNL     1      20.693  30.554 -23.546  1.00  0.00     0.293 HD
ENDBRANCH  14  17
BRANCH  15  19
ATOM     19  O   UNL     1      22.721  26.600 -21.238  1.00  0.00    -0.508 OA
ATOM     20  H   UNL     1      23.469  26.353 -21.875  1.00  0.00     0.293 HD
ENDBRANCH  15  19
ENDBRANCH  10  11
ENDBRANCH   1  10
TORSDOF 6
ENDMDL
MODEL 5
REMARK VINA RESULT:    -6.848      1.414      2.866
REMARK INTER + INTRA:          -9.119
REMARK INTER:                  -8.491
REMARK INTRA:                  -0.629
REMARK UNBOUND:                -0.470
REMARK SMILES Oc1cc(O)cc(CCc2ccccc2O)c1
REMARK SMILES IDX 9 1 10 2 12 3 13 4 11 5 14 6 15 7 16 8 8 10 7 11 6 12 17 13
REMARK SMILES IDX 4 14 2 15 3 16 5 17 1 19
REMARK H PARENT 16 9 5 18 1 20
REMARK Flexibility Score: inf
ROOT
ATOM      1  C   UNL     1      19.074  28.464 -15.259  1.00  0.00     0.044 C 
ENDROOT
BRANCH   1   2
ATOM      2  C   UNL     1      19.177  28.303 -13.764  1.00  0.00    -0.006 A 
ATOM      3  C   UNL     1      20.328  28.802 -11.680  1.00  0.00     0.001 A 
ATOM      4  C   UNL     1      19.444  27.972 -10.988  1.00  0.00     0.004 A 
ATOM      5  C   UNL     1      20.201  28.963 -13.062  1.00  0.00     0.007 A 
ATOM      6  C   UNL     1      18.432  27.300 -11.675  1.00  0.00     0.046 A 
ATOM      7  C   UNL     1      18.295  27.455 -13.063  1.00  0.00     0.118 A 
BRANCH   7   8
ATOM      8  O   UNL     1      17.291  26.768 -13.745  1.00  0.00    -0.508 OA
ATOM      9  H   UNL     1      17.225  26.790 -14.756  1.00  0.00     0.293 HD
ENDBRANCH   7   8
ENDBRANCH   1   2
BRANCH   1  10
ATOM     10  C   UNL     1      19.933  27.416 -15.974  1.00  0.00     0.040 C 
BRANCH  10  11
ATOM     11  C   UNL     1      21.268  27.997 -16.355  1.00  0.00    -0.040 A 
ATOM     12  C   UNL     1      21.337  29.181 -17.106  1.00  0.00     0.050 A 
ATOM     13  C   UNL     1      22.455  27.327 -16.011  1.00  0.00     0.050 A 
ATOM     14  C   UNL     1      22.580  29.704 -17.488  1.00  0.00     0.119 A 
ATOM     15  C   UNL     1      23.697  27.851 -16.392  1.00  0.00     0.119 A 
ATOM     16  C   UNL     1      23.756  29.039 -17.128  1.00  0.00     0.092 A 
BRANCH  14  17
ATOM     17  O   UNL     1      22.657  30.883 -18.227  1.00  0.00    -0.508 OA
ATOM     18  H   UNL     1      23.517  31.168 -18.681  1.00  0.00     0.293 HD
ENDBRANCH  14  17
BRANCH  15  19
ATOM     19  O   UNL     1      24.879  27.197 -16.049  1.00  0.00    -0.508 OA
ATOM     20  H   UNL     1      24.876  26.241 -15.713  1.00  0.00     0.293 HD
ENDBRANCH  15  19
ENDBRANCH  10  11
ENDBRANCH   1  10
TORSDOF 6
ENDMDL
MODEL 6
REMARK VINA RESULT:    -6.840      1.728      2.327
REMARK INTER + INTRA:          -9.110
REMARK INTER:                  -8.632
REMARK INTRA:                  -0.478
REMARK UNBOUND:                -0.470
REMARK SMILES Oc1cc(O)cc(CCc2ccccc2O)c1
REMARK SMILES IDX 9 1 10 2 12 3 13 4 11 5 14 6 15 7 16 8 8 10 7 11 6 12 17 13
REMARK SMILES IDX 4 14 2 15 3 16 5 17 1 19
REMARK H PARENT 16 9 5 18 1 20
REMARK Flexibility Score: inf
ROOT
ATOM      1  C   UNL     1      19.840  28.335 -15.766  1.00  0.00     0.044 C 
ENDROOT
BRANCH   1   2
ATOM      2  C   UNL     1      19.433  28.108 -14.332  1.00  0.00    -0.006 A 
ATOM      3  C   UNL     1      19.888  28.384 -11.959  1.00  0.00     0.001 A 
ATOM      4  C   UNL     1      18.744  27.646 -11.649  1.00  0.00     0.004 A 
ATOM      5  C   UNL     1      20.235  28.611 -13.293  1.00  0.00     0.007 A 
ATOM      6  C   UNL     1      17.947  27.128 -12.672  1.00  0.00     0.046 A 
ATOM      7  C   UNL     1      18.286  27.350 -14.016  1.00  0.00     0.118 A 
BRANCH   7   8
ATOM      8  O   UNL     1      17.494  26.818 -15.032  1.00  0.00    -0.508 OA
ATOM      9  H   UNL     1      17.336  25.820 -15.115  1.00  0.00     0.293 HD
ENDBRANCH   7   8
ENDBRANCH   1   2
BRANCH   1  10
ATOM     10  C   UNL     1      21.182  27.656 -16.059  1.00  0.00     0.040 C 
BRANCH  10  11
ATOM     11  C   UNL     1      22.017  28.508 -16.976  1.00  0.00    -0.040 A 
ATOM     12  C   UNL     1      23.379  28.714 -16.705  1.00  0.00     0.050 A 
ATOM     13  C   UNL     1      21.427  29.152 -18.077  1.00  0.00     0.050 A 
ATOM     14  C   UNL     1      24.149  29.535 -17.540  1.00  0.00     0.119 A 
ATOM     15  C   UNL     1      22.197  29.972 -18.912  1.00  0.00     0.119 A 
ATOM     16  C   UNL     1      23.556  30.159 -18.642  1.00  0.00     0.092 A 
BRANCH  14  17
ATOM     17  O   UNL     1      25.503  29.739 -17.283  1.00  0.00    -0.508 OA
ATOM     18  H   UNL     1      26.192  29.723 -18.027  1.00  0.00     0.293 HD
ENDBRANCH  14  17
BRANCH  15  19
ATOM     19  O   UNL     1      21.620  30.608 -20.010  1.00  0.00    -0.508 OA
ATOM     20  H   UNL     1      20.615  30.640 -20.135  1.00  0.00     0.293 HD
ENDBRANCH  15  19
ENDBRANCH  10  11
ENDBRANCH   1  10
TORSDOF 6
ENDMDL
MODEL 7
REMARK VINA RESULT:    -6.796      1.779      6.458
REMARK INTER + INTRA:          -9.054
REMARK INTER:                  -8.555
REMARK INTRA:                  -0.499
REMARK UNBOUND:                -0.470
REMARK SMILES Oc1cc(O)cc(CCc2ccccc2O)c1
REMARK SMILES IDX 9 1 10 2 12 3 13 4 11 5 14 6 15 7 16 8 8 10 7 11 6 12 17 13
REMARK SMILES IDX 4 14 2 15 3 16 5 17 1 19
REMARK H PARENT 16 9 5 18 1 20
REMARK Flexibility Score: inf
ROOT
ATOM      1  C   UNL     1      20.763  27.728 -16.055  1.00  0.00     0.044 C 
ENDROOT
BRANCH   1   2
ATOM      2  C   UNL     1      21.672  28.636 -16.843  1.00  0.00    -0.006 A 
ATOM      3  C   UNL     1      22.224  29.737 -18.941  1.00  0.00     0.001 A 
ATOM      4  C   UNL     1      23.380  30.267 -18.365  1.00  0.00     0.004 A 
ATOM      5  C   UNL     1      21.376  28.920 -18.188  1.00  0.00     0.007 A 
ATOM      6  C   UNL     1      23.693  29.980 -17.034  1.00  0.00     0.046 A 
ATOM      7  C   UNL     1      22.848  29.161 -16.269  1.00  0.00     0.118 A 
BRANCH   7   8
ATOM      8  O   UNL     1      23.175  28.867 -14.946  1.00  0.00    -0.508 OA
ATOM      9  H   UNL     1      24.119  28.980 -14.594  1.00  0.00     0.293 HD
ENDBRANCH   7   8
ENDBRANCH   1   2
BRANCH   1  10
ATOM     10  C   UNL     1      19.523  28.491 -15.576  1.00  0.00     0.040 C 
BRANCH  10  11
ATOM     11  C   UNL     1      19.258  28.209 -14.122  1.00  0.00    -0.040 A 
ATOM     12  C   UNL     1      20.119  28.715 -13.134  1.00  0.00     0.050 A 
ATOM     13  C   UNL     1      18.180  27.391 -13.745  1.00  0.00     0.050 A 
ATOM     14  C   UNL     1      19.891  28.424 -11.782  1.00  0.00     0.119 A 
ATOM     15  C   UNL     1      17.951  27.102 -12.393  1.00  0.00     0.119 A 
ATOM     16  C   UNL     1      18.806  27.621 -11.416  1.00  0.00     0.092 A 
BRANCH  14  17
ATOM     17  O   UNL     1      20.736  28.928 -10.796  1.00  0.00    -0.508 OA
ATOM     18  H   UNL     1      20.433  29.657 -10.160  1.00  0.00     0.293 HD
ENDBRANCH  14  17
BRANCH  15  19
ATOM     19  O   UNL     1      16.881  26.296 -12.010  1.00  0.00    -0.508 OA
ATOM     20  H   UNL     1      16.291  25.839 -12.696  1.00  0.00     0.293 HD
ENDBRANCH  15  19
ENDBRANCH  10  11
ENDBRANCH   1  10
TORSDOF 6
ENDMDL
MODEL 8
REMARK VINA RESULT:    -6.713     13.085     14.487
REMARK INTER + INTRA:          -8.949
REMARK INTER:                  -8.392
REMARK INTRA:                  -0.557
REMARK UNBOUND:                -0.470
REMARK SMILES Oc1cc(O)cc(CCc2ccccc2O)c1
REMARK SMILES IDX 9 1 10 2 12 3 13 4 11 5 14 6 15 7 16 8 8 10 7 11 6 12 17 13
REMARK SMILES IDX 4 14 2 15 3 16 5 17 1 19
REMARK H PARENT 16 9 5 18 1 20
REMARK Flexibility Score: inf
ROOT
ATOM      1  C   UNL     1      33.444  30.435  -9.502  1.00  0.00     0.044 C 
ENDROOT
BRANCH   1   2
ATOM      2  C   UNL     1      32.616  31.630  -9.104  1.00  0.00    -0.006 A 
ATOM      3  C   UNL     1      30.520  32.859  -9.228  1.00  0.00     0.001 A 
ATOM      4  C   UNL     1      31.065  33.876  -8.442  1.00  0.00     0.004 A 
ATOM      5  C   UNL     1      31.292  31.743  -9.564  1.00  0.00     0.007 A 
ATOM      6  C   UNL     1      32.383  33.782  -7.991  1.00  0.00     0.046 A 
ATOM      7  C   UNL     1      33.167  32.666  -8.322  1.00  0.00     0.118 A 
BRANCH   7   8
ATOM      8  O   UNL     1      34.487  32.587  -7.882  1.00  0.00    -0.508 OA
ATOM      9  H   UNL     1      34.713  32.446  -6.904  1.00  0.00     0.293 HD
ENDBRANCH   7   8
ENDBRANCH   1   2
BRANCH   1  10
ATOM     10  C   UNL     1      33.197  30.072 -10.970  1.00  0.00     0.040 C 
BRANCH  10  11
ATOM     11  C   UNL     1      34.098  30.873 -11.871  1.00  0.00    -0.040 A 
ATOM     12  C   UNL     1      33.897  30.864 -13.261  1.00  0.00     0.050 A 
ATOM     13  C   UNL     1      35.181  31.588 -11.334  1.00  0.00     0.050 A 
ATOM     14  C   UNL     1      34.757  31.583 -14.103  1.00  0.00     0.119 A 
ATOM     15  C   UNL     1      36.040  32.307 -12.176  1.00  0.00     0.119 A 
ATOM     16  C   UNL     1      35.824  32.304 -13.558  1.00  0.00     0.092 A 
BRANCH  14  17
ATOM     17  O   UNL     1      34.561  31.586 -15.482  1.00  0.00    -0.508 OA
ATOM     18  H   UNL     1      35.068  32.221 -16.088  1.00  0.00     0.293 HD
ENDBRANCH  14  17
BRANCH  15  19
ATOM     19  O   UNL     1      37.113  33.025 -11.650  1.00  0.00    -0.508 OA
ATOM     20  H   UNL     1      37.574  33.753 -12.183  1.00  0.00     0.293 HD
ENDBRANCH  15  19
ENDBRANCH  10  11
ENDBRANCH   1  10
TORSDOF 6
ENDMDL
MODEL 9
REMARK VINA RESULT:    -6.704     13.085     14.427
REMARK INTER + INTRA:          -8.938
REMARK INTER:                  -8.394
REMARK INTRA:                  -0.544
REMARK UNBOUND:                -0.470
REMARK SMILES Oc1cc(O)cc(CCc2ccccc2O)c1
REMARK SMILES IDX 9 1 10 2 12 3 13 4 11 5 14 6 15 7 16 8 8 10 7 11 6 12 17 13
REMARK SMILES IDX 4 14 2 15 3 16 5 17 1 19
REMARK H PARENT 16 9 5 18 1 20
REMARK Flexibility Score: inf
ROOT
ATOM      1  C   UNL     1      33.435  30.429  -9.536  1.00  0.00     0.044 C 
ENDROOT
BRANCH   1   2
ATOM      2  C   UNL     1      32.612  31.633  -9.154  1.00  0.00    -0.006 A 
ATOM      3  C   UNL     1      30.529  32.880  -9.314  1.00  0.00     0.001 A 
ATOM      4  C   UNL     1      31.070  33.893  -8.521  1.00  0.00     0.004 A 
ATOM      5  C   UNL     1      31.297  31.757  -9.635  1.00  0.00     0.007 A 
ATOM      6  C   UNL     1      32.380  33.789  -8.049  1.00  0.00     0.046 A 
ATOM      7  C   UNL     1      33.160  32.665  -8.365  1.00  0.00     0.118 A 
BRANCH   7   8
ATOM      8  O   UNL     1      34.472  32.575  -7.903  1.00  0.00    -0.508 OA
ATOM      9  H   UNL     1      35.263  32.667  -8.530  1.00  0.00     0.293 HD
ENDBRANCH   7   8
ENDBRANCH   1   2
BRANCH   1  10
ATOM     10  C   UNL     1      33.202  30.062 -11.006  1.00  0.00     0.040 C 
BRANCH  10  11
ATOM     11  C   UNL     1      34.146  30.823 -11.897  1.00  0.00    -0.040 A 
ATOM     12  C   UNL     1      35.190  31.580 -11.340  1.00  0.00     0.050 A 
ATOM     13  C   UNL     1      33.955  30.828 -13.289  1.00  0.00     0.050 A 
ATOM     14  C   UNL     1      36.049  32.315 -12.169  1.00  0.00     0.119 A 
ATOM     15  C   UNL     1      34.815  31.563 -14.117  1.00  0.00     0.119 A 
ATOM     16  C   UNL     1      35.860  32.302 -13.554  1.00  0.00     0.092 A 
BRANCH  14  17
ATOM     17  O   UNL     1      37.091  33.063 -11.625  1.00  0.00    -0.508 OA
ATOM     18  H   UNL     1      37.987  32.641 -11.408  1.00  0.00     0.293 HD
ENDBRANCH  14  17
BRANCH  15  19
ATOM     19  O   UNL     1      34.636  31.568 -15.499  1.00  0.00    -0.508 OA
ATOM     20  H   UNL     1      34.724  32.420 -16.041  1.00  0.00     0.293 HD
ENDBRANCH  15  19
ENDBRANCH  10  11
ENDBRANCH   1  10
TORSDOF 6
ENDMDL
