MODEL 1
REMARK VINA RESULT:    -5.307      0.000      0.000
REMARK INTER + INTRA:         -10.422
REMARK INTER:                  -9.650
REMARK INTRA:                  -0.772
REMARK UNBOUND:                -0.772
REMARK SMILES CCCCCCCCCCCCCCCC(=O)[O-]
REMARK SMILES IDX 9 1 10 2 11 3 12 4 13 5 14 6 15 7 16 8 17 9 18 10 8 11 7 12
REMARK SMILES IDX 6 13 5 14 4 15 3 16 2 17 1 18
REMARK H PARENT
REMARK Flexibility Score: inf
ROOT
ATOM      1  C   UNL     1      -7.333  33.171   5.819  1.00  0.00     0.000 C 
ENDROOT
BRANCH   1   2
ATOM      2  C   UNL     1      -8.298  34.099   5.061  1.00  0.00     0.000 C 
BRANCH   2   3
ATOM      3  C   UNL     1      -9.400  34.672   5.968  1.00  0.00     0.000 C 
BRANCH   3   4
ATOM      4  C   UNL     1      -8.960  35.956   6.693  1.00  0.00     0.000 C 
BRANCH   4   5
ATOM      5  C   UNL     1      -8.555  37.074   5.720  1.00  0.00     0.000 C 
BRANCH   5   6
ATOM      6  C   UNL     1      -9.142  38.440   6.107  1.00  0.00     0.006 C 
BRANCH   6   7
ATOM      7  C   UNL     1     -10.524  38.640   5.478  1.00  0.00     0.053 C 
BRANCH   7   8
ATOM      8  C   UNL     1     -11.439  39.340   6.433  1.00  0.00     0.041 C 
ATOM      9  O   UNL     1     -12.314  40.137   6.003  1.00  0.00    -0.550 OA
ATOM     10  O   UNL     1     -11.292  39.150   7.801  1.00  0.00    -0.550 OA
ENDBRANCH   7   8
ENDBRANCH   6   7
ENDBRANCH   5   6
ENDBRANCH   4   5
ENDBRANCH   3   4
ENDBRANCH   2   3
ENDBRANCH   1   2
BRANCH   1  11
ATOM     11  C   UNL     1      -7.637  31.682   5.583  1.00  0.00     0.000 C 
BRANCH  11  12
ATOM     12  C   UNL     1      -6.516  30.760   6.087  1.00  0.00    -0.000 C 
BRANCH  12  13
ATOM     13  C   UNL     1      -5.278  31.570   6.488  1.00  0.00    -0.000 C 
BRANCH  13  14
ATOM     14  C   UNL     1      -4.123  30.644   6.898  1.00  0.00    -0.000 C 
BRANCH  14  15
ATOM     15  C   UNL     1      -4.120  29.317   6.121  1.00  0.00    -0.000 C 
BRANCH  15  16
ATOM     16  C   UNL     1      -3.525  28.157   6.935  1.00  0.00    -0.000 C 
BRANCH  16  17
ATOM     17  C   UNL     1      -2.654  28.645   8.104  1.00  0.00    -0.003 C 
ATOM     18  C   UNL     1      -2.384  27.553   9.139  1.00  0.00     0.004 C 
ENDBRANCH  16  17
ENDBRANCH  15  16
ENDBRANCH  14  15
ENDBRANCH  13  14
ENDBRANCH  12  13
ENDBRANCH  11  12
ENDBRANCH   1  11
TORSDOF 14
ENDMDL
MODEL 2
REMARK VINA RESULT:    -5.294      4.254      8.735
REMARK INTER + INTRA:         -10.400
REMARK INTER:                  -8.719
REMARK INTRA:                  -1.680
REMARK UNBOUND:                -0.772
REMARK SMILES CCCCCCCCCCCCCCCC(=O)[O-]
REMARK SMILES IDX 9 1 10 2 11 3 12 4 13 5 14 6 15 7 16 8 17 9 18 10 8 11 7 12
REMARK SMILES IDX 6 13 5 14 4 15 3 16 2 17 1 18
REMARK H PARENT
REMARK Flexibility Score: inf
ROOT
ATOM      1  C   UNL     1      -9.238  38.932   6.458  1.00  0.00     0.000 C 
ENDROOT
BRANCH   1   2
ATOM      2  C   UNL     1      -8.189  37.863   6.107  1.00  0.00     0.000 C 
BRANCH   2   3
ATOM      3  C   UNL     1      -8.793  36.671   5.345  1.00  0.00     0.000 C 
BRANCH   3   4
ATOM      4  C   UNL     1      -8.122  35.335   5.710  1.00  0.00     0.000 C 
BRANCH   4   5
ATOM      5  C   UNL     1      -8.987  34.120   5.340  1.00  0.00     0.000 C 
BRANCH   5   6
ATOM      6  C   UNL     1      -8.172  32.822   5.227  1.00  0.00     0.006 C 
BRANCH   6   7
ATOM      7  C   UNL     1      -6.793  32.984   5.875  1.00  0.00     0.053 C 
BRANCH   7   8
ATOM      8  C   UNL     1      -6.231  31.650   6.251  1.00  0.00     0.041 C 
ATOM      9  O   UNL     1      -6.876  30.597   6.003  1.00  0.00    -0.550 OA
ATOM     10  O   UNL     1      -5.015  31.572   6.919  1.00  0.00    -0.550 OA
ENDBRANCH   7   8
ENDBRANCH   6   7
ENDBRANCH   5   6
ENDBRANCH   4   5
ENDBRANCH   3   4
ENDBRANCH   2   3
ENDBRANCH   1   2
BRANCH   1  11
ATOM     11  C   UNL     1     -10.508  38.820   5.597  1.00  0.00     0.000 C 
BRANCH  11  12
ATOM     12  C   UNL     1     -11.687  39.621   6.170  1.00  0.00    -0.000 C 
BRANCH  12  13
ATOM     13  C   UNL     1     -11.810  39.409   7.683  1.00  0.00    -0.000 C 
BRANCH  13  14
ATOM     14  C   UNL     1     -12.542  38.096   7.997  1.00  0.00    -0.000 C 
BRANCH  14  15
ATOM     15  C   UNL     1     -12.223  37.557   9.402  1.00  0.00    -0.000 C 
BRANCH  15  16
ATOM     16  C   UNL     1     -10.794  37.002   9.511  1.00  0.00    -0.000 C 
BRANCH  16  17
ATOM     17  C   UNL     1     -10.489  35.948   8.434  1.00  0.00    -0.003 C 
ATOM     18  C   UNL     1     -11.149  34.599   8.721  1.00  0.00     0.004 C 
ENDBRANCH  16  17
ENDBRANCH  15  16
ENDBRANCH  14  15
ENDBRANCH  13  14
ENDBRANCH  12  13
ENDBRANCH  11  12
ENDBRANCH   1  11
TORSDOF 14
ENDMDL
MODEL 3
REMARK VINA RESULT:    -5.165      4.582      9.209
REMARK INTER + INTRA:         -10.164
REMARK INTER:                  -8.595
REMARK INTRA:                  -1.569
REMARK UNBOUND:                -0.772
REMARK SMILES CCCCCCCCCCCCCCCC(=O)[O-]
REMARK SMILES IDX 9 1 10 2 11 3 12 4 13 5 14 6 15 7 16 8 17 9 18 10 8 11 7 12
REMARK SMILES IDX 6 13 5 14 4 15 3 16 2 17 1 18
REMARK H PARENT
REMARK Flexibility Score: inf
ROOT
ATOM      1  C   UNL     1      -8.553  36.780   5.375  1.00  0.00     0.000 C 
ENDROOT
BRANCH   1   2
ATOM      2  C   UNL     1      -8.701  35.582   6.329  1.00  0.00     0.000 C 
BRANCH   2   3
ATOM      3  C   UNL     1      -9.328  34.356   5.643  1.00  0.00     0.000 C 
BRANCH   3   4
ATOM      4  C   UNL     1      -8.272  33.414   5.037  1.00  0.00     0.000 C 
BRANCH   4   5
ATOM      5  C   UNL     1      -6.946  33.439   5.813  1.00  0.00     0.000 C 
BRANCH   5   6
ATOM      6  C   UNL     1      -6.577  32.069   6.402  1.00  0.00     0.006 C 
BRANCH   6   7
ATOM      7  C   UNL     1      -7.374  30.949   5.726  1.00  0.00     0.053 C 
BRANCH   7   8
ATOM      8  C   UNL     1      -6.597  29.671   5.738  1.00  0.00     0.041 C 
ATOM      9  O   UNL     1      -5.365  29.675   5.476  1.00  0.00    -0.550 OA
ATOM     10  O   UNL     1      -7.244  28.468   5.991  1.00  0.00    -0.550 OA
ENDBRANCH   7   8
ENDBRANCH   6   7
ENDBRANCH   5   6
ENDBRANCH   4   5
ENDBRANCH   3   4
ENDBRANCH   2   3
ENDBRANCH   1   2
BRANCH   1  11
ATOM     11  C   UNL     1      -8.029  38.040   6.086  1.00  0.00     0.000 C 
BRANCH  11  12
ATOM     12  C   UNL     1      -9.158  38.923   6.638  1.00  0.00    -0.000 C 
BRANCH  12  13
ATOM     13  C   UNL     1     -10.385  38.882   5.720  1.00  0.00    -0.000 C 
BRANCH  13  14
ATOM     14  C   UNL     1     -11.613  39.489   6.416  1.00  0.00    -0.000 C 
BRANCH  14  15
ATOM     15  C   UNL     1     -11.741  39.052   7.885  1.00  0.00    -0.000 C 
BRANCH  15  16
ATOM     16  C   UNL     1     -12.565  37.764   8.048  1.00  0.00    -0.000 C 
BRANCH  16  17
ATOM     17  C   UNL     1     -11.683  36.525   8.272  1.00  0.00    -0.003 C 
ATOM     18  C   UNL     1     -10.602  36.750   9.330  1.00  0.00     0.004 C 
ENDBRANCH  16  17
ENDBRANCH  15  16
ENDBRANCH  14  15
ENDBRANCH  13  14
ENDBRANCH  12  13
ENDBRANCH  11  12
ENDBRANCH   1  11
TORSDOF 14
ENDMDL
MODEL 4
REMARK VINA RESULT:    -5.149      5.049     10.242
REMARK INTER + INTRA:         -10.135
REMARK INTER:                  -9.409
REMARK INTRA:                  -0.725
REMARK UNBOUND:                -0.772
REMARK SMILES CCCCCCCCCCCCCCCC(=O)[O-]
REMARK SMILES IDX 9 1 10 2 11 3 12 4 13 5 14 6 15 7 16 8 17 9 18 10 8 11 7 12
REMARK SMILES IDX 6 13 5 14 4 15 3 16 2 17 1 18
REMARK H PARENT
REMARK Flexibility Score: inf
ROOT
ATOM      1  C   UNL     1      -7.197  34.095   5.690  1.00  0.00     0.000 C 
ENDROOT
BRANCH   1   2
ATOM      2  C   UNL     1      -7.165  32.607   6.079  1.00  0.00     0.000 C 
BRANCH   2   3
ATOM      3  C   UNL     1      -5.844  32.201   6.753  1.00  0.00     0.000 C 
BRANCH   3   4
ATOM      4  C   UNL     1      -5.331  30.832   6.271  1.00  0.00     0.000 C 
BRANCH   4   5
ATOM      5  C   UNL     1      -3.976  30.458   6.891  1.00  0.00     0.000 C 
BRANCH   5   6
ATOM      6  C   UNL     1      -3.493  29.063   6.467  1.00  0.00     0.006 C 
BRANCH   6   7
ATOM      7  C   UNL     1      -2.396  28.553   7.408  1.00  0.00     0.053 C 
BRANCH   7   8
ATOM      8  C   UNL     1      -2.990  27.741   8.515  1.00  0.00     0.041 C 
ATOM      9  O   UNL     1      -2.425  27.693   9.640  1.00  0.00    -0.550 OA
ATOM     10  O   UNL     1      -4.142  26.998   8.291  1.00  0.00    -0.550 OA
ENDBRANCH   7   8
ENDBRANCH   6   7
ENDBRANCH   5   6
ENDBRANCH   4   5
ENDBRANCH   3   4
ENDBRANCH   2   3
ENDBRANCH   1   2
BRANCH   1  11
ATOM     11  C   UNL     1      -8.559  34.751   5.973  1.00  0.00     0.000 C 
BRANCH  11  12
ATOM     12  C   UNL     1      -8.591  36.240   5.594  1.00  0.00    -0.000 C 
BRANCH  12  13
ATOM     13  C   UNL     1     -10.030  36.718   5.372  1.00  0.00    -0.000 C 
BRANCH  13  14
ATOM     14  C   UNL     1     -10.164  38.218   5.673  1.00  0.00    -0.000 C 
BRANCH  14  15
ATOM     15  C   UNL     1      -9.885  38.557   7.147  1.00  0.00    -0.000 C 
BRANCH  15  16
ATOM     16  C   UNL     1     -11.171  38.823   7.946  1.00  0.00    -0.000 C 
BRANCH  16  17
ATOM     17  C   UNL     1     -11.489  37.697   8.942  1.00  0.00    -0.003 C 
ATOM     18  C   UNL     1     -10.361  36.671   9.058  1.00  0.00     0.004 C 
ENDBRANCH  16  17
ENDBRANCH  15  16
ENDBRANCH  14  15
ENDBRANCH  13  14
ENDBRANCH  12  13
ENDBRANCH  11  12
ENDBRANCH   1  11
TORSDOF 14
ENDMDL
MODEL 5
REMARK VINA RESULT:    -5.130      4.396      8.860
REMARK INTER + INTRA:         -10.100
REMARK INTER:                  -8.092
REMARK INTRA:                  -2.008
REMARK UNBOUND:                -0.772
REMARK SMILES CCCCCCCCCCCCCCCC(=O)[O-]
REMARK SMILES IDX 9 1 10 2 11 3 12 4 13 5 14 6 15 7 16 8 17 9 18 10 8 11 7 12
REMARK SMILES IDX 6 13 5 14 4 15 3 16 2 17 1 18
REMARK H PARENT
REMARK Flexibility Score: inf
ROOT
ATOM      1  C   UNL     1     -12.374  36.012   8.775  1.00  0.00     0.000 C 
ENDROOT
BRANCH   1   2
ATOM      2  C   UNL     1     -11.864  35.448   7.437  1.00  0.00     0.000 C 
BRANCH   2   3
ATOM      3  C   UNL     1     -10.331  35.333   7.391  1.00  0.00     0.000 C 
BRANCH   3   4
ATOM      4  C   UNL     1      -9.805  35.004   5.982  1.00  0.00     0.000 C 
BRANCH   4   5
ATOM      5  C   UNL     1      -8.312  35.329   5.819  1.00  0.00     0.000 C 
BRANCH   5   6
ATOM      6  C   UNL     1      -7.571  34.299   4.953  1.00  0.00     0.006 C 
BRANCH   6   7
ATOM      7  C   UNL     1      -8.185  32.905   5.113  1.00  0.00     0.053 C 
BRANCH   7   8
ATOM      8  C   UNL     1      -7.387  32.088   6.079  1.00  0.00     0.041 C 
ATOM      9  O   UNL     1      -7.942  31.176   6.748  1.00  0.00    -0.550 OA
ATOM     10  O   UNL     1      -6.041  32.364   6.276  1.00  0.00    -0.550 OA
ENDBRANCH   7   8
ENDBRANCH   6   7
ENDBRANCH   5   6
ENDBRANCH   4   5
ENDBRANCH   3   4
ENDBRANCH   2   3
ENDBRANCH   1   2
BRANCH   1  11
ATOM     11  C   UNL     1     -11.332  36.897   9.478  1.00  0.00     0.000 C 
BRANCH  11  12
ATOM     12  C   UNL     1     -11.943  38.173  10.077  1.00  0.00    -0.000 C 
BRANCH  12  13
ATOM     13  C   UNL     1     -12.594  39.032   8.987  1.00  0.00    -0.000 C 
BRANCH  13  14
ATOM     14  C   UNL     1     -11.533  39.640   8.058  1.00  0.00    -0.000 C 
BRANCH  14  15
ATOM     15  C   UNL     1     -11.709  39.211   6.592  1.00  0.00    -0.000 C 
BRANCH  15  16
ATOM     16  C   UNL     1     -10.372  38.875   5.911  1.00  0.00    -0.000 C 
BRANCH  16  17
ATOM     17  C   UNL     1      -9.202  38.818   6.906  1.00  0.00    -0.003 C 
ATOM     18  C   UNL     1      -7.844  38.679   6.219  1.00  0.00     0.004 C 
ENDBRANCH  16  17
ENDBRANCH  15  16
ENDBRANCH  14  15
ENDBRANCH  13  14
ENDBRANCH  12  13
ENDBRANCH  11  12
ENDBRANCH   1  11
TORSDOF 14
ENDMDL
MODEL 6
REMARK VINA RESULT:    -4.979      3.807      6.676
REMARK INTER + INTRA:          -9.825
REMARK INTER:                  -8.149
REMARK INTRA:                  -1.676
REMARK UNBOUND:                -0.772
REMARK SMILES CCCCCCCCCCCCCCCC(=O)[O-]
REMARK SMILES IDX 9 1 10 2 11 3 12 4 13 5 14 6 15 7 16 8 17 9 18 10 8 11 7 12
REMARK SMILES IDX 6 13 5 14 4 15 3 16 2 17 1 18
REMARK H PARENT
REMARK Flexibility Score: inf
ROOT
ATOM      1  C   UNL     1     -11.422  39.625   5.764  1.00  0.00     0.000 C 
ENDROOT
BRANCH   1   2
ATOM      2  C   UNL     1     -12.345  39.425   6.978  1.00  0.00     0.000 C 
BRANCH   2   3
ATOM      3  C   UNL     1     -11.597  39.559   8.316  1.00  0.00     0.000 C 
BRANCH   3   4
ATOM      4  C   UNL     1     -12.022  38.491   9.339  1.00  0.00     0.000 C 
BRANCH   4   5
ATOM      5  C   UNL     1     -11.994  37.069   8.755  1.00  0.00     0.000 C 
BRANCH   5   6
ATOM      6  C   UNL     1     -10.782  36.255   9.233  1.00  0.00     0.006 C 
BRANCH   6   7
ATOM      7  C   UNL     1     -10.905  34.789   8.806  1.00  0.00     0.053 C 
BRANCH   7   8
ATOM      8  C   UNL     1     -11.470  33.964   9.918  1.00  0.00     0.041 C 
ATOM      9  O   UNL     1     -12.717  33.891  10.082  1.00  0.00    -0.550 OA
ATOM     10  O   UNL     1     -10.619  33.315  10.803  1.00  0.00    -0.550 OA
ENDBRANCH   7   8
ENDBRANCH   6   7
ENDBRANCH   5   6
ENDBRANCH   4   5
ENDBRANCH   3   4
ENDBRANCH   2   3
ENDBRANCH   1   2
BRANCH   1  11
ATOM     11  C   UNL     1     -10.458  38.446   5.553  1.00  0.00     0.000 C 
BRANCH  11  12
ATOM     12  C   UNL     1      -9.044  38.732   6.084  1.00  0.00    -0.000 C 
BRANCH  12  13
ATOM     13  C   UNL     1      -8.289  37.428   6.364  1.00  0.00    -0.000 C 
BRANCH  13  14
ATOM     14  C   UNL     1      -9.076  36.214   5.847  1.00  0.00    -0.000 C 
BRANCH  14  15
ATOM     15  C   UNL     1      -8.168  35.030   5.477  1.00  0.00    -0.000 C 
BRANCH  15  16
ATOM     16  C   UNL     1      -8.808  33.671   5.804  1.00  0.00    -0.000 C 
BRANCH  16  17
ATOM     17  C   UNL     1      -7.792  32.660   6.359  1.00  0.00    -0.003 C 
ATOM     18  C   UNL     1      -6.349  33.009   5.996  1.00  0.00     0.004 C 
ENDBRANCH  16  17
ENDBRANCH  15  16
ENDBRANCH  14  15
ENDBRANCH  13  14
ENDBRANCH  12  13
ENDBRANCH  11  12
ENDBRANCH   1  11
TORSDOF 14
ENDMDL
MODEL 7
REMARK VINA RESULT:    -4.948      3.316      5.670
REMARK INTER + INTRA:          -9.770
REMARK INTER:                  -8.036
REMARK INTRA:                  -1.734
REMARK UNBOUND:                -0.772
REMARK SMILES CCCCCCCCCCCCCCCC(=O)[O-]
REMARK SMILES IDX 9 1 10 2 11 3 12 4 13 5 14 6 15 7 16 8 17 9 18 10 8 11 7 12
REMARK SMILES IDX 6 13 5 14 4 15 3 16 2 17 1 18
REMARK H PARENT
REMARK Flexibility Score: inf
ROOT
ATOM      1  C   UNL     1      -9.696  38.778   6.305  1.00  0.00     0.000 C 
ENDROOT
BRANCH   1   2
ATOM      2  C   UNL     1     -10.911  39.241   5.481  1.00  0.00     0.000 C 
BRANCH   2   3
ATOM      3  C   UNL     1     -12.049  39.783   6.363  1.00  0.00     0.000 C 
BRANCH   3   4
ATOM      4  C   UNL     1     -11.759  39.624   7.866  1.00  0.00     0.000 C 
BRANCH   4   5
ATOM      5  C   UNL     1     -12.815  38.768   8.583  1.00  0.00     0.000 C 
BRANCH   5   6
ATOM      6  C   UNL     1     -12.783  37.296   8.146  1.00  0.00     0.006 C 
BRANCH   6   7
ATOM      7  C   UNL     1     -12.441  36.381   9.326  1.00  0.00     0.053 C 
BRANCH   7   8
ATOM      8  C   UNL     1     -11.066  35.815   9.171  1.00  0.00     0.041 C 
ATOM      9  O   UNL     1     -10.068  36.582   9.112  1.00  0.00    -0.550 OA
ATOM     10  O   UNL     1     -10.889  34.444   9.041  1.00  0.00    -0.550 OA
ENDBRANCH   7   8
ENDBRANCH   6   7
ENDBRANCH   5   6
ENDBRANCH   4   5
ENDBRANCH   3   4
ENDBRANCH   2   3
ENDBRANCH   1   2
BRANCH   1  11
ATOM     11  C   UNL     1      -9.137  37.428   5.825  1.00  0.00     0.000 C 
BRANCH  11  12
ATOM     12  C   UNL     1     -10.242  36.422   5.464  1.00  0.00    -0.000 C 
BRANCH  12  13
ATOM     13  C   UNL     1      -9.784  34.984   5.734  1.00  0.00    -0.000 C 
BRANCH  13  14
ATOM     14  C   UNL     1      -8.295  34.943   6.111  1.00  0.00    -0.000 C 
BRANCH  14  15
ATOM     15  C   UNL     1      -7.484  33.981   5.228  1.00  0.00    -0.000 C 
BRANCH  15  16
ATOM     16  C   UNL     1      -6.733  32.918   6.047  1.00  0.00    -0.000 C 
BRANCH  16  17
ATOM     17  C   UNL     1      -7.674  31.854   6.634  1.00  0.00    -0.003 C 
ATOM     18  C   UNL     1      -7.967  30.717   5.656  1.00  0.00     0.004 C 
ENDBRANCH  16  17
ENDBRANCH  15  16
ENDBRANCH  14  15
ENDBRANCH  13  14
ENDBRANCH  12  13
ENDBRANCH  11  12
ENDBRANCH   1  11
TORSDOF 14
ENDMDL
MODEL 8
REMARK VINA RESULT:    -4.899     14.274     16.539
REMARK INTER + INTRA:          -9.680
REMARK INTER:                  -7.568
REMARK INTRA:                  -2.112
REMARK UNBOUND:                -0.772
REMARK SMILES CCCCCCCCCCCCCCCC(=O)[O-]
REMARK SMILES IDX 9 1 10 2 11 3 12 4 13 5 14 6 15 7 16 8 17 9 18 10 8 11 7 12
REMARK SMILES IDX 6 13 5 14 4 15 3 16 2 17 1 18
REMARK H PARENT
REMARK Flexibility Score: inf
ROOT
ATOM      1  C   UNL     1      -0.176  41.877   0.356  1.00  0.00     0.000 C 
ENDROOT
BRANCH   1   2
ATOM      2  C   UNL     1      -0.321  42.897   1.498  1.00  0.00     0.000 C 
BRANCH   2   3
ATOM      3  C   UNL     1       0.917  42.942   2.410  1.00  0.00     0.000 C 
BRANCH   3   4
ATOM      4  C   UNL     1       1.746  41.647   2.345  1.00  0.00     0.000 C 
BRANCH   4   5
ATOM      5  C   UNL     1       3.214  41.904   1.970  1.00  0.00     0.000 C 
BRANCH   5   6
ATOM      6  C   UNL     1       4.133  40.724   2.322  1.00  0.00     0.006 C 
BRANCH   6   7
ATOM      7  C   UNL     1       5.606  41.135   2.243  1.00  0.00     0.053 C 
BRANCH   7   8
ATOM      8  C   UNL     1       6.253  40.538   1.034  1.00  0.00     0.041 C 
ATOM      9  O   UNL     1       6.870  41.272   0.217  1.00  0.00    -0.550 OA
ATOM     10  O   UNL     1       6.133  39.177   0.782  1.00  0.00    -0.550 OA
ENDBRANCH   7   8
ENDBRANCH   6   7
ENDBRANCH   5   6
ENDBRANCH   4   5
ENDBRANCH   3   4
ENDBRANCH   2   3
ENDBRANCH   1   2
BRANCH   1  11
ATOM     11  C   UNL     1      -0.286  42.526  -1.034  1.00  0.00     0.000 C 
BRANCH  11  12
ATOM     12  C   UNL     1      -1.325  43.658  -1.080  1.00  0.00    -0.000 C 
BRANCH  12  13
ATOM     13  C   UNL     1      -0.774  44.877  -1.829  1.00  0.00    -0.000 C 
BRANCH  13  14
ATOM     14  C   UNL     1       0.759  44.922  -1.754  1.00  0.00    -0.000 C 
BRANCH  14  15
ATOM     15  C   UNL     1       1.272  45.674  -0.514  1.00  0.00    -0.000 C 
BRANCH  15  16
ATOM     16  C   UNL     1       2.627  45.141  -0.019  1.00  0.00    -0.000 C 
BRANCH  16  17
ATOM     17  C   UNL     1       3.168  44.003  -0.899  1.00  0.00    -0.003 C 
ATOM     18  C   UNL     1       4.692  43.890  -0.852  1.00  0.00     0.004 C 
ENDBRANCH  16  17
ENDBRANCH  15  16
ENDBRANCH  14  15
ENDBRANCH  13  14
ENDBRANCH  12  13
ENDBRANCH  11  12
ENDBRANCH   1  11
TORSDOF 14
ENDMDL
MODEL 9
REMARK VINA RESULT:    -4.861      1.541      2.436
REMARK INTER + INTRA:          -9.612
REMARK INTER:                  -8.730
REMARK INTRA:                  -0.882
REMARK UNBOUND:                -0.772
REMARK SMILES CCCCCCCCCCCCCCCC(=O)[O-]
REMARK SMILES IDX 9 1 10 2 11 3 12 4 13 5 14 6 15 7 16 8 17 9 18 10 8 11 7 12
REMARK SMILES IDX 6 13 5 14 4 15 3 16 2 17 1 18
REMARK H PARENT
REMARK Flexibility Score: inf
ROOT
ATOM      1  C   UNL     1      -7.262  31.256   6.164  1.00  0.00     0.000 C 
ENDROOT
BRANCH   1   2
ATOM      2  C   UNL     1      -8.114  32.080   5.182  1.00  0.00     0.000 C 
BRANCH   2   3
ATOM      3  C   UNL     1      -7.792  33.583   5.238  1.00  0.00     0.000 C 
BRANCH   3   4
ATOM      4  C   UNL     1      -9.054  34.454   5.363  1.00  0.00     0.000 C 
BRANCH   4   5
ATOM      5  C   UNL     1      -9.372  34.827   6.819  1.00  0.00     0.000 C 
BRANCH   5   6
ATOM      6  C   UNL     1      -9.483  36.344   7.034  1.00  0.00     0.006 C 
BRANCH   6   7
ATOM      7  C   UNL     1      -8.781  37.109   5.907  1.00  0.00     0.053 C 
BRANCH   7   8
ATOM      8  C   UNL     1      -8.929  38.584   6.103  1.00  0.00     0.041 C 
ATOM      9  O   UNL     1      -8.007  39.248   6.647  1.00  0.00    -0.550 OA
ATOM     10  O   UNL     1     -10.106  39.220   5.729  1.00  0.00    -0.550 OA
ENDBRANCH   7   8
ENDBRANCH   6   7
ENDBRANCH   5   6
ENDBRANCH   4   5
ENDBRANCH   3   4
ENDBRANCH   2   3
ENDBRANCH   1   2
BRANCH   1  11
ATOM     11  C   UNL     1      -7.544  29.748   6.069  1.00  0.00     0.000 C 
BRANCH  11  12
ATOM     12  C   UNL     1      -7.204  29.166   4.688  1.00  0.00    -0.000 C 
BRANCH  12  13
ATOM     13  C   UNL     1      -5.728  28.758   4.613  1.00  0.00    -0.000 C 
BRANCH  13  14
ATOM     14  C   UNL     1      -5.487  27.429   5.347  1.00  0.00    -0.000 C 
BRANCH  14  15
ATOM     15  C   UNL     1      -4.465  27.557   6.489  1.00  0.00    -0.000 C 
BRANCH  15  16
ATOM     16  C   UNL     1      -3.655  28.862   6.413  1.00  0.00    -0.000 C 
BRANCH  16  17
ATOM     17  C   UNL     1      -2.719  29.044   7.618  1.00  0.00    -0.003 C 
ATOM     18  C   UNL     1      -2.824  27.903   8.629  1.00  0.00     0.004 C 
ENDBRANCH  16  17
ENDBRANCH  15  16
ENDBRANCH  14  15
ENDBRANCH  13  14
ENDBRANCH  12  13
ENDBRANCH  11  12
ENDBRANCH   1  11
TORSDOF 14
ENDMDL
