MODEL 1
REMARK VINA RESULT:    -3.359      0.000      0.000
REMARK INTER + INTRA:          -5.886
REMARK INTER:                  -5.126
REMARK INTRA:                  -0.760
REMARK UNBOUND:                -0.760
REMARK SMILES CCCCCCCCCCC(=O)[O-]
REMARK SMILES IDX 7 1 8 2 9 3 10 4 11 5 12 6 13 7 6 8 5 9 4 10 3 11 2 12 1 13
REMARK H PARENT
REMARK Flexibility Score: inf
ROOT
ATOM      1  C   UNL     1      13.855  38.336   7.822  1.00  0.00     0.000 C 
ENDROOT
BRANCH   1   2
ATOM      2  C   UNL     1      14.358  38.737   9.220  1.00  0.00     0.000 C 
BRANCH   2   3
ATOM      3  C   UNL     1      14.056  37.675  10.287  1.00  0.00     0.006 C 
BRANCH   3   4
ATOM      4  C   UNL     1      15.197  37.579  11.302  1.00  0.00     0.053 C 
BRANCH   4   5
ATOM      5  C   UNL     1      14.742  38.043  12.649  1.00  0.00     0.041 C 
ATOM      6  O   UNL     1      13.571  38.478  12.808  1.00  0.00    -0.550 OA
ATOM      7  O   UNL     1      15.597  37.951  13.741  1.00  0.00    -0.550 OA
ENDBRANCH   4   5
ENDBRANCH   3   4
ENDBRANCH   2   3
ENDBRANCH   1   2
BRANCH   1   8
ATOM      8  C   UNL     1      14.624  39.042   6.693  1.00  0.00     0.000 C 
BRANCH   8   9
ATOM      9  C   UNL     1      16.110  38.649   6.655  1.00  0.00    -0.000 C 
BRANCH   9  10
ATOM     10  C   UNL     1      17.038  39.787   7.106  1.00  0.00    -0.000 C 
BRANCH  10  11
ATOM     11  C   UNL     1      16.287  41.127   7.139  1.00  0.00    -0.000 C 
BRANCH  11  12
ATOM     12  C   UNL     1      16.388  41.829   8.502  1.00  0.00    -0.003 C 
ATOM     13  C   UNL     1      15.252  42.823   8.741  1.00  0.00     0.004 C 
ENDBRANCH  11  12
ENDBRANCH  10  11
ENDBRANCH   9  10
ENDBRANCH   8   9
ENDBRANCH   1   8
TORSDOF 9
ENDMDL
MODEL 2
REMARK VINA RESULT:    -3.295      0.668      1.427
REMARK INTER + INTRA:          -5.789
REMARK INTER:                  -5.011
REMARK INTRA:                  -0.778
REMARK UNBOUND:                -0.760
REMARK SMILES CCCCCCCCCCC(=O)[O-]
REMARK SMILES IDX 7 1 8 2 9 3 10 4 11 5 12 6 13 7 6 8 5 9 4 10 3 11 2 12 1 13
REMARK H PARENT
REMARK Flexibility Score: inf
ROOT
ATOM      1  C   UNL     1      14.198  38.858   9.167  1.00  0.00     0.000 C 
ENDROOT
BRANCH   1   2
ATOM      2  C   UNL     1      14.107  37.727  10.206  1.00  0.00     0.000 C 
BRANCH   2   3
ATOM      3  C   UNL     1      15.326  37.678  11.139  1.00  0.00     0.006 C 
BRANCH   3   4
ATOM      4  C   UNL     1      15.210  38.728  12.247  1.00  0.00     0.053 C 
BRANCH   4   5
ATOM      5  C   UNL     1      14.305  38.245  13.335  1.00  0.00     0.041 C 
ATOM      6  O   UNL     1      14.687  37.340  14.123  1.00  0.00    -0.550 OA
ATOM      7  O   UNL     1      13.056  38.829  13.511  1.00  0.00    -0.550 OA
ENDBRANCH   4   5
ENDBRANCH   3   4
ENDBRANCH   2   3
ENDBRANCH   1   2
BRANCH   1   8
ATOM      8  C   UNL     1      13.871  38.380   7.743  1.00  0.00     0.000 C 
BRANCH   8   9
ATOM      9  C   UNL     1      14.907  38.850   6.709  1.00  0.00    -0.000 C 
BRANCH   9  10
ATOM     10  C   UNL     1      16.256  39.219   7.345  1.00  0.00    -0.000 C 
BRANCH  10  11
ATOM     11  C   UNL     1      16.605  40.691   7.076  1.00  0.00    -0.000 C 
BRANCH  11  12
ATOM     12  C   UNL     1      16.448  41.573   8.324  1.00  0.00    -0.003 C 
ATOM     13  C   UNL     1      15.117  42.324   8.354  1.00  0.00     0.004 C 
ENDBRANCH  11  12
ENDBRANCH  10  11
ENDBRANCH   9  10
ENDBRANCH   8   9
ENDBRANCH   1   8
TORSDOF 9
ENDMDL
MODEL 3
REMARK VINA RESULT:    -3.179      2.665      5.137
REMARK INTER + INTRA:          -5.612
REMARK INTER:                  -4.930
REMARK INTRA:                  -0.682
REMARK UNBOUND:                -0.760
REMARK SMILES CCCCCCCCCCC(=O)[O-]
REMARK SMILES IDX 7 1 8 2 9 3 10 4 11 5 12 6 13 7 6 8 5 9 4 10 3 11 2 12 1 13
REMARK H PARENT
REMARK Flexibility Score: inf
ROOT
ATOM      1  C   UNL     1      14.987  38.797   6.733  1.00  0.00     0.000 C 
ENDROOT
BRANCH   1   2
ATOM      2  C   UNL     1      16.341  39.153   7.370  1.00  0.00     0.000 C 
BRANCH   2   3
ATOM      3  C   UNL     1      16.758  40.608   7.104  1.00  0.00     0.006 C 
BRANCH   3   4
ATOM      4  C   UNL     1      17.046  41.342   8.416  1.00  0.00     0.053 C 
BRANCH   4   5
ATOM      5  C   UNL     1      16.020  42.403   8.660  1.00  0.00     0.041 C 
ATOM      6  O   UNL     1      14.903  42.350   8.082  1.00  0.00    -0.550 OA
ATOM      7  O   UNL     1      16.279  43.426   9.565  1.00  0.00    -0.550 OA
ENDBRANCH   4   5
ENDBRANCH   3   4
ENDBRANCH   2   3
ENDBRANCH   1   2
BRANCH   1   8
ATOM      8  C   UNL     1      13.918  38.440   7.779  1.00  0.00     0.000 C 
BRANCH   8   9
ATOM      9  C   UNL     1      14.305  38.891   9.197  1.00  0.00    -0.000 C 
BRANCH   9  10
ATOM     10  C   UNL     1      14.130  37.781  10.243  1.00  0.00    -0.000 C 
BRANCH  10  11
ATOM     11  C   UNL     1      15.078  37.994  11.433  1.00  0.00    -0.000 C 
BRANCH  11  12
ATOM     12  C   UNL     1      16.135  36.885  11.553  1.00  0.00    -0.003 C 
ATOM     13  C   UNL     1      16.408  36.482  13.001  1.00  0.00     0.004 C 
ENDBRANCH  11  12
ENDBRANCH  10  11
ENDBRANCH   9  10
ENDBRANCH   8   9
ENDBRANCH   1   8
TORSDOF 9
ENDMDL
MODEL 4
REMARK VINA RESULT:    -3.067      1.253      3.012
REMARK INTER + INTRA:          -5.441
REMARK INTER:                  -4.433
REMARK INTRA:                  -1.008
REMARK UNBOUND:                -0.760
REMARK SMILES CCCCCCCCCCC(=O)[O-]
REMARK SMILES IDX 7 1 8 2 9 3 10 4 11 5 12 6 13 7 6 8 5 9 4 10 3 11 2 12 1 13
REMARK H PARENT
REMARK Flexibility Score: inf
ROOT
ATOM      1  C   UNL     1      16.657  39.658  10.753  1.00  0.00     0.000 C 
ENDROOT
BRANCH   1   2
ATOM      2  C   UNL     1      16.657  38.133  10.550  1.00  0.00     0.000 C 
BRANCH   2   3
ATOM      3  C   UNL     1      15.647  37.413  11.457  1.00  0.00     0.006 C 
BRANCH   3   4
ATOM      4  C   UNL     1      14.355  38.224  11.588  1.00  0.00     0.053 C 
BRANCH   4   5
ATOM      5  C   UNL     1      14.074  38.536  13.023  1.00  0.00     0.041 C 
ATOM      6  O   UNL     1      15.022  38.658  13.843  1.00  0.00    -0.550 OA
ATOM      7  O   UNL     1      12.766  38.742  13.447  1.00  0.00    -0.550 OA
ENDBRANCH   4   5
ENDBRANCH   3   4
ENDBRANCH   2   3
ENDBRANCH   1   2
BRANCH   1   8
ATOM      8  C   UNL     1      17.103  40.421   9.495  1.00  0.00     0.000 C 
BRANCH   8   9
ATOM      9  C   UNL     1      16.035  41.405   8.991  1.00  0.00    -0.000 C 
BRANCH   9  10
ATOM     10  C   UNL     1      15.448  41.001   7.631  1.00  0.00    -0.000 C 
BRANCH  10  11
ATOM     11  C   UNL     1      15.936  39.605   7.216  1.00  0.00    -0.000 C 
BRANCH  11  12
ATOM     12  C   UNL     1      14.803  38.717   6.679  1.00  0.00    -0.003 C 
ATOM     13  C   UNL     1      13.785  38.342   7.754  1.00  0.00     0.004 C 
ENDBRANCH  11  12
ENDBRANCH  10  11
ENDBRANCH   9  10
ENDBRANCH   8   9
ENDBRANCH   1   8
TORSDOF 9
ENDMDL
MODEL 5
REMARK VINA RESULT:    -3.042      1.790      2.612
REMARK INTER + INTRA:          -5.403
REMARK INTER:                  -4.709
REMARK INTRA:                  -0.694
REMARK UNBOUND:                -0.760
REMARK SMILES CCCCCCCCCCC(=O)[O-]
REMARK SMILES IDX 7 1 8 2 9 3 10 4 11 5 12 6 13 7 6 8 5 9 4 10 3 11 2 12 1 13
REMARK H PARENT
REMARK Flexibility Score: inf
ROOT
ATOM      1  C   UNL     1      14.094  37.873  10.075  1.00  0.00     0.000 C 
ENDROOT
BRANCH   1   2
ATOM      2  C   UNL     1      14.918  38.175  11.338  1.00  0.00     0.000 C 
BRANCH   2   3
ATOM      3  C   UNL     1      16.387  37.748  11.205  1.00  0.00     0.006 C 
BRANCH   3   4
ATOM      4  C   UNL     1      16.901  37.138  12.512  1.00  0.00     0.053 C 
BRANCH   4   5
ATOM      5  C   UNL     1      16.715  35.654  12.507  1.00  0.00     0.041 C 
ATOM      6  O   UNL     1      16.440  35.053  11.436  1.00  0.00    -0.550 OA
ATOM      7  O   UNL     1      16.894  34.927  13.678  1.00  0.00    -0.550 OA
ENDBRANCH   4   5
ENDBRANCH   3   4
ENDBRANCH   2   3
ENDBRANCH   1   2
BRANCH   1   8
ATOM      8  C   UNL     1      14.156  39.012   9.043  1.00  0.00     0.000 C 
BRANCH   8   9
ATOM      9  C   UNL     1      13.987  38.511   7.599  1.00  0.00    -0.000 C 
BRANCH   9  10
ATOM     10  C   UNL     1      15.249  38.714   6.747  1.00  0.00    -0.000 C 
BRANCH  10  11
ATOM     11  C   UNL     1      16.373  39.354   7.576  1.00  0.00    -0.000 C 
BRANCH  11  12
ATOM     12  C   UNL     1      16.788  40.734   7.044  1.00  0.00    -0.003 C 
ATOM     13  C   UNL     1      16.269  41.882   7.909  1.00  0.00     0.004 C 
ENDBRANCH  11  12
ENDBRANCH  10  11
ENDBRANCH   9  10
ENDBRANCH   8   9
ENDBRANCH   1   8
TORSDOF 9
ENDMDL
MODEL 6
REMARK VINA RESULT:    -2.999     10.812     12.991
REMARK INTER + INTRA:          -5.337
REMARK INTER:                  -4.966
REMARK INTRA:                  -0.371
REMARK UNBOUND:                -0.760
REMARK SMILES CCCCCCCCCCC(=O)[O-]
REMARK SMILES IDX 7 1 8 2 9 3 10 4 11 5 12 6 13 7 6 8 5 9 4 10 3 11 2 12 1 13
REMARK H PARENT
REMARK Flexibility Score: inf
ROOT
ATOM      1  C   UNL     1      16.578  44.778   0.725  1.00  0.00     0.000 C 
ENDROOT
BRANCH   1   2
ATOM      2  C   UNL     1      17.099  45.850  -0.247  1.00  0.00     0.000 C 
BRANCH   2   3
ATOM      3  C   UNL     1      16.467  47.229  -0.004  1.00  0.00     0.006 C 
BRANCH   3   4
ATOM      4  C   UNL     1      16.444  48.055  -1.293  1.00  0.00     0.053 C 
BRANCH   4   5
ATOM      5  C   UNL     1      15.208  47.761  -2.082  1.00  0.00     0.041 C 
ATOM      6  O   UNL     1      14.185  47.302  -1.510  1.00  0.00    -0.550 OA
ATOM      7  O   UNL     1      15.169  48.042  -3.443  1.00  0.00    -0.550 OA
ENDBRANCH   4   5
ENDBRANCH   3   4
ENDBRANCH   2   3
ENDBRANCH   1   2
BRANCH   1   8
ATOM      8  C   UNL     1      15.070  44.519   0.566  1.00  0.00     0.000 C 
BRANCH   8   9
ATOM      9  C   UNL     1      14.499  43.646   1.695  1.00  0.00    -0.000 C 
BRANCH   9  10
ATOM     10  C   UNL     1      13.149  43.009   1.330  1.00  0.00    -0.000 C 
BRANCH  10  11
ATOM     11  C   UNL     1      12.792  43.285  -0.138  1.00  0.00    -0.000 C 
BRANCH  11  12
ATOM     12  C   UNL     1      11.864  44.498  -0.304  1.00  0.00    -0.003 C 
ATOM     13  C   UNL     1      11.226  44.570  -1.690  1.00  0.00     0.004 C 
ENDBRANCH  11  12
ENDBRANCH  10  11
ENDBRANCH   9  10
ENDBRANCH   8   9
ENDBRANCH   1   8
TORSDOF 9
ENDMDL
MODEL 7
REMARK VINA RESULT:    -2.989      1.512      2.631
REMARK INTER + INTRA:          -5.321
REMARK INTER:                  -4.404
REMARK INTRA:                  -0.917
REMARK UNBOUND:                -0.760
REMARK SMILES CCCCCCCCCCC(=O)[O-]
REMARK SMILES IDX 7 1 8 2 9 3 10 4 11 5 12 6 13 7 6 8 5 9 4 10 3 11 2 12 1 13
REMARK H PARENT
REMARK Flexibility Score: inf
ROOT
ATOM      1  C   UNL     1      16.188  39.082   7.130  1.00  0.00     0.000 C 
ENDROOT
BRANCH   1   2
ATOM      2  C   UNL     1      14.653  39.017   7.042  1.00  0.00     0.000 C 
BRANCH   2   3
ATOM      3  C   UNL     1      14.012  38.399   8.294  1.00  0.00     0.006 C 
BRANCH   3   4
ATOM      4  C   UNL     1      14.827  38.732   9.546  1.00  0.00     0.053 C 
BRANCH   4   5
ATOM      5  C   UNL     1      14.407  37.865  10.691  1.00  0.00     0.041 C 
ATOM      6  O   UNL     1      14.989  36.770  10.904  1.00  0.00    -0.550 OA
ATOM      7  O   UNL     1      13.403  38.291  11.553  1.00  0.00    -0.550 OA
ENDBRANCH   4   5
ENDBRANCH   3   4
ENDBRANCH   2   3
ENDBRANCH   1   2
BRANCH   1   8
ATOM      8  C   UNL     1      16.724  40.520   7.044  1.00  0.00     0.000 C 
BRANCH   8   9
ATOM      9  C   UNL     1      15.609  41.574   7.149  1.00  0.00    -0.000 C 
BRANCH   9  10
ATOM     10  C   UNL     1      15.632  42.332   8.485  1.00  0.00    -0.000 C 
BRANCH  10  11
ATOM     11  C   UNL     1      16.986  42.161   9.189  1.00  0.00    -0.000 C 
BRANCH  11  12
ATOM     12  C   UNL     1      16.847  41.588  10.608  1.00  0.00    -0.003 C 
ATOM     13  C   UNL     1      16.708  42.673  11.674  1.00  0.00     0.004 C 
ENDBRANCH  11  12
ENDBRANCH  10  11
ENDBRANCH   9  10
ENDBRANCH   8   9
ENDBRANCH   1   8
TORSDOF 9
ENDMDL
MODEL 8
REMARK VINA RESULT:    -2.879      2.994      5.262
REMARK INTER + INTRA:          -5.154
REMARK INTER:                  -4.098
REMARK INTRA:                  -1.056
REMARK UNBOUND:                -0.760
REMARK SMILES CCCCCCCCCCC(=O)[O-]
REMARK SMILES IDX 7 1 8 2 9 3 10 4 11 5 12 6 13 7 6 8 5 9 4 10 3 11 2 12 1 13
REMARK H PARENT
REMARK Flexibility Score: inf
ROOT
ATOM      1  C   UNL     1      14.038  38.009  10.393  1.00  0.00     0.000 C 
ENDROOT
BRANCH   1   2
ATOM      2  C   UNL     1      14.539  38.856   9.210  1.00  0.00     0.000 C 
BRANCH   2   3
ATOM      3  C   UNL     1      16.023  39.233   9.337  1.00  0.00     0.006 C 
BRANCH   3   4
ATOM      4  C   UNL     1      16.193  40.746   9.492  1.00  0.00     0.053 C 
BRANCH   4   5
ATOM      5  C   UNL     1      15.671  41.459   8.285  1.00  0.00     0.041 C 
ATOM      6  O   UNL     1      14.841  42.397   8.411  1.00  0.00    -0.550 OA
ATOM      7  O   UNL     1      16.140  41.121   7.021  1.00  0.00    -0.550 OA
ENDBRANCH   4   5
ENDBRANCH   3   4
ENDBRANCH   2   3
ENDBRANCH   1   2
BRANCH   1   8
ATOM      8  C   UNL     1      15.177  37.265  11.110  1.00  0.00     0.000 C 
BRANCH   8   9
ATOM      9  C   UNL     1      15.229  37.576  12.615  1.00  0.00    -0.000 C 
BRANCH   9  10
ATOM     10  C   UNL     1      14.129  38.552  13.060  1.00  0.00    -0.000 C 
BRANCH  10  11
ATOM     11  C   UNL     1      14.706  39.656  13.958  1.00  0.00    -0.000 C 
BRANCH  11  12
ATOM     12  C   UNL     1      16.145  40.037  13.577  1.00  0.00    -0.003 C 
ATOM     13  C   UNL     1      16.276  41.496  13.143  1.00  0.00     0.004 C 
ENDBRANCH  11  12
ENDBRANCH  10  11
ENDBRANCH   9  10
ENDBRANCH   8   9
ENDBRANCH   1   8
TORSDOF 9
ENDMDL
MODEL 9
REMARK VINA RESULT:    -2.808      3.071      5.189
REMARK INTER + INTRA:          -5.046
REMARK INTER:                  -3.883
REMARK INTRA:                  -1.163
REMARK UNBOUND:                -0.760
REMARK SMILES CCCCCCCCCCC(=O)[O-]
REMARK SMILES IDX 7 1 8 2 9 3 10 4 11 5 12 6 13 7 6 8 5 9 4 10 3 11 2 12 1 13
REMARK H PARENT
REMARK Flexibility Score: inf
ROOT
ATOM      1  C   UNL     1      16.135  38.031  10.743  1.00  0.00     0.000 C 
ENDROOT
BRANCH   1   2
ATOM      2  C   UNL     1      16.567  39.058   9.683  1.00  0.00     0.000 C 
BRANCH   2   3
ATOM      3  C   UNL     1      15.431  40.013   9.286  1.00  0.00     0.006 C 
BRANCH   3   4
ATOM      4  C   UNL     1      15.396  40.220   7.769  1.00  0.00     0.053 C 
BRANCH   4   5
ATOM      5  C   UNL     1      14.940  38.974   7.080  1.00  0.00     0.041 C 
ATOM      6  O   UNL     1      15.659  38.440   6.194  1.00  0.00    -0.550 OA
ATOM      7  O   UNL     1      13.743  38.372   7.450  1.00  0.00    -0.550 OA
ENDBRANCH   4   5
ENDBRANCH   3   4
ENDBRANCH   2   3
ENDBRANCH   1   2
BRANCH   1   8
ATOM      8  C   UNL     1      14.609  37.966  10.917  1.00  0.00     0.000 C 
BRANCH   8   9
ATOM      9  C   UNL     1      14.158  38.352  12.335  1.00  0.00    -0.000 C 
BRANCH   9  10
ATOM     10  C   UNL     1      15.338  38.578  13.293  1.00  0.00    -0.000 C 
BRANCH  10  11
ATOM     11  C   UNL     1      15.472  40.065  13.655  1.00  0.00    -0.000 C 
BRANCH  11  12
ATOM     12  C   UNL     1      16.760  40.695  13.103  1.00  0.00    -0.003 C 
ATOM     13  C   UNL     1      16.507  42.007  12.361  1.00  0.00     0.004 C 
ENDBRANCH  11  12
ENDBRANCH  10  11
ENDBRANCH   9  10
ENDBRANCH   8   9
ENDBRANCH   1   8
TORSDOF 9
ENDMDL
