MODEL 1
REMARK VINA RESULT:    -3.440      0.000      0.000
REMARK INTER + INTRA:         -14.259
REMARK INTER:                  -9.072
REMARK INTRA:                  -5.187
REMARK UNBOUND:                -5.187
REMARK SMILES CCCCCCCCCCCCCCCCCCCCCCCCCCCCCC(=O)[O-]
REMARK SMILES IDX 16 1 17 2 18 3 19 4 20 5 21 6 22 7 23 8 24 9 25 10 26 11
REMARK SMILES IDX 27 12 28 13 29 14 30 15 31 16 32 17 15 18 14 19 13 20 12 21
REMARK SMILES IDX 11 22 10 23 9 24 8 25 7 26 6 27 5 28 4 29 3 30 2 31 1 32
REMARK H PARENT
REMARK Flexibility Score: inf
ROOT
ATOM      1  C   UNL     1      37.864   5.752   4.380  1.00  0.00     0.000 C 
ENDROOT
BRANCH   1   2
ATOM      2  C   UNL     1      37.907   7.266   4.099  1.00  0.00     0.000 C 
BRANCH   2   3
ATOM      3  C   UNL     1      37.415   8.083   5.306  1.00  0.00     0.000 C 
BRANCH   3   4
ATOM      4  C   UNL     1      36.254   9.038   4.950  1.00  0.00     0.000 C 
BRANCH   4   5
ATOM      5  C   UNL     1      35.685   8.810   3.537  1.00  0.00     0.000 C 
BRANCH   5   6
ATOM      6  C   UNL     1      34.278   8.187   3.558  1.00  0.00     0.000 C 
BRANCH   6   7
ATOM      7  C   UNL     1      34.296   6.666   3.781  1.00  0.00     0.000 C 
BRANCH   7   8
ATOM      8  C   UNL     1      33.868   6.257   5.201  1.00  0.00     0.000 C 
BRANCH   8   9
ATOM      9  C   UNL     1      33.815   4.731   5.378  1.00  0.00     0.000 C 
BRANCH   9  10
ATOM     10  C   UNL     1      34.082   3.960   4.065  1.00  0.00     0.000 C 
BRANCH  10  11
ATOM     11  C   UNL     1      34.022   2.435   4.263  1.00  0.00     0.000 C 
BRANCH  11  12
ATOM     12  C   UNL     1      32.706   1.829   3.743  1.00  0.00     0.000 C 
BRANCH  12  13
ATOM     13  C   UNL     1      32.829   1.284   2.311  1.00  0.00     0.006 C 
BRANCH  13  14
ATOM     14  C   UNL     1      31.738   1.879   1.409  1.00  0.00     0.053 C 
BRANCH  14  15
ATOM     15  C   UNL     1      32.234   3.095   0.690  1.00  0.00     0.041 C 
ATOM     16  O   UNL     1      33.379   3.097   0.163  1.00  0.00    -0.550 OA
ATOM     17  O   UNL     1      31.416   4.214   0.564  1.00  0.00    -0.550 OA
ENDBRANCH  14  15
ENDBRANCH  13  14
ENDBRANCH  12  13
ENDBRANCH  11  12
ENDBRANCH  10  11
ENDBRANCH   9  10
ENDBRANCH   8   9
ENDBRANCH   7   8
ENDBRANCH   6   7
ENDBRANCH   5   6
ENDBRANCH   4   5
ENDBRANCH   3   4
ENDBRANCH   2   3
ENDBRANCH   1   2
BRANCH   1  18
ATOM     18  C   UNL     1      37.431   5.446   5.825  1.00  0.00     0.000 C 
BRANCH  18  19
ATOM     19  C   UNL     1      38.454   4.556   6.558  1.00  0.00     0.000 C 
BRANCH  19  20
ATOM     20  C   UNL     1      39.898   4.773   6.058  1.00  0.00     0.000 C 
BRANCH  20  21
ATOM     21  C   UNL     1      40.916   3.853   6.761  1.00  0.00     0.000 C 
BRANCH  21  22
ATOM     22  C   UNL     1      40.371   2.421   6.976  1.00  0.00     0.000 C 
BRANCH  22  23
ATOM     23  C   UNL     1      41.190   1.350   6.234  1.00  0.00     0.000 C 
BRANCH  23  24
ATOM     24  C   UNL     1      42.413   1.954   5.521  1.00  0.00    -0.000 C 
BRANCH  24  25
ATOM     25  C   UNL     1      42.776   1.211   4.229  1.00  0.00    -0.000 C 
BRANCH  25  26
ATOM     26  C   UNL     1      41.785   1.490   3.083  1.00  0.00    -0.000 C 
BRANCH  26  27
ATOM     27  C   UNL     1      41.167   2.894   3.175  1.00  0.00    -0.000 C 
BRANCH  27  28
ATOM     28  C   UNL     1      39.735   2.925   2.609  1.00  0.00    -0.000 C 
BRANCH  28  29
ATOM     29  C   UNL     1      39.238   1.541   2.172  1.00  0.00    -0.000 C 
BRANCH  29  30
ATOM     30  C   UNL     1      38.016   1.068   2.977  1.00  0.00    -0.000 C 
BRANCH  30  31
ATOM     31  C   UNL     1      37.716   1.982   4.176  1.00  0.00    -0.003 C 
ATOM     32  C   UNL     1      37.248   1.207   5.410  1.00  0.00     0.004 C 
ENDBRANCH  30  31
ENDBRANCH  29  30
ENDBRANCH  28  29
ENDBRANCH  27  28
ENDBRANCH  26  27
ENDBRANCH  25  26
ENDBRANCH  24  25
ENDBRANCH  23  24
ENDBRANCH  22  23
ENDBRANCH  21  22
ENDBRANCH  20  21
ENDBRANCH  19  20
ENDBRANCH  18  19
ENDBRANCH   1  18
TORSDOF 28
ENDMDL
MODEL 2
REMARK VINA RESULT:    -3.377     10.598     15.058
REMARK INTER + INTRA:         -14.092
REMARK INTER:                  -8.722
REMARK INTRA:                  -5.370
REMARK UNBOUND:                -5.187
REMARK SMILES CCCCCCCCCCCCCCCCCCCCCCCCCCCCCC(=O)[O-]
REMARK SMILES IDX 16 1 17 2 18 3 19 4 20 5 21 6 22 7 23 8 24 9 25 10 26 11
REMARK SMILES IDX 27 12 28 13 29 14 30 15 31 16 32 17 15 18 14 19 13 20 12 21
REMARK SMILES IDX 11 22 10 23 9 24 8 25 7 26 6 27 5 28 4 29 3 30 2 31 1 32
REMARK H PARENT
REMARK Flexibility Score: inf
ROOT
ATOM      1  C   UNL     1      35.981   6.167  -5.900  1.00  0.00     0.000 C 
ENDROOT
BRANCH   1   2
ATOM      2  C   UNL     1      36.365   7.654  -6.010  1.00  0.00     0.000 C 
BRANCH   2   3
ATOM      3  C   UNL     1      35.126   8.554  -6.143  1.00  0.00     0.000 C 
BRANCH   3   4
ATOM      4  C   UNL     1      34.824   8.948  -7.607  1.00  0.00     0.000 C 
BRANCH   4   5
ATOM      5  C   UNL     1      36.066   8.916  -8.517  1.00  0.00     0.000 C 
BRANCH   5   6
ATOM      6  C   UNL     1      35.744   8.440  -9.944  1.00  0.00     0.000 C 
BRANCH   6   7
ATOM      7  C   UNL     1      36.791   7.462 -10.503  1.00  0.00     0.000 C 
BRANCH   7   8
ATOM      8  C   UNL     1      36.234   6.047 -10.737  1.00  0.00     0.000 C 
BRANCH   8   9
ATOM      9  C   UNL     1      35.679   5.418  -9.448  1.00  0.00     0.000 C 
BRANCH   9  10
ATOM     10  C   UNL     1      35.788   3.877  -9.431  1.00  0.00     0.000 C 
BRANCH  10  11
ATOM     11  C   UNL     1      36.502   3.358  -8.171  1.00  0.00     0.000 C 
BRANCH  11  12
ATOM     12  C   UNL     1      38.033   3.484  -8.271  1.00  0.00     0.000 C 
BRANCH  12  13
ATOM     13  C   UNL     1      38.702   3.696  -6.903  1.00  0.00     0.006 C 
BRANCH  13  14
ATOM     14  C   UNL     1      40.216   3.453  -6.997  1.00  0.00     0.053 C 
BRANCH  14  15
ATOM     15  C   UNL     1      40.632   2.298  -6.138  1.00  0.00     0.041 C 
ATOM     16  O   UNL     1      39.836   1.825  -5.283  1.00  0.00    -0.550 OA
ATOM     17  O   UNL     1      41.884   1.716  -6.311  1.00  0.00    -0.550 OA
ENDBRANCH  14  15
ENDBRANCH  13  14
ENDBRANCH  12  13
ENDBRANCH  11  12
ENDBRANCH  10  11
ENDBRANCH   9  10
ENDBRANCH   8   9
ENDBRANCH   7   8
ENDBRANCH   6   7
ENDBRANCH   5   6
ENDBRANCH   4   5
ENDBRANCH   3   4
ENDBRANCH   2   3
ENDBRANCH   1   2
BRANCH   1  18
ATOM     18  C   UNL     1      34.539   5.980  -5.394  1.00  0.00     0.000 C 
BRANCH  18  19
ATOM     19  C   UNL     1      33.752   4.972  -6.254  1.00  0.00     0.000 C 
BRANCH  19  20
ATOM     20  C   UNL     1      32.921   5.655  -7.360  1.00  0.00     0.000 C 
BRANCH  20  21
ATOM     21  C   UNL     1      31.975   6.741  -6.810  1.00  0.00     0.000 C 
BRANCH  21  22
ATOM     22  C   UNL     1      30.494   6.472  -7.167  1.00  0.00     0.000 C 
BRANCH  22  23
ATOM     23  C   UNL     1      29.544   7.568  -6.654  1.00  0.00     0.000 C 
BRANCH  23  24
ATOM     24  C   UNL     1      28.884   8.343  -7.809  1.00  0.00    -0.000 C 
BRANCH  24  25
ATOM     25  C   UNL     1      28.565   7.454  -9.018  1.00  0.00    -0.000 C 
BRANCH  25  26
ATOM     26  C   UNL     1      28.124   8.264 -10.251  1.00  0.00    -0.000 C 
BRANCH  26  27
ATOM     27  C   UNL     1      28.538   7.592 -11.570  1.00  0.00    -0.000 C 
BRANCH  27  28
ATOM     28  C   UNL     1      29.077   6.168 -11.338  1.00  0.00    -0.000 C 
BRANCH  28  29
ATOM     29  C   UNL     1      30.511   5.982 -11.850  1.00  0.00    -0.000 C 
BRANCH  29  30
ATOM     30  C   UNL     1      31.561   6.106 -10.733  1.00  0.00    -0.000 C 
BRANCH  30  31
ATOM     31  C   UNL     1      32.471   7.331 -10.919  1.00  0.00    -0.003 C 
ATOM     32  C   UNL     1      32.046   8.521 -10.056  1.00  0.00     0.004 C 
ENDBRANCH  30  31
ENDBRANCH  29  30
ENDBRANCH  28  29
ENDBRANCH  27  28
ENDBRANCH  26  27
ENDBRANCH  25  26
ENDBRANCH  24  25
ENDBRANCH  23  24
ENDBRANCH  22  23
ENDBRANCH  21  22
ENDBRANCH  20  21
ENDBRANCH  19  20
ENDBRANCH  18  19
ENDBRANCH   1  18
TORSDOF 28
ENDMDL
MODEL 3
REMARK VINA RESULT:    -3.375     10.204     12.738
REMARK INTER + INTRA:         -14.087
REMARK INTER:                  -9.518
REMARK INTRA:                  -4.569
REMARK UNBOUND:                -5.187
REMARK SMILES CCCCCCCCCCCCCCCCCCCCCCCCCCCCCC(=O)[O-]
REMARK SMILES IDX 16 1 17 2 18 3 19 4 20 5 21 6 22 7 23 8 24 9 25 10 26 11
REMARK SMILES IDX 27 12 28 13 29 14 30 15 31 16 32 17 15 18 14 19 13 20 12 21
REMARK SMILES IDX 11 22 10 23 9 24 8 25 7 26 6 27 5 28 4 29 3 30 2 31 1 32
REMARK H PARENT
REMARK Flexibility Score: inf
ROOT
ATOM      1  C   UNL     1      35.257   6.662  -5.003  1.00  0.00     0.000 C 
ENDROOT
BRANCH   1   2
ATOM      2  C   UNL     1      34.645   7.675  -4.019  1.00  0.00     0.000 C 
BRANCH   2   3
ATOM      3  C   UNL     1      33.784   8.724  -4.742  1.00  0.00     0.000 C 
BRANCH   3   4
ATOM      4  C   UNL     1      34.174   8.900  -6.227  1.00  0.00     0.000 C 
BRANCH   4   5
ATOM      5  C   UNL     1      32.989   8.718  -7.195  1.00  0.00     0.000 C 
BRANCH   5   6
ATOM      6  C   UNL     1      32.048   7.577  -6.774  1.00  0.00     0.000 C 
BRANCH   6   7
ATOM      7  C   UNL     1      30.596   8.039  -6.568  1.00  0.00     0.000 C 
BRANCH   7   8
ATOM      8  C   UNL     1      29.572   7.173  -7.322  1.00  0.00     0.000 C 
BRANCH   8   9
ATOM      9  C   UNL     1      28.727   7.995  -8.310  1.00  0.00     0.000 C 
BRANCH   9  10
ATOM     10  C   UNL     1      28.482   7.264  -9.649  1.00  0.00     0.000 C 
BRANCH  10  11
ATOM     11  C   UNL     1      29.321   7.853 -10.797  1.00  0.00     0.000 C 
BRANCH  11  12
ATOM     12  C   UNL     1      30.472   6.923 -11.218  1.00  0.00     0.000 C 
BRANCH  12  13
ATOM     13  C   UNL     1      31.753   7.153 -10.397  1.00  0.00     0.006 C 
BRANCH  13  14
ATOM     14  C   UNL     1      32.330   5.817  -9.906  1.00  0.00     0.053 C 
BRANCH  14  15
ATOM     15  C   UNL     1      33.318   5.262 -10.885  1.00  0.00     0.041 C 
ATOM     16  O   UNL     1      34.478   5.748 -10.959  1.00  0.00    -0.550 OA
ATOM     17  O   UNL     1      32.972   4.179 -11.687  1.00  0.00    -0.550 OA
ENDBRANCH  14  15
ENDBRANCH  13  14
ENDBRANCH  12  13
ENDBRANCH  11  12
ENDBRANCH  10  11
ENDBRANCH   9  10
ENDBRANCH   8   9
ENDBRANCH   7   8
ENDBRANCH   6   7
ENDBRANCH   5   6
ENDBRANCH   4   5
ENDBRANCH   3   4
ENDBRANCH   2   3
ENDBRANCH   1   2
BRANCH   1  18
ATOM     18  C   UNL     1      34.466   5.342  -5.039  1.00  0.00     0.000 C 
BRANCH  18  19
ATOM     19  C   UNL     1      34.550   4.656  -6.416  1.00  0.00     0.000 C 
BRANCH  19  20
ATOM     20  C   UNL     1      35.197   5.555  -7.491  1.00  0.00     0.000 C 
BRANCH  20  21
ATOM     21  C   UNL     1      36.515   4.973  -8.040  1.00  0.00     0.000 C 
BRANCH  21  22
ATOM     22  C   UNL     1      37.615   4.874  -6.957  1.00  0.00     0.000 C 
BRANCH  22  23
ATOM     23  C   UNL     1      38.993   4.501  -7.533  1.00  0.00     0.000 C 
BRANCH  23  24
ATOM     24  C   UNL     1      39.709   3.447  -6.669  1.00  0.00    -0.000 C 
BRANCH  24  25
ATOM     25  C   UNL     1      40.577   2.489  -7.496  1.00  0.00    -0.000 C 
BRANCH  25  26
ATOM     26  C   UNL     1      39.790   1.269  -8.011  1.00  0.00    -0.000 C 
BRANCH  26  27
ATOM     27  C   UNL     1      38.927   0.626  -6.915  1.00  0.00    -0.000 C 
BRANCH  27  28
ATOM     28  C   UNL     1      37.878  -0.335  -7.506  1.00  0.00    -0.000 C 
BRANCH  28  29
ATOM     29  C   UNL     1      36.437   0.131  -7.261  1.00  0.00    -0.000 C 
BRANCH  29  30
ATOM     30  C   UNL     1      36.111   1.452  -7.979  1.00  0.00    -0.000 C 
BRANCH  30  31
ATOM     31  C   UNL     1      36.397   1.384  -9.488  1.00  0.00    -0.003 C 
ATOM     32  C   UNL     1      35.207   1.837 -10.337  1.00  0.00     0.004 C 
ENDBRANCH  30  31
ENDBRANCH  29  30
ENDBRANCH  28  29
ENDBRANCH  27  28
ENDBRANCH  26  27
ENDBRANCH  25  26
ENDBRANCH  24  25
ENDBRANCH  23  24
ENDBRANCH  22  23
ENDBRANCH  21  22
ENDBRANCH  20  21
ENDBRANCH  19  20
ENDBRANCH  18  19
ENDBRANCH   1  18
TORSDOF 28
ENDMDL
MODEL 4
REMARK VINA RESULT:    -3.369     10.722     13.589
REMARK INTER + INTRA:         -14.069
REMARK INTER:                  -8.938
REMARK INTRA:                  -5.131
REMARK UNBOUND:                -5.187
REMARK SMILES CCCCCCCCCCCCCCCCCCCCCCCCCCCCCC(=O)[O-]
REMARK SMILES IDX 16 1 17 2 18 3 19 4 20 5 21 6 22 7 23 8 24 9 25 10 26 11
REMARK SMILES IDX 27 12 28 13 29 14 30 15 31 16 32 17 15 18 14 19 13 20 12 21
REMARK SMILES IDX 11 22 10 23 9 24 8 25 7 26 6 27 5 28 4 29 3 30 2 31 1 32
REMARK H PARENT
REMARK Flexibility Score: inf
ROOT
ATOM      1  C   UNL     1      34.821   5.838  -5.021  1.00  0.00     0.000 C 
ENDROOT
BRANCH   1   2
ATOM      2  C   UNL     1      33.912   4.921  -5.859  1.00  0.00     0.000 C 
BRANCH   2   3
ATOM      3  C   UNL     1      33.452   5.607  -7.156  1.00  0.00     0.000 C 
BRANCH   3   4
ATOM      4  C   UNL     1      31.920   5.797  -7.225  1.00  0.00     0.000 C 
BRANCH   4   5
ATOM      5  C   UNL     1      31.469   7.240  -6.932  1.00  0.00     0.000 C 
BRANCH   5   6
ATOM      6  C   UNL     1      29.942   7.366  -6.786  1.00  0.00     0.000 C 
BRANCH   6   7
ATOM      7  C   UNL     1      29.191   7.156  -8.111  1.00  0.00     0.000 C 
BRANCH   7   8
ATOM      8  C   UNL     1      28.437   8.410  -8.586  1.00  0.00     0.000 C 
BRANCH   8   9
ATOM      9  C   UNL     1      28.012   8.313 -10.060  1.00  0.00     0.000 C 
BRANCH   9  10
ATOM     10  C   UNL     1      28.358   6.950 -10.701  1.00  0.00     0.000 C 
BRANCH  10  11
ATOM     11  C   UNL     1      29.481   7.067 -11.747  1.00  0.00     0.000 C 
BRANCH  11  12
ATOM     12  C   UNL     1      30.407   5.838 -11.752  1.00  0.00     0.000 C 
BRANCH  12  13
ATOM     13  C   UNL     1      31.651   6.028 -10.869  1.00  0.00     0.006 C 
BRANCH  13  14
ATOM     14  C   UNL     1      31.998   7.518 -10.732  1.00  0.00     0.053 C 
BRANCH  14  15
ATOM     15  C   UNL     1      33.369   7.704 -10.161  1.00  0.00     0.041 C 
ATOM     16  O   UNL     1      34.295   6.904 -10.461  1.00  0.00    -0.550 OA
ATOM     17  O   UNL     1      33.638   8.787  -9.329  1.00  0.00    -0.550 OA
ENDBRANCH  14  15
ENDBRANCH  13  14
ENDBRANCH  12  13
ENDBRANCH  11  12
ENDBRANCH  10  11
ENDBRANCH   9  10
ENDBRANCH   8   9
ENDBRANCH   7   8
ENDBRANCH   6   7
ENDBRANCH   5   6
ENDBRANCH   4   5
ENDBRANCH   3   4
ENDBRANCH   2   3
ENDBRANCH   1   2
BRANCH   1  18
ATOM     18  C   UNL     1      35.007   7.220  -5.675  1.00  0.00     0.000 C 
BRANCH  18  19
ATOM     19  C   UNL     1      36.464   7.457  -6.118  1.00  0.00     0.000 C 
BRANCH  19  20
ATOM     20  C   UNL     1      36.612   7.552  -7.651  1.00  0.00     0.000 C 
BRANCH  20  21
ATOM     21  C   UNL     1      37.468   6.411  -8.239  1.00  0.00     0.000 C 
BRANCH  21  22
ATOM     22  C   UNL     1      37.684   5.255  -7.234  1.00  0.00     0.000 C 
BRANCH  22  23
ATOM     23  C   UNL     1      37.012   3.943  -7.674  1.00  0.00     0.000 C 
BRANCH  23  24
ATOM     24  C   UNL     1      36.202   4.121  -8.971  1.00  0.00    -0.000 C 
BRANCH  24  25
ATOM     25  C   UNL     1      36.499   3.034 -10.013  1.00  0.00    -0.000 C 
BRANCH  25  26
ATOM     26  C   UNL     1      35.643   1.769  -9.813  1.00  0.00    -0.000 C 
BRANCH  26  27
ATOM     27  C   UNL     1      36.495   0.534  -9.478  1.00  0.00    -0.000 C 
BRANCH  27  28
ATOM     28  C   UNL     1      36.496   0.236  -7.966  1.00  0.00    -0.000 C 
BRANCH  28  29
ATOM     29  C   UNL     1      37.884   0.388  -7.330  1.00  0.00    -0.000 C 
BRANCH  29  30
ATOM     30  C   UNL     1      38.994   0.603  -8.373  1.00  0.00    -0.000 C 
BRANCH  30  31
ATOM     31  C   UNL     1      39.993   1.692  -7.948  1.00  0.00    -0.003 C 
ATOM     32  C   UNL     1      40.212   2.750  -9.031  1.00  0.00     0.004 C 
ENDBRANCH  30  31
ENDBRANCH  29  30
ENDBRANCH  28  29
ENDBRANCH  27  28
ENDBRANCH  26  27
ENDBRANCH  25  26
ENDBRANCH  24  25
ENDBRANCH  23  24
ENDBRANCH  22  23
ENDBRANCH  21  22
ENDBRANCH  20  21
ENDBRANCH  19  20
ENDBRANCH  18  19
ENDBRANCH   1  18
TORSDOF 28
ENDMDL
MODEL 5
REMARK VINA RESULT:    -3.331     10.548     15.012
REMARK INTER + INTRA:         -13.971
REMARK INTER:                  -9.677
REMARK INTRA:                  -4.294
REMARK UNBOUND:                -5.187
REMARK SMILES CCCCCCCCCCCCCCCCCCCCCCCCCCCCCC(=O)[O-]
REMARK SMILES IDX 16 1 17 2 18 3 19 4 20 5 21 6 22 7 23 8 24 9 25 10 26 11
REMARK SMILES IDX 27 12 28 13 29 14 30 15 31 16 32 17 15 18 14 19 13 20 12 21
REMARK SMILES IDX 11 22 10 23 9 24 8 25 7 26 6 27 5 28 4 29 3 30 2 31 1 32
REMARK H PARENT
REMARK Flexibility Score: inf
ROOT
ATOM      1  C   UNL     1      35.044   6.781  -5.181  1.00  0.00     0.000 C 
ENDROOT
BRANCH   1   2
ATOM      2  C   UNL     1      36.367   7.350  -5.727  1.00  0.00     0.000 C 
BRANCH   2   3
ATOM      3  C   UNL     1      36.338   7.491  -7.258  1.00  0.00     0.000 C 
BRANCH   3   4
ATOM      4  C   UNL     1      37.239   6.459  -7.973  1.00  0.00     0.000 C 
BRANCH   4   5
ATOM      5  C   UNL     1      37.429   5.156  -7.173  1.00  0.00     0.000 C 
BRANCH   5   6
ATOM      6  C   UNL     1      36.572   3.998  -7.713  1.00  0.00     0.000 C 
BRANCH   6   7
ATOM      7  C   UNL     1      36.921   3.614  -9.161  1.00  0.00     0.000 C 
BRANCH   7   8
ATOM      8  C   UNL     1      35.889   2.671  -9.803  1.00  0.00     0.000 C 
BRANCH   8   9
ATOM      9  C   UNL     1      35.791   1.325  -9.067  1.00  0.00     0.000 C 
BRANCH   9  10
ATOM     10  C   UNL     1      36.615   0.205  -9.741  1.00  0.00     0.000 C 
BRANCH  10  11
ATOM     11  C   UNL     1      37.132  -0.829  -8.725  1.00  0.00     0.000 C 
BRANCH  11  12
ATOM     12  C   UNL     1      38.651  -0.724  -8.503  1.00  0.00     0.000 C 
BRANCH  12  13
ATOM     13  C   UNL     1      39.012  -0.188  -7.108  1.00  0.00     0.006 C 
BRANCH  13  14
ATOM     14  C   UNL     1      39.046   1.348  -7.109  1.00  0.00     0.053 C 
BRANCH  14  15
ATOM     15  C   UNL     1      40.301   1.861  -6.473  1.00  0.00     0.041 C 
ATOM     16  O   UNL     1      40.259   2.402  -5.336  1.00  0.00    -0.550 OA
ATOM     17  O   UNL     1      41.524   1.704  -7.117  1.00  0.00    -0.550 OA
ENDBRANCH  14  15
ENDBRANCH  13  14
ENDBRANCH  12  13
ENDBRANCH  11  12
ENDBRANCH  10  11
ENDBRANCH   9  10
ENDBRANCH   8   9
ENDBRANCH   7   8
ENDBRANCH   6   7
ENDBRANCH   5   6
ENDBRANCH   4   5
ENDBRANCH   3   4
ENDBRANCH   2   3
ENDBRANCH   1   2
BRANCH   1  18
ATOM     18  C   UNL     1      33.914   6.846  -6.225  1.00  0.00     0.000 C 
BRANCH  18  19
ATOM     19  C   UNL     1      33.341   5.451  -6.543  1.00  0.00     0.000 C 
BRANCH  19  20
ATOM     20  C   UNL     1      31.937   5.515  -7.180  1.00  0.00     0.000 C 
BRANCH  20  21
ATOM     21  C   UNL     1      31.326   6.931  -7.134  1.00  0.00     0.000 C 
BRANCH  21  22
ATOM     22  C   UNL     1      29.779   6.909  -7.150  1.00  0.00     0.000 C 
BRANCH  22  23
ATOM     23  C   UNL     1      29.160   8.315  -7.236  1.00  0.00     0.000 C 
BRANCH  23  24
ATOM     24  C   UNL     1      28.522   8.577  -8.613  1.00  0.00    -0.000 C 
BRANCH  24  25
ATOM     25  C   UNL     1      28.491   7.328  -9.503  1.00  0.00    -0.000 C 
BRANCH  25  26
ATOM     26  C   UNL     1      29.282   7.510 -10.811  1.00  0.00    -0.000 C 
BRANCH  26  27
ATOM     27  C   UNL     1      29.306   6.231 -11.663  1.00  0.00    -0.000 C 
BRANCH  27  28
ATOM     28  C   UNL     1      30.739   5.693 -11.842  1.00  0.00    -0.000 C 
BRANCH  28  29
ATOM     29  C   UNL     1      31.695   6.168 -10.741  1.00  0.00    -0.000 C 
BRANCH  29  30
ATOM     30  C   UNL     1      33.025   5.395 -10.737  1.00  0.00    -0.000 C 
BRANCH  30  31
ATOM     31  C   UNL     1      34.188   6.235 -10.184  1.00  0.00    -0.003 C 
ATOM     32  C   UNL     1      35.387   6.284 -11.133  1.00  0.00     0.004 C 
ENDBRANCH  30  31
ENDBRANCH  29  30
ENDBRANCH  28  29
ENDBRANCH  27  28
ENDBRANCH  26  27
ENDBRANCH  25  26
ENDBRANCH  24  25
ENDBRANCH  23  24
ENDBRANCH  22  23
ENDBRANCH  21  22
ENDBRANCH  20  21
ENDBRANCH  19  20
ENDBRANCH  18  19
ENDBRANCH   1  18
TORSDOF 28
ENDMDL
MODEL 6
REMARK VINA RESULT:    -3.307     10.341     14.612
REMARK INTER + INTRA:         -13.908
REMARK INTER:                  -9.969
REMARK INTRA:                  -3.939
REMARK UNBOUND:                -5.187
REMARK SMILES CCCCCCCCCCCCCCCCCCCCCCCCCCCCCC(=O)[O-]
REMARK SMILES IDX 16 1 17 2 18 3 19 4 20 5 21 6 22 7 23 8 24 9 25 10 26 11
REMARK SMILES IDX 27 12 28 13 29 14 30 15 31 16 32 17 15 18 14 19 13 20 12 21
REMARK SMILES IDX 11 22 10 23 9 24 8 25 7 26 6 27 5 28 4 29 3 30 2 31 1 32
REMARK H PARENT
REMARK Flexibility Score: inf
ROOT
ATOM      1  C   UNL     1      34.993   6.917  -5.173  1.00  0.00     0.000 C 
ENDROOT
BRANCH   1   2
ATOM      2  C   UNL     1      36.348   7.436  -5.687  1.00  0.00     0.000 C 
BRANCH   2   3
ATOM      3  C   UNL     1      36.330   7.669  -7.207  1.00  0.00     0.000 C 
BRANCH   3   4
ATOM      4  C   UNL     1      37.266   6.707  -7.973  1.00  0.00     0.000 C 
BRANCH   4   5
ATOM      5  C   UNL     1      37.538   5.391  -7.221  1.00  0.00     0.000 C 
BRANCH   5   6
ATOM      6  C   UNL     1      36.563   4.268  -7.617  1.00  0.00     0.000 C 
BRANCH   6   7
ATOM      7  C   UNL     1      36.730   3.812  -9.076  1.00  0.00     0.000 C 
BRANCH   7   8
ATOM      8  C   UNL     1      35.671   2.786  -9.515  1.00  0.00     0.000 C 
BRANCH   8   9
ATOM      9  C   UNL     1      35.757   1.478  -8.710  1.00  0.00     0.000 C 
BRANCH   9  10
ATOM     10  C   UNL     1      37.179   0.874  -8.687  1.00  0.00     0.000 C 
BRANCH  10  11
ATOM     11  C   UNL     1      37.360  -0.143  -7.546  1.00  0.00     0.000 C 
BRANCH  11  12
ATOM     12  C   UNL     1      36.322  -1.277  -7.602  1.00  0.00     0.000 C 
BRANCH  12  13
ATOM     13  C   UNL     1      36.309  -2.133  -6.325  1.00  0.00     0.006 C 
BRANCH  13  14
ATOM     14  C   UNL     1      35.144  -1.726  -5.410  1.00  0.00     0.053 C 
BRANCH  14  15
ATOM     15  C   UNL     1      35.120  -2.556  -4.164  1.00  0.00     0.041 C 
ATOM     16  O   UNL     1      34.465  -3.632  -4.132  1.00  0.00    -0.550 OA
ATOM     17  O   UNL     1      35.855  -2.163  -3.050  1.00  0.00    -0.550 OA
ENDBRANCH  14  15
ENDBRANCH  13  14
ENDBRANCH  12  13
ENDBRANCH  11  12
ENDBRANCH  10  11
ENDBRANCH   9  10
ENDBRANCH   8   9
ENDBRANCH   7   8
ENDBRANCH   6   7
ENDBRANCH   5   6
ENDBRANCH   4   5
ENDBRANCH   3   4
ENDBRANCH   2   3
ENDBRANCH   1   2
BRANCH   1  18
ATOM     18  C   UNL     1      33.925   6.898  -6.281  1.00  0.00     0.000 C 
BRANCH  18  19
ATOM     19  C   UNL     1      33.338   5.489  -6.493  1.00  0.00     0.000 C 
BRANCH  19  20
ATOM     20  C   UNL     1      31.956   5.516  -7.179  1.00  0.00     0.000 C 
BRANCH  20  21
ATOM     21  C   UNL     1      31.320   6.921  -7.181  1.00  0.00     0.000 C 
BRANCH  21  22
ATOM     22  C   UNL     1      29.774   6.871  -7.182  1.00  0.00     0.000 C 
BRANCH  22  23
ATOM     23  C   UNL     1      29.128   8.261  -7.313  1.00  0.00     0.000 C 
BRANCH  23  24
ATOM     24  C   UNL     1      28.512   8.479  -8.707  1.00  0.00    -0.000 C 
BRANCH  24  25
ATOM     25  C   UNL     1      28.500   7.202  -9.559  1.00  0.00    -0.000 C 
BRANCH  25  26
ATOM     26  C   UNL     1      29.194   7.391 -10.921  1.00  0.00    -0.000 C 
BRANCH  26  27
ATOM     27  C   UNL     1      29.252   6.087 -11.732  1.00  0.00    -0.000 C 
BRANCH  27  28
ATOM     28  C   UNL     1      30.699   5.589 -11.908  1.00  0.00    -0.000 C 
BRANCH  28  29
ATOM     29  C   UNL     1      31.643   6.104 -10.813  1.00  0.00    -0.000 C 
BRANCH  29  30
ATOM     30  C   UNL     1      32.890   5.221 -10.641  1.00  0.00    -0.000 C 
BRANCH  30  31
ATOM     31  C   UNL     1      34.184   6.046 -10.556  1.00  0.00    -0.003 C 
ATOM     32  C   UNL     1      33.971   7.416  -9.908  1.00  0.00     0.004 C 
ENDBRANCH  30  31
ENDBRANCH  29  30
ENDBRANCH  28  29
ENDBRANCH  27  28
ENDBRANCH  26  27
ENDBRANCH  25  26
ENDBRANCH  24  25
ENDBRANCH  23  24
ENDBRANCH  22  23
ENDBRANCH  21  22
ENDBRANCH  20  21
ENDBRANCH  19  20
ENDBRANCH  18  19
ENDBRANCH   1  18
TORSDOF 28
ENDMDL
MODEL 7
REMARK VINA RESULT:    -3.240      1.694      6.810
REMARK INTER + INTRA:         -13.729
REMARK INTER:                  -9.066
REMARK INTRA:                  -4.663
REMARK UNBOUND:                -5.187
REMARK SMILES CCCCCCCCCCCCCCCCCCCCCCCCCCCCCC(=O)[O-]
REMARK SMILES IDX 16 1 17 2 18 3 19 4 20 5 21 6 22 7 23 8 24 9 25 10 26 11
REMARK SMILES IDX 27 12 28 13 29 14 30 15 31 16 32 17 15 18 14 19 13 20 12 21
REMARK SMILES IDX 11 22 10 23 9 24 8 25 7 26 6 27 5 28 4 29 3 30 2 31 1 32
REMARK H PARENT
REMARK Flexibility Score: inf
ROOT
ATOM      1  C   UNL     1      41.824   2.395   3.253  1.00  0.00     0.000 C 
ENDROOT
BRANCH   1   2
ATOM      2  C   UNL     1      42.487   1.841   4.527  1.00  0.00     0.000 C 
BRANCH   2   3
ATOM      3  C   UNL     1      42.987   0.400   4.329  1.00  0.00     0.000 C 
BRANCH   3   4
ATOM      4  C   UNL     1      41.928  -0.519   3.680  1.00  0.00     0.000 C 
BRANCH   4   5
ATOM      5  C   UNL     1      42.416  -1.198   2.387  1.00  0.00     0.000 C 
BRANCH   5   6
ATOM      6  C   UNL     1      41.298  -1.356   1.341  1.00  0.00     0.000 C 
BRANCH   6   7
ATOM      7  C   UNL     1      41.013  -0.060   0.564  1.00  0.00     0.000 C 
BRANCH   7   8
ATOM      8  C   UNL     1      39.671   0.590   0.942  1.00  0.00     0.000 C 
BRANCH   8   9
ATOM      9  C   UNL     1      38.472  -0.141   0.316  1.00  0.00     0.000 C 
BRANCH   9  10
ATOM     10  C   UNL     1      37.221  -0.138   1.224  1.00  0.00     0.000 C 
BRANCH  10  11
ATOM     11  C   UNL     1      37.229   1.034   2.221  1.00  0.00     0.000 C 
BRANCH  11  12
ATOM     12  C   UNL     1      35.834   1.313   2.808  1.00  0.00     0.000 C 
BRANCH  12  13
ATOM     13  C   UNL     1      34.826   1.782   1.746  1.00  0.00     0.006 C 
BRANCH  13  14
ATOM     14  C   UNL     1      33.409   1.299   2.091  1.00  0.00     0.053 C 
BRANCH  14  15
ATOM     15  C   UNL     1      32.373   2.243   1.566  1.00  0.00     0.041 C 
ATOM     16  O   UNL     1      31.199   1.839   1.349  1.00  0.00    -0.550 OA
ATOM     17  O   UNL     1      32.691   3.581   1.354  1.00  0.00    -0.550 OA
ENDBRANCH  14  15
ENDBRANCH  13  14
ENDBRANCH  12  13
ENDBRANCH  11  12
ENDBRANCH  10  11
ENDBRANCH   9  10
ENDBRANCH   8   9
ENDBRANCH   7   8
ENDBRANCH   6   7
ENDBRANCH   5   6
ENDBRANCH   4   5
ENDBRANCH   3   4
ENDBRANCH   2   3
ENDBRANCH   1   2
BRANCH   1  18
ATOM     18  C   UNL     1      40.454   3.032   3.546  1.00  0.00     0.000 C 
BRANCH  18  19
ATOM     19  C   UNL     1      39.749   2.361   4.741  1.00  0.00     0.000 C 
BRANCH  19  20
ATOM     20  C   UNL     1      38.408   3.035   5.098  1.00  0.00     0.000 C 
BRANCH  20  21
ATOM     21  C   UNL     1      38.234   4.410   4.421  1.00  0.00     0.000 C 
BRANCH  21  22
ATOM     22  C   UNL     1      37.956   5.541   5.439  1.00  0.00     0.000 C 
BRANCH  22  23
ATOM     23  C   UNL     1      38.491   6.908   4.979  1.00  0.00     0.000 C 
BRANCH  23  24
ATOM     24  C   UNL     1      37.881   7.340   3.633  1.00  0.00    -0.000 C 
BRANCH  24  25
ATOM     25  C   UNL     1      37.014   8.600   3.749  1.00  0.00    -0.000 C 
BRANCH  25  26
ATOM     26  C   UNL     1      35.508   8.298   3.639  1.00  0.00    -0.000 C 
BRANCH  26  27
ATOM     27  C   UNL     1      34.865   8.028   5.008  1.00  0.00    -0.000 C 
BRANCH  27  28
ATOM     28  C   UNL     1      34.012   6.746   4.994  1.00  0.00    -0.000 C 
BRANCH  28  29
ATOM     29  C   UNL     1      34.570   5.669   4.055  1.00  0.00    -0.000 C 
BRANCH  29  30
ATOM     30  C   UNL     1      34.017   4.268   4.363  1.00  0.00    -0.000 C 
BRANCH  30  31
ATOM     31  C   UNL     1      34.746   3.596   5.538  1.00  0.00    -0.003 C 
ATOM     32  C   UNL     1      33.907   3.566   6.817  1.00  0.00     0.004 C 
ENDBRANCH  30  31
ENDBRANCH  29  30
ENDBRANCH  28  29
ENDBRANCH  27  28
ENDBRANCH  26  27
ENDBRANCH  25  26
ENDBRANCH  24  25
ENDBRANCH  23  24
ENDBRANCH  22  23
ENDBRANCH  21  22
ENDBRANCH  20  21
ENDBRANCH  19  20
ENDBRANCH  18  19
ENDBRANCH   1  18
TORSDOF 28
ENDMDL
MODEL 8
REMARK VINA RESULT:    -3.218      2.165      7.445
REMARK INTER + INTRA:         -13.674
REMARK INTER:                  -8.570
REMARK INTRA:                  -5.103
REMARK UNBOUND:                -5.187
REMARK SMILES CCCCCCCCCCCCCCCCCCCCCCCCCCCCCC(=O)[O-]
REMARK SMILES IDX 16 1 17 2 18 3 19 4 20 5 21 6 22 7 23 8 24 9 25 10 26 11
REMARK SMILES IDX 27 12 28 13 29 14 30 15 31 16 32 17 15 18 14 19 13 20 12 21
REMARK SMILES IDX 11 22 10 23 9 24 8 25 7 26 6 27 5 28 4 29 3 30 2 31 1 32
REMARK H PARENT
REMARK Flexibility Score: inf
ROOT
ATOM      1  C   UNL     1      39.199  -0.825   0.998  1.00  0.00     0.000 C 
ENDROOT
BRANCH   1   2
ATOM      2  C   UNL     1      40.382   0.114   0.698  1.00  0.00     0.000 C 
BRANCH   2   3
ATOM      3  C   UNL     1      41.000   0.681   1.987  1.00  0.00     0.000 C 
BRANCH   3   4
ATOM      4  C   UNL     1      40.311   1.979   2.463  1.00  0.00     0.000 C 
BRANCH   4   5
ATOM      5  C   UNL     1      41.224   2.878   3.318  1.00  0.00     0.000 C 
BRANCH   5   6
ATOM      6  C   UNL     1      42.309   2.082   4.065  1.00  0.00     0.000 C 
BRANCH   6   7
ATOM      7  C   UNL     1      42.126   2.100   5.592  1.00  0.00     0.000 C 
BRANCH   7   8
ATOM      8  C   UNL     1      41.645   3.460   6.128  1.00  0.00     0.000 C 
BRANCH   8   9
ATOM      9  C   UNL     1      40.445   3.320   7.079  1.00  0.00     0.000 C 
BRANCH   9  10
ATOM     10  C   UNL     1      39.254   2.566   6.444  1.00  0.00     0.000 C 
BRANCH  10  11
ATOM     11  C   UNL     1      38.021   3.469   6.267  1.00  0.00     0.000 C 
BRANCH  11  12
ATOM     12  C   UNL     1      38.113   4.345   5.005  1.00  0.00     0.000 C 
BRANCH  12  13
ATOM     13  C   UNL     1      37.706   5.805   5.265  1.00  0.00     0.006 C 
BRANCH  13  14
ATOM     14  C   UNL     1      37.837   6.641   3.983  1.00  0.00     0.053 C 
BRANCH  14  15
ATOM     15  C   UNL     1      36.518   7.226   3.583  1.00  0.00     0.041 C 
ATOM     16  O   UNL     1      36.457   8.400   3.127  1.00  0.00    -0.550 OA
ATOM     17  O   UNL     1      35.359   6.461   3.672  1.00  0.00    -0.550 OA
ENDBRANCH  14  15
ENDBRANCH  13  14
ENDBRANCH  12  13
ENDBRANCH  11  12
ENDBRANCH  10  11
ENDBRANCH   9  10
ENDBRANCH   8   9
ENDBRANCH   7   8
ENDBRANCH   6   7
ENDBRANCH   5   6
ENDBRANCH   4   5
ENDBRANCH   3   4
ENDBRANCH   2   3
ENDBRANCH   1   2
BRANCH   1  18
ATOM     18  C   UNL     1      37.873  -0.277   0.439  1.00  0.00     0.000 C 
BRANCH  18  19
ATOM     19  C   UNL     1      37.050   0.455   1.517  1.00  0.00     0.000 C 
BRANCH  19  20
ATOM     20  C   UNL     1      37.124  -0.237   2.894  1.00  0.00     0.000 C 
BRANCH  20  21
ATOM     21  C   UNL     1      36.896   0.741   4.065  1.00  0.00     0.000 C 
BRANCH  21  22
ATOM     22  C   UNL     1      35.477   0.620   4.670  1.00  0.00     0.000 C 
BRANCH  22  23
ATOM     23  C   UNL     1      34.804   1.985   4.898  1.00  0.00     0.000 C 
BRANCH  23  24
ATOM     24  C   UNL     1      35.032   2.943   3.714  1.00  0.00    -0.000 C 
BRANCH  24  25
ATOM     25  C   UNL     1      33.731   3.317   2.993  1.00  0.00    -0.000 C 
BRANCH  25  26
ATOM     26  C   UNL     1      33.505   2.494   1.710  1.00  0.00    -0.000 C 
BRANCH  26  27
ATOM     27  C   UNL     1      32.014   2.349   1.364  1.00  0.00    -0.000 C 
BRANCH  27  28
ATOM     28  C   UNL     1      31.522   0.903   1.563  1.00  0.00    -0.000 C 
BRANCH  28  29
ATOM     29  C   UNL     1      32.618  -0.032   2.089  1.00  0.00    -0.000 C 
BRANCH  29  30
ATOM     30  C   UNL     1      32.235  -0.707   3.417  1.00  0.00    -0.000 C 
BRANCH  30  31
ATOM     31  C   UNL     1      31.367   0.199   4.305  1.00  0.00    -0.003 C 
ATOM     32  C   UNL     1      31.753   0.124   5.784  1.00  0.00     0.004 C 
ENDBRANCH  30  31
ENDBRANCH  29  30
ENDBRANCH  28  29
ENDBRANCH  27  28
ENDBRANCH  26  27
ENDBRANCH  25  26
ENDBRANCH  24  25
ENDBRANCH  23  24
ENDBRANCH  22  23
ENDBRANCH  21  22
ENDBRANCH  20  21
ENDBRANCH  19  20
ENDBRANCH  18  19
ENDBRANCH   1  18
TORSDOF 28
ENDMDL
MODEL 9
REMARK VINA RESULT:    -3.216      1.560      5.478
REMARK INTER + INTRA:         -13.668
REMARK INTER:                  -8.075
REMARK INTRA:                  -5.593
REMARK UNBOUND:                -5.187
REMARK SMILES CCCCCCCCCCCCCCCCCCCCCCCCCCCCCC(=O)[O-]
REMARK SMILES IDX 16 1 17 2 18 3 19 4 20 5 21 6 22 7 23 8 24 9 25 10 26 11
REMARK SMILES IDX 27 12 28 13 29 14 30 15 31 16 32 17 15 18 14 19 13 20 12 21
REMARK SMILES IDX 11 22 10 23 9 24 8 25 7 26 6 27 5 28 4 29 3 30 2 31 1 32
REMARK H PARENT
REMARK Flexibility Score: inf
ROOT
ATOM      1  C   UNL     1      35.538   4.613   6.009  1.00  0.00     0.000 C 
ENDROOT
BRANCH   1   2
ATOM      2  C   UNL     1      36.495   3.997   4.972  1.00  0.00     0.000 C 
BRANCH   2   3
ATOM      3  C   UNL     1      37.273   2.804   5.553  1.00  0.00     0.000 C 
BRANCH   3   4
ATOM      4  C   UNL     1      38.499   2.413   4.698  1.00  0.00     0.000 C 
BRANCH   4   5
ATOM      5  C   UNL     1      39.029   3.567   3.825  1.00  0.00     0.000 C 
BRANCH   5   6
ATOM      6  C   UNL     1      39.776   3.070   2.575  1.00  0.00     0.000 C 
BRANCH   6   7
ATOM      7  C   UNL     1      39.920   1.539   2.528  1.00  0.00     0.000 C 
BRANCH   7   8
ATOM      8  C   UNL     1      39.061   0.884   1.433  1.00  0.00     0.000 C 
BRANCH   8   9
ATOM      9  C   UNL     1      38.362  -0.394   1.926  1.00  0.00     0.000 C 
BRANCH   9  10
ATOM     10  C   UNL     1      36.834  -0.377   1.691  1.00  0.00     0.000 C 
BRANCH  10  11
ATOM     11  C   UNL     1      36.083   0.370   2.807  1.00  0.00     0.000 C 
BRANCH  11  12
ATOM     12  C   UNL     1      35.185   1.493   2.258  1.00  0.00     0.000 C 
BRANCH  12  13
ATOM     13  C   UNL     1      34.094   1.922   3.254  1.00  0.00     0.006 C 
BRANCH  13  14
ATOM     14  C   UNL     1      33.103   2.888   2.589  1.00  0.00     0.053 C 
BRANCH  14  15
ATOM     15  C   UNL     1      31.863   2.173   2.150  1.00  0.00     0.041 C 
ATOM     16  O   UNL     1      31.253   1.412   2.949  1.00  0.00    -0.550 OA
ATOM     17  O   UNL     1      31.354   2.379   0.871  1.00  0.00    -0.550 OA
ENDBRANCH  14  15
ENDBRANCH  13  14
ENDBRANCH  12  13
ENDBRANCH  11  12
ENDBRANCH  10  11
ENDBRANCH   9  10
ENDBRANCH   8   9
ENDBRANCH   7   8
ENDBRANCH   6   7
ENDBRANCH   5   6
ENDBRANCH   4   5
ENDBRANCH   3   4
ENDBRANCH   2   3
ENDBRANCH   1   2
BRANCH   1  18
ATOM     18  C   UNL     1      34.305   5.255   5.346  1.00  0.00     0.000 C 
BRANCH  18  19
ATOM     19  C   UNL     1      34.634   5.835   3.956  1.00  0.00     0.000 C 
BRANCH  19  20
ATOM     20  C   UNL     1      34.828   7.365   3.980  1.00  0.00     0.000 C 
BRANCH  20  21
ATOM     21  C   UNL     1      36.311   7.779   3.893  1.00  0.00     0.000 C 
BRANCH  21  22
ATOM     22  C   UNL     1      36.958   7.960   5.287  1.00  0.00     0.000 C 
BRANCH  22  23
ATOM     23  C   UNL     1      38.494   7.878   5.250  1.00  0.00     0.000 C 
BRANCH  23  24
ATOM     24  C   UNL     1      39.011   6.545   5.822  1.00  0.00    -0.000 C 
BRANCH  24  25
ATOM     25  C   UNL     1      38.566   6.306   7.271  1.00  0.00    -0.000 C 
BRANCH  25  26
ATOM     26  C   UNL     1      39.291   5.115   7.926  1.00  0.00    -0.000 C 
BRANCH  26  27
ATOM     27  C   UNL     1      40.518   4.662   7.118  1.00  0.00    -0.000 C 
BRANCH  27  28
ATOM     28  C   UNL     1      40.861   3.184   7.384  1.00  0.00    -0.000 C 
BRANCH  28  29
ATOM     29  C   UNL     1      42.240   2.786   6.842  1.00  0.00    -0.000 C 
BRANCH  29  30
ATOM     30  C   UNL     1      42.212   2.441   5.344  1.00  0.00    -0.000 C 
BRANCH  30  31
ATOM     31  C   UNL     1      43.043   1.190   5.015  1.00  0.00    -0.003 C 
ATOM     32  C   UNL     1      42.202  -0.088   4.985  1.00  0.00     0.004 C 
ENDBRANCH  30  31
ENDBRANCH  29  30
ENDBRANCH  28  29
ENDBRANCH  27  28
ENDBRANCH  26  27
ENDBRANCH  25  26
ENDBRANCH  24  25
ENDBRANCH  23  24
ENDBRANCH  22  23
ENDBRANCH  21  22
ENDBRANCH  20  21
ENDBRANCH  19  20
ENDBRANCH  18  19
ENDBRANCH   1  18
TORSDOF 28
ENDMDL
