MODEL 1
REMARK VINA RESULT:    -3.602      0.000      0.000
REMARK INTER + INTRA:          -5.143
REMARK INTER:                  -4.866
REMARK INTRA:                  -0.278
REMARK UNBOUND:                -0.278
REMARK SMILES CCCCCCC=CC(=O)[O-]
REMARK SMILES IDX 5 1 6 2 7 3 8 4 9 5 10 6 11 7 4 8 3 9 2 10 1 11
REMARK H PARENT
REMARK Flexibility Score: inf
ROOT
ATOM      1  C   UNL     1      62.356  32.675  60.799  1.00  0.00     0.004 C 
ENDROOT
BRANCH   1   2
ATOM      2  C   UNL     1      61.130  31.888  61.281  1.00  0.00     0.027 C 
BRANCH   2   3
ATOM      3  C   UNL     1      61.486  30.460  61.581  1.00  0.00    -0.025 C 
ATOM      4  C   UNL     1      62.675  29.949  61.243  1.00  0.00     0.020 C 
BRANCH   4   5
ATOM      5  C   UNL     1      63.041  28.557  61.542  1.00  0.00     0.064 C 
ATOM      6  O   UNL     1      62.189  27.788  62.059  1.00  0.00    -0.545 OA
ATOM      7  O   UNL     1      64.314  28.075  61.262  1.00  0.00    -0.545 OA
ENDBRANCH   4   5
ENDBRANCH   2   3
ENDBRANCH   1   2
BRANCH   1   8
ATOM      8  C   UNL     1      61.957  34.089  60.350  1.00  0.00     0.000 C 
BRANCH   8   9
ATOM      9  C   UNL     1      62.740  35.194  61.082  1.00  0.00    -0.000 C 
BRANCH   9  10
ATOM     10  C   UNL     1      64.180  34.816  61.472  1.00  0.00    -0.003 C 
ATOM     11  C   UNL     1      64.970  35.988  62.055  1.00  0.00     0.004 C 
ENDBRANCH   9  10
ENDBRANCH   8   9
ENDBRANCH   1   8
TORSDOF 6
ENDMDL
MODEL 2
REMARK VINA RESULT:    -3.601     13.154     14.152
REMARK INTER + INTRA:          -5.142
REMARK INTER:                  -4.517
REMARK INTRA:                  -0.625
REMARK UNBOUND:                -0.278
REMARK SMILES CCCCCCC=CC(=O)[O-]
REMARK SMILES IDX 5 1 6 2 7 3 8 4 9 5 10 6 11 7 4 8 3 9 2 10 1 11
REMARK H PARENT
REMARK Flexibility Score: inf
ROOT
ATOM      1  C   UNL     1      58.154  29.085  49.634  1.00  0.00     0.004 C 
ENDROOT
BRANCH   1   2
ATOM      2  C   UNL     1      57.192  28.874  50.811  1.00  0.00     0.027 C 
BRANCH   2   3
ATOM      3  C   UNL     1      55.854  28.383  50.338  1.00  0.00    -0.025 C 
ATOM      4  C   UNL     1      55.642  27.093  50.056  1.00  0.00     0.020 C 
BRANCH   4   5
ATOM      5  C   UNL     1      54.333  26.597  49.604  1.00  0.00     0.064 C 
ATOM      6  O   UNL     1      54.234  25.425  49.156  1.00  0.00    -0.545 OA
ATOM      7  O   UNL     1      53.202  27.403  49.666  1.00  0.00    -0.545 OA
ENDBRANCH   4   5
ENDBRANCH   2   3
ENDBRANCH   1   2
BRANCH   1   8
ATOM      8  C   UNL     1      59.583  28.669  50.013  1.00  0.00     0.000 C 
BRANCH   8   9
ATOM      9  C   UNL     1      60.093  27.467  49.198  1.00  0.00    -0.000 C 
BRANCH   9  10
ATOM     10  C   UNL     1      59.353  26.144  49.464  1.00  0.00    -0.003 C 
ATOM     11  C   UNL     1      59.325  25.761  50.943  1.00  0.00     0.004 C 
ENDBRANCH   9  10
ENDBRANCH   8   9
ENDBRANCH   1   8
TORSDOF 6
ENDMDL
MODEL 3
REMARK VINA RESULT:    -3.589      3.651      5.921
REMARK INTER + INTRA:          -5.126
REMARK INTER:                  -4.777
REMARK INTRA:                  -0.349
REMARK UNBOUND:                -0.278
REMARK SMILES CCCCCCC=CC(=O)[O-]
REMARK SMILES IDX 5 1 6 2 7 3 8 4 9 5 10 6 11 7 4 8 3 9 2 10 1 11
REMARK H PARENT
REMARK Flexibility Score: inf
ROOT
ATOM      1  C   UNL     1      61.124  31.968  61.048  1.00  0.00     0.004 C 
ENDROOT
BRANCH   1   2
ATOM      2  C   UNL     1      62.517  32.360  60.535  1.00  0.00     0.027 C 
BRANCH   2   3
ATOM      3  C   UNL     1      62.826  33.796  60.848  1.00  0.00    -0.025 C 
ATOM      4  C   UNL     1      64.029  34.171  61.296  1.00  0.00     0.020 C 
BRANCH   4   5
ATOM      5  C   UNL     1      64.349  35.575  61.593  1.00  0.00     0.064 C 
ATOM      6  O   UNL     1      65.553  35.928  61.700  1.00  0.00    -0.545 OA
ATOM      7  O   UNL     1      63.343  36.520  61.756  1.00  0.00    -0.545 OA
ENDBRANCH   4   5
ENDBRANCH   2   3
ENDBRANCH   1   2
BRANCH   1   8
ATOM      8  C   UNL     1      61.200  30.720  61.940  1.00  0.00     0.000 C 
BRANCH   8   9
ATOM      9  C   UNL     1      62.598  30.075  61.950  1.00  0.00    -0.000 C 
BRANCH   9  10
ATOM     10  C   UNL     1      62.625  28.583  61.574  1.00  0.00    -0.003 C 
ATOM     11  C   UNL     1      63.989  28.118  61.065  1.00  0.00     0.004 C 
ENDBRANCH   9  10
ENDBRANCH   8   9
ENDBRANCH   1   8
TORSDOF 6
ENDMDL
MODEL 4
REMARK VINA RESULT:    -3.555     13.127     14.319
REMARK INTER + INTRA:          -5.079
REMARK INTER:                  -4.715
REMARK INTRA:                  -0.364
REMARK UNBOUND:                -0.278
REMARK SMILES CCCCCCC=CC(=O)[O-]
REMARK SMILES IDX 5 1 6 2 7 3 8 4 9 5 10 6 11 7 4 8 3 9 2 10 1 11
REMARK H PARENT
REMARK Flexibility Score: inf
ROOT
ATOM      1  C   UNL     1      55.562  28.246  51.189  1.00  0.00     0.004 C 
ENDROOT
BRANCH   1   2
ATOM      2  C   UNL     1      56.810  28.991  50.698  1.00  0.00     0.027 C 
BRANCH   2   3
ATOM      3  C   UNL     1      57.759  28.061  49.998  1.00  0.00    -0.025 C 
ATOM      4  C   UNL     1      59.082  28.155  50.167  1.00  0.00     0.020 C 
BRANCH   4   5
ATOM      5  C   UNL     1      60.021  27.242  49.499  1.00  0.00     0.064 C 
ATOM      6  O   UNL     1      59.700  26.038  49.326  1.00  0.00    -0.545 OA
ATOM      7  O   UNL     1      61.260  27.689  49.054  1.00  0.00    -0.545 OA
ENDBRANCH   4   5
ENDBRANCH   2   3
ENDBRANCH   1   2
BRANCH   1   8
ATOM      8  C   UNL     1      54.304  28.743  50.460  1.00  0.00     0.000 C 
BRANCH   8   9
ATOM      9  C   UNL     1      53.611  27.639  49.640  1.00  0.00    -0.000 C 
BRANCH   9  10
ATOM     10  C   UNL     1      54.376  26.305  49.575  1.00  0.00    -0.003 C 
ATOM     11  C   UNL     1      53.468  25.108  49.296  1.00  0.00     0.004 C 
ENDBRANCH   9  10
ENDBRANCH   8   9
ENDBRANCH   1   8
TORSDOF 6
ENDMDL
MODEL 5
REMARK VINA RESULT:    -3.543     12.904     14.103
REMARK INTER + INTRA:          -5.064
REMARK INTER:                  -4.809
REMARK INTRA:                  -0.255
REMARK UNBOUND:                -0.278
REMARK SMILES CCCCCCC=CC(=O)[O-]
REMARK SMILES IDX 5 1 6 2 7 3 8 4 9 5 10 6 11 7 4 8 3 9 2 10 1 11
REMARK H PARENT
REMARK Flexibility Score: inf
ROOT
ATOM      1  C   UNL     1      56.853  27.995  50.383  1.00  0.00     0.004 C 
ENDROOT
BRANCH   1   2
ATOM      2  C   UNL     1      57.811  29.123  49.979  1.00  0.00     0.027 C 
BRANCH   2   3
ATOM      3  C   UNL     1      59.243  28.680  50.071  1.00  0.00    -0.025 C 
ATOM      4  C   UNL     1      59.706  27.658  49.344  1.00  0.00     0.020 C 
BRANCH   4   5
ATOM      5  C   UNL     1      61.109  27.222  49.414  1.00  0.00     0.064 C 
ATOM      6  O   UNL     1      61.372  26.011  49.635  1.00  0.00    -0.545 OA
ATOM      7  O   UNL     1      62.150  28.126  49.240  1.00  0.00    -0.545 OA
ENDBRANCH   4   5
ENDBRANCH   2   3
ENDBRANCH   1   2
BRANCH   1   8
ATOM      8  C   UNL     1      55.433  28.535  50.607  1.00  0.00     0.000 C 
BRANCH   8   9
ATOM      9  C   UNL     1      54.342  27.478  50.354  1.00  0.00    -0.000 C 
BRANCH   9  10
ATOM     10  C   UNL     1      54.834  26.194  49.662  1.00  0.00    -0.003 C 
ATOM     11  C   UNL     1      53.717  25.432  48.950  1.00  0.00     0.004 C 
ENDBRANCH   9  10
ENDBRANCH   8   9
ENDBRANCH   1   8
TORSDOF 6
ENDMDL
MODEL 6
REMARK VINA RESULT:    -3.526      1.574      2.296
REMARK INTER + INTRA:          -5.040
REMARK INTER:                  -4.682
REMARK INTRA:                  -0.359
REMARK UNBOUND:                -0.278
REMARK SMILES CCCCCCC=CC(=O)[O-]
REMARK SMILES IDX 5 1 6 2 7 3 8 4 9 5 10 6 11 7 4 8 3 9 2 10 1 11
REMARK H PARENT
REMARK Flexibility Score: inf
ROOT
ATOM      1  C   UNL     1      61.289  31.490  61.573  1.00  0.00     0.004 C 
ENDROOT
BRANCH   1   2
ATOM      2  C   UNL     1      61.913  30.133  61.923  1.00  0.00     0.027 C 
BRANCH   2   3
ATOM      3  C   UNL     1      63.381  30.112  61.606  1.00  0.00    -0.025 C 
ATOM      4  C   UNL     1      64.010  28.977  61.283  1.00  0.00     0.020 C 
BRANCH   4   5
ATOM      5  C   UNL     1      65.443  28.944  60.957  1.00  0.00     0.064 C 
ATOM      6  O   UNL     1      66.020  29.998  60.584  1.00  0.00    -0.545 OA
ATOM      7  O   UNL     1      66.173  27.764  61.056  1.00  0.00    -0.545 OA
ENDBRANCH   4   5
ENDBRANCH   2   3
ENDBRANCH   1   2
BRANCH   1   8
ATOM      8  C   UNL     1      62.289  32.373  60.810  1.00  0.00     0.000 C 
BRANCH   8   9
ATOM      9  C   UNL     1      61.750  33.788  60.534  1.00  0.00    -0.000 C 
BRANCH   9  10
ATOM     10  C   UNL     1      62.718  34.930  60.891  1.00  0.00    -0.003 C 
ATOM     11  C   UNL     1      64.097  34.433  61.324  1.00  0.00     0.004 C 
ENDBRANCH   9  10
ENDBRANCH   8   9
ENDBRANCH   1   8
TORSDOF 6
ENDMDL
MODEL 7
REMARK VINA RESULT:    -3.424     13.340     14.242
REMARK INTER + INTRA:          -4.903
REMARK INTER:                  -4.300
REMARK INTRA:                  -0.603
REMARK UNBOUND:                -0.278
REMARK SMILES CCCCCCC=CC(=O)[O-]
REMARK SMILES IDX 5 1 6 2 7 3 8 4 9 5 10 6 11 7 4 8 3 9 2 10 1 11
REMARK H PARENT
REMARK Flexibility Score: inf
ROOT
ATOM      1  C   UNL     1      57.178  26.907  51.677  1.00  0.00     0.004 C 
ENDROOT
BRANCH   1   2
ATOM      2  C   UNL     1      57.012  25.939  50.498  1.00  0.00     0.027 C 
BRANCH   2   3
ATOM      3  C   UNL     1      55.737  26.206  49.752  1.00  0.00    -0.025 C 
ATOM      4  C   UNL     1      54.763  26.956  50.277  1.00  0.00     0.020 C 
BRANCH   4   5
ATOM      5  C   UNL     1      53.515  27.236  49.552  1.00  0.00     0.064 C 
ATOM      6  O   UNL     1      52.972  26.325  48.875  1.00  0.00    -0.545 OA
ATOM      7  O   UNL     1      52.923  28.493  49.603  1.00  0.00    -0.545 OA
ENDBRANCH   4   5
ENDBRANCH   2   3
ENDBRANCH   1   2
BRANCH   1   8
ATOM      8  C   UNL     1      58.403  27.812  51.475  1.00  0.00     0.000 C 
BRANCH   8   9
ATOM      9  C   UNL     1      58.113  29.017  50.562  1.00  0.00    -0.000 C 
BRANCH   9  10
ATOM     10  C   UNL     1      58.890  29.024  49.234  1.00  0.00    -0.003 C 
ATOM     11  C   UNL     1      59.834  27.831  49.086  1.00  0.00     0.004 C 
ENDBRANCH   9  10
ENDBRANCH   8   9
ENDBRANCH   1   8
TORSDOF 6
ENDMDL
MODEL 8
REMARK VINA RESULT:    -3.396     13.063     14.372
REMARK INTER + INTRA:          -4.865
REMARK INTER:                  -4.563
REMARK INTRA:                  -0.302
REMARK UNBOUND:                -0.278
REMARK SMILES CCCCCCC=CC(=O)[O-]
REMARK SMILES IDX 5 1 6 2 7 3 8 4 9 5 10 6 11 7 4 8 3 9 2 10 1 11
REMARK H PARENT
REMARK Flexibility Score: inf
ROOT
ATOM      1  C   UNL     1      57.226  26.027  50.893  1.00  0.00     0.004 C 
ENDROOT
BRANCH   1   2
ATOM      2  C   UNL     1      58.398  25.596  50.002  1.00  0.00     0.027 C 
BRANCH   2   3
ATOM      3  C   UNL     1      59.367  26.724  49.796  1.00  0.00    -0.025 C 
ATOM      4  C   UNL     1      60.674  26.500  49.621  1.00  0.00     0.020 C 
BRANCH   4   5
ATOM      5  C   UNL     1      61.632  27.594  49.405  1.00  0.00     0.064 C 
ATOM      6  O   UNL     1      62.711  27.363  48.799  1.00  0.00    -0.545 OA
ATOM      7  O   UNL     1      61.365  28.880  49.858  1.00  0.00    -0.545 OA
ENDBRANCH   4   5
ENDBRANCH   2   3
ENDBRANCH   1   2
BRANCH   1   8
ATOM      8  C   UNL     1      56.565  27.303  50.350  1.00  0.00     0.000 C 
BRANCH   8   9
ATOM      9  C   UNL     1      55.073  27.113  50.022  1.00  0.00    -0.000 C 
BRANCH   9  10
ATOM     10  C   UNL     1      54.735  25.805  49.283  1.00  0.00    -0.003 C 
ATOM     11  C   UNL     1      53.238  25.631  49.029  1.00  0.00     0.004 C 
ENDBRANCH   9  10
ENDBRANCH   8   9
ENDBRANCH   1   8
TORSDOF 6
ENDMDL
