MODEL 1
REMARK VINA RESULT:    -3.348      0.000      0.000
REMARK INTER + INTRA:          -8.954
REMARK INTER:                  -6.480
REMARK INTRA:                  -2.474
REMARK UNBOUND:                -2.474
REMARK SMILES CCCCCCCCCCCCCCCCCC(=O)[O-]
REMARK SMILES IDX 10 1 11 2 12 3 13 4 14 5 15 6 16 7 17 8 18 9 19 10 20 11
REMARK SMILES IDX 9 12 8 13 7 14 6 15 5 16 4 17 3 18 2 19 1 20
REMARK H PARENT
REMARK Flexibility Score: inf
ROOT
ATOM      1  C   UNL     1      59.893  34.249  60.399  1.00  0.00     0.000 C 
ENDROOT
BRANCH   1   2
ATOM      2  C   UNL     1      60.822  33.033  60.540  1.00  0.00     0.000 C 
BRANCH   2   3
ATOM      3  C   UNL     1      60.544  31.950  59.485  1.00  0.00     0.000 C 
BRANCH   3   4
ATOM      4  C   UNL     1      60.950  30.563  60.005  1.00  0.00     0.000 C 
BRANCH   4   5
ATOM      5  C   UNL     1      61.395  30.579  61.479  1.00  0.00     0.000 C 
BRANCH   5   6
ATOM      6  C   UNL     1      62.340  29.434  61.887  1.00  0.00     0.000 C 
BRANCH   6   7
ATOM      7  C   UNL     1      61.945  28.081  61.270  1.00  0.00     0.006 C 
BRANCH   7   8
ATOM      8  C   UNL     1      63.162  27.181  61.021  1.00  0.00     0.053 C 
BRANCH   8   9
ATOM      9  C   UNL     1      64.205  27.868  60.193  1.00  0.00     0.041 C 
ATOM     10  O   UNL     1      63.965  28.174  58.996  1.00  0.00    -0.550 OA
ATOM     11  O   UNL     1      65.450  28.155  60.740  1.00  0.00    -0.550 OA
ENDBRANCH   8   9
ENDBRANCH   7   8
ENDBRANCH   6   7
ENDBRANCH   5   6
ENDBRANCH   4   5
ENDBRANCH   3   4
ENDBRANCH   2   3
ENDBRANCH   1   2
BRANCH   1  12
ATOM     12  C   UNL     1      60.648  35.584  60.491  1.00  0.00     0.000 C 
BRANCH  12  13
ATOM     13  C   UNL     1      62.140  35.393  60.181  1.00  0.00    -0.000 C 
BRANCH  13  14
ATOM     14  C   UNL     1      63.060  35.890  61.311  1.00  0.00    -0.000 C 
BRANCH  14  15
ATOM     15  C   UNL     1      64.302  35.020  61.578  1.00  0.00    -0.000 C 
BRANCH  15  16
ATOM     16  C   UNL     1      64.583  34.012  60.450  1.00  0.00    -0.000 C 
BRANCH  16  17
ATOM     17  C   UNL     1      64.436  32.548  60.902  1.00  0.00    -0.000 C 
BRANCH  17  18
ATOM     18  C   UNL     1      64.809  31.493  59.844  1.00  0.00    -0.000 C 
BRANCH  18  19
ATOM     19  C   UNL     1      64.199  31.783  58.466  1.00  0.00    -0.003 C 
ATOM     20  C   UNL     1      65.285  31.936  57.405  1.00  0.00     0.004 C 
ENDBRANCH  18  19
ENDBRANCH  17  18
ENDBRANCH  16  17
ENDBRANCH  15  16
ENDBRANCH  14  15
ENDBRANCH  13  14
ENDBRANCH  12  13
ENDBRANCH   1  12
TORSDOF 16
ENDMDL
MODEL 2
REMARK VINA RESULT:    -3.261     10.167     12.352
REMARK INTER + INTRA:          -8.785
REMARK INTER:                  -5.710
REMARK INTRA:                  -3.075
REMARK UNBOUND:                -2.474
REMARK SMILES CCCCCCCCCCCCCCCCCC(=O)[O-]
REMARK SMILES IDX 10 1 11 2 12 3 13 4 14 5 15 6 16 7 17 8 18 9 19 10 20 11
REMARK SMILES IDX 9 12 8 13 7 14 6 15 5 16 4 17 3 18 2 19 1 20
REMARK H PARENT
REMARK Flexibility Score: inf
ROOT
ATOM      1  C   UNL     1      58.992  27.460  53.427  1.00  0.00     0.000 C 
ENDROOT
BRANCH   1   2
ATOM      2  C   UNL     1      58.063  28.337  52.572  1.00  0.00     0.000 C 
BRANCH   2   3
ATOM      3  C   UNL     1      58.828  29.160  51.524  1.00  0.00     0.000 C 
BRANCH   3   4
ATOM      4  C   UNL     1      58.409  28.760  50.101  1.00  0.00     0.000 C 
BRANCH   4   5
ATOM      5  C   UNL     1      59.472  27.914  49.377  1.00  0.00     0.000 C 
BRANCH   5   6
ATOM      6  C   UNL     1      59.408  26.403  49.661  1.00  0.00     0.000 C 
BRANCH   6   7
ATOM      7  C   UNL     1      60.588  25.902  50.513  1.00  0.00     0.006 C 
BRANCH   7   8
ATOM      8  C   UNL     1      60.287  24.555  51.184  1.00  0.00     0.053 C 
BRANCH   8   9
ATOM      9  C   UNL     1      61.017  23.427  50.522  1.00  0.00     0.041 C 
ATOM     10  O   UNL     1      60.381  22.434  50.080  1.00  0.00    -0.550 OA
ATOM     11  O   UNL     1      62.401  23.463  50.410  1.00  0.00    -0.550 OA
ENDBRANCH   8   9
ENDBRANCH   7   8
ENDBRANCH   6   7
ENDBRANCH   5   6
ENDBRANCH   4   5
ENDBRANCH   3   4
ENDBRANCH   2   3
ENDBRANCH   1   2
BRANCH   1  12
ATOM     12  C   UNL     1      58.220  26.546  54.391  1.00  0.00     0.000 C 
BRANCH  12  13
ATOM     13  C   UNL     1      56.707  26.637  54.140  1.00  0.00    -0.000 C 
BRANCH  13  14
ATOM     14  C   UNL     1      56.041  25.259  53.968  1.00  0.00    -0.000 C 
BRANCH  14  15
ATOM     15  C   UNL     1      55.405  25.004  52.589  1.00  0.00    -0.000 C 
BRANCH  15  16
ATOM     16  C   UNL     1      56.405  25.157  51.430  1.00  0.00    -0.000 C 
BRANCH  16  17
ATOM     17  C   UNL     1      55.807  25.889  50.214  1.00  0.00    -0.000 C 
BRANCH  17  18
ATOM     18  C   UNL     1      54.563  26.747  50.510  1.00  0.00    -0.000 C 
BRANCH  18  19
ATOM     19  C   UNL     1      54.881  28.244  50.633  1.00  0.00    -0.003 C 
ATOM     20  C   UNL     1      54.453  28.787  51.993  1.00  0.00     0.004 C 
ENDBRANCH  18  19
ENDBRANCH  17  18
ENDBRANCH  16  17
ENDBRANCH  15  16
ENDBRANCH  14  15
ENDBRANCH  13  14
ENDBRANCH  12  13
ENDBRANCH   1  12
TORSDOF 16
ENDMDL
MODEL 3
REMARK VINA RESULT:    -3.253     10.911     12.448
REMARK INTER + INTRA:          -8.770
REMARK INTER:                  -6.283
REMARK INTRA:                  -2.487
REMARK UNBOUND:                -2.474
REMARK SMILES CCCCCCCCCCCCCCCCCC(=O)[O-]
REMARK SMILES IDX 10 1 11 2 12 3 13 4 14 5 15 6 16 7 17 8 18 9 19 10 20 11
REMARK SMILES IDX 9 12 8 13 7 14 6 15 5 16 4 17 3 18 2 19 1 20
REMARK H PARENT
REMARK Flexibility Score: inf
ROOT
ATOM      1  C   UNL     1      53.688  26.842  50.982  1.00  0.00     0.000 C 
ENDROOT
BRANCH   1   2
ATOM      2  C   UNL     1      54.136  25.817  49.929  1.00  0.00     0.000 C 
BRANCH   2   3
ATOM      3  C   UNL     1      55.545  25.268  50.199  1.00  0.00     0.000 C 
BRANCH   3   4
ATOM      4  C   UNL     1      55.708  24.881  51.677  1.00  0.00     0.000 C 
BRANCH   4   5
ATOM      5  C   UNL     1      57.157  25.020  52.179  1.00  0.00     0.000 C 
BRANCH   5   6
ATOM      6  C   UNL     1      58.241  24.851  51.098  1.00  0.00     0.000 C 
BRANCH   6   7
ATOM      7  C   UNL     1      59.456  24.045  51.590  1.00  0.00     0.006 C 
BRANCH   7   8
ATOM      8  C   UNL     1      60.211  23.373  50.435  1.00  0.00     0.053 C 
BRANCH   8   9
ATOM      9  C   UNL     1      60.385  21.902  50.663  1.00  0.00     0.041 C 
ATOM     10  O   UNL     1      60.556  21.457  51.828  1.00  0.00    -0.550 OA
ATOM     11  O   UNL     1      60.377  21.025  49.585  1.00  0.00    -0.550 OA
ENDBRANCH   8   9
ENDBRANCH   7   8
ENDBRANCH   6   7
ENDBRANCH   5   6
ENDBRANCH   4   5
ENDBRANCH   3   4
ENDBRANCH   2   3
ENDBRANCH   1   2
BRANCH   1  12
ATOM     12  C   UNL     1      53.518  28.253  50.400  1.00  0.00     0.000 C 
BRANCH  12  13
ATOM     13  C   UNL     1      54.697  29.155  50.794  1.00  0.00    -0.000 C 
BRANCH  13  14
ATOM     14  C   UNL     1      55.633  28.506  51.831  1.00  0.00    -0.000 C 
BRANCH  14  15
ATOM     15  C   UNL     1      57.138  28.695  51.566  1.00  0.00    -0.000 C 
BRANCH  15  16
ATOM     16  C   UNL     1      57.552  28.297  50.139  1.00  0.00    -0.000 C 
BRANCH  16  17
ATOM     17  C   UNL     1      59.000  28.695  49.801  1.00  0.00    -0.000 C 
BRANCH  17  18
ATOM     18  C   UNL     1      60.005  27.530  49.744  1.00  0.00    -0.000 C 
BRANCH  18  19
ATOM     19  C   UNL     1      61.234  27.753  50.636  1.00  0.00    -0.003 C 
ATOM     20  C   UNL     1      60.959  27.315  52.071  1.00  0.00     0.004 C 
ENDBRANCH  18  19
ENDBRANCH  17  18
ENDBRANCH  16  17
ENDBRANCH  15  16
ENDBRANCH  14  15
ENDBRANCH  13  14
ENDBRANCH  12  13
ENDBRANCH   1  12
TORSDOF 16
ENDMDL
MODEL 4
REMARK VINA RESULT:    -3.198     10.216     12.173
REMARK INTER + INTRA:          -8.664
REMARK INTER:                  -6.115
REMARK INTRA:                  -2.549
REMARK UNBOUND:                -2.474
REMARK SMILES CCCCCCCCCCCCCCCCCC(=O)[O-]
REMARK SMILES IDX 10 1 11 2 12 3 13 4 14 5 15 6 16 7 17 8 18 9 19 10 20 11
REMARK SMILES IDX 9 12 8 13 7 14 6 15 5 16 4 17 3 18 2 19 1 20
REMARK H PARENT
REMARK Flexibility Score: inf
ROOT
ATOM      1  C   UNL     1      53.185  26.965  50.833  1.00  0.00     0.000 C 
ENDROOT
BRANCH   1   2
ATOM      2  C   UNL     1      53.241  25.886  49.740  1.00  0.00     0.000 C 
BRANCH   2   3
ATOM      3  C   UNL     1      54.613  25.199  49.658  1.00  0.00     0.000 C 
BRANCH   3   4
ATOM      4  C   UNL     1      55.503  25.609  50.841  1.00  0.00     0.000 C 
BRANCH   4   5
ATOM      5  C   UNL     1      56.842  26.227  50.400  1.00  0.00     0.000 C 
BRANCH   5   6
ATOM      6  C   UNL     1      57.376  27.347  51.312  1.00  0.00     0.000 C 
BRANCH   6   7
ATOM      7  C   UNL     1      57.794  28.606  50.534  1.00  0.00     0.006 C 
BRANCH   7   8
ATOM      8  C   UNL     1      58.843  28.299  49.456  1.00  0.00     0.053 C 
BRANCH   8   9
ATOM      9  C   UNL     1      60.141  27.850  50.052  1.00  0.00     0.041 C 
ATOM     10  O   UNL     1      60.549  26.673  49.871  1.00  0.00    -0.550 OA
ATOM     11  O   UNL     1      60.893  28.727  50.825  1.00  0.00    -0.550 OA
ENDBRANCH   8   9
ENDBRANCH   7   8
ENDBRANCH   6   7
ENDBRANCH   5   6
ENDBRANCH   4   5
ENDBRANCH   3   4
ENDBRANCH   2   3
ENDBRANCH   1   2
BRANCH   1  12
ATOM     12  C   UNL     1      53.037  28.382  50.258  1.00  0.00     0.000 C 
BRANCH  12  13
ATOM     13  C   UNL     1      54.200  29.279  50.706  1.00  0.00    -0.000 C 
BRANCH  13  14
ATOM     14  C   UNL     1      53.798  30.290  51.795  1.00  0.00    -0.000 C 
BRANCH  14  15
ATOM     15  C   UNL     1      54.661  30.261  53.070  1.00  0.00    -0.000 C 
BRANCH  15  16
ATOM     16  C   UNL     1      54.851  28.843  53.635  1.00  0.00    -0.000 C 
BRANCH  16  17
ATOM     17  C   UNL     1      56.151  28.687  54.445  1.00  0.00    -0.000 C 
BRANCH  17  18
ATOM     18  C   UNL     1      56.964  29.981  54.636  1.00  0.00    -0.000 C 
BRANCH  18  19
ATOM     19  C   UNL     1      58.282  29.983  53.847  1.00  0.00    -0.003 C 
ATOM     20  C   UNL     1      58.528  31.339  53.192  1.00  0.00     0.004 C 
ENDBRANCH  18  19
ENDBRANCH  17  18
ENDBRANCH  16  17
ENDBRANCH  15  16
ENDBRANCH  14  15
ENDBRANCH  13  14
ENDBRANCH  12  13
ENDBRANCH   1  12
TORSDOF 16
ENDMDL
MODEL 5
REMARK VINA RESULT:    -3.196      2.716      5.994
REMARK INTER + INTRA:          -8.659
REMARK INTER:                  -5.557
REMARK INTRA:                  -3.101
REMARK UNBOUND:                -2.474
REMARK SMILES CCCCCCCCCCCCCCCCCC(=O)[O-]
REMARK SMILES IDX 10 1 11 2 12 3 13 4 14 5 15 6 16 7 17 8 18 9 19 10 20 11
REMARK SMILES IDX 9 12 8 13 7 14 6 15 5 16 4 17 3 18 2 19 1 20
REMARK H PARENT
REMARK Flexibility Score: inf
ROOT
ATOM      1  C   UNL     1      63.988  31.874  58.245  1.00  0.00     0.000 C 
ENDROOT
BRANCH   1   2
ATOM      2  C   UNL     1      64.975  31.862  59.423  1.00  0.00     0.000 C 
BRANCH   2   3
ATOM      3  C   UNL     1      64.551  32.803  60.561  1.00  0.00     0.000 C 
BRANCH   3   4
ATOM      4  C   UNL     1      63.687  33.954  60.026  1.00  0.00     0.000 C 
BRANCH   4   5
ATOM      5  C   UNL     1      62.492  34.284  60.939  1.00  0.00     0.000 C 
BRANCH   5   6
ATOM      6  C   UNL     1      62.019  35.749  60.891  1.00  0.00     0.000 C 
BRANCH   6   7
ATOM      7  C   UNL     1      60.565  35.894  60.409  1.00  0.00     0.006 C 
BRANCH   7   8
ATOM      8  C   UNL     1      59.844  34.541  60.330  1.00  0.00     0.053 C 
BRANCH   8   9
ATOM      9  C   UNL     1      59.202  34.328  58.993  1.00  0.00     0.041 C 
ATOM     10  O   UNL     1      57.956  34.177  58.905  1.00  0.00    -0.550 OA
ATOM     11  O   UNL     1      59.984  34.279  57.845  1.00  0.00    -0.550 OA
ENDBRANCH   8   9
ENDBRANCH   7   8
ENDBRANCH   6   7
ENDBRANCH   5   6
ENDBRANCH   4   5
ENDBRANCH   3   4
ENDBRANCH   2   3
ENDBRANCH   1   2
BRANCH   1  12
ATOM     12  C   UNL     1      63.613  30.462  57.772  1.00  0.00     0.000 C 
BRANCH  12  13
ATOM     13  C   UNL     1      62.094  30.246  57.840  1.00  0.00    -0.000 C 
BRANCH  13  14
ATOM     14  C   UNL     1      61.399  31.165  58.861  1.00  0.00    -0.000 C 
BRANCH  14  15
ATOM     15  C   UNL     1      60.801  30.451  60.088  1.00  0.00    -0.000 C 
BRANCH  15  16
ATOM     16  C   UNL     1      61.530  30.798  61.398  1.00  0.00    -0.000 C 
BRANCH  16  17
ATOM     17  C   UNL     1      62.702  29.846  61.703  1.00  0.00    -0.000 C 
BRANCH  17  18
ATOM     18  C   UNL     1      62.455  28.367  61.353  1.00  0.00    -0.000 C 
BRANCH  18  19
ATOM     19  C   UNL     1      63.488  27.803  60.368  1.00  0.00    -0.003 C 
ATOM     20  C   UNL     1      64.874  28.384  60.630  1.00  0.00     0.004 C 
ENDBRANCH  18  19
ENDBRANCH  17  18
ENDBRANCH  16  17
ENDBRANCH  15  16
ENDBRANCH  14  15
ENDBRANCH  13  14
ENDBRANCH  12  13
ENDBRANCH   1  12
TORSDOF 16
ENDMDL
MODEL 6
REMARK VINA RESULT:    -3.187     10.132     12.275
REMARK INTER + INTRA:          -8.642
REMARK INTER:                  -5.974
REMARK INTRA:                  -2.668
REMARK UNBOUND:                -2.474
REMARK SMILES CCCCCCCCCCCCCCCCCC(=O)[O-]
REMARK SMILES IDX 10 1 11 2 12 3 13 4 14 5 15 6 16 7 17 8 18 9 19 10 20 11
REMARK SMILES IDX 9 12 8 13 7 14 6 15 5 16 4 17 3 18 2 19 1 20
REMARK H PARENT
REMARK Flexibility Score: inf
ROOT
ATOM      1  C   UNL     1      57.566  28.345  52.126  1.00  0.00     0.000 C 
ENDROOT
BRANCH   1   2
ATOM      2  C   UNL     1      58.664  28.966  51.248  1.00  0.00     0.000 C 
BRANCH   2   3
ATOM      3  C   UNL     1      58.533  28.572  49.769  1.00  0.00     0.000 C 
BRANCH   3   4
ATOM      4  C   UNL     1      59.641  27.589  49.364  1.00  0.00     0.000 C 
BRANCH   4   5
ATOM      5  C   UNL     1      59.326  26.133  49.753  1.00  0.00     0.000 C 
BRANCH   5   6
ATOM      6  C   UNL     1      60.121  25.591  50.955  1.00  0.00     0.000 C 
BRANCH   6   7
ATOM      7  C   UNL     1      61.634  25.846  50.836  1.00  0.00     0.006 C 
BRANCH   7   8
ATOM      8  C   UNL     1      62.157  26.756  51.956  1.00  0.00     0.053 C 
BRANCH   8   9
ATOM      9  C   UNL     1      62.449  28.139  51.460  1.00  0.00     0.041 C 
ATOM     10  O   UNL     1      63.012  28.308  50.347  1.00  0.00    -0.550 OA
ATOM     11  O   UNL     1      62.116  29.242  52.238  1.00  0.00    -0.550 OA
ENDBRANCH   8   9
ENDBRANCH   7   8
ENDBRANCH   6   7
ENDBRANCH   5   6
ENDBRANCH   4   5
ENDBRANCH   3   4
ENDBRANCH   2   3
ENDBRANCH   1   2
BRANCH   1  12
ATOM     12  C   UNL     1      56.537  29.380  52.606  1.00  0.00     0.000 C 
BRANCH  12  13
ATOM     13  C   UNL     1      55.114  28.968  52.199  1.00  0.00    -0.000 C 
BRANCH  13  14
ATOM     14  C   UNL     1      54.993  28.605  50.707  1.00  0.00    -0.000 C 
BRANCH  14  15
ATOM     15  C   UNL     1      53.730  27.812  50.324  1.00  0.00    -0.000 C 
BRANCH  15  16
ATOM     16  C   UNL     1      54.006  26.314  50.106  1.00  0.00    -0.000 C 
BRANCH  16  17
ATOM     17  C   UNL     1      55.508  25.981  50.058  1.00  0.00    -0.000 C 
BRANCH  17  18
ATOM     18  C   UNL     1      56.043  25.186  51.263  1.00  0.00    -0.000 C 
BRANCH  18  19
ATOM     19  C   UNL     1      54.969  24.906  52.323  1.00  0.00    -0.003 C 
ATOM     20  C   UNL     1      55.329  25.555  53.656  1.00  0.00     0.004 C 
ENDBRANCH  18  19
ENDBRANCH  17  18
ENDBRANCH  16  17
ENDBRANCH  15  16
ENDBRANCH  14  15
ENDBRANCH  13  14
ENDBRANCH  12  13
ENDBRANCH   1  12
TORSDOF 16
ENDMDL
MODEL 7
REMARK VINA RESULT:    -3.169      2.914      6.436
REMARK INTER + INTRA:          -8.608
REMARK INTER:                  -5.745
REMARK INTRA:                  -2.863
REMARK UNBOUND:                -2.474
REMARK SMILES CCCCCCCCCCCCCCCCCC(=O)[O-]
REMARK SMILES IDX 10 1 11 2 12 3 13 4 14 5 15 6 16 7 17 8 18 9 19 10 20 11
REMARK SMILES IDX 9 12 8 13 7 14 6 15 5 16 4 17 3 18 2 19 1 20
REMARK H PARENT
REMARK Flexibility Score: inf
ROOT
ATOM      1  C   UNL     1      65.039  31.669  59.475  1.00  0.00     0.000 C 
ENDROOT
BRANCH   1   2
ATOM      2  C   UNL     1      64.523  32.513  60.651  1.00  0.00     0.000 C 
BRANCH   2   3
ATOM      3  C   UNL     1      64.142  33.941  60.233  1.00  0.00     0.000 C 
BRANCH   3   4
ATOM      4  C   UNL     1      63.182  34.573  61.253  1.00  0.00     0.000 C 
BRANCH   4   5
ATOM      5  C   UNL     1      62.710  35.980  60.844  1.00  0.00     0.000 C 
BRANCH   5   6
ATOM      6  C   UNL     1      61.190  36.125  60.641  1.00  0.00     0.000 C 
BRANCH   6   7
ATOM      7  C   UNL     1      60.620  35.110  59.635  1.00  0.00     0.006 C 
BRANCH   7   8
ATOM      8  C   UNL     1      59.131  34.827  59.879  1.00  0.00     0.053 C 
BRANCH   8   9
ATOM      9  C   UNL     1      58.420  34.453  58.614  1.00  0.00     0.041 C 
ATOM     10  O   UNL     1      58.102  35.340  57.779  1.00  0.00    -0.550 OA
ATOM     11  O   UNL     1      58.091  33.125  58.367  1.00  0.00    -0.550 OA
ENDBRANCH   8   9
ENDBRANCH   7   8
ENDBRANCH   6   7
ENDBRANCH   5   6
ENDBRANCH   4   5
ENDBRANCH   3   4
ENDBRANCH   2   3
ENDBRANCH   1   2
BRANCH   1  12
ATOM     12  C   UNL     1      65.322  30.213  59.871  1.00  0.00     0.000 C 
BRANCH  12  13
ATOM     13  C   UNL     1      64.383  29.250  59.129  1.00  0.00    -0.000 C 
BRANCH  13  14
ATOM     14  C   UNL     1      63.669  28.259  60.067  1.00  0.00    -0.000 C 
BRANCH  14  15
ATOM     15  C   UNL     1      63.140  28.864  61.381  1.00  0.00    -0.000 C 
BRANCH  15  16
ATOM     16  C   UNL     1      61.684  29.350  61.274  1.00  0.00    -0.000 C 
BRANCH  16  17
ATOM     17  C   UNL     1      61.510  30.820  61.699  1.00  0.00    -0.000 C 
BRANCH  17  18
ATOM     18  C   UNL     1      60.884  31.741  60.636  1.00  0.00    -0.000 C 
BRANCH  18  19
ATOM     19  C   UNL     1      60.791  31.084  59.252  1.00  0.00    -0.003 C 
ATOM     20  C   UNL     1      61.596  31.866  58.217  1.00  0.00     0.004 C 
ENDBRANCH  18  19
ENDBRANCH  17  18
ENDBRANCH  16  17
ENDBRANCH  15  16
ENDBRANCH  14  15
ENDBRANCH  13  14
ENDBRANCH  12  13
ENDBRANCH   1  12
TORSDOF 16
ENDMDL
MODEL 8
REMARK VINA RESULT:    -3.145     10.128     12.134
REMARK INTER + INTRA:          -8.560
REMARK INTER:                  -5.376
REMARK INTRA:                  -3.184
REMARK UNBOUND:                -2.474
REMARK SMILES CCCCCCCCCCCCCCCCCC(=O)[O-]
REMARK SMILES IDX 10 1 11 2 12 3 13 4 14 5 15 6 16 7 17 8 18 9 19 10 20 11
REMARK SMILES IDX 9 12 8 13 7 14 6 15 5 16 4 17 3 18 2 19 1 20
REMARK H PARENT
REMARK Flexibility Score: inf
ROOT
ATOM      1  C   UNL     1      60.455  25.796  50.452  1.00  0.00     0.000 C 
ENDROOT
BRANCH   1   2
ATOM      2  C   UNL     1      59.031  25.241  50.285  1.00  0.00     0.000 C 
BRANCH   2   3
ATOM      3  C   UNL     1      58.405  24.806  51.618  1.00  0.00     0.000 C 
BRANCH   3   4
ATOM      4  C   UNL     1      56.883  25.007  51.600  1.00  0.00     0.000 C 
BRANCH   4   5
ATOM      5  C   UNL     1      56.374  25.634  50.289  1.00  0.00     0.000 C 
BRANCH   5   6
ATOM      6  C   UNL     1      54.849  25.826  50.206  1.00  0.00     0.000 C 
BRANCH   6   7
ATOM      7  C   UNL     1      54.430  27.307  50.205  1.00  0.00     0.006 C 
BRANCH   7   8
ATOM      8  C   UNL     1      53.515  27.650  51.389  1.00  0.00     0.053 C 
BRANCH   8   9
ATOM      9  C   UNL     1      54.222  28.475  52.420  1.00  0.00     0.041 C 
ATOM     10  O   UNL     1      54.411  29.705  52.227  1.00  0.00    -0.550 OA
ATOM     11  O   UNL     1      54.688  27.881  53.587  1.00  0.00    -0.550 OA
ENDBRANCH   8   9
ENDBRANCH   7   8
ENDBRANCH   6   7
ENDBRANCH   5   6
ENDBRANCH   4   5
ENDBRANCH   3   4
ENDBRANCH   2   3
ENDBRANCH   1   2
BRANCH   1  12
ATOM     12  C   UNL     1      60.651  27.145  49.744  1.00  0.00     0.000 C 
BRANCH  12  13
ATOM     13  C   UNL     1      59.298  27.766  49.364  1.00  0.00    -0.000 C 
BRANCH  13  14
ATOM     14  C   UNL     1      58.893  28.937  50.279  1.00  0.00    -0.000 C 
BRANCH  14  15
ATOM     15  C   UNL     1      57.697  28.660  51.210  1.00  0.00    -0.000 C 
BRANCH  15  16
ATOM     16  C   UNL     1      57.940  29.130  52.655  1.00  0.00    -0.000 C 
BRANCH  16  17
ATOM     17  C   UNL     1      58.267  27.972  53.615  1.00  0.00    -0.000 C 
BRANCH  17  18
ATOM     18  C   UNL     1      59.736  27.511  53.611  1.00  0.00    -0.000 C 
BRANCH  18  19
ATOM     19  C   UNL     1      60.722  28.643  53.932  1.00  0.00    -0.003 C 
ATOM     20  C   UNL     1      61.683  28.881  52.771  1.00  0.00     0.004 C 
ENDBRANCH  18  19
ENDBRANCH  17  18
ENDBRANCH  16  17
ENDBRANCH  15  16
ENDBRANCH  14  15
ENDBRANCH  13  14
ENDBRANCH  12  13
ENDBRANCH   1  12
TORSDOF 16
ENDMDL
MODEL 9
REMARK VINA RESULT:    -3.077     10.334     12.301
REMARK INTER + INTRA:          -8.430
REMARK INTER:                  -5.276
REMARK INTRA:                  -3.154
REMARK UNBOUND:                -2.474
REMARK SMILES CCCCCCCCCCCCCCCCCC(=O)[O-]
REMARK SMILES IDX 10 1 11 2 12 3 13 4 14 5 15 6 16 7 17 8 18 9 19 10 20 11
REMARK SMILES IDX 9 12 8 13 7 14 6 15 5 16 4 17 3 18 2 19 1 20
REMARK H PARENT
REMARK Flexibility Score: inf
ROOT
ATOM      1  C   UNL     1      58.041  26.858  53.390  1.00  0.00     0.000 C 
ENDROOT
BRANCH   1   2
ATOM      2  C   UNL     1      56.866  25.919  53.071  1.00  0.00     0.000 C 
BRANCH   2   3
ATOM      3  C   UNL     1      57.154  24.994  51.879  1.00  0.00     0.000 C 
BRANCH   3   4
ATOM      4  C   UNL     1      56.515  25.542  50.594  1.00  0.00     0.000 C 
BRANCH   4   5
ATOM      5  C   UNL     1      55.100  26.105  50.818  1.00  0.00     0.000 C 
BRANCH   5   6
ATOM      6  C   UNL     1      54.856  27.508  50.233  1.00  0.00     0.000 C 
BRANCH   6   7
ATOM      7  C   UNL     1      53.651  28.222  50.870  1.00  0.00     0.006 C 
BRANCH   7   8
ATOM      8  C   UNL     1      53.741  28.254  52.402  1.00  0.00     0.053 C 
BRANCH   8   9
ATOM      9  C   UNL     1      53.893  29.651  52.922  1.00  0.00     0.041 C 
ATOM     10  O   UNL     1      54.036  29.856  54.156  1.00  0.00    -0.550 OA
ATOM     11  O   UNL     1      53.859  30.728  52.045  1.00  0.00    -0.550 OA
ENDBRANCH   8   9
ENDBRANCH   7   8
ENDBRANCH   6   7
ENDBRANCH   5   6
ENDBRANCH   4   5
ENDBRANCH   3   4
ENDBRANCH   2   3
ENDBRANCH   1   2
BRANCH   1  12
ATOM     12  C   UNL     1      57.599  28.317  53.574  1.00  0.00     0.000 C 
BRANCH  12  13
ATOM     13  C   UNL     1      57.439  29.017  52.216  1.00  0.00    -0.000 C 
BRANCH  13  14
ATOM     14  C   UNL     1      58.715  28.965  51.356  1.00  0.00    -0.000 C 
BRANCH  14  15
ATOM     15  C   UNL     1      58.495  28.596  49.877  1.00  0.00    -0.000 C 
BRANCH  15  16
ATOM     16  C   UNL     1      59.613  27.706  49.307  1.00  0.00    -0.000 C 
BRANCH  16  17
ATOM     17  C   UNL     1      60.232  26.771  50.363  1.00  0.00    -0.000 C 
BRANCH  17  18
ATOM     18  C   UNL     1      60.112  25.266  50.058  1.00  0.00    -0.000 C 
BRANCH  18  19
ATOM     19  C   UNL     1      60.924  24.392  51.024  1.00  0.00    -0.003 C 
ATOM     20  C   UNL     1      61.079  25.070  52.382  1.00  0.00     0.004 C 
ENDBRANCH  18  19
ENDBRANCH  17  18
ENDBRANCH  16  17
ENDBRANCH  15  16
ENDBRANCH  14  15
ENDBRANCH  13  14
ENDBRANCH  12  13
ENDBRANCH   1  12
TORSDOF 16
ENDMDL
