MODEL 1
REMARK VINA RESULT:    -4.781      0.000      0.000
REMARK INTER + INTRA:         -10.113
REMARK INTER:                  -8.695
REMARK INTRA:                  -1.418
REMARK UNBOUND:                -1.418
REMARK SMILES CCCCCCCCCCCCCC[C@@H](C)C(=O)[O-]
REMARK SMILES IDX 9 1 10 2 11 3 12 4 13 5 14 6 15 7 16 8 17 9 18 10 19 11 8 12
REMARK SMILES IDX 7 13 6 14 5 15 4 16 3 17 2 18 1 19
REMARK H PARENT
REMARK Flexibility Score: inf
ROOT
ATOM      1  C   UNL     1      -1.076 -34.364  45.936  1.00  0.00     0.000 C 
ENDROOT
BRANCH   1   2
ATOM      2  C   UNL     1      -2.583 -34.122  46.084  1.00  0.00     0.000 C 
BRANCH   2   3
ATOM      3  C   UNL     1      -3.019 -34.250  47.552  1.00  0.00     0.000 C 
BRANCH   3   4
ATOM      4  C   UNL     1      -3.640 -35.620  47.865  1.00  0.00     0.000 C 
BRANCH   4   5
ATOM      5  C   UNL     1      -5.166 -35.550  48.050  1.00  0.00     0.001 C 
BRANCH   5   6
ATOM      6  C   UNL     1      -5.943 -35.990  46.794  1.00  0.00     0.009 C 
BRANCH   6   7
ATOM      7  C   UNL     1      -6.670 -34.849  46.046  1.00  0.00     0.032 C 
ATOM      8  C   UNL     1      -6.624 -33.521  46.813  1.00  0.00     0.014 C 
BRANCH   7   9
ATOM      9  C   UNL     1      -6.051 -34.669  44.686  1.00  0.00     0.044 C 
ATOM     10  O   UNL     1      -6.396 -33.701  43.957  1.00  0.00    -0.550 OA
ATOM     11  O   UNL     1      -5.107 -35.576  44.219  1.00  0.00    -0.550 OA
ENDBRANCH   7   9
ENDBRANCH   6   7
ENDBRANCH   5   6
ENDBRANCH   4   5
ENDBRANCH   3   4
ENDBRANCH   2   3
ENDBRANCH   1   2
BRANCH   1  12
ATOM     12  C   UNL     1      -0.798 -35.769  45.380  1.00  0.00     0.000 C 
BRANCH  12  13
ATOM     13  C   UNL     1       0.522 -35.845  44.596  1.00  0.00    -0.000 C 
BRANCH  13  14
ATOM     14  C   UNL     1       1.159 -34.465  44.373  1.00  0.00    -0.000 C 
BRANCH  14  15
ATOM     15  C   UNL     1       2.657 -34.493  44.698  1.00  0.00    -0.000 C 
BRANCH  15  16
ATOM     16  C   UNL     1       2.893 -34.745  46.195  1.00  0.00    -0.000 C 
BRANCH  16  17
ATOM     17  C   UNL     1       2.335 -33.606  47.075  1.00  0.00    -0.000 C 
BRANCH  17  18
ATOM     18  C   UNL     1       3.418 -32.851  47.864  1.00  0.00    -0.003 C 
ATOM     19  C   UNL     1       2.897 -31.579  48.527  1.00  0.00     0.004 C 
ENDBRANCH  17  18
ENDBRANCH  16  17
ENDBRANCH  15  16
ENDBRANCH  14  15
ENDBRANCH  13  14
ENDBRANCH  12  13
ENDBRANCH   1  12
TORSDOF 14
ENDMDL
MODEL 2
REMARK VINA RESULT:    -4.566      3.331      7.898
REMARK INTER + INTRA:          -9.722
REMARK INTER:                  -8.169
REMARK INTRA:                  -1.553
REMARK UNBOUND:                -1.418
REMARK SMILES CCCCCCCCCCCCCC[C@@H](C)C(=O)[O-]
REMARK SMILES IDX 9 1 10 2 11 3 12 4 13 5 14 6 15 7 16 8 17 9 18 10 19 11 8 12
REMARK SMILES IDX 7 13 6 14 5 15 4 16 3 17 2 18 1 19
REMARK H PARENT
REMARK Flexibility Score: inf
ROOT
ATOM      1  C   UNL     1      -2.421 -35.192  45.892  1.00  0.00     0.000 C 
ENDROOT
BRANCH   1   2
ATOM      2  C   UNL     1      -0.988 -34.976  45.391  1.00  0.00     0.000 C 
BRANCH   2   3
ATOM      3  C   UNL     1      -0.406 -36.275  44.812  1.00  0.00     0.000 C 
BRANCH   3   4
ATOM      4  C   UNL     1       1.011 -36.087  44.249  1.00  0.00     0.000 C 
BRANCH   4   5
ATOM      5  C   UNL     1       1.501 -34.632  44.354  1.00  0.00     0.001 C 
BRANCH   5   6
ATOM      6  C   UNL     1       2.866 -34.508  45.057  1.00  0.00     0.009 C 
BRANCH   6   7
ATOM      7  C   UNL     1       2.942 -35.171  46.453  1.00  0.00     0.032 C 
ATOM      8  C   UNL     1       3.944 -36.332  46.498  1.00  0.00     0.014 C 
BRANCH   7   9
ATOM      9  C   UNL     1       3.319 -34.137  47.477  1.00  0.00     0.044 C 
ATOM     10  O   UNL     1       2.681 -33.053  47.548  1.00  0.00    -0.550 OA
ATOM     11  O   UNL     1       4.384 -34.361  48.343  1.00  0.00    -0.550 OA
ENDBRANCH   7   9
ENDBRANCH   6   7
ENDBRANCH   5   6
ENDBRANCH   4   5
ENDBRANCH   3   4
ENDBRANCH   2   3
ENDBRANCH   1   2
BRANCH   1  12
ATOM     12  C   UNL     1      -3.033 -36.460  45.278  1.00  0.00     0.000 C 
BRANCH  12  13
ATOM     13  C   UNL     1      -4.517 -36.288  44.918  1.00  0.00    -0.000 C 
BRANCH  13  14
ATOM     14  C   UNL     1      -4.854 -34.859  44.465  1.00  0.00    -0.000 C 
BRANCH  14  15
ATOM     15  C   UNL     1      -6.352 -34.574  44.620  1.00  0.00    -0.000 C 
BRANCH  15  16
ATOM     16  C   UNL     1      -6.793 -34.718  46.084  1.00  0.00    -0.000 C 
BRANCH  16  17
ATOM     17  C   UNL     1      -6.534 -33.436  46.902  1.00  0.00    -0.000 C 
BRANCH  17  18
ATOM     18  C   UNL     1      -5.288 -33.520  47.801  1.00  0.00    -0.003 C 
ATOM     19  C   UNL     1      -5.005 -34.934  48.299  1.00  0.00     0.004 C 
ENDBRANCH  17  18
ENDBRANCH  16  17
ENDBRANCH  15  16
ENDBRANCH  14  15
ENDBRANCH  13  14
ENDBRANCH  12  13
ENDBRANCH   1  12
TORSDOF 14
ENDMDL
MODEL 3
REMARK VINA RESULT:    -4.541      3.385      7.833
REMARK INTER + INTRA:          -9.676
REMARK INTER:                  -7.776
REMARK INTRA:                  -1.901
REMARK UNBOUND:                -1.418
REMARK SMILES CCCCCCCCCCCCCC[C@@H](C)C(=O)[O-]
REMARK SMILES IDX 9 1 10 2 11 3 12 4 13 5 14 6 15 7 16 8 17 9 18 10 19 11 8 12
REMARK SMILES IDX 7 13 6 14 5 15 4 16 3 17 2 18 1 19
REMARK H PARENT
REMARK Flexibility Score: inf
ROOT
ATOM      1  C   UNL     1      -1.398 -34.643  45.736  1.00  0.00     0.000 C 
ENDROOT
BRANCH   1   2
ATOM      2  C   UNL     1      -1.016 -36.037  45.225  1.00  0.00     0.000 C 
BRANCH   2   3
ATOM      3  C   UNL     1       0.403 -36.037  44.636  1.00  0.00     0.000 C 
BRANCH   3   4
ATOM      4  C   UNL     1       0.966 -34.619  44.455  1.00  0.00     0.000 C 
BRANCH   4   5
ATOM      5  C   UNL     1       2.426 -34.496  44.926  1.00  0.00     0.001 C 
BRANCH   5   6
ATOM      6  C   UNL     1       2.579 -34.656  46.451  1.00  0.00     0.009 C 
BRANCH   6   7
ATOM      7  C   UNL     1       1.963 -33.511  47.290  1.00  0.00     0.032 C 
ATOM      8  C   UNL     1       1.026 -34.028  48.389  1.00  0.00     0.014 C 
BRANCH   7   9
ATOM      9  C   UNL     1       3.065 -32.695  47.908  1.00  0.00     0.044 C 
ATOM     10  O   UNL     1       2.868 -31.487  48.206  1.00  0.00    -0.550 OA
ATOM     11  O   UNL     1       4.313 -33.262  48.141  1.00  0.00    -0.550 OA
ENDBRANCH   7   9
ENDBRANCH   6   7
ENDBRANCH   5   6
ENDBRANCH   4   5
ENDBRANCH   3   4
ENDBRANCH   2   3
ENDBRANCH   1   2
BRANCH   1  12
ATOM     12  C   UNL     1      -2.318 -34.741  46.962  1.00  0.00     0.000 C 
BRANCH  12  13
ATOM     13  C   UNL     1      -2.967 -33.395  47.326  1.00  0.00    -0.000 C 
BRANCH  13  14
ATOM     14  C   UNL     1      -4.391 -33.556  47.881  1.00  0.00    -0.000 C 
BRANCH  14  15
ATOM     15  C   UNL     1      -4.784 -35.036  47.961  1.00  0.00    -0.000 C 
BRANCH  15  16
ATOM     16  C   UNL     1      -5.932 -35.356  46.992  1.00  0.00    -0.000 C 
BRANCH  16  17
ATOM     17  C   UNL     1      -6.410 -34.109  46.220  1.00  0.00    -0.000 C 
BRANCH  17  18
ATOM     18  C   UNL     1      -6.326 -34.260  44.691  1.00  0.00    -0.003 C 
ATOM     19  C   UNL     1      -5.272 -35.272  44.248  1.00  0.00     0.004 C 
ENDBRANCH  17  18
ENDBRANCH  16  17
ENDBRANCH  15  16
ENDBRANCH  14  15
ENDBRANCH  13  14
ENDBRANCH  12  13
ENDBRANCH   1  12
TORSDOF 14
ENDMDL
MODEL 4
REMARK VINA RESULT:    -4.439      3.161      7.577
REMARK INTER + INTRA:          -9.490
REMARK INTER:                  -7.591
REMARK INTRA:                  -1.900
REMARK UNBOUND:                -1.418
REMARK SMILES CCCCCCCCCCCCCC[C@@H](C)C(=O)[O-]
REMARK SMILES IDX 9 1 10 2 11 3 12 4 13 5 14 6 15 7 16 8 17 9 18 10 19 11 8 12
REMARK SMILES IDX 7 13 6 14 5 15 4 16 3 17 2 18 1 19
REMARK H PARENT
REMARK Flexibility Score: inf
ROOT
ATOM      1  C   UNL     1      -2.641 -33.755  46.242  1.00  0.00     0.000 C 
ENDROOT
BRANCH   1   2
ATOM      2  C   UNL     1      -1.300 -34.363  45.818  1.00  0.00     0.000 C 
BRANCH   2   3
ATOM      3  C   UNL     1      -1.218 -35.845  46.213  1.00  0.00     0.000 C 
BRANCH   3   4
ATOM      4  C   UNL     1      -1.115 -36.776  44.994  1.00  0.00     0.000 C 
BRANCH   4   5
ATOM      5  C   UNL     1       0.244 -36.668  44.280  1.00  0.00     0.001 C 
BRANCH   5   6
ATOM      6  C   UNL     1       1.439 -36.792  45.244  1.00  0.00     0.009 C 
BRANCH   6   7
ATOM      7  C   UNL     1       2.389 -35.570  45.265  1.00  0.00     0.032 C 
ATOM      8  C   UNL     1       1.966 -34.483  44.268  1.00  0.00     0.014 C 
BRANCH   7   9
ATOM      9  C   UNL     1       2.431 -34.994  46.654  1.00  0.00     0.044 C 
ATOM     10  O   UNL     1       2.924 -33.851  46.850  1.00  0.00    -0.550 OA
ATOM     11  O   UNL     1       1.942 -35.722  47.732  1.00  0.00    -0.550 OA
ENDBRANCH   7   9
ENDBRANCH   6   7
ENDBRANCH   5   6
ENDBRANCH   4   5
ENDBRANCH   3   4
ENDBRANCH   2   3
ENDBRANCH   1   2
BRANCH   1  12
ATOM     12  C   UNL     1      -2.660 -33.462  47.750  1.00  0.00     0.000 C 
BRANCH  12  13
ATOM     13  C   UNL     1      -4.060 -33.089  48.265  1.00  0.00    -0.000 C 
BRANCH  13  14
ATOM     14  C   UNL     1      -5.119 -34.147  47.919  1.00  0.00    -0.000 C 
BRANCH  14  15
ATOM     15  C   UNL     1      -6.299 -33.517  47.170  1.00  0.00    -0.000 C 
BRANCH  15  16
ATOM     16  C   UNL     1      -6.790 -34.435  46.041  1.00  0.00    -0.000 C 
BRANCH  16  17
ATOM     17  C   UNL     1      -6.140 -34.093  44.685  1.00  0.00    -0.000 C 
BRANCH  17  18
ATOM     18  C   UNL     1      -5.425 -35.286  44.026  1.00  0.00    -0.003 C 
ATOM     19  C   UNL     1      -4.948 -36.328  45.034  1.00  0.00     0.004 C 
ENDBRANCH  17  18
ENDBRANCH  16  17
ENDBRANCH  15  16
ENDBRANCH  14  15
ENDBRANCH  13  14
ENDBRANCH  12  13
ENDBRANCH   1  12
TORSDOF 14
ENDMDL
MODEL 5
REMARK VINA RESULT:    -4.399      3.057      7.228
REMARK INTER + INTRA:          -9.417
REMARK INTER:                  -7.076
REMARK INTRA:                  -2.341
REMARK UNBOUND:                -1.418
REMARK SMILES CCCCCCCCCCCCCC[C@@H](C)C(=O)[O-]
REMARK SMILES IDX 9 1 10 2 11 3 12 4 13 5 14 6 15 7 16 8 17 9 18 10 19 11 8 12
REMARK SMILES IDX 7 13 6 14 5 15 4 16 3 17 2 18 1 19
REMARK H PARENT
REMARK Flexibility Score: inf
ROOT
ATOM      1  C   UNL     1      -3.708 -34.908  48.724  1.00  0.00     0.000 C 
ENDROOT
BRANCH   1   2
ATOM      2  C   UNL     1      -3.035 -33.727  48.016  1.00  0.00     0.000 C 
BRANCH   2   3
ATOM      3  C   UNL     1      -1.662 -34.130  47.457  1.00  0.00     0.000 C 
BRANCH   3   4
ATOM      4  C   UNL     1      -1.535 -33.855  45.951  1.00  0.00     0.000 C 
BRANCH   4   5
ATOM      5  C   UNL     1      -0.644 -34.886  45.234  1.00  0.00     0.001 C 
BRANCH   5   6
ATOM      6  C   UNL     1       0.436 -35.487  46.152  1.00  0.00     0.009 C 
BRANCH   6   7
ATOM      7  C   UNL     1       1.893 -35.180  45.731  1.00  0.00     0.032 C 
ATOM      8  C   UNL     1       1.976 -34.515  44.350  1.00  0.00     0.014 C 
BRANCH   7   9
ATOM      9  C   UNL     1       2.534 -34.289  46.760  1.00  0.00     0.044 C 
ATOM     10  O   UNL     1       2.007 -33.183  47.056  1.00  0.00    -0.550 OA
ATOM     11  O   UNL     1       3.718 -34.670  47.380  1.00  0.00    -0.550 OA
ENDBRANCH   7   9
ENDBRANCH   6   7
ENDBRANCH   5   6
ENDBRANCH   4   5
ENDBRANCH   3   4
ENDBRANCH   2   3
ENDBRANCH   1   2
BRANCH   1  12
ATOM     12  C   UNL     1      -3.010 -36.231  48.372  1.00  0.00     0.000 C 
BRANCH  12  13
ATOM     13  C   UNL     1      -3.855 -37.119  47.444  1.00  0.00    -0.000 C 
BRANCH  13  14
ATOM     14  C   UNL     1      -3.572 -36.859  45.957  1.00  0.00    -0.000 C 
BRANCH  14  15
ATOM     15  C   UNL     1      -4.861 -36.502  45.207  1.00  0.00    -0.000 C 
BRANCH  15  16
ATOM     16  C   UNL     1      -4.936 -34.994  44.924  1.00  0.00    -0.000 C 
BRANCH  16  17
ATOM     17  C   UNL     1      -6.387 -34.472  44.912  1.00  0.00    -0.000 C 
BRANCH  17  18
ATOM     18  C   UNL     1      -7.047 -34.453  46.301  1.00  0.00    -0.003 C 
ATOM     19  C   UNL     1      -6.608 -33.266  47.155  1.00  0.00     0.004 C 
ENDBRANCH  17  18
ENDBRANCH  16  17
ENDBRANCH  15  16
ENDBRANCH  14  15
ENDBRANCH  13  14
ENDBRANCH  12  13
ENDBRANCH   1  12
TORSDOF 14
ENDMDL
MODEL 6
REMARK VINA RESULT:    -4.361      2.441      6.971
REMARK INTER + INTRA:          -9.349
REMARK INTER:                  -7.504
REMARK INTRA:                  -1.846
REMARK UNBOUND:                -1.418
REMARK SMILES CCCCCCCCCCCCCC[C@@H](C)C(=O)[O-]
REMARK SMILES IDX 9 1 10 2 11 3 12 4 13 5 14 6 15 7 16 8 17 9 18 10 19 11 8 12
REMARK SMILES IDX 7 13 6 14 5 15 4 16 3 17 2 18 1 19
REMARK H PARENT
REMARK Flexibility Score: inf
ROOT
ATOM      1  C   UNL     1      -3.102 -34.804  48.305  1.00  0.00     0.000 C 
ENDROOT
BRANCH   1   2
ATOM      2  C   UNL     1      -1.816 -35.021  49.111  1.00  0.00     0.000 C 
BRANCH   2   3
ATOM      3  C   UNL     1      -0.633 -35.340  48.185  1.00  0.00     0.000 C 
BRANCH   3   4
ATOM      4  C   UNL     1       0.477 -34.280  48.258  1.00  0.00     0.000 C 
BRANCH   4   5
ATOM      5  C   UNL     1       1.260 -34.149  46.940  1.00  0.00     0.001 C 
BRANCH   5   6
ATOM      6  C   UNL     1       0.347 -34.142  45.699  1.00  0.00     0.009 C 
BRANCH   6   7
ATOM      7  C   UNL     1       0.918 -34.885  44.467  1.00  0.00     0.032 C 
ATOM      8  C   UNL     1       2.382 -34.520  44.189  1.00  0.00     0.014 C 
BRANCH   7   9
ATOM      9  C   UNL     1       0.799 -36.369  44.679  1.00  0.00     0.044 C 
ATOM     10  O   UNL     1       1.756 -37.016  45.181  1.00  0.00    -0.550 OA
ATOM     11  O   UNL     1      -0.362 -37.040  44.309  1.00  0.00    -0.550 OA
ENDBRANCH   7   9
ENDBRANCH   6   7
ENDBRANCH   5   6
ENDBRANCH   4   5
ENDBRANCH   3   4
ENDBRANCH   2   3
ENDBRANCH   1   2
BRANCH   1  12
ATOM     12  C   UNL     1      -2.878 -33.790  47.174  1.00  0.00     0.000 C 
BRANCH  12  13
ATOM     13  C   UNL     1      -3.274 -34.342  45.795  1.00  0.00    -0.000 C 
BRANCH  13  14
ATOM     14  C   UNL     1      -3.419 -35.871  45.789  1.00  0.00    -0.000 C 
BRANCH  14  15
ATOM     15  C   UNL     1      -4.825 -36.286  45.340  1.00  0.00    -0.000 C 
BRANCH  15  16
ATOM     16  C   UNL     1      -5.367 -35.331  44.266  1.00  0.00    -0.000 C 
BRANCH  16  17
ATOM     17  C   UNL     1      -6.536 -34.469  44.786  1.00  0.00    -0.000 C 
BRANCH  17  18
ATOM     18  C   UNL     1      -6.907 -34.754  46.251  1.00  0.00    -0.003 C 
ATOM     19  C   UNL     1      -6.898 -33.502  47.124  1.00  0.00     0.004 C 
ENDBRANCH  17  18
ENDBRANCH  16  17
ENDBRANCH  15  16
ENDBRANCH  14  15
ENDBRANCH  13  14
ENDBRANCH  12  13
ENDBRANCH   1  12
TORSDOF 14
ENDMDL
MODEL 7
REMARK VINA RESULT:    -4.322      3.453      7.896
REMARK INTER + INTRA:          -9.277
REMARK INTER:                  -7.541
REMARK INTRA:                  -1.736
REMARK UNBOUND:                -1.418
REMARK SMILES CCCCCCCCCCCCCC[C@@H](C)C(=O)[O-]
REMARK SMILES IDX 9 1 10 2 11 3 12 4 13 5 14 6 15 7 16 8 17 9 18 10 19 11 8 12
REMARK SMILES IDX 7 13 6 14 5 15 4 16 3 17 2 18 1 19
REMARK H PARENT
REMARK Flexibility Score: inf
ROOT
ATOM      1  C   UNL     1      -2.451 -33.395  47.061  1.00  0.00     0.000 C 
ENDROOT
BRANCH   1   2
ATOM      2  C   UNL     1      -1.741 -34.754  47.065  1.00  0.00     0.000 C 
BRANCH   2   3
ATOM      3  C   UNL     1      -1.151 -35.071  45.683  1.00  0.00     0.000 C 
BRANCH   3   4
ATOM      4  C   UNL     1       0.020 -34.146  45.315  1.00  0.00     0.000 C 
BRANCH   4   5
ATOM      5  C   UNL     1       1.271 -34.923  44.867  1.00  0.00     0.001 C 
BRANCH   5   6
ATOM      6  C   UNL     1       2.464 -34.743  45.824  1.00  0.00     0.009 C 
BRANCH   6   7
ATOM      7  C   UNL     1       2.083 -34.362  47.275  1.00  0.00     0.032 C 
ATOM      8  C   UNL     1       1.843 -35.592  48.160  1.00  0.00     0.014 C 
BRANCH   7   9
ATOM      9  C   UNL     1       3.173 -33.514  47.872  1.00  0.00     0.044 C 
ATOM     10  O   UNL     1       2.991 -32.280  48.046  1.00  0.00    -0.550 OA
ATOM     11  O   UNL     1       4.393 -34.082  48.221  1.00  0.00    -0.550 OA
ENDBRANCH   7   9
ENDBRANCH   6   7
ENDBRANCH   5   6
ENDBRANCH   4   5
ENDBRANCH   3   4
ENDBRANCH   2   3
ENDBRANCH   1   2
BRANCH   1  12
ATOM     12  C   UNL     1      -3.494 -33.316  48.186  1.00  0.00     0.000 C 
BRANCH  12  13
ATOM     13  C   UNL     1      -4.744 -34.162  47.896  1.00  0.00    -0.000 C 
BRANCH  13  14
ATOM     14  C   UNL     1      -5.906 -33.328  47.334  1.00  0.00    -0.000 C 
BRANCH  14  15
ATOM     15  C   UNL     1      -6.710 -34.131  46.305  1.00  0.00    -0.000 C 
BRANCH  15  16
ATOM     16  C   UNL     1      -6.156 -33.923  44.887  1.00  0.00    -0.000 C 
BRANCH  16  17
ATOM     17  C   UNL     1      -5.818 -35.257  44.190  1.00  0.00    -0.000 C 
BRANCH  17  18
ATOM     18  C   UNL     1      -4.522 -35.909  44.702  1.00  0.00    -0.003 C 
ATOM     19  C   UNL     1      -4.776 -37.125  45.589  1.00  0.00     0.004 C 
ENDBRANCH  17  18
ENDBRANCH  16  17
ENDBRANCH  15  16
ENDBRANCH  14  15
ENDBRANCH  13  14
ENDBRANCH  12  13
ENDBRANCH   1  12
TORSDOF 14
ENDMDL
MODEL 8
REMARK VINA RESULT:    -4.198      3.197      7.497
REMARK INTER + INTRA:          -9.052
REMARK INTER:                  -6.774
REMARK INTRA:                  -2.278
REMARK UNBOUND:                -1.418
REMARK SMILES CCCCCCCCCCCCCC[C@@H](C)C(=O)[O-]
REMARK SMILES IDX 9 1 10 2 11 3 12 4 13 5 14 6 15 7 16 8 17 9 18 10 19 11 8 12
REMARK SMILES IDX 7 13 6 14 5 15 4 16 3 17 2 18 1 19
REMARK H PARENT
REMARK Flexibility Score: inf
ROOT
ATOM      1  C   UNL     1      -2.716 -34.591  46.115  1.00  0.00     0.000 C 
ENDROOT
BRANCH   1   2
ATOM      2  C   UNL     1      -2.427 -34.758  47.612  1.00  0.00     0.000 C 
BRANCH   2   3
ATOM      3  C   UNL     1      -0.915 -34.772  47.882  1.00  0.00     0.000 C 
BRANCH   3   4
ATOM      4  C   UNL     1      -0.390 -36.175  48.223  1.00  0.00     0.000 C 
BRANCH   4   5
ATOM      5  C   UNL     1       0.734 -36.634  47.277  1.00  0.00     0.001 C 
BRANCH   5   6
ATOM      6  C   UNL     1       0.777 -35.828  45.965  1.00  0.00     0.009 C 
BRANCH   6   7
ATOM      7  C   UNL     1       2.181 -35.318  45.561  1.00  0.00     0.032 C 
ATOM      8  C   UNL     1       2.153 -34.477  44.278  1.00  0.00     0.014 C 
BRANCH   7   9
ATOM      9  C   UNL     1       2.759 -34.504  46.686  1.00  0.00     0.044 C 
ATOM     10  O   UNL     1       3.775 -34.915  47.308  1.00  0.00    -0.550 OA
ATOM     11  O   UNL     1       2.170 -33.300  47.058  1.00  0.00    -0.550 OA
ENDBRANCH   7   9
ENDBRANCH   6   7
ENDBRANCH   5   6
ENDBRANCH   4   5
ENDBRANCH   3   4
ENDBRANCH   2   3
ENDBRANCH   1   2
BRANCH   1  12
ATOM     12  C   UNL     1      -2.907 -35.956  45.437  1.00  0.00     0.000 C 
BRANCH  12  13
ATOM     13  C   UNL     1      -3.509 -37.009  46.381  1.00  0.00    -0.000 C 
BRANCH  13  14
ATOM     14  C   UNL     1      -5.034 -37.125  46.242  1.00  0.00    -0.000 C 
BRANCH  14  15
ATOM     15  C   UNL     1      -5.732 -36.800  47.568  1.00  0.00    -0.000 C 
BRANCH  15  16
ATOM     16  C   UNL     1      -6.139 -35.320  47.631  1.00  0.00    -0.000 C 
BRANCH  16  17
ATOM     17  C   UNL     1      -6.953 -34.885  46.395  1.00  0.00    -0.000 C 
BRANCH  17  18
ATOM     18  C   UNL     1      -6.268 -33.790  45.560  1.00  0.00    -0.003 C 
ATOM     19  C   UNL     1      -6.056 -34.193  44.104  1.00  0.00     0.004 C 
ENDBRANCH  17  18
ENDBRANCH  16  17
ENDBRANCH  15  16
ENDBRANCH  14  15
ENDBRANCH  13  14
ENDBRANCH  12  13
ENDBRANCH   1  12
TORSDOF 14
ENDMDL
MODEL 9
REMARK VINA RESULT:    -4.160      2.619      7.424
REMARK INTER + INTRA:          -8.984
REMARK INTER:                  -6.874
REMARK INTRA:                  -2.109
REMARK UNBOUND:                -1.418
REMARK SMILES CCCCCCCCCCCCCC[C@@H](C)C(=O)[O-]
REMARK SMILES IDX 9 1 10 2 11 3 12 4 13 5 14 6 15 7 16 8 17 9 18 10 19 11 8 12
REMARK SMILES IDX 7 13 6 14 5 15 4 16 3 17 2 18 1 19
REMARK H PARENT
REMARK Flexibility Score: inf
ROOT
ATOM      1  C   UNL     1      -1.151 -34.483  46.276  1.00  0.00     0.000 C 
ENDROOT
BRANCH   1   2
ATOM      2  C   UNL     1      -0.883 -35.793  47.027  1.00  0.00     0.000 C 
BRANCH   2   3
ATOM      3  C   UNL     1      -0.074 -35.538  48.307  1.00  0.00     0.000 C 
BRANCH   3   4
ATOM      4  C   UNL     1       0.773 -34.258  48.225  1.00  0.00     0.000 C 
BRANCH   4   5
ATOM      5  C   UNL     1       2.251 -34.546  47.906  1.00  0.00     0.001 C 
BRANCH   5   6
ATOM      6  C   UNL     1       2.652 -34.115  46.483  1.00  0.00     0.009 C 
BRANCH   6   7
ATOM      7  C   UNL     1       2.905 -35.280  45.497  1.00  0.00     0.032 C 
ATOM      8  C   UNL     1       2.946 -36.644  46.199  1.00  0.00     0.014 C 
BRANCH   7   9
ATOM      9  C   UNL     1       1.831 -35.286  44.444  1.00  0.00     0.044 C 
ATOM     10  O   UNL     1       1.422 -34.201  43.951  1.00  0.00    -0.550 OA
ATOM     11  O   UNL     1       1.271 -36.485  44.018  1.00  0.00    -0.550 OA
ENDBRANCH   7   9
ENDBRANCH   6   7
ENDBRANCH   5   6
ENDBRANCH   4   5
ENDBRANCH   3   4
ENDBRANCH   2   3
ENDBRANCH   1   2
BRANCH   1  12
ATOM     12  C   UNL     1      -2.659 -34.232  46.129  1.00  0.00     0.000 C 
BRANCH  12  13
ATOM     13  C   UNL     1      -3.234 -33.384  47.274  1.00  0.00    -0.000 C 
BRANCH  13  14
ATOM     14  C   UNL     1      -4.011 -34.224  48.300  1.00  0.00    -0.000 C 
BRANCH  14  15
ATOM     15  C   UNL     1      -4.613 -35.472  47.643  1.00  0.00    -0.000 C 
BRANCH  15  16
ATOM     16  C   UNL     1      -6.147 -35.403  47.630  1.00  0.00    -0.000 C 
BRANCH  16  17
ATOM     17  C   UNL     1      -6.686 -34.576  46.445  1.00  0.00    -0.000 C 
BRANCH  17  18
ATOM     18  C   UNL     1      -6.112 -35.004  45.083  1.00  0.00    -0.003 C 
ATOM     19  C   UNL     1      -6.130 -33.883  44.048  1.00  0.00     0.004 C 
ENDBRANCH  17  18
ENDBRANCH  16  17
ENDBRANCH  15  16
ENDBRANCH  14  15
ENDBRANCH  13  14
ENDBRANCH  12  13
ENDBRANCH   1  12
TORSDOF 14
ENDMDL
