MODEL 1
REMARK VINA RESULT:    -3.966      0.000      0.000
REMARK INTER + INTRA:          -6.296
REMARK INTER:                  -6.052
REMARK INTRA:                  -0.244
REMARK UNBOUND:                -0.244
REMARK SMILES CC1=CCC[C@H](C)C(=O)C[C@@H](C(C)C)C(=O)C1
REMARK SMILES IDX 8 1 9 2 6 3 7 4 5 5 4 6 3 7 2 8 1 9 10 11 11 12 15 13 16 14
REMARK SMILES IDX 17 15 12 17 13 18 14 19
REMARK H PARENT
REMARK Flexibility Score: 70.00
ROOT
ATOM      1  C   UNL     1      15.470 -34.442  20.708  1.00  0.00     0.136 C 
ATOM      2  O   UNL     1      14.560 -33.732  20.302  1.00  0.00    -0.299 OA
ENDROOT
BRANCH   1   3
ATOM      3  C   UNL     1      16.412 -35.114  19.723  1.00  0.00     0.053 C 
ATOM      4  C   UNL     1      17.615 -34.225  19.370  1.00  0.00     0.016 C 
BRANCH   3   5
ATOM      5  C   UNL     1      16.855 -36.504  20.224  1.00  0.00     0.015 C 
BRANCH   5   6
ATOM      6  C   UNL     1      18.374 -36.627  20.466  1.00  0.00     0.028 C 
BRANCH   6   7
ATOM      7  C   UNL     1      18.663 -37.143  21.853  1.00  0.00    -0.028 C 
ATOM      8  C   UNL     1      18.851 -36.362  22.944  1.00  0.00    -0.070 CG0
ATOM      9  C   UNL     1      19.090 -37.040  24.269  1.00  0.00     0.039 C 
ATOM     10  G   UNL     1      18.838 -34.840  22.890  1.00  0.00     0.000 G0
ENDBRANCH   6   7
ENDBRANCH   5   6
ENDBRANCH   3   5
ENDBRANCH   1   3
BRANCH   1  11
ATOM     11  C   UNL     1      15.638 -34.635  22.197  1.00  0.00     0.087 C 
BRANCH  11  12
ATOM     12  C   UNL     1      16.550 -33.547  22.826  1.00  0.00     0.066 C 
BRANCH  12  13
ATOM     13  C   UNL     1      17.675 -34.216  23.599  1.00  0.00     0.140 C 
ATOM     14  O   UNL     1      17.675 -34.173  24.823  1.00  0.00    -0.299 OA
BRANCH  13  15
ATOM     15  C   UNL     1      18.844 -34.834  22.873  1.00  0.00     0.106 CG0
ATOM     16  G   UNL     1      18.838 -36.355  22.943  1.00  0.00     0.000 G0
ENDBRANCH  13  15
ENDBRANCH  12  13
BRANCH  12  17
ATOM     17  C   UNL     1      15.761 -32.561  23.748  1.00  0.00    -0.006 C 
ATOM     18  C   UNL     1      14.442 -33.166  24.264  1.00  0.00     0.008 C 
ATOM     19  C   UNL     1      15.445 -31.245  23.011  1.00  0.00     0.008 C 
ENDBRANCH  12  17
ENDBRANCH  11  12
ENDBRANCH   1  11
TORSDOF 1
ENDMDL
MODEL 2
REMARK VINA RESULT:    -3.932      1.704      2.463
REMARK INTER + INTRA:          -6.245
REMARK INTER:                  -5.944
REMARK INTRA:                  -0.301
REMARK UNBOUND:                -0.244
REMARK SMILES CC1=CCC[C@H](C)C(=O)C[C@@H](C(C)C)C(=O)C1
REMARK SMILES IDX 8 1 9 2 6 3 7 4 5 5 4 6 3 7 2 8 1 9 10 11 11 12 15 13 16 14
REMARK SMILES IDX 17 15 12 17 13 18 14 19
REMARK H PARENT
REMARK Flexibility Score: 70.00
ROOT
ATOM      1  C   UNL     1      16.526 -35.442  20.408  1.00  0.00     0.136 C 
ATOM      2  O   UNL     1      16.534 -35.101  19.234  1.00  0.00    -0.299 OA
ENDROOT
BRANCH   1   3
ATOM      3  C   UNL     1      17.692 -36.230  20.982  1.00  0.00     0.053 C 
ATOM      4  C   UNL     1      17.865 -37.595  20.296  1.00  0.00     0.016 C 
BRANCH   3   5
ATOM      5  C   UNL     1      18.996 -35.408  20.958  1.00  0.00     0.015 C 
BRANCH   5   6
ATOM      6  C   UNL     1      19.327 -34.719  22.299  1.00  0.00     0.028 C 
BRANCH   6   7
ATOM      7  C   UNL     1      18.749 -35.485  23.461  1.00  0.00    -0.028 C 
ATOM      8  C   UNL     1      17.727 -35.053  24.238  1.00  0.00    -0.070 CG0
ATOM      9  C   UNL     1      17.240 -35.962  25.338  1.00  0.00     0.039 C 
ATOM     10  G   UNL     1      17.059 -33.697  24.057  1.00  0.00     0.000 G0
ENDBRANCH   6   7
ENDBRANCH   5   6
ENDBRANCH   3   5
ENDBRANCH   1   3
BRANCH   1  11
ATOM     11  C   UNL     1      15.345 -35.066  21.272  1.00  0.00     0.087 C 
BRANCH  11  12
ATOM     12  C   UNL     1      15.518 -33.665  21.918  1.00  0.00     0.066 C 
BRANCH  12  13
ATOM     13  C   UNL     1      15.671 -33.819  23.423  1.00  0.00     0.140 C 
ATOM     14  O   UNL     1      14.673 -33.950  24.120  1.00  0.00    -0.299 OA
BRANCH  13  15
ATOM     15  C   UNL     1      17.027 -33.700  24.074  1.00  0.00     0.106 CG0
ATOM     16  G   UNL     1      17.717 -35.047  24.238  1.00  0.00     0.000 G0
ENDBRANCH  13  15
ENDBRANCH  12  13
BRANCH  12  17
ATOM     17  C   UNL     1      14.337 -32.697  21.582  1.00  0.00    -0.006 C 
ATOM     18  C   UNL     1      13.719 -32.983  20.201  1.00  0.00     0.008 C 
ATOM     19  C   UNL     1      14.795 -31.227  21.622  1.00  0.00     0.008 C 
ENDBRANCH  12  17
ENDBRANCH  11  12
ENDBRANCH   1  11
TORSDOF 1
ENDMDL
MODEL 3
REMARK VINA RESULT:    -3.872      2.658      4.210
REMARK INTER + INTRA:          -6.153
REMARK INTER:                  -5.956
REMARK INTRA:                  -0.197
REMARK UNBOUND:                -0.244
REMARK SMILES CC1=CCC[C@H](C)C(=O)C[C@@H](C(C)C)C(=O)C1
REMARK SMILES IDX 8 1 9 2 6 3 7 4 5 5 4 6 3 7 2 8 1 9 10 11 11 12 15 13 16 14
REMARK SMILES IDX 17 15 12 17 13 18 14 19
REMARK H PARENT
REMARK Flexibility Score: 70.00
ROOT
ATOM      1  C   UNL     1      16.663 -31.917  22.961  1.00  0.00     0.136 C 
ATOM      2  O   UNL     1      16.927 -30.924  23.625  1.00  0.00    -0.299 OA
ENDROOT
BRANCH   1   3
ATOM      3  C   UNL     1      15.217 -32.274  22.662  1.00  0.00     0.053 C 
ATOM      4  C   UNL     1      14.618 -31.397  21.551  1.00  0.00     0.016 C 
BRANCH   3   5
ATOM      5  C   UNL     1      15.058 -33.777  22.353  1.00  0.00     0.015 C 
BRANCH   5   6
ATOM      6  C   UNL     1      15.057 -34.109  20.846  1.00  0.00     0.028 C 
BRANCH   6   7
ATOM      7  C   UNL     1      15.843 -35.364  20.565  1.00  0.00    -0.028 C 
ATOM      8  C   UNL     1      17.026 -35.403  19.905  1.00  0.00    -0.070 CG0
ATOM      9  C   UNL     1      17.704 -36.740  19.744  1.00  0.00     0.039 C 
ATOM     10  G   UNL     1      17.692 -34.167  19.317  1.00  0.00     0.000 G0
ENDBRANCH   6   7
ENDBRANCH   5   6
ENDBRANCH   3   5
ENDBRANCH   1   3
BRANCH   1  11
ATOM     11  C   UNL     1      17.795 -32.774  22.446  1.00  0.00     0.087 C 
BRANCH  11  12
ATOM     12  C   UNL     1      18.297 -32.304  21.055  1.00  0.00     0.066 C 
BRANCH  12  13
ATOM     13  C   UNL     1      18.686 -33.514  20.223  1.00  0.00     0.140 C 
ATOM     14  O   UNL     1      19.845 -33.910  20.238  1.00  0.00    -0.299 OA
BRANCH  13  15
ATOM     15  C   UNL     1      17.687 -34.162  19.295  1.00  0.00     0.106 CG0
ATOM     16  G   UNL     1      17.027 -35.387  19.912  1.00  0.00     0.000 G0
ENDBRANCH  13  15
ENDBRANCH  12  13
BRANCH  12  17
ATOM     17  C   UNL     1      19.492 -31.299  21.155  1.00  0.00    -0.006 C 
ATOM     18  C   UNL     1      20.282 -31.455  22.467  1.00  0.00     0.008 C 
ATOM     19  C   UNL     1      19.003 -29.842  21.044  1.00  0.00     0.008 C 
ENDBRANCH  12  17
ENDBRANCH  11  12
ENDBRANCH   1  11
TORSDOF 1
ENDMDL
MODEL 4
REMARK VINA RESULT:    -3.840      2.431      3.972
REMARK INTER + INTRA:          -6.104
REMARK INTER:                  -6.111
REMARK INTRA:                   0.007
REMARK UNBOUND:                -0.244
REMARK SMILES CC1=CCC[C@H](C)C(=O)C[C@@H](C(C)C)C(=O)C1
REMARK SMILES IDX 8 1 9 2 6 3 7 4 5 5 4 6 3 7 2 8 1 9 10 11 11 12 15 13 16 14
REMARK SMILES IDX 17 15 12 17 13 18 14 19
REMARK H PARENT
REMARK Flexibility Score: 70.00
ROOT
ATOM      1  C   UNL     1      16.593 -30.400  21.728  1.00  0.00     0.136 C 
ATOM      2  O   UNL     1      16.716 -29.227  22.052  1.00  0.00    -0.299 OA
ENDROOT
BRANCH   1   3
ATOM      3  C   UNL     1      17.809 -31.309  21.674  1.00  0.00     0.053 C 
ATOM      4  C   UNL     1      18.986 -30.664  20.923  1.00  0.00     0.016 C 
BRANCH   3   5
ATOM      5  C   UNL     1      18.222 -31.786  23.081  1.00  0.00     0.015 C 
BRANCH   5   6
ATOM      6  C   UNL     1      17.857 -33.256  23.376  1.00  0.00     0.028 C 
BRANCH   6   7
ATOM      7  C   UNL     1      17.976 -34.106  22.137  1.00  0.00    -0.028 C 
ATOM      8  C   UNL     1      16.934 -34.696  21.502  1.00  0.00    -0.070 CG0
ATOM      9  C   UNL     1      17.222 -35.481  20.248  1.00  0.00     0.039 C 
ATOM     10  G   UNL     1      15.499 -34.609  22.001  1.00  0.00     0.000 G0
ENDBRANCH   6   7
ENDBRANCH   5   6
ENDBRANCH   3   5
ENDBRANCH   1   3
BRANCH   1  11
ATOM     11  C   UNL     1      15.218 -30.924  21.387  1.00  0.00     0.087 C 
BRANCH  11  12
ATOM     12  C   UNL     1      14.796 -32.099  22.310  1.00  0.00     0.066 C 
BRANCH  12  13
ATOM     13  C   UNL     1      14.766 -33.388  21.504  1.00  0.00     0.140 C 
ATOM     14  O   UNL     1      14.080 -33.450  20.492  1.00  0.00    -0.299 OA
BRANCH  13  15
ATOM     15  C   UNL     1      15.481 -34.620  21.999  1.00  0.00     0.106 CG0
ATOM     16  G   UNL     1      16.920 -34.698  21.509  1.00  0.00     0.000 G0
ENDBRANCH  13  15
ENDBRANCH  12  13
BRANCH  12  17
ATOM     17  C   UNL     1      13.417 -31.853  23.005  1.00  0.00    -0.006 C 
ATOM     18  C   UNL     1      12.425 -31.107  22.093  1.00  0.00     0.008 C 
ATOM     19  C   UNL     1      13.588 -31.049  24.309  1.00  0.00     0.008 C 
ENDBRANCH  12  17
ENDBRANCH  11  12
ENDBRANCH   1  11
TORSDOF 1
ENDMDL
MODEL 5
REMARK VINA RESULT:    -3.832      2.577      5.527
REMARK INTER + INTRA:          -6.092
REMARK INTER:                  -5.812
REMARK INTRA:                  -0.280
REMARK UNBOUND:                -0.244
REMARK SMILES CC1=CCC[C@H](C)C(=O)C[C@@H](C(C)C)C(=O)C1
REMARK SMILES IDX 8 1 9 2 6 3 7 4 5 5 4 6 3 7 2 8 1 9 10 11 11 12 15 13 16 14
REMARK SMILES IDX 17 15 12 17 13 18 14 19
REMARK H PARENT
REMARK Flexibility Score: 70.00
ROOT
ATOM      1  C   UNL     1      16.857 -34.460  23.554  1.00  0.00     0.136 C 
ATOM      2  O   UNL     1      17.754 -35.291  23.546  1.00  0.00    -0.299 OA
ENDROOT
BRANCH   1   3
ATOM      3  C   UNL     1      16.848 -33.354  24.595  1.00  0.00     0.053 C 
ATOM      4  C   UNL     1      17.047 -33.895  26.020  1.00  0.00     0.016 C 
BRANCH   3   5
ATOM      5  C   UNL     1      17.869 -32.250  24.255  1.00  0.00     0.015 C 
BRANCH   5   6
ATOM      6  C   UNL     1      17.270 -31.062  23.473  1.00  0.00     0.028 C 
BRANCH   6   7
ATOM      7  C   UNL     1      15.809 -30.879  23.797  1.00  0.00    -0.028 C 
ATOM      8  C   UNL     1      14.801 -30.980  22.897  1.00  0.00    -0.070 CG0
ATOM      9  C   UNL     1      13.388 -30.808  23.395  1.00  0.00     0.039 C 
ATOM     10  G   UNL     1      15.030 -31.248  21.416  1.00  0.00     0.000 G0
ENDBRANCH   6   7
ENDBRANCH   5   6
ENDBRANCH   3   5
ENDBRANCH   1   3
BRANCH   1  11
ATOM     11  C   UNL     1      15.766 -34.553  22.513  1.00  0.00     0.087 C 
BRANCH  11  12
ATOM     12  C   UNL     1      16.062 -33.662  21.277  1.00  0.00     0.066 C 
BRANCH  12  13
ATOM     13  C   UNL     1      14.896 -32.714  21.047  1.00  0.00     0.140 C 
ATOM     14  O   UNL     1      13.887 -33.125  20.487  1.00  0.00    -0.299 OA
BRANCH  13  15
ATOM     15  C   UNL     1      15.013 -31.252  21.398  1.00  0.00     0.106 CG0
ATOM     16  G   UNL     1      14.825 -30.992  22.887  1.00  0.00     0.000 G0
ENDBRANCH  13  15
ENDBRANCH  12  13
BRANCH  12  17
ATOM     17  C   UNL     1      16.353 -34.498  19.988  1.00  0.00    -0.006 C 
ATOM     18  C   UNL     1      16.564 -35.993  20.293  1.00  0.00     0.008 C 
ATOM     19  C   UNL     1      17.596 -33.965  19.249  1.00  0.00     0.008 C 
ENDBRANCH  12  17
ENDBRANCH  11  12
ENDBRANCH   1  11
TORSDOF 1
ENDMDL
MODEL 6
REMARK VINA RESULT:    -3.769      2.683      3.428
REMARK INTER + INTRA:          -5.996
REMARK INTER:                  -5.730
REMARK INTRA:                  -0.267
REMARK UNBOUND:                -0.244
REMARK SMILES CC1=CCC[C@H](C)C(=O)C[C@@H](C(C)C)C(=O)C1
REMARK SMILES IDX 8 1 9 2 6 3 7 4 5 5 4 6 3 7 2 8 1 9 10 11 11 12 15 13 16 14
REMARK SMILES IDX 17 15 12 17 13 18 14 19
REMARK H PARENT
REMARK Flexibility Score: 70.00
ROOT
ATOM      1  C   UNL     1      16.441 -34.664  21.364  1.00  0.00     0.136 C 
ATOM      2  O   UNL     1      15.338 -35.187  21.292  1.00  0.00    -0.299 OA
ENDROOT
BRANCH   1   3
ATOM      3  C   UNL     1      17.551 -35.087  20.416  1.00  0.00     0.053 C 
ATOM      4  C   UNL     1      17.347 -34.531  18.997  1.00  0.00     0.016 C 
BRANCH   3   5
ATOM      5  C   UNL     1      18.942 -34.727  20.977  1.00  0.00     0.015 C 
BRANCH   5   6
ATOM      6  C   UNL     1      19.678 -33.636  20.172  1.00  0.00     0.028 C 
BRANCH   6   7
ATOM      7  C   UNL     1      20.490 -32.746  21.078  1.00  0.00    -0.028 C 
ATOM      8  C   UNL     1      20.068 -31.557  21.573  1.00  0.00    -0.070 CG0
ATOM      9  C   UNL     1      20.990 -30.809  22.502  1.00  0.00     0.039 C 
ATOM     10  G   UNL     1      18.717 -30.946  21.230  1.00  0.00     0.000 G0
ENDBRANCH   6   7
ENDBRANCH   5   6
ENDBRANCH   3   5
ENDBRANCH   1   3
BRANCH   1  11
ATOM     11  C   UNL     1      16.678 -33.595  22.405  1.00  0.00     0.087 C 
BRANCH  11  12
ATOM     12  C   UNL     1      16.462 -32.168  21.835  1.00  0.00     0.066 C 
BRANCH  12  13
ATOM     13  C   UNL     1      17.632 -31.283  22.233  1.00  0.00     0.140 C 
ATOM     14  O   UNL     1      17.654 -30.778  23.348  1.00  0.00    -0.299 OA
BRANCH  13  15
ATOM     15  C   UNL     1      18.705 -30.932  21.233  1.00  0.00     0.106 CG0
ATOM     16  G   UNL     1      20.047 -31.568  21.568  1.00  0.00     0.000 G0
ENDBRANCH  13  15
ENDBRANCH  12  13
BRANCH  12  17
ATOM     17  C   UNL     1      15.110 -31.532  22.299  1.00  0.00    -0.006 C 
ATOM     18  C   UNL     1      14.621 -32.108  23.642  1.00  0.00     0.008 C 
ATOM     19  C   UNL     1      14.007 -31.740  21.243  1.00  0.00     0.008 C 
ENDBRANCH  12  17
ENDBRANCH  11  12
ENDBRANCH   1  11
TORSDOF 1
ENDMDL
MODEL 7
REMARK VINA RESULT:    -3.744      1.252      1.720
REMARK INTER + INTRA:          -5.958
REMARK INTER:                  -5.700
REMARK INTRA:                  -0.258
REMARK UNBOUND:                -0.244
REMARK SMILES CC1=CCC[C@H](C)C(=O)C[C@@H](C(C)C)C(=O)C1
REMARK SMILES IDX 8 1 9 2 6 3 7 4 5 5 4 6 3 7 2 8 1 9 10 11 11 12 15 13 16 14
REMARK SMILES IDX 17 15 12 17 13 18 14 19
REMARK H PARENT
REMARK Flexibility Score: 70.00
ROOT
ATOM      1  C   UNL     1      15.857 -34.458  21.224  1.00  0.00     0.136 C 
ATOM      2  O   UNL     1      14.903 -34.174  20.512  1.00  0.00    -0.299 OA
ENDROOT
BRANCH   1   3
ATOM      3  C   UNL     1      17.125 -35.028  20.610  1.00  0.00     0.053 C 
ATOM      4  C   UNL     1      16.844 -36.252  19.725  1.00  0.00     0.016 C 
BRANCH   3   5
ATOM      5  C   UNL     1      17.922 -33.946  19.853  1.00  0.00     0.015 C 
BRANCH   5   6
ATOM      6  C   UNL     1      19.204 -33.489  20.580  1.00  0.00     0.028 C 
BRANCH   6   7
ATOM      7  C   UNL     1      19.669 -34.527  21.569  1.00  0.00    -0.028 C 
ATOM      8  C   UNL     1      19.592 -34.400  22.915  1.00  0.00    -0.070 CG0
ATOM      9  C   UNL     1      20.064 -35.553  23.765  1.00  0.00     0.039 C 
ATOM     10  G   UNL     1      19.061 -33.150  23.604  1.00  0.00     0.000 G0
ENDBRANCH   6   7
ENDBRANCH   5   6
ENDBRANCH   3   5
ENDBRANCH   1   3
BRANCH   1  11
ATOM     11  C   UNL     1      15.752 -34.230  22.713  1.00  0.00     0.087 C 
BRANCH  11  12
ATOM     12  C   UNL     1      16.471 -32.928  23.157  1.00  0.00     0.066 C 
BRANCH  12  13
ATOM     13  C   UNL     1      17.631 -33.279  24.074  1.00  0.00     0.140 C 
ATOM     14  O   UNL     1      17.406 -33.596  25.236  1.00  0.00    -0.299 OA
BRANCH  13  15
ATOM     15  C   UNL     1      19.056 -33.133  23.602  1.00  0.00     0.106 CG0
ATOM     16  G   UNL     1      19.579 -34.393  22.926  1.00  0.00     0.000 G0
ENDBRANCH  13  15
ENDBRANCH  12  13
BRANCH  12  17
ATOM     17  C   UNL     1      15.505 -31.915  23.854  1.00  0.00    -0.006 C 
ATOM     18  C   UNL     1      14.167 -32.562  24.257  1.00  0.00     0.008 C 
ATOM     19  C   UNL     1      15.215 -30.707  22.943  1.00  0.00     0.008 C 
ENDBRANCH  12  17
ENDBRANCH  11  12
ENDBRANCH   1  11
TORSDOF 1
ENDMDL
MODEL 8
REMARK VINA RESULT:    -3.676      2.248      3.588
REMARK INTER + INTRA:          -5.854
REMARK INTER:                  -5.961
REMARK INTRA:                   0.106
REMARK UNBOUND:                -0.244
REMARK SMILES CC1=CCC[C@H](C)C(=O)C[C@@H](C(C)C)C(=O)C1
REMARK SMILES IDX 8 1 9 2 6 3 7 4 5 5 4 6 3 7 2 8 1 9 10 11 11 12 15 13 16 14
REMARK SMILES IDX 17 15 12 17 13 18 14 19
REMARK H PARENT
REMARK Flexibility Score: 70.00
ROOT
ATOM      1  C   UNL     1      18.372 -31.890  21.891  1.00  0.00     0.136 C 
ATOM      2  O   UNL     1      18.470 -31.916  23.110  1.00  0.00    -0.299 OA
ENDROOT
BRANCH   1   3
ATOM      3  C   UNL     1      19.614 -31.747  21.028  1.00  0.00     0.053 C 
ATOM      4  C   UNL     1      20.618 -30.740  21.614  1.00  0.00     0.016 C 
BRANCH   3   5
ATOM      5  C   UNL     1      20.272 -33.115  20.752  1.00  0.00     0.015 C 
BRANCH   5   6
ATOM      6  C   UNL     1      19.588 -34.294  21.475  1.00  0.00     0.028 C 
BRANCH   6   7
ATOM      7  C   UNL     1      18.982 -35.260  20.488  1.00  0.00    -0.028 C 
ATOM      8  C   UNL     1      17.718 -35.741  20.557  1.00  0.00    -0.070 CG0
ATOM      9  C   UNL     1      17.252 -36.669  19.463  1.00  0.00     0.039 C 
ATOM     10  G   UNL     1      16.755 -35.395  21.684  1.00  0.00     0.000 G0
ENDBRANCH   6   7
ENDBRANCH   5   6
ENDBRANCH   3   5
ENDBRANCH   1   3
BRANCH   1  11
ATOM     11  C   UNL     1      17.002 -32.004  21.264  1.00  0.00     0.087 C 
BRANCH  11  12
ATOM     12  C   UNL     1      16.052 -32.904  22.099  1.00  0.00     0.066 C 
BRANCH  12  13
ATOM     13  C   UNL     1      15.857 -34.231  21.384  1.00  0.00     0.140 C 
ATOM     14  O   UNL     1      14.912 -34.370  20.617  1.00  0.00    -0.299 OA
BRANCH  13  15
ATOM     15  C   UNL     1      16.746 -35.410  21.695  1.00  0.00     0.106 CG0
ATOM     16  G   UNL     1      17.719 -35.721  20.566  1.00  0.00     0.000 G0
ENDBRANCH  13  15
ENDBRANCH  12  13
BRANCH  12  17
ATOM     17  C   UNL     1      14.673 -32.224  22.382  1.00  0.00    -0.006 C 
ATOM     18  C   UNL     1      14.505 -30.898  21.616  1.00  0.00     0.008 C 
ATOM     19  C   UNL     1      14.486 -31.952  23.887  1.00  0.00     0.008 C 
ENDBRANCH  12  17
ENDBRANCH  11  12
ENDBRANCH   1  11
TORSDOF 1
ENDMDL
MODEL 9
REMARK VINA RESULT:    -3.589      2.745      4.386
REMARK INTER + INTRA:          -5.722
REMARK INTER:                  -5.498
REMARK INTRA:                  -0.223
REMARK UNBOUND:                -0.244
REMARK SMILES CC1=CCC[C@H](C)C(=O)C[C@@H](C(C)C)C(=O)C1
REMARK SMILES IDX 8 1 9 2 6 3 7 4 5 5 4 6 3 7 2 8 1 9 10 11 11 12 15 13 16 14
REMARK SMILES IDX 17 15 12 17 13 18 14 19
REMARK H PARENT
REMARK Flexibility Score: 70.00
ROOT
ATOM      1  C   UNL     1      18.689 -34.781  20.592  1.00  0.00     0.136 C 
ATOM      2  O   UNL     1      19.771 -35.301  20.355  1.00  0.00    -0.299 OA
ENDROOT
BRANCH   1   3
ATOM      3  C   UNL     1      17.491 -35.641  20.957  1.00  0.00     0.053 C 
ATOM      4  C   UNL     1      17.359 -36.872  20.047  1.00  0.00     0.016 C 
BRANCH   3   5
ATOM      5  C   UNL     1      17.511 -36.032  22.449  1.00  0.00     0.015 C 
BRANCH   5   6
ATOM      6  C   UNL     1      16.590 -35.167  23.335  1.00  0.00     0.028 C 
BRANCH   6   7
ATOM      7  C   UNL     1      15.494 -34.528  22.521  1.00  0.00    -0.028 C 
ATOM      8  C   UNL     1      15.339 -33.194  22.348  1.00  0.00    -0.070 CG0
ATOM      9  C   UNL     1      14.211 -32.720  21.467  1.00  0.00     0.039 C 
ATOM     10  G   UNL     1      16.241 -32.159  23.006  1.00  0.00     0.000 G0
ENDBRANCH   6   7
ENDBRANCH   5   6
ENDBRANCH   3   5
ENDBRANCH   1   3
BRANCH   1  11
ATOM     11  C   UNL     1      18.570 -33.277  20.516  1.00  0.00     0.087 C 
BRANCH  11  12
ATOM     12  C   UNL     1      18.612 -32.617  21.921  1.00  0.00     0.066 C 
BRANCH  12  13
ATOM     13  C   UNL     1      17.388 -31.735  22.101  1.00  0.00     0.140 C 
ATOM     14  O   UNL     1      17.363 -30.625  21.584  1.00  0.00    -0.299 OA
BRANCH  13  15
ATOM     15  C   UNL     1      16.256 -32.165  23.000  1.00  0.00     0.106 CG0
ATOM     16  G   UNL     1      15.339 -33.184  22.338  1.00  0.00     0.000 G0
ENDBRANCH  13  15
ENDBRANCH  12  13
BRANCH  12  17
ATOM     17  C   UNL     1      19.921 -31.797  22.161  1.00  0.00    -0.006 C 
ATOM     18  C   UNL     1      20.785 -31.685  20.890  1.00  0.00     0.008 C 
ATOM     19  C   UNL     1      20.773 -32.425  23.282  1.00  0.00     0.008 C 
ENDBRANCH  12  17
ENDBRANCH  11  12
ENDBRANCH   1  11
TORSDOF 1
ENDMDL
