MODEL 1
REMARK VINA RESULT:    -4.573      0.000      0.000
REMARK INTER + INTRA:          -7.170
REMARK INTER:                  -6.444
REMARK INTRA:                  -0.726
REMARK UNBOUND:                -0.726
REMARK SMILES CCCCCCCCC(=O)[O-]
REMARK SMILES IDX 6 1 7 2 8 3 9 4 10 5 11 6 5 7 4 8 3 9 2 10 1 11
REMARK H PARENT
REMARK Flexibility Score: inf
ROOT
ATOM      1  C   UNL     1      43.006  40.580  15.265  1.00  0.00     0.000 C 
ENDROOT
BRANCH   1   2
ATOM      2  C   UNL     1      41.562  41.060  15.063  1.00  0.00     0.006 C 
BRANCH   2   3
ATOM      3  C   UNL     1      40.627  40.575  16.179  1.00  0.00     0.053 C 
BRANCH   3   4
ATOM      4  C   UNL     1      41.021  41.129  17.513  1.00  0.00     0.041 C 
ATOM      5  O   UNL     1      41.355  40.356  18.448  1.00  0.00    -0.550 OA
ATOM      6  O   UNL     1      40.989  42.501  17.732  1.00  0.00    -0.550 OA
ENDBRANCH   3   4
ENDBRANCH   2   3
ENDBRANCH   1   2
BRANCH   1   7
ATOM      7  C   UNL     1      43.111  39.061  15.084  1.00  0.00     0.000 C 
BRANCH   7   8
ATOM      8  C   UNL     1      42.711  38.647  13.660  1.00  0.00    -0.000 C 
BRANCH   8   9
ATOM      9  C   UNL     1      42.080  37.245  13.598  1.00  0.00    -0.000 C 
BRANCH   9  10
ATOM     10  C   UNL     1      40.545  37.229  13.507  1.00  0.00    -0.003 C 
ATOM     11  C   UNL     1      39.974  38.477  12.832  1.00  0.00     0.004 C 
ENDBRANCH   9  10
ENDBRANCH   8   9
ENDBRANCH   7   8
ENDBRANCH   1   7
TORSDOF 7
ENDMDL
MODEL 2
REMARK VINA RESULT:    -4.543      0.968      1.678
REMARK INTER + INTRA:          -7.129
REMARK INTER:                  -6.715
REMARK INTRA:                  -0.414
REMARK UNBOUND:                -0.726
REMARK SMILES CCCCCCCCC(=O)[O-]
REMARK SMILES IDX 6 1 7 2 8 3 9 4 10 5 11 6 5 7 4 8 3 9 2 10 1 11
REMARK H PARENT
REMARK Flexibility Score: inf
ROOT
ATOM      1  C   UNL     1      43.323  39.117  14.983  1.00  0.00     0.000 C 
ENDROOT
BRANCH   1   2
ATOM      2  C   UNL     1      43.012  40.621  15.012  1.00  0.00     0.006 C 
BRANCH   2   3
ATOM      3  C   UNL     1      42.799  41.142  16.439  1.00  0.00     0.053 C 
BRANCH   3   4
ATOM      4  C   UNL     1      41.452  40.762  16.974  1.00  0.00     0.041 C 
ATOM      5  O   UNL     1      40.466  40.666  16.198  1.00  0.00    -0.550 OA
ATOM      6  O   UNL     1      41.282  40.545  18.335  1.00  0.00    -0.550 OA
ENDBRANCH   3   4
ENDBRANCH   2   3
ENDBRANCH   1   2
BRANCH   1   7
ATOM      7  C   UNL     1      42.925  38.499  13.637  1.00  0.00     0.000 C 
BRANCH   7   8
ATOM      8  C   UNL     1      42.188  37.167  13.840  1.00  0.00    -0.000 C 
BRANCH   8   9
ATOM      9  C   UNL     1      40.749  37.188  13.295  1.00  0.00    -0.000 C 
BRANCH   9  10
ATOM     10  C   UNL     1      40.127  38.590  13.164  1.00  0.00    -0.003 C 
ATOM     11  C   UNL     1      39.086  38.680  12.049  1.00  0.00     0.004 C 
ENDBRANCH   9  10
ENDBRANCH   8   9
ENDBRANCH   7   8
ENDBRANCH   1   7
TORSDOF 7
ENDMDL
MODEL 3
REMARK VINA RESULT:    -4.484      1.614      2.410
REMARK INTER + INTRA:          -7.046
REMARK INTER:                  -6.673
REMARK INTRA:                  -0.373
REMARK UNBOUND:                -0.726
REMARK SMILES CCCCCCCCC(=O)[O-]
REMARK SMILES IDX 6 1 7 2 8 3 9 4 10 5 11 6 5 7 4 8 3 9 2 10 1 11
REMARK H PARENT
REMARK Flexibility Score: inf
ROOT
ATOM      1  C   UNL     1      40.563  40.918  16.674  1.00  0.00     0.000 C 
ENDROOT
BRANCH   1   2
ATOM      2  C   UNL     1      41.718  40.584  17.629  1.00  0.00     0.006 C 
BRANCH   2   3
ATOM      3  C   UNL     1      42.087  41.770  18.531  1.00  0.00     0.053 C 
BRANCH   3   4
ATOM      4  C   UNL     1      41.951  41.427  19.982  1.00  0.00     0.041 C 
ATOM      5  O   UNL     1      42.278  40.285  20.398  1.00  0.00    -0.550 OA
ATOM      6  O   UNL     1      41.431  42.361  20.871  1.00  0.00    -0.550 OA
ENDBRANCH   3   4
ENDBRANCH   2   3
ENDBRANCH   1   2
BRANCH   1   7
ATOM      7  C   UNL     1      40.964  40.663  15.216  1.00  0.00     0.000 C 
BRANCH   7   8
ATOM      8  C   UNL     1      42.306  39.920  15.136  1.00  0.00    -0.000 C 
BRANCH   8   9
ATOM      9  C   UNL     1      42.272  38.724  14.168  1.00  0.00    -0.000 C 
BRANCH   9  10
ATOM     10  C   UNL     1      40.935  38.522  13.436  1.00  0.00    -0.003 C 
ATOM     11  C   UNL     1      40.531  37.051  13.324  1.00  0.00     0.004 C 
ENDBRANCH   9  10
ENDBRANCH   8   9
ENDBRANCH   7   8
ENDBRANCH   1   7
TORSDOF 7
ENDMDL
MODEL 4
REMARK VINA RESULT:    -4.463      3.073      5.437
REMARK INTER + INTRA:          -7.016
REMARK INTER:                  -6.623
REMARK INTRA:                  -0.394
REMARK UNBOUND:                -0.726
REMARK SMILES CCCCCCCCC(=O)[O-]
REMARK SMILES IDX 6 1 7 2 8 3 9 4 10 5 11 6 5 7 4 8 3 9 2 10 1 11
REMARK H PARENT
REMARK Flexibility Score: inf
ROOT
ATOM      1  C   UNL     1      42.288  40.245  15.926  1.00  0.00     0.000 C 
ENDROOT
BRANCH   1   2
ATOM      2  C   UNL     1      42.062  39.460  14.625  1.00  0.00     0.006 C 
BRANCH   2   3
ATOM      3  C   UNL     1      40.595  39.494  14.173  1.00  0.00     0.053 C 
BRANCH   3   4
ATOM      4  C   UNL     1      40.283  38.383  13.219  1.00  0.00     0.041 C 
ATOM      5  O   UNL     1      39.424  38.548  12.313  1.00  0.00    -0.550 OA
ATOM      6  O   UNL     1      40.918  37.155  13.351  1.00  0.00    -0.550 OA
ENDBRANCH   3   4
ENDBRANCH   2   3
ENDBRANCH   1   2
BRANCH   1   7
ATOM      7  C   UNL     1      41.173  41.274  16.148  1.00  0.00     0.000 C 
BRANCH   7   8
ATOM      8  C   UNL     1      40.647  41.214  17.590  1.00  0.00    -0.000 C 
BRANCH   8   9
ATOM      9  C   UNL     1      41.444  42.110  18.556  1.00  0.00    -0.000 C 
BRANCH   9  10
ATOM     10  C   UNL     1      42.397  41.356  19.499  1.00  0.00    -0.003 C 
ATOM     11  C   UNL     1      41.874  39.977  19.901  1.00  0.00     0.004 C 
ENDBRANCH   9  10
ENDBRANCH   8   9
ENDBRANCH   7   8
ENDBRANCH   1   7
TORSDOF 7
ENDMDL
MODEL 5
REMARK VINA RESULT:    -4.431      3.092      5.349
REMARK INTER + INTRA:          -6.970
REMARK INTER:                  -6.585
REMARK INTRA:                  -0.385
REMARK UNBOUND:                -0.726
REMARK SMILES CCCCCCCCC(=O)[O-]
REMARK SMILES IDX 6 1 7 2 8 3 9 4 10 5 11 6 5 7 4 8 3 9 2 10 1 11
REMARK H PARENT
REMARK Flexibility Score: inf
ROOT
ATOM      1  C   UNL     1      40.965  40.726  16.166  1.00  0.00     0.000 C 
ENDROOT
BRANCH   1   2
ATOM      2  C   UNL     1      40.642  40.305  14.724  1.00  0.00     0.006 C 
BRANCH   2   3
ATOM      3  C   UNL     1      41.398  39.036  14.308  1.00  0.00     0.053 C 
BRANCH   3   4
ATOM      4  C   UNL     1      40.581  38.181  13.388  1.00  0.00     0.041 C 
ATOM      5  O   UNL     1      40.769  36.937  13.344  1.00  0.00    -0.550 OA
ATOM      6  O   UNL     1      39.633  38.765  12.557  1.00  0.00    -0.550 OA
ENDBRANCH   3   4
ENDBRANCH   2   3
ENDBRANCH   1   2
BRANCH   1   7
ATOM      7  C   UNL     1      42.479  40.799  16.392  1.00  0.00     0.000 C 
BRANCH   7   8
ATOM      8  C   UNL     1      42.821  41.779  17.524  1.00  0.00    -0.000 C 
BRANCH   8   9
ATOM      9  C   UNL     1      41.637  42.034  18.475  1.00  0.00    -0.000 C 
BRANCH   9  10
ATOM     10  C   UNL     1      41.839  41.520  19.911  1.00  0.00    -0.003 C 
ATOM     11  C   UNL     1      41.900  39.994  19.997  1.00  0.00     0.004 C 
ENDBRANCH   9  10
ENDBRANCH   8   9
ENDBRANCH   7   8
ENDBRANCH   1   7
TORSDOF 7
ENDMDL
MODEL 6
REMARK VINA RESULT:    -4.241      2.830      5.298
REMARK INTER + INTRA:          -6.703
REMARK INTER:                  -6.233
REMARK INTRA:                  -0.470
REMARK UNBOUND:                -0.726
REMARK SMILES CCCCCCCCC(=O)[O-]
REMARK SMILES IDX 6 1 7 2 8 3 9 4 10 5 11 6 5 7 4 8 3 9 2 10 1 11
REMARK H PARENT
REMARK Flexibility Score: inf
ROOT
ATOM      1  C   UNL     1      42.623  40.585  15.989  1.00  0.00     0.000 C 
ENDROOT
BRANCH   1   2
ATOM      2  C   UNL     1      43.046  39.964  14.649  1.00  0.00     0.006 C 
BRANCH   2   3
ATOM      3  C   UNL     1      43.240  38.445  14.750  1.00  0.00     0.053 C 
BRANCH   3   4
ATOM      4  C   UNL     1      42.295  37.704  13.854  1.00  0.00     0.041 C 
ATOM      5  O   UNL     1      42.550  36.524  13.500  1.00  0.00    -0.550 OA
ATOM      6  O   UNL     1      41.148  38.332  13.385  1.00  0.00    -0.550 OA
ENDBRANCH   3   4
ENDBRANCH   2   3
ENDBRANCH   1   2
BRANCH   1   7
ATOM      7  C   UNL     1      41.096  40.627  16.119  1.00  0.00     0.000 C 
BRANCH   7   8
ATOM      8  C   UNL     1      40.675  41.070  17.527  1.00  0.00    -0.000 C 
BRANCH   8   9
ATOM      9  C   UNL     1      41.768  41.871  18.256  1.00  0.00    -0.000 C 
BRANCH   9  10
ATOM     10  C   UNL     1      42.135  41.341  19.653  1.00  0.00    -0.003 C 
ATOM     11  C   UNL     1      41.749  39.876  19.857  1.00  0.00     0.004 C 
ENDBRANCH   9  10
ENDBRANCH   8   9
ENDBRANCH   7   8
ENDBRANCH   1   7
TORSDOF 7
ENDMDL
MODEL 7
REMARK VINA RESULT:    -4.206      9.867     10.775
REMARK INTER + INTRA:          -6.654
REMARK INTER:                  -6.303
REMARK INTRA:                  -0.351
REMARK UNBOUND:                -0.726
REMARK SMILES CCCCCCCCC(=O)[O-]
REMARK SMILES IDX 6 1 7 2 8 3 9 4 10 5 11 6 5 7 4 8 3 9 2 10 1 11
REMARK H PARENT
REMARK Flexibility Score: inf
ROOT
ATOM      1  C   UNL     1      38.358  30.568  14.793  1.00  0.00     0.000 C 
ENDROOT
BRANCH   1   2
ATOM      2  C   UNL     1      36.825  30.480  14.857  1.00  0.00     0.006 C 
BRANCH   2   3
ATOM      3  C   UNL     1      36.147  31.700  14.218  1.00  0.00     0.053 C 
BRANCH   3   4
ATOM      4  C   UNL     1      34.904  31.318  13.474  1.00  0.00     0.041 C 
ATOM      5  O   UNL     1      34.598  30.105  13.331  1.00  0.00    -0.550 OA
ATOM      6  O   UNL     1      34.101  32.302  12.912  1.00  0.00    -0.550 OA
ENDBRANCH   3   4
ENDBRANCH   2   3
ENDBRANCH   1   2
BRANCH   1   7
ATOM      7  C   UNL     1      38.915  29.659  13.692  1.00  0.00     0.000 C 
BRANCH   7   8
ATOM      8  C   UNL     1      40.128  28.863  14.196  1.00  0.00    -0.000 C 
BRANCH   8   9
ATOM      9  C   UNL     1      41.272  29.764  14.694  1.00  0.00    -0.000 C 
BRANCH   9  10
ATOM     10  C   UNL     1      41.682  29.539  16.160  1.00  0.00    -0.003 C 
ATOM     11  C   UNL     1      41.260  30.684  17.081  1.00  0.00     0.004 C 
ENDBRANCH   9  10
ENDBRANCH   8   9
ENDBRANCH   7   8
ENDBRANCH   1   7
TORSDOF 7
ENDMDL
MODEL 8
REMARK VINA RESULT:    -4.132      9.715     10.689
REMARK INTER + INTRA:          -6.550
REMARK INTER:                  -6.232
REMARK INTRA:                  -0.318
REMARK UNBOUND:                -0.726
REMARK SMILES CCCCCCCCC(=O)[O-]
REMARK SMILES IDX 6 1 7 2 8 3 9 4 10 5 11 6 5 7 4 8 3 9 2 10 1 11
REMARK H PARENT
REMARK Flexibility Score: inf
ROOT
ATOM      1  C   UNL     1      38.918  29.689  13.979  1.00  0.00     0.000 C 
ENDROOT
BRANCH   1   2
ATOM      2  C   UNL     1      40.348  29.275  14.358  1.00  0.00     0.006 C 
BRANCH   2   3
ATOM      3  C   UNL     1      40.945  30.179  15.446  1.00  0.00     0.053 C 
BRANCH   3   4
ATOM      4  C   UNL     1      41.862  29.420  16.355  1.00  0.00     0.041 C 
ATOM      5  O   UNL     1      41.945  29.727  17.573  1.00  0.00    -0.550 OA
ATOM      6  O   UNL     1      42.649  28.394  15.849  1.00  0.00    -0.550 OA
ENDBRANCH   3   4
ENDBRANCH   2   3
ENDBRANCH   1   2
BRANCH   1   7
ATOM      7  C   UNL     1      38.382  30.756  14.941  1.00  0.00     0.000 C 
BRANCH   7   8
ATOM      8  C   UNL     1      36.847  30.723  14.999  1.00  0.00    -0.000 C 
BRANCH   8   9
ATOM      9  C   UNL     1      36.198  31.981  14.394  1.00  0.00    -0.000 C 
BRANCH   9  10
ATOM     10  C   UNL     1      34.994  31.709  13.475  1.00  0.00    -0.003 C 
ATOM     11  C   UNL     1      34.616  30.229  13.408  1.00  0.00     0.004 C 
ENDBRANCH   9  10
ENDBRANCH   8   9
ENDBRANCH   7   8
ENDBRANCH   1   7
TORSDOF 7
ENDMDL
MODEL 9
REMARK VINA RESULT:    -4.077      3.147      5.303
REMARK INTER + INTRA:          -6.471
REMARK INTER:                  -5.835
REMARK INTRA:                  -0.636
REMARK UNBOUND:                -0.726
REMARK SMILES CCCCCCCCC(=O)[O-]
REMARK SMILES IDX 6 1 7 2 8 3 9 4 10 5 11 6 5 7 4 8 3 9 2 10 1 11
REMARK H PARENT
REMARK Flexibility Score: inf
ROOT
ATOM      1  C   UNL     1      41.208  41.493  15.319  1.00  0.00     0.000 C 
ENDROOT
BRANCH   1   2
ATOM      2  C   UNL     1      42.649  41.062  15.009  1.00  0.00     0.006 C 
BRANCH   2   3
ATOM      3  C   UNL     1      42.872  39.564  15.256  1.00  0.00     0.053 C 
BRANCH   3   4
ATOM      4  C   UNL     1      43.916  39.000  14.341  1.00  0.00     0.041 C 
ATOM      5  O   UNL     1      45.076  39.488  14.325  1.00  0.00    -0.550 OA
ATOM      6  O   UNL     1      43.596  37.956  13.483  1.00  0.00    -0.550 OA
ENDBRANCH   3   4
ENDBRANCH   2   3
ENDBRANCH   1   2
BRANCH   1   7
ATOM      7  C   UNL     1      40.622  40.667  16.470  1.00  0.00     0.000 C 
BRANCH   7   8
ATOM      8  C   UNL     1      40.674  41.448  17.791  1.00  0.00    -0.000 C 
BRANCH   8   9
ATOM      9  C   UNL     1      41.472  40.721  18.888  1.00  0.00    -0.000 C 
BRANCH   9  10
ATOM     10  C   UNL     1      42.653  41.520  19.466  1.00  0.00    -0.003 C 
ATOM     11  C   UNL     1      43.274  42.484  18.455  1.00  0.00     0.004 C 
ENDBRANCH   9  10
ENDBRANCH   8   9
ENDBRANCH   7   8
ENDBRANCH   1   7
TORSDOF 7
ENDMDL
