MODEL 1
REMARK VINA RESULT:    15.017      0.000      0.000
REMARK INTER + INTRA:          26.535
REMARK INTER:                  27.308
REMARK INTRA:                  -0.773
REMARK UNBOUND:                -0.773
REMARK SMILES CCCCCCCCCCCCCC[C@H](C)C(=O)[O-]
REMARK SMILES IDX 9 1 10 2 11 3 12 4 13 5 14 6 15 7 16 8 17 9 18 10 19 11 8 12
REMARK SMILES IDX 7 13 6 14 5 15 4 16 3 17 2 18 1 19
REMARK H PARENT
REMARK Flexibility Score: inf
ROOT
ATOM      1  C   UNL     1      -5.044 -18.371  24.944  1.00  0.00     0.000 C 
ENDROOT
BRANCH   1   2
ATOM      2  C   UNL     1      -5.084 -18.899  23.500  1.00  0.00     0.000 C 
BRANCH   2   3
ATOM      3  C   UNL     1      -4.603 -20.353  23.382  1.00  0.00     0.000 C 
BRANCH   3   4
ATOM      4  C   UNL     1      -3.478 -20.477  22.348  1.00  0.00     0.000 C 
BRANCH   4   5
ATOM      5  C   UNL     1      -2.108 -20.578  23.031  1.00  0.00     0.001 C 
BRANCH   5   6
ATOM      6  C   UNL     1      -1.186 -19.373  22.746  1.00  0.00     0.009 C 
BRANCH   6   7
ATOM      7  C   UNL     1      -0.217 -18.956  23.882  1.00  0.00     0.032 C 
ATOM      8  C   UNL     1      -0.028 -20.060  24.936  1.00  0.00     0.014 C 
BRANCH   7   9
ATOM      9  C   UNL     1      -0.591 -17.625  24.491  1.00  0.00     0.044 C 
ATOM     10  O   UNL     1      -1.351 -17.555  25.493  1.00  0.00    -0.550 OA
ATOM     11  O   UNL     1      -0.068 -16.454  23.955  1.00  0.00    -0.550 OA
ENDBRANCH   7   9
ENDBRANCH   6   7
ENDBRANCH   5   6
ENDBRANCH   4   5
ENDBRANCH   3   4
ENDBRANCH   2   3
ENDBRANCH   1   2
BRANCH   1  12
ATOM     12  C   UNL     1      -6.254 -18.759  25.817  1.00  0.00     0.000 C 
BRANCH  12  13
ATOM     13  C   UNL     1      -6.447 -17.907  27.084  1.00  0.00    -0.000 C 
BRANCH  13  14
ATOM     14  C   UNL     1      -7.686 -17.002  27.010  1.00  0.00    -0.000 C 
BRANCH  14  15
ATOM     15  C   UNL     1      -8.751 -17.447  28.019  1.00  0.00    -0.000 C 
BRANCH  15  16
ATOM     16  C   UNL     1      -8.225 -17.335  29.459  1.00  0.00    -0.000 C 
BRANCH  16  17
ATOM     17  C   UNL     1      -9.101 -18.092  30.469  1.00  0.00    -0.000 C 
BRANCH  17  18
ATOM     18  C   UNL     1      -8.551 -18.020  31.901  1.00  0.00    -0.003 C 
ATOM     19  C   UNL     1      -7.769 -16.727  32.124  1.00  0.00     0.004 C 
ENDBRANCH  17  18
ENDBRANCH  16  17
ENDBRANCH  15  16
ENDBRANCH  14  15
ENDBRANCH  13  14
ENDBRANCH  12  13
ENDBRANCH   1  12
TORSDOF 14
ENDMDL
MODEL 2
REMARK VINA RESULT:    15.112      1.642      2.556
REMARK INTER + INTRA:          26.708
REMARK INTER:                  27.549
REMARK INTRA:                  -0.841
REMARK UNBOUND:                -0.773
REMARK SMILES CCCCCCCCCCCCCC[C@H](C)C(=O)[O-]
REMARK SMILES IDX 9 1 10 2 11 3 12 4 13 5 14 6 15 7 16 8 17 9 18 10 19 11 8 12
REMARK SMILES IDX 7 13 6 14 5 15 4 16 3 17 2 18 1 19
REMARK H PARENT
REMARK Flexibility Score: inf
ROOT
ATOM      1  C   UNL     1      -4.976 -18.467  24.644  1.00  0.00     0.000 C 
ENDROOT
BRANCH   1   2
ATOM      2  C   UNL     1      -4.991 -19.167  23.274  1.00  0.00     0.000 C 
BRANCH   2   3
ATOM      3  C   UNL     1      -4.378 -20.576  23.317  1.00  0.00     0.000 C 
BRANCH   3   4
ATOM      4  C   UNL     1      -3.322 -20.749  22.219  1.00  0.00     0.000 C 
BRANCH   4   5
ATOM      5  C   UNL     1      -1.904 -20.660  22.799  1.00  0.00     0.001 C 
BRANCH   5   6
ATOM      6  C   UNL     1      -1.312 -19.235  22.767  1.00  0.00     0.009 C 
BRANCH   6   7
ATOM      7  C   UNL     1      -0.295 -18.879  23.881  1.00  0.00     0.032 C 
ATOM      8  C   UNL     1      -0.096 -20.024  24.889  1.00  0.00     0.014 C 
BRANCH   7   9
ATOM      9  C   UNL     1      -0.614 -17.562  24.547  1.00  0.00     0.044 C 
ATOM     10  O   UNL     1      -1.356 -17.507  25.564  1.00  0.00    -0.550 OA
ATOM     11  O   UNL     1      -0.061 -16.389  24.048  1.00  0.00    -0.550 OA
ENDBRANCH   7   9
ENDBRANCH   6   7
ENDBRANCH   5   6
ENDBRANCH   4   5
ENDBRANCH   3   4
ENDBRANCH   2   3
ENDBRANCH   1   2
BRANCH   1  12
ATOM     12  C   UNL     1      -6.171 -18.797  25.560  1.00  0.00     0.000 C 
BRANCH  12  13
ATOM     13  C   UNL     1      -6.233 -17.991  26.870  1.00  0.00    -0.000 C 
BRANCH  13  14
ATOM     14  C   UNL     1      -7.414 -17.010  26.910  1.00  0.00    -0.000 C 
BRANCH  14  15
ATOM     15  C   UNL     1      -8.588 -17.598  27.703  1.00  0.00    -0.000 C 
BRANCH  15  16
ATOM     16  C   UNL     1      -9.790 -16.639  27.697  1.00  0.00    -0.000 C 
BRANCH  16  17
ATOM     17  C   UNL     1      -9.515 -15.352  26.904  1.00  0.00    -0.000 C 
BRANCH  17  18
ATOM     18  C   UNL     1     -10.800 -14.696  26.378  1.00  0.00    -0.003 C 
ATOM     19  C   UNL     1     -10.891 -13.237  26.819  1.00  0.00     0.004 C 
ENDBRANCH  17  18
ENDBRANCH  16  17
ENDBRANCH  15  16
ENDBRANCH  14  15
ENDBRANCH  13  14
ENDBRANCH  12  13
ENDBRANCH   1  12
TORSDOF 14
ENDMDL
MODEL 3
REMARK VINA RESULT:    15.167      0.654      1.089
REMARK INTER + INTRA:          26.807
REMARK INTER:                  27.504
REMARK INTRA:                  -0.696
REMARK UNBOUND:                -0.773
REMARK SMILES CCCCCCCCCCCCCC[C@H](C)C(=O)[O-]
REMARK SMILES IDX 9 1 10 2 11 3 12 4 13 5 14 6 15 7 16 8 17 9 18 10 19 11 8 12
REMARK SMILES IDX 7 13 6 14 5 15 4 16 3 17 2 18 1 19
REMARK H PARENT
REMARK Flexibility Score: inf
ROOT
ATOM      1  C   UNL     1      -4.885 -18.877  24.987  1.00  0.00     0.000 C 
ENDROOT
BRANCH   1   2
ATOM      2  C   UNL     1      -4.734 -19.222  23.495  1.00  0.00     0.000 C 
BRANCH   2   3
ATOM      3  C   UNL     1      -4.345 -20.690  23.259  1.00  0.00     0.000 C 
BRANCH   3   4
ATOM      4  C   UNL     1      -3.377 -20.817  22.077  1.00  0.00     0.000 C 
BRANCH   4   5
ATOM      5  C   UNL     1      -2.057 -20.087  22.363  1.00  0.00     0.001 C 
BRANCH   5   6
ATOM      6  C   UNL     1      -1.466 -20.404  23.753  1.00  0.00     0.009 C 
BRANCH   6   7
ATOM      7  C   UNL     1      -0.258 -19.543  24.206  1.00  0.00     0.032 C 
ATOM      8  C   UNL     1       0.546 -20.201  25.340  1.00  0.00     0.014 C 
BRANCH   7   9
ATOM      9  C   UNL     1      -0.657 -18.121  24.520  1.00  0.00     0.044 C 
ATOM     10  O   UNL     1      -0.257 -17.159  23.812  1.00  0.00    -0.550 OA
ATOM     11  O   UNL     1      -1.502 -17.866  25.594  1.00  0.00    -0.550 OA
ENDBRANCH   7   9
ENDBRANCH   6   7
ENDBRANCH   5   6
ENDBRANCH   4   5
ENDBRANCH   3   4
ENDBRANCH   2   3
ENDBRANCH   1   2
BRANCH   1  12
ATOM     12  C   UNL     1      -6.160 -18.089  25.350  1.00  0.00     0.000 C 
BRANCH  12  13
ATOM     13  C   UNL     1      -6.393 -17.880  26.857  1.00  0.00    -0.000 C 
BRANCH  13  14
ATOM     14  C   UNL     1      -7.592 -16.969  27.154  1.00  0.00    -0.000 C 
BRANCH  14  15
ATOM     15  C   UNL     1      -8.900 -17.770  27.168  1.00  0.00    -0.000 C 
BRANCH  15  16
ATOM     16  C   UNL     1      -9.436 -17.922  28.601  1.00  0.00    -0.000 C 
BRANCH  16  17
ATOM     17  C   UNL     1      -8.416 -17.484  29.663  1.00  0.00    -0.000 C 
BRANCH  17  18
ATOM     18  C   UNL     1      -8.863 -17.830  31.090  1.00  0.00    -0.003 C 
ATOM     19  C   UNL     1      -8.015 -17.093  32.125  1.00  0.00     0.004 C 
ENDBRANCH  17  18
ENDBRANCH  16  17
ENDBRANCH  15  16
ENDBRANCH  14  15
ENDBRANCH  13  14
ENDBRANCH  12  13
ENDBRANCH   1  12
TORSDOF 14
ENDMDL
MODEL 4
REMARK VINA RESULT:    15.384      3.443      8.304
REMARK INTER + INTRA:          27.203
REMARK INTER:                  28.211
REMARK INTRA:                  -1.009
REMARK UNBOUND:                -0.773
REMARK SMILES CCCCCCCCCCCCCC[C@H](C)C(=O)[O-]
REMARK SMILES IDX 9 1 10 2 11 3 12 4 13 5 14 6 15 7 16 8 17 9 18 10 19 11 8 12
REMARK SMILES IDX 7 13 6 14 5 15 4 16 3 17 2 18 1 19
REMARK H PARENT
REMARK Flexibility Score: inf
ROOT
ATOM      1  C   UNL     1      -2.774 -17.827  25.936  1.00  0.00     0.000 C 
ENDROOT
BRANCH   1   2
ATOM      2  C   UNL     1      -3.328 -17.738  27.369  1.00  0.00     0.000 C 
BRANCH   2   3
ATOM      3  C   UNL     1      -4.864 -17.731  27.415  1.00  0.00     0.000 C 
BRANCH   3   4
ATOM      4  C   UNL     1      -5.452 -18.463  26.204  1.00  0.00     0.000 C 
BRANCH   4   5
ATOM      5  C   UNL     1      -6.829 -17.896  25.832  1.00  0.00     0.001 C 
BRANCH   5   6
ATOM      6  C   UNL     1      -7.417 -16.951  26.901  1.00  0.00     0.009 C 
BRANCH   6   7
ATOM      7  C   UNL     1      -8.927 -17.109  27.213  1.00  0.00     0.032 C 
ATOM      8  C   UNL     1      -9.692 -15.777  27.134  1.00  0.00     0.014 C 
BRANCH   7   9
ATOM      9  C   UNL     1      -9.168 -17.845  28.510  1.00  0.00     0.044 C 
ATOM     10  O   UNL     1      -9.780 -18.946  28.532  1.00  0.00    -0.550 OA
ATOM     11  O   UNL     1      -8.684 -17.315  29.700  1.00  0.00    -0.550 OA
ENDBRANCH   7   9
ENDBRANCH   6   7
ENDBRANCH   5   6
ENDBRANCH   4   5
ENDBRANCH   3   4
ENDBRANCH   2   3
ENDBRANCH   1   2
BRANCH   1  12
ATOM     12  C   UNL     1      -1.237 -17.886  25.831  1.00  0.00     0.000 C 
BRANCH  12  13
ATOM     13  C   UNL     1      -0.640 -17.217  24.580  1.00  0.00    -0.000 C 
BRANCH  13  14
ATOM     14  C   UNL     1      -0.129 -18.233  23.548  1.00  0.00    -0.000 C 
BRANCH  14  15
ATOM     15  C   UNL     1      -0.826 -19.588  23.721  1.00  0.00    -0.000 C 
BRANCH  15  16
ATOM     16  C   UNL     1      -1.713 -19.908  22.507  1.00  0.00    -0.000 C 
BRANCH  16  17
ATOM     17  C   UNL     1      -2.544 -21.186  22.703  1.00  0.00    -0.000 C 
BRANCH  17  18
ATOM     18  C   UNL     1      -4.037 -20.970  22.422  1.00  0.00    -0.003 C 
ATOM     19  C   UNL     1      -4.555 -19.722  23.133  1.00  0.00     0.004 C 
ENDBRANCH  17  18
ENDBRANCH  16  17
ENDBRANCH  15  16
ENDBRANCH  14  15
ENDBRANCH  13  14
ENDBRANCH  12  13
ENDBRANCH   1  12
TORSDOF 14
ENDMDL
MODEL 5
REMARK VINA RESULT:    15.611      3.449      7.920
REMARK INTER + INTRA:          27.615
REMARK INTER:                  28.882
REMARK INTRA:                  -1.267
REMARK UNBOUND:                -0.773
REMARK SMILES CCCCCCCCCCCCCC[C@H](C)C(=O)[O-]
REMARK SMILES IDX 9 1 10 2 11 3 12 4 13 5 14 6 15 7 16 8 17 9 18 10 19 11 8 12
REMARK SMILES IDX 7 13 6 14 5 15 4 16 3 17 2 18 1 19
REMARK H PARENT
REMARK Flexibility Score: inf
ROOT
ATOM      1  C   UNL     1      -4.461 -19.468  23.642  1.00  0.00     0.000 C 
ENDROOT
BRANCH   1   2
ATOM      2  C   UNL     1      -5.550 -18.436  23.299  1.00  0.00     0.000 C 
BRANCH   2   3
ATOM      3  C   UNL     1      -6.293 -17.918  24.540  1.00  0.00     0.000 C 
BRANCH   3   4
ATOM      4  C   UNL     1      -5.872 -18.692  25.794  1.00  0.00     0.000 C 
BRANCH   4   5
ATOM      5  C   UNL     1      -6.352 -17.983  27.068  1.00  0.00     0.001 C 
BRANCH   5   6
ATOM      6  C   UNL     1      -7.294 -16.792  26.794  1.00  0.00     0.009 C 
BRANCH   6   7
ATOM      7  C   UNL     1      -8.806 -17.032  27.039  1.00  0.00     0.032 C 
ATOM      8  C   UNL     1      -9.628 -15.733  26.997  1.00  0.00     0.014 C 
BRANCH   7   9
ATOM      9  C   UNL     1      -9.060 -17.845  28.286  1.00  0.00     0.044 C 
ATOM     10  O   UNL     1      -8.786 -17.391  29.429  1.00  0.00    -0.550 OA
ATOM     11  O   UNL     1      -9.632 -19.107  28.178  1.00  0.00    -0.550 OA
ENDBRANCH   7   9
ENDBRANCH   6   7
ENDBRANCH   5   6
ENDBRANCH   4   5
ENDBRANCH   3   4
ENDBRANCH   2   3
ENDBRANCH   1   2
BRANCH   1  12
ATOM     12  C   UNL     1      -4.299 -20.611  22.620  1.00  0.00     0.000 C 
BRANCH  12  13
ATOM     13  C   UNL     1      -2.872 -21.175  22.490  1.00  0.00    -0.000 C 
BRANCH  13  14
ATOM     14  C   UNL     1      -1.828 -20.090  22.193  1.00  0.00    -0.000 C 
BRANCH  14  15
ATOM     15  C   UNL     1      -1.090 -19.673  23.472  1.00  0.00    -0.000 C 
BRANCH  15  16
ATOM     16  C   UNL     1      -0.438 -18.291  23.305  1.00  0.00    -0.000 C 
BRANCH  16  17
ATOM     17  C   UNL     1      -0.478 -17.460  24.597  1.00  0.00    -0.000 C 
BRANCH  17  18
ATOM     18  C   UNL     1      -1.071 -18.235  25.782  1.00  0.00    -0.003 C 
ATOM     19  C   UNL     1      -2.390 -17.616  26.237  1.00  0.00     0.004 C 
ENDBRANCH  17  18
ENDBRANCH  16  17
ENDBRANCH  15  16
ENDBRANCH  14  15
ENDBRANCH  13  14
ENDBRANCH  12  13
ENDBRANCH   1  12
TORSDOF 14
ENDMDL
MODEL 6
REMARK VINA RESULT:    16.178      2.035      3.093
REMARK INTER + INTRA:          28.647
REMARK INTER:                  29.545
REMARK INTRA:                  -0.898
REMARK UNBOUND:                -0.773
REMARK SMILES CCCCCCCCCCCCCC[C@H](C)C(=O)[O-]
REMARK SMILES IDX 9 1 10 2 11 3 12 4 13 5 14 6 15 7 16 8 17 9 18 10 19 11 8 12
REMARK SMILES IDX 7 13 6 14 5 15 4 16 3 17 2 18 1 19
REMARK H PARENT
REMARK Flexibility Score: inf
ROOT
ATOM      1  C   UNL     1      -3.855 -17.870  27.257  1.00  0.00     0.000 C 
ENDROOT
BRANCH   1   2
ATOM      2  C   UNL     1      -2.806 -17.256  26.312  1.00  0.00     0.000 C 
BRANCH   2   3
ATOM      3  C   UNL     1      -1.703 -18.249  25.919  1.00  0.00     0.000 C 
BRANCH   3   4
ATOM      4  C   UNL     1      -0.940 -17.760  24.682  1.00  0.00     0.000 C 
BRANCH   4   5
ATOM      5  C   UNL     1      -0.523 -18.937  23.790  1.00  0.00     0.001 C 
BRANCH   5   6
ATOM      6  C   UNL     1      -1.500 -20.130  23.845  1.00  0.00     0.009 C 
BRANCH   6   7
ATOM      7  C   UNL     1      -2.175 -20.537  22.510  1.00  0.00     0.032 C 
ATOM      8  C   UNL     1      -1.623 -19.758  21.304  1.00  0.00     0.014 C 
BRANCH   7   9
ATOM      9  C   UNL     1      -3.683 -20.490  22.595  1.00  0.00     0.044 C 
ATOM     10  O   UNL     1      -4.399 -21.316  21.969  1.00  0.00    -0.550 OA
ATOM     11  O   UNL     1      -4.295 -19.537  23.400  1.00  0.00    -0.550 OA
ENDBRANCH   7   9
ENDBRANCH   6   7
ENDBRANCH   5   6
ENDBRANCH   4   5
ENDBRANCH   3   4
ENDBRANCH   2   3
ENDBRANCH   1   2
BRANCH   1  12
ATOM     12  C   UNL     1      -5.283 -17.956  26.683  1.00  0.00     0.000 C 
BRANCH  12  13
ATOM     13  C   UNL     1      -6.398 -17.474  27.628  1.00  0.00    -0.000 C 
BRANCH  13  14
ATOM     14  C   UNL     1      -7.779 -17.451  26.957  1.00  0.00    -0.000 C 
BRANCH  14  15
ATOM     15  C   UNL     1      -8.897 -17.406  28.006  1.00  0.00    -0.000 C 
BRANCH  15  16
ATOM     16  C   UNL     1      -8.315 -17.344  29.427  1.00  0.00    -0.000 C 
BRANCH  16  17
ATOM     17  C   UNL     1      -9.237 -17.992  30.472  1.00  0.00    -0.000 C 
BRANCH  17  18
ATOM     18  C   UNL     1      -9.024 -17.424  31.882  1.00  0.00    -0.003 C 
ATOM     19  C   UNL     1      -7.553 -17.094  32.125  1.00  0.00     0.004 C 
ENDBRANCH  17  18
ENDBRANCH  16  17
ENDBRANCH  15  16
ENDBRANCH  14  15
ENDBRANCH  13  14
ENDBRANCH  12  13
ENDBRANCH   1  12
TORSDOF 14
ENDMDL
