MODEL 1
REMARK VINA RESULT:    -5.364      0.000      0.000
REMARK INTER + INTRA:          -6.052
REMARK INTER:                  -5.991
REMARK INTRA:                  -0.061
REMARK UNBOUND:                -0.061
REMARK SMILES COc1cc2ccc(=O)oc2c(O)c1O
REMARK SMILES IDX 3 1 14 2 12 3 11 4 5 5 4 6 6 7 7 8 8 9 9 10 10 11 2 12 1 13
REMARK SMILES IDX 15 14 13 16
REMARK H PARENT 15 15 13 17
REMARK Flexibility Score: inf
ROOT
ATOM      1  C   UNL     1     128.053 129.363 114.623  1.00  0.00     0.165 A 
ATOM      2  C   UNL     1     129.448 129.206 114.743  1.00  0.00     0.204 A 
ATOM      3  C   UNL     1     130.053 129.195 116.013  1.00  0.00     0.205 A 
ATOM      4  C   UNL     1     129.270 129.341 117.164  1.00  0.00     0.184 A 
ATOM      5  C   UNL     1     127.874 129.499 117.049  1.00  0.00     0.025 A 
ATOM      6  C   UNL     1     127.271 129.510 115.786  1.00  0.00     0.062 A 
ATOM      7  C   UNL     1     127.120 129.642 118.218  1.00  0.00     0.020 A 
ATOM      8  C   UNL     1     127.763 129.626 119.455  1.00  0.00     0.094 A 
ATOM      9  C   UNL     1     129.151 129.465 119.494  1.00  0.00     0.336 A 
ATOM     10  O   UNL     1     129.752 129.447 120.599  1.00  0.00    -0.246 OA
ATOM     11  O   UNL     1     129.844 129.331 118.365  1.00  0.00    -0.419 OA
ENDROOT
BRANCH   1  12
ATOM     12  O   UNL     1     127.481 129.369 113.341  1.00  0.00    -0.493 OA
ATOM     13  C   UNL     1     126.672 130.419 112.821  1.00  0.00     0.278 C 
ENDBRANCH   1  12
BRANCH   2  14
ATOM     14  O   UNL     1     130.244 129.059 113.606  1.00  0.00    -0.502 OA
ATOM     15  H   UNL     1     131.238 129.254 113.611  1.00  0.00     0.293 HD
ENDBRANCH   2  14
BRANCH   3  16
ATOM     16  O   UNL     1     131.434 129.040 116.147  1.00  0.00    -0.502 OA
ATOM     17  H   UNL     1     132.017 128.703 115.389  1.00  0.00     0.293 HD
ENDBRANCH   3  16
TORSDOF 3
ENDMDL
MODEL 2
REMARK VINA RESULT:    -4.910      1.573      2.840
REMARK INTER + INTRA:          -5.544
REMARK INTER:                  -5.488
REMARK INTRA:                  -0.056
REMARK UNBOUND:                -0.061
REMARK SMILES COc1cc2ccc(=O)oc2c(O)c1O
REMARK SMILES IDX 3 1 14 2 12 3 11 4 5 5 4 6 6 7 7 8 8 9 9 10 10 11 2 12 1 13
REMARK SMILES IDX 15 14 13 16
REMARK H PARENT 15 15 13 17
REMARK Flexibility Score: inf
ROOT
ATOM      1  C   UNL     1     129.529 129.397 114.070  1.00  0.00     0.165 A 
ATOM      2  C   UNL     1     128.231 129.424 114.617  1.00  0.00     0.204 A 
ATOM      3  C   UNL     1     128.046 129.324 116.008  1.00  0.00     0.205 A 
ATOM      4  C   UNL     1     129.153 129.196 116.855  1.00  0.00     0.184 A 
ATOM      5  C   UNL     1     130.454 129.168 116.312  1.00  0.00     0.025 A 
ATOM      6  C   UNL     1     130.639 129.268 114.928  1.00  0.00     0.062 A 
ATOM      7  C   UNL     1     131.539 129.040 117.186  1.00  0.00     0.020 A 
ATOM      8  C   UNL     1     131.308 128.944 118.556  1.00  0.00     0.094 A 
ATOM      9  C   UNL     1     129.991 128.979 119.025  1.00  0.00     0.336 A 
ATOM     10  O   UNL     1     129.759 128.894 120.259  1.00  0.00    -0.246 OA
ATOM     11  O   UNL     1     128.977 129.102 118.171  1.00  0.00    -0.419 OA
ENDROOT
BRANCH   1  12
ATOM     12  O   UNL     1     129.678 129.500 112.677  1.00  0.00    -0.493 OA
ATOM     13  C   UNL     1     130.510 128.656 111.888  1.00  0.00     0.278 C 
ENDBRANCH   1  12
BRANCH   2  14
ATOM     14  O   UNL     1     127.115 129.551 113.788  1.00  0.00    -0.502 OA
ATOM     15  H   UNL     1     127.107 130.161 112.979  1.00  0.00     0.293 HD
ENDBRANCH   2  14
BRANCH   3  16
ATOM     16  O   UNL     1     126.766 129.350 116.564  1.00  0.00    -0.502 OA
ATOM     17  H   UNL     1     126.139 128.555 116.517  1.00  0.00     0.293 HD
ENDBRANCH   3  16
TORSDOF 3
ENDMDL
MODEL 3
REMARK VINA RESULT:    -4.633      6.464      9.201
REMARK INTER + INTRA:          -5.235
REMARK INTER:                  -5.167
REMARK INTRA:                  -0.068
REMARK UNBOUND:                -0.061
REMARK SMILES COc1cc2ccc(=O)oc2c(O)c1O
REMARK SMILES IDX 3 1 14 2 12 3 11 4 5 5 4 6 6 7 7 8 8 9 9 10 10 11 2 12 1 13
REMARK SMILES IDX 15 14 13 16
REMARK H PARENT 15 15 13 17
REMARK Flexibility Score: inf
ROOT
ATOM      1  C   UNL     1     120.651 132.093 110.693  1.00  0.00     0.165 A 
ATOM      2  C   UNL     1     120.853 132.379 112.058  1.00  0.00     0.204 A 
ATOM      3  C   UNL     1     122.145 132.321 112.612  1.00  0.00     0.205 A 
ATOM      4  C   UNL     1     123.237 131.978 111.806  1.00  0.00     0.184 A 
ATOM      5  C   UNL     1     123.041 131.690 110.440  1.00  0.00     0.025 A 
ATOM      6  C   UNL     1     121.755 131.747 109.889  1.00  0.00     0.062 A 
ATOM      7  C   UNL     1     124.153 131.351 109.663  1.00  0.00     0.020 A 
ATOM      8  C   UNL     1     125.414 131.306 110.254  1.00  0.00     0.094 A 
ATOM      9  C   UNL     1     125.535 131.604 111.614  1.00  0.00     0.336 A 
ATOM     10  O   UNL     1     126.664 131.570 112.169  1.00  0.00    -0.246 OA
ATOM     11  O   UNL     1     124.460 131.924 112.331  1.00  0.00    -0.419 OA
ENDROOT
BRANCH   1  12
ATOM     12  O   UNL     1     119.349 132.160 110.174  1.00  0.00    -0.493 OA
ATOM     13  C   UNL     1     118.875 133.185 109.307  1.00  0.00     0.278 C 
ENDBRANCH   1  12
BRANCH   2  14
ATOM     14  O   UNL     1     119.775 132.724 112.876  1.00  0.00    -0.502 OA
ATOM     15  H   UNL     1     119.070 133.393 112.591  1.00  0.00     0.293 HD
ENDBRANCH   2  14
BRANCH   3  16
ATOM     16  O   UNL     1     122.359 132.603 113.962  1.00  0.00    -0.502 OA
ATOM     17  H   UNL     1     121.739 132.268 114.690  1.00  0.00     0.293 HD
ENDBRANCH   3  16
TORSDOF 3
ENDMDL
MODEL 4
REMARK VINA RESULT:    -4.550      6.848     10.218
REMARK INTER + INTRA:          -5.142
REMARK INTER:                  -5.085
REMARK INTRA:                  -0.057
REMARK UNBOUND:                -0.061
REMARK SMILES COc1cc2ccc(=O)oc2c(O)c1O
REMARK SMILES IDX 3 1 14 2 12 3 11 4 5 5 4 6 6 7 7 8 8 9 9 10 10 11 2 12 1 13
REMARK SMILES IDX 15 14 13 16
REMARK H PARENT 15 15 13 17
REMARK Flexibility Score: inf
ROOT
ATOM      1  C   UNL     1     124.107 131.744 111.413  1.00  0.00     0.165 A 
ATOM      2  C   UNL     1     123.095 131.624 112.388  1.00  0.00     0.204 A 
ATOM      3  C   UNL     1     121.831 132.201 112.172  1.00  0.00     0.205 A 
ATOM      4  C   UNL     1     121.572 132.898 110.986  1.00  0.00     0.184 A 
ATOM      5  C   UNL     1     122.580 133.020 110.008  1.00  0.00     0.025 A 
ATOM      6  C   UNL     1     123.839 132.447 110.222  1.00  0.00     0.062 A 
ATOM      7  C   UNL     1     122.289 133.722 108.833  1.00  0.00     0.020 A 
ATOM      8  C   UNL     1     121.022 134.277 108.663  1.00  0.00     0.094 A 
ATOM      9  C   UNL     1     120.071 134.116 109.674  1.00  0.00     0.336 A 
ATOM     10  O   UNL     1     118.921 134.609 109.541  1.00  0.00    -0.246 OA
ATOM     11  O   UNL     1     120.375 133.443 110.782  1.00  0.00    -0.419 OA
ENDROOT
BRANCH   1  12
ATOM     12  O   UNL     1     125.357 131.156 111.662  1.00  0.00    -0.493 OA
ATOM     13  C   UNL     1     126.053 130.318 110.745  1.00  0.00     0.278 C 
ENDBRANCH   1  12
BRANCH   2  14
ATOM     14  O   UNL     1     123.336 130.933 113.576  1.00  0.00    -0.502 OA
ATOM     15  H   UNL     1     123.433 129.925 113.608  1.00  0.00     0.293 HD
ENDBRANCH   2  14
BRANCH   3  16
ATOM     16  O   UNL     1     120.820 132.090 113.128  1.00  0.00    -0.502 OA
ATOM     17  H   UNL     1     120.094 132.790 113.232  1.00  0.00     0.293 HD
ENDBRANCH   3  16
TORSDOF 3
ENDMDL
MODEL 5
REMARK VINA RESULT:    -4.518      1.571      5.468
REMARK INTER + INTRA:          -5.106
REMARK INTER:                  -5.052
REMARK INTRA:                  -0.055
REMARK UNBOUND:                -0.061
REMARK SMILES COc1cc2ccc(=O)oc2c(O)c1O
REMARK SMILES IDX 3 1 14 2 12 3 11 4 5 5 4 6 6 7 7 8 8 9 9 10 10 11 2 12 1 13
REMARK SMILES IDX 15 14 13 16
REMARK H PARENT 15 15 13 17
REMARK Flexibility Score: inf
ROOT
ATOM      1  C   UNL     1     128.981 129.447 117.580  1.00  0.00     0.165 A 
ATOM      2  C   UNL     1     127.613 129.473 117.242  1.00  0.00     0.204 A 
ATOM      3  C   UNL     1     127.214 129.400 115.895  1.00  0.00     0.205 A 
ATOM      4  C   UNL     1     128.177 129.302 114.884  1.00  0.00     0.184 A 
ATOM      5  C   UNL     1     129.546 129.276 115.217  1.00  0.00     0.025 A 
ATOM      6  C   UNL     1     129.944 129.348 116.557  1.00  0.00     0.062 A 
ATOM      7  C   UNL     1     130.483 129.176 114.182  1.00  0.00     0.020 A 
ATOM      8  C   UNL     1     130.041 129.107 112.862  1.00  0.00     0.094 A 
ATOM      9  C   UNL     1     128.668 129.137 112.606  1.00  0.00     0.336 A 
ATOM     10  O   UNL     1     128.247 129.076 111.421  1.00  0.00    -0.246 OA
ATOM     11  O   UNL     1     127.798 129.232 113.609  1.00  0.00    -0.419 OA
ENDROOT
BRANCH   1  12
ATOM     12  O   UNL     1     129.344 129.522 118.934  1.00  0.00    -0.493 OA
ATOM     13  C   UNL     1     130.350 128.722 119.547  1.00  0.00     0.278 C 
ENDBRANCH   1  12
BRANCH   2  14
ATOM     14  O   UNL     1     126.640 129.570 118.238  1.00  0.00    -0.502 OA
ATOM     15  H   UNL     1     126.561 128.894 118.988  1.00  0.00     0.293 HD
ENDBRANCH   2  14
BRANCH   3  16
ATOM     16  O   UNL     1     125.863 129.424 115.546  1.00  0.00    -0.502 OA
ATOM     17  H   UNL     1     125.151 128.971 116.107  1.00  0.00     0.293 HD
ENDBRANCH   3  16
TORSDOF 3
ENDMDL
MODEL 6
REMARK VINA RESULT:    -4.512      6.877      9.309
REMARK INTER + INTRA:          -5.100
REMARK INTER:                  -5.051
REMARK INTRA:                  -0.049
REMARK UNBOUND:                -0.061
REMARK SMILES COc1cc2ccc(=O)oc2c(O)c1O
REMARK SMILES IDX 3 1 14 2 12 3 11 4 5 5 4 6 6 7 7 8 8 9 9 10 10 11 2 12 1 13
REMARK SMILES IDX 15 14 13 16
REMARK H PARENT 15 15 13 17
REMARK Flexibility Score: inf
ROOT
ATOM      1  C   UNL     1     124.466 133.707 111.390  1.00  0.00     0.165 A 
ATOM      2  C   UNL     1     124.479 132.690 112.366  1.00  0.00     0.204 A 
ATOM      3  C   UNL     1     123.315 131.945 112.629  1.00  0.00     0.205 A 
ATOM      4  C   UNL     1     122.138 132.211 111.920  1.00  0.00     0.184 A 
ATOM      5  C   UNL     1     122.119 133.227 110.943  1.00  0.00     0.025 A 
ATOM      6  C   UNL     1     123.277 133.970 110.681  1.00  0.00     0.062 A 
ATOM      7  C   UNL     1     120.927 133.468 110.252  1.00  0.00     0.020 A 
ATOM      8  C   UNL     1     119.799 132.704 110.546  1.00  0.00     0.094 A 
ATOM      9  C   UNL     1     119.889 131.713 111.527  1.00  0.00     0.336 A 
ATOM     10  O   UNL     1     118.883 131.011 111.808  1.00  0.00    -0.246 OA
ATOM     11  O   UNL     1     121.037 131.504 112.169  1.00  0.00    -0.419 OA
ENDROOT
BRANCH   1  12
ATOM     12  O   UNL     1     125.645 134.431 111.153  1.00  0.00    -0.493 OA
ATOM     13  C   UNL     1     125.710 135.657 110.431  1.00  0.00     0.278 C 
ENDBRANCH   1  12
BRANCH   2  14
ATOM     14  O   UNL     1     125.644 132.411 113.081  1.00  0.00    -0.502 OA
ATOM     15  H   UNL     1     125.787 131.532 113.565  1.00  0.00     0.293 HD
ENDBRANCH   2  14
BRANCH   3  16
ATOM     16  O   UNL     1     123.314 130.934 113.592  1.00  0.00    -0.502 OA
ATOM     17  H   UNL     1     123.546 131.112 114.562  1.00  0.00     0.293 HD
ENDBRANCH   3  16
TORSDOF 3
ENDMDL
MODEL 7
REMARK VINA RESULT:    -4.510      5.649      7.591
REMARK INTER + INTRA:          -5.097
REMARK INTER:                  -5.030
REMARK INTRA:                  -0.067
REMARK UNBOUND:                -0.061
REMARK SMILES COc1cc2ccc(=O)oc2c(O)c1O
REMARK SMILES IDX 3 1 14 2 12 3 11 4 5 5 4 6 6 7 7 8 8 9 9 10 10 11 2 12 1 13
REMARK SMILES IDX 15 14 13 16
REMARK H PARENT 15 15 13 17
REMARK Flexibility Score: inf
ROOT
ATOM      1  C   UNL     1     123.475 132.662 112.928  1.00  0.00     0.165 A 
ATOM      2  C   UNL     1     124.313 131.557 113.182  1.00  0.00     0.204 A 
ATOM      3  C   UNL     1     125.640 131.552 112.715  1.00  0.00     0.205 A 
ATOM      4  C   UNL     1     126.134 132.647 111.995  1.00  0.00     0.184 A 
ATOM      5  C   UNL     1     125.299 133.754 111.738  1.00  0.00     0.025 A 
ATOM      6  C   UNL     1     123.978 133.759 112.202  1.00  0.00     0.062 A 
ATOM      7  C   UNL     1     125.823 134.832 111.017  1.00  0.00     0.020 A 
ATOM      8  C   UNL     1     127.143 134.783 110.574  1.00  0.00     0.094 A 
ATOM      9  C   UNL     1     127.913 133.653 110.865  1.00  0.00     0.336 A 
ATOM     10  O   UNL     1     129.108 133.588 110.475  1.00  0.00    -0.246 OA
ATOM     11  O   UNL     1     127.390 132.642 111.554  1.00  0.00    -0.419 OA
ENDROOT
BRANCH   1  12
ATOM     12  O   UNL     1     122.156 132.633 113.408  1.00  0.00    -0.493 OA
ATOM     13  C   UNL     1     121.025 132.233 112.642  1.00  0.00     0.278 C 
ENDBRANCH   1  12
BRANCH   2  14
ATOM     14  O   UNL     1     123.838 130.458 113.898  1.00  0.00    -0.502 OA
ATOM     15  H   UNL     1     123.603 130.511 114.882  1.00  0.00     0.293 HD
ENDBRANCH   2  14
BRANCH   3  16
ATOM     16  O   UNL     1     126.482 130.466 112.959  1.00  0.00    -0.502 OA
ATOM     17  H   UNL     1     126.260 129.529 112.645  1.00  0.00     0.293 HD
ENDBRANCH   3  16
TORSDOF 3
ENDMDL
MODEL 8
REMARK VINA RESULT:    -4.402      7.416      9.545
REMARK INTER + INTRA:          -4.978
REMARK INTER:                  -4.927
REMARK INTRA:                  -0.051
REMARK UNBOUND:                -0.061
REMARK SMILES COc1cc2ccc(=O)oc2c(O)c1O
REMARK SMILES IDX 3 1 14 2 12 3 11 4 5 5 4 6 6 7 7 8 8 9 9 10 10 11 2 12 1 13
REMARK SMILES IDX 15 14 13 16
REMARK H PARENT 15 15 13 17
REMARK Flexibility Score: inf
ROOT
ATOM      1  C   UNL     1     120.637 133.098 110.728  1.00  0.00     0.165 A 
ATOM      2  C   UNL     1     120.976 132.244 111.798  1.00  0.00     0.204 A 
ATOM      3  C   UNL     1     122.306 132.164 112.247  1.00  0.00     0.205 A 
ATOM      4  C   UNL     1     123.300 132.935 111.633  1.00  0.00     0.184 A 
ATOM      5  C   UNL     1     122.967 133.790 110.563  1.00  0.00     0.025 A 
ATOM      6  C   UNL     1     121.643 133.870 110.115  1.00  0.00     0.062 A 
ATOM      7  C   UNL     1     123.984 134.546 109.971  1.00  0.00     0.020 A 
ATOM      8  C   UNL     1     125.288 134.435 110.450  1.00  0.00     0.094 A 
ATOM      9  C   UNL     1     125.546 133.567 111.515  1.00  0.00     0.336 A 
ATOM     10  O   UNL     1     126.717 133.451 111.963  1.00  0.00    -0.246 OA
ATOM     11  O   UNL     1     124.560 132.859 112.060  1.00  0.00    -0.419 OA
ENDROOT
BRANCH   1  12
ATOM     12  O   UNL     1     119.300 133.153 110.305  1.00  0.00    -0.493 OA
ATOM     13  C   UNL     1     118.883 133.447 108.976  1.00  0.00     0.278 C 
ENDBRANCH   1  12
BRANCH   2  14
ATOM     14  O   UNL     1     119.997 131.469 112.422  1.00  0.00    -0.502 OA
ATOM     15  H   UNL     1     119.323 131.864 113.068  1.00  0.00     0.293 HD
ENDBRANCH   2  14
BRANCH   3  16
ATOM     16  O   UNL     1     122.656 131.324 113.305  1.00  0.00    -0.502 OA
ATOM     17  H   UNL     1     122.135 130.483 113.523  1.00  0.00     0.293 HD
ENDBRANCH   3  16
TORSDOF 3
ENDMDL
MODEL 9
REMARK VINA RESULT:    -4.242      6.078      9.668
REMARK INTER + INTRA:          -4.799
REMARK INTER:                  -4.729
REMARK INTRA:                  -0.069
REMARK UNBOUND:                -0.061
REMARK SMILES COc1cc2ccc(=O)oc2c(O)c1O
REMARK SMILES IDX 3 1 14 2 12 3 11 4 5 5 4 6 6 7 7 8 8 9 9 10 10 11 2 12 1 13
REMARK SMILES IDX 15 14 13 16
REMARK H PARENT 15 15 13 17
REMARK Flexibility Score: inf
ROOT
ATOM      1  C   UNL     1     124.128 132.308 112.640  1.00  0.00     0.165 A 
ATOM      2  C   UNL     1     124.401 133.067 111.484  1.00  0.00     0.204 A 
ATOM      3  C   UNL     1     123.353 133.466 110.634  1.00  0.00     0.205 A 
ATOM      4  C   UNL     1     122.033 133.109 110.935  1.00  0.00     0.184 A 
ATOM      5  C   UNL     1     121.755 132.349 112.090  1.00  0.00     0.025 A 
ATOM      6  C   UNL     1     122.798 131.952 112.935  1.00  0.00     0.062 A 
ATOM      7  C   UNL     1     120.426 132.009 112.362  1.00  0.00     0.020 A 
ATOM      8  C   UNL     1     119.420 132.426 111.492  1.00  0.00     0.094 A 
ATOM      9  C   UNL     1     119.768 133.178 110.365  1.00  0.00     0.336 A 
ATOM     10  O   UNL     1     118.876 133.565 109.566  1.00  0.00    -0.246 OA
ATOM     11  O   UNL     1     121.042 133.487 110.130  1.00  0.00    -0.419 OA
ENDROOT
BRANCH   1  12
ATOM     12  O   UNL     1     125.198 131.927 113.465  1.00  0.00    -0.493 OA
ATOM     13  C   UNL     1     125.769 130.623 113.499  1.00  0.00     0.278 C 
ENDBRANCH   1  12
BRANCH   2  14
ATOM     14  O   UNL     1     125.711 133.433 111.169  1.00  0.00    -0.502 OA
ATOM     15  H   UNL     1     126.476 132.768 111.175  1.00  0.00     0.293 HD
ENDBRANCH   2  14
BRANCH   3  16
ATOM     16  O   UNL     1     123.607 134.219 109.487  1.00  0.00    -0.502 OA
ATOM     17  H   UNL     1     124.369 134.001 108.855  1.00  0.00     0.293 HD
ENDBRANCH   3  16
TORSDOF 3
ENDMDL
