MODEL 1
REMARK VINA RESULT:     0.917      0.000      0.000
REMARK INTER + INTRA:           0.825
REMARK INTER:                   1.454
REMARK INTRA:                  -0.629
REMARK UNBOUND:                -0.629
REMARK SMILES CCCCCCCCCCCC(=O)[O-]
REMARK SMILES IDX 7 1 8 2 9 3 10 4 11 5 12 6 13 7 14 8 6 9 5 10 4 11 3 12 2 13
REMARK SMILES IDX 1 14
REMARK H PARENT
REMARK Flexibility Score: inf
ROOT
ATOM      1  C   UNL     1     103.320 102.257 104.956  1.00  0.00     0.000 C 
ENDROOT
BRANCH   1   2
ATOM      2  C   UNL     1     103.380 101.538 106.315  1.00  0.00     0.000 C 
BRANCH   2   3
ATOM      3  C   UNL     1     103.607 102.499 107.493  1.00  0.00     0.000 C 
BRANCH   3   4
ATOM      4  C   UNL     1     103.375 103.955 107.066  1.00  0.00     0.006 C 
BRANCH   4   5
ATOM      5  C   UNL     1     104.675 104.767 107.044  1.00  0.00     0.053 C 
BRANCH   5   6
ATOM      6  C   UNL     1     104.446 106.192 107.448  1.00  0.00     0.041 C 
ATOM      7  O   UNL     1     104.114 107.050 106.587  1.00  0.00    -0.550 OA
ATOM      8  O   UNL     1     104.632 106.578 108.769  1.00  0.00    -0.550 OA
ENDBRANCH   5   6
ENDBRANCH   4   5
ENDBRANCH   3   4
ENDBRANCH   2   3
ENDBRANCH   1   2
BRANCH   1   9
ATOM      9  C   UNL     1     103.305 101.331 103.726  1.00  0.00     0.000 C 
BRANCH   9  10
ATOM     10  C   UNL     1     103.679 102.059 102.423  1.00  0.00    -0.000 C 
BRANCH  10  11
ATOM     11  C   UNL     1     103.284 103.546 102.444  1.00  0.00    -0.000 C 
BRANCH  11  12
ATOM     12  C   UNL     1     104.401 104.459 101.909  1.00  0.00    -0.000 C 
BRANCH  12  13
ATOM     13  C   UNL     1     104.785 105.564 102.905  1.00  0.00    -0.003 C 
ATOM     14  C   UNL     1     104.258 106.941 102.499  1.00  0.00     0.004 C 
ENDBRANCH  12  13
ENDBRANCH  11  12
ENDBRANCH  10  11
ENDBRANCH   9  10
ENDBRANCH   1   9
TORSDOF 10
ENDMDL
MODEL 2
REMARK VINA RESULT:     0.998      2.095      4.068
REMARK INTER + INTRA:           0.953
REMARK INTER:                   1.446
REMARK INTRA:                  -0.493
REMARK UNBOUND:                -0.629
REMARK SMILES CCCCCCCCCCCC(=O)[O-]
REMARK SMILES IDX 7 1 8 2 9 3 10 4 11 5 12 6 13 7 14 8 6 9 5 10 4 11 3 12 2 13
REMARK SMILES IDX 1 14
REMARK H PARENT
REMARK Flexibility Score: inf
ROOT
ATOM      1  C   UNL     1     104.645 106.159 104.808  1.00  0.00     0.000 C 
ENDROOT
BRANCH   1   2
ATOM      2  C   UNL     1     104.677 106.945 106.130  1.00  0.00     0.000 C 
BRANCH   2   3
ATOM      3  C   UNL     1     104.270 106.095 107.344  1.00  0.00     0.000 C 
BRANCH   3   4
ATOM      4  C   UNL     1     104.708 104.635 107.163  1.00  0.00     0.006 C 
BRANCH   4   5
ATOM      5  C   UNL     1     103.538 103.722 106.776  1.00  0.00     0.053 C 
BRANCH   5   6
ATOM      6  C   UNL     1     103.578 102.423 107.522  1.00  0.00     0.041 C 
ATOM      7  O   UNL     1     103.851 101.352 106.919  1.00  0.00    -0.550 OA
ATOM      8  O   UNL     1     103.280 102.392 108.879  1.00  0.00    -0.550 OA
ENDBRANCH   5   6
ENDBRANCH   4   5
ENDBRANCH   3   4
ENDBRANCH   2   3
ENDBRANCH   1   2
BRANCH   1   9
ATOM      9  C   UNL     1     104.651 107.022 103.533  1.00  0.00     0.000 C 
BRANCH   9  10
ATOM     10  C   UNL     1     104.362 106.210 102.258  1.00  0.00    -0.000 C 
BRANCH  10  11
ATOM     11  C   UNL     1     104.720 104.723 102.412  1.00  0.00    -0.000 C 
BRANCH  11  12
ATOM     12  C   UNL     1     103.634 103.793 101.840  1.00  0.00    -0.000 C 
BRANCH  12  13
ATOM     13  C   UNL     1     103.143 102.762 102.867  1.00  0.00    -0.003 C 
ATOM     14  C   UNL     1     103.652 101.348 102.580  1.00  0.00     0.004 C 
ENDBRANCH  12  13
ENDBRANCH  11  12
ENDBRANCH  10  11
ENDBRANCH   9  10
ENDBRANCH   1   9
TORSDOF 10
ENDMDL
MODEL 3
REMARK VINA RESULT:     1.020      3.322      4.854
REMARK INTER + INTRA:           0.987
REMARK INTER:                   1.681
REMARK INTRA:                  -0.694
REMARK UNBOUND:                -0.629
REMARK SMILES CCCCCCCCCCCC(=O)[O-]
REMARK SMILES IDX 7 1 8 2 9 3 10 4 11 5 12 6 13 7 14 8 6 9 5 10 4 11 3 12 2 13
REMARK SMILES IDX 1 14
REMARK H PARENT
REMARK Flexibility Score: inf
ROOT
ATOM      1  C   UNL     1     103.265 102.239 100.234  1.00  0.00     0.000 C 
ENDROOT
BRANCH   1   2
ATOM      2  C   UNL     1     103.577 101.566 101.582  1.00  0.00     0.000 C 
BRANCH   2   3
ATOM      3  C   UNL     1     103.577 102.552 102.760  1.00  0.00     0.000 C 
BRANCH   3   4
ATOM      4  C   UNL     1     103.401 103.996 102.267  1.00  0.00     0.006 C 
BRANCH   4   5
ATOM      5  C   UNL     1     104.721 104.777 102.277  1.00  0.00     0.053 C 
BRANCH   5   6
ATOM      6  C   UNL     1     104.509 106.221 102.617  1.00  0.00     0.041 C 
ATOM      7  O   UNL     1     104.556 106.605 103.815  1.00  0.00    -0.550 OA
ATOM      8  O   UNL     1     104.227 107.136 101.611  1.00  0.00    -0.550 OA
ENDBRANCH   5   6
ENDBRANCH   4   5
ENDBRANCH   3   4
ENDBRANCH   2   3
ENDBRANCH   1   2
BRANCH   1   9
ATOM      9  C   UNL     1     103.324 101.309  99.008  1.00  0.00     0.000 C 
BRANCH   9  10
ATOM     10  C   UNL     1     103.711 102.046  97.714  1.00  0.00    -0.000 C 
BRANCH  10  11
ATOM     11  C   UNL     1     103.294 103.527  97.731  1.00  0.00    -0.000 C 
BRANCH  11  12
ATOM     12  C   UNL     1     104.400 104.456  97.199  1.00  0.00    -0.000 C 
BRANCH  12  13
ATOM     13  C   UNL     1     104.756 105.574  98.191  1.00  0.00    -0.003 C 
ATOM     14  C   UNL     1     104.267 106.950  97.735  1.00  0.00     0.004 C 
ENDBRANCH  12  13
ENDBRANCH  11  12
ENDBRANCH  10  11
ENDBRANCH   9  10
ENDBRANCH   1   9
TORSDOF 10
ENDMDL
MODEL 4
REMARK VINA RESULT:     1.021      1.573      4.493
REMARK INTER + INTRA:           0.989
REMARK INTER:                   1.504
REMARK INTRA:                  -0.515
REMARK UNBOUND:                -0.629
REMARK SMILES CCCCCCCCCCCC(=O)[O-]
REMARK SMILES IDX 7 1 8 2 9 3 10 4 11 5 12 6 13 7 14 8 6 9 5 10 4 11 3 12 2 13
REMARK SMILES IDX 1 14
REMARK H PARENT
REMARK Flexibility Score: inf
ROOT
ATOM      1  C   UNL     1     103.305 102.183 104.777  1.00  0.00     0.000 C 
ENDROOT
BRANCH   1   2
ATOM      2  C   UNL     1     103.361 101.344 103.487  1.00  0.00     0.000 C 
BRANCH   2   3
ATOM      3  C   UNL     1     103.628 102.190 102.232  1.00  0.00     0.000 C 
BRANCH   3   4
ATOM      4  C   UNL     1     103.337 103.674 102.498  1.00  0.00     0.006 C 
BRANCH   4   5
ATOM      5  C   UNL     1     104.484 104.581 102.034  1.00  0.00     0.053 C 
BRANCH   5   6
ATOM      6  C   UNL     1     104.435 105.922 102.702  1.00  0.00     0.041 C 
ATOM      7  O   UNL     1     104.744 106.037 103.917  1.00  0.00    -0.550 OA
ATOM      8  O   UNL     1     104.017 107.038 101.988  1.00  0.00    -0.550 OA
ENDBRANCH   5   6
ENDBRANCH   4   5
ENDBRANCH   3   4
ENDBRANCH   2   3
ENDBRANCH   1   2
BRANCH   1   9
ATOM      9  C   UNL     1     103.334 101.374 106.086  1.00  0.00     0.000 C 
BRANCH   9  10
ATOM     10  C   UNL     1     103.612 102.245 107.324  1.00  0.00    -0.000 C 
BRANCH  10  11
ATOM     11  C   UNL     1     103.366 103.740 107.059  1.00  0.00    -0.000 C 
BRANCH  11  12
ATOM     12  C   UNL     1     104.673 104.552 107.008  1.00  0.00    -0.000 C 
BRANCH  12  13
ATOM     13  C   UNL     1     104.614 105.816 107.878  1.00  0.00    -0.003 C 
ATOM     14  C   UNL     1     104.224 107.065 107.086  1.00  0.00     0.004 C 
ENDBRANCH  12  13
ENDBRANCH  11  12
ENDBRANCH  10  11
ENDBRANCH   9  10
ENDBRANCH   1   9
TORSDOF 10
ENDMDL
MODEL 5
REMARK VINA RESULT:     1.031      3.965      6.299
REMARK INTER + INTRA:           1.005
REMARK INTER:                   1.704
REMARK INTRA:                  -0.699
REMARK UNBOUND:                -0.629
REMARK SMILES CCCCCCCCCCCC(=O)[O-]
REMARK SMILES IDX 7 1 8 2 9 3 10 4 11 5 12 6 13 7 14 8 6 9 5 10 4 11 3 12 2 13
REMARK SMILES IDX 1 14
REMARK H PARENT
REMARK Flexibility Score: inf
ROOT
ATOM      1  C   UNL     1     104.691 106.048 100.223  1.00  0.00     0.000 C 
ENDROOT
BRANCH   1   2
ATOM      2  C   UNL     1     104.502 106.718 101.595  1.00  0.00     0.000 C 
BRANCH   2   3
ATOM      3  C   UNL     1     104.382 105.707 102.746  1.00  0.00     0.000 C 
BRANCH   3   4
ATOM      4  C   UNL     1     104.460 104.267 102.222  1.00  0.00     0.006 C 
BRANCH   4   5
ATOM      5  C   UNL     1     103.221 103.444 102.598  1.00  0.00     0.053 C 
BRANCH   5   6
ATOM      6  C   UNL     1     103.526 101.978 102.660  1.00  0.00     0.041 C 
ATOM      7  O   UNL     1     103.904 101.364 101.627  1.00  0.00    -0.550 OA
ATOM      8  O   UNL     1     103.361 101.284 103.852  1.00  0.00    -0.550 OA
ENDBRANCH   5   6
ENDBRANCH   4   5
ENDBRANCH   3   4
ENDBRANCH   2   3
ENDBRANCH   1   2
BRANCH   1   9
ATOM      9  C   UNL     1     104.630 107.000  99.015  1.00  0.00     0.000 C 
BRANCH   9  10
ATOM     10  C   UNL     1     104.299 106.276  97.697  1.00  0.00    -0.000 C 
BRANCH  10  11
ATOM     11  C   UNL     1     104.719 104.797  97.716  1.00  0.00    -0.000 C 
BRANCH  11  12
ATOM     12  C   UNL     1     103.619 103.866  97.176  1.00  0.00    -0.000 C 
BRANCH  12  13
ATOM     13  C   UNL     1     103.233 102.768  98.179  1.00  0.00    -0.003 C 
ATOM     14  C   UNL     1     103.705 101.378  97.750  1.00  0.00     0.004 C 
ENDBRANCH  12  13
ENDBRANCH  11  12
ENDBRANCH  10  11
ENDBRANCH   9  10
ENDBRANCH   1   9
TORSDOF 10
ENDMDL
MODEL 6
REMARK VINA RESULT:     1.086      2.583      6.000
REMARK INTER + INTRA:           1.092
REMARK INTER:                   1.600
REMARK INTRA:                  -0.508
REMARK UNBOUND:                -0.629
REMARK SMILES CCCCCCCCCCCC(=O)[O-]
REMARK SMILES IDX 7 1 8 2 9 3 10 4 11 5 12 6 13 7 14 8 6 9 5 10 4 11 3 12 2 13
REMARK SMILES IDX 1 14
REMARK H PARENT
REMARK Flexibility Score: inf
ROOT
ATOM      1  C   UNL     1     104.691 106.067 104.831  1.00  0.00     0.000 C 
ENDROOT
BRANCH   1   2
ATOM      2  C   UNL     1     104.683 106.899 103.537  1.00  0.00     0.000 C 
BRANCH   2   3
ATOM      3  C   UNL     1     104.231 106.095 102.308  1.00  0.00     0.000 C 
BRANCH   3   4
ATOM      4  C   UNL     1     104.690 104.633 102.409  1.00  0.00     0.006 C 
BRANCH   4   5
ATOM      5  C   UNL     1     103.648 103.658 101.846  1.00  0.00     0.053 C 
BRANCH   5   6
ATOM      6  C   UNL     1     103.600 102.384 102.633  1.00  0.00     0.041 C 
ATOM      7  O   UNL     1     103.843 101.282 102.072  1.00  0.00    -0.550 OA
ATOM      8  O   UNL     1     103.253 102.410 103.978  1.00  0.00    -0.550 OA
ENDBRANCH   5   6
ENDBRANCH   4   5
ENDBRANCH   3   4
ENDBRANCH   2   3
ENDBRANCH   1   2
BRANCH   1   9
ATOM      9  C   UNL     1     104.629 106.882 106.135  1.00  0.00     0.000 C 
BRANCH   9  10
ATOM     10  C   UNL     1     104.384 106.009 107.378  1.00  0.00    -0.000 C 
BRANCH  10  11
ATOM     11  C   UNL     1     104.525 104.507 107.079  1.00  0.00    -0.000 C 
BRANCH  11  12
ATOM     12  C   UNL     1     103.173 103.772 107.101  1.00  0.00    -0.000 C 
BRANCH  12  13
ATOM     13  C   UNL     1     103.232 102.454 107.888  1.00  0.00    -0.003 C 
ATOM     14  C   UNL     1     103.854 101.310 107.086  1.00  0.00     0.004 C 
ENDBRANCH  12  13
ENDBRANCH  11  12
ENDBRANCH  10  11
ENDBRANCH   9  10
ENDBRANCH   1   9
TORSDOF 10
ENDMDL
MODEL 7
REMARK VINA RESULT:     1.135      4.210      6.796
REMARK INTER + INTRA:           1.170
REMARK INTER:                   1.617
REMARK INTRA:                  -0.447
REMARK UNBOUND:                -0.629
REMARK SMILES CCCCCCCCCCCC(=O)[O-]
REMARK SMILES IDX 7 1 8 2 9 3 10 4 11 5 12 6 13 7 14 8 6 9 5 10 4 11 3 12 2 13
REMARK SMILES IDX 1 14
REMARK H PARENT
REMARK Flexibility Score: inf
ROOT
ATOM      1  C   UNL     1     103.326 102.103 100.083  1.00  0.00     0.000 C 
ENDROOT
BRANCH   1   2
ATOM      2  C   UNL     1     103.304 101.306  98.766  1.00  0.00     0.000 C 
BRANCH   2   3
ATOM      3  C   UNL     1     103.759 102.136  97.555  1.00  0.00     0.000 C 
BRANCH   3   4
ATOM      4  C   UNL     1     103.344 103.606  97.709  1.00  0.00     0.006 C 
BRANCH   4   5
ATOM      5  C   UNL     1     104.429 104.570  97.214  1.00  0.00     0.053 C 
BRANCH   5   6
ATOM      6  C   UNL     1     104.425 105.853  97.988  1.00  0.00     0.041 C 
ATOM      7  O   UNL     1     104.755 105.863  99.203  1.00  0.00    -0.550 OA
ATOM      8  O   UNL     1     104.025 107.033  97.373  1.00  0.00    -0.550 OA
ENDBRANCH   5   6
ENDBRANCH   4   5
ENDBRANCH   3   4
ENDBRANCH   2   3
ENDBRANCH   1   2
BRANCH   1   9
ATOM      9  C   UNL     1     103.335 101.250 101.364  1.00  0.00     0.000 C 
BRANCH   9  10
ATOM     10  C   UNL     1     103.756 102.046 102.612  1.00  0.00    -0.000 C 
BRANCH  10  11
ATOM     11  C   UNL     1     103.346 103.526 102.533  1.00  0.00    -0.000 C 
BRANCH  11  12
ATOM     12  C   UNL     1     104.550 104.461 102.321  1.00  0.00    -0.000 C 
BRANCH  12  13
ATOM     13  C   UNL     1     104.475 105.723 103.193  1.00  0.00    -0.003 C 
ATOM     14  C   UNL     1     104.393 107.010 102.371  1.00  0.00     0.004 C 
ENDBRANCH  12  13
ENDBRANCH  11  12
ENDBRANCH  10  11
ENDBRANCH   9  10
ENDBRANCH   1   9
TORSDOF 10
ENDMDL
MODEL 8
REMARK VINA RESULT:     1.164      3.596      7.450
REMARK INTER + INTRA:           1.216
REMARK INTER:                   1.646
REMARK INTRA:                  -0.430
REMARK UNBOUND:                -0.629
REMARK SMILES CCCCCCCCCCCC(=O)[O-]
REMARK SMILES IDX 7 1 8 2 9 3 10 4 11 5 12 6 13 7 14 8 6 9 5 10 4 11 3 12 2 13
REMARK SMILES IDX 1 14
REMARK H PARENT
REMARK Flexibility Score: inf
ROOT
ATOM      1  C   UNL     1     104.633 106.156 109.532  1.00  0.00     0.000 C 
ENDROOT
BRANCH   1   2
ATOM      2  C   UNL     1     104.712 106.962 108.223  1.00  0.00     0.000 C 
BRANCH   2   3
ATOM      3  C   UNL     1     104.336 106.133 106.984  1.00  0.00     0.000 C 
BRANCH   3   4
ATOM      4  C   UNL     1     104.695 104.654 107.184  1.00  0.00     0.006 C 
BRANCH   4   5
ATOM      5  C   UNL     1     103.605 103.715 106.651  1.00  0.00     0.053 C 
BRANCH   5   6
ATOM      6  C   UNL     1     103.539 102.440 107.435  1.00  0.00     0.041 C 
ATOM      7  O   UNL     1     103.257 102.463 108.662  1.00  0.00    -0.550 OA
ATOM      8  O   UNL     1     103.823 101.229 106.816  1.00  0.00    -0.550 OA
ENDBRANCH   5   6
ENDBRANCH   4   5
ENDBRANCH   3   4
ENDBRANCH   2   3
ENDBRANCH   1   2
BRANCH   1   9
ATOM      9  C   UNL     1     104.747 106.990 110.821  1.00  0.00     0.000 C 
BRANCH   9  10
ATOM     10  C   UNL     1     104.341 106.204 112.081  1.00  0.00    -0.000 C 
BRANCH  10  11
ATOM     11  C   UNL     1     104.641 104.701 111.960  1.00  0.00    -0.000 C 
BRANCH  11  12
ATOM     12  C   UNL     1     103.370 103.862 111.740  1.00  0.00    -0.000 C 
BRANCH  12  13
ATOM     13  C   UNL     1     103.337 102.602 112.619  1.00  0.00    -0.003 C 
ATOM     14  C   UNL     1     103.704 101.332 111.850  1.00  0.00     0.004 C 
ENDBRANCH  12  13
ENDBRANCH  11  12
ENDBRANCH  10  11
ENDBRANCH   9  10
ENDBRANCH   1   9
TORSDOF 10
ENDMDL
MODEL 9
REMARK VINA RESULT:     1.175      4.605      7.846
REMARK INTER + INTRA:           1.233
REMARK INTER:                   1.866
REMARK INTRA:                  -0.633
REMARK UNBOUND:                -0.629
REMARK SMILES CCCCCCCCCCCC(=O)[O-]
REMARK SMILES IDX 7 1 8 2 9 3 10 4 11 5 12 6 13 7 14 8 6 9 5 10 4 11 3 12 2 13
REMARK SMILES IDX 1 14
REMARK H PARENT
REMARK Flexibility Score: inf
ROOT
ATOM      1  C   UNL     1     104.693 106.001 100.175  1.00  0.00     0.000 C 
ENDROOT
BRANCH   1   2
ATOM      2  C   UNL     1     104.656 106.938  98.954  1.00  0.00     0.000 C 
BRANCH   2   3
ATOM      3  C   UNL     1     104.277 106.213  97.654  1.00  0.00     0.000 C 
BRANCH   3   4
ATOM      4  C   UNL     1     104.708 104.740  97.699  1.00  0.00     0.006 C 
BRANCH   4   5
ATOM      5  C   UNL     1     103.595 103.795  97.231  1.00  0.00     0.053 C 
BRANCH   5   6
ATOM      6  C   UNL     1     103.607 102.504  97.992  1.00  0.00     0.041 C 
ATOM      7  O   UNL     1     103.272 102.479  99.206  1.00  0.00    -0.550 OA
ATOM      8  O   UNL     1     104.021 101.334  97.368  1.00  0.00    -0.550 OA
ENDBRANCH   5   6
ENDBRANCH   4   5
ENDBRANCH   3   4
ENDBRANCH   2   3
ENDBRANCH   1   2
BRANCH   1   9
ATOM      9  C   UNL     1     104.445 106.684 101.533  1.00  0.00     0.000 C 
BRANCH   9  10
ATOM     10  C   UNL     1     104.454 105.696 102.712  1.00  0.00    -0.000 C 
BRANCH  10  11
ATOM     11  C   UNL     1     104.396 104.229 102.252  1.00  0.00    -0.000 C 
BRANCH  11  12
ATOM     12  C   UNL     1     103.050 103.561 102.583  1.00  0.00    -0.000 C 
BRANCH  12  13
ATOM     13  C   UNL     1     103.222 102.154 103.177  1.00  0.00    -0.003 C 
ATOM     14  C   UNL     1     103.965 101.201 102.240  1.00  0.00     0.004 C 
ENDBRANCH  12  13
ENDBRANCH  11  12
ENDBRANCH  10  11
ENDBRANCH   9  10
ENDBRANCH   1   9
TORSDOF 10
ENDMDL
