MODEL 1
REMARK VINA RESULT:    -4.092      0.000      0.000
REMARK INTER + INTRA:          -6.512
REMARK INTER:                  -5.767
REMARK INTRA:                  -0.745
REMARK UNBOUND:                -0.745
REMARK SMILES CCCCCCCCC(=O)[O-]
REMARK SMILES IDX 6 1 7 2 8 3 9 4 10 5 11 6 5 7 4 8 3 9 2 10 1 11
REMARK H PARENT
REMARK Flexibility Score: inf
ROOT
ATOM      1  C   UNL     1      21.055  19.117  46.864  1.00  0.00     0.000 C 
ENDROOT
BRANCH   1   2
ATOM      2  C   UNL     1      20.013  20.196  46.526  1.00  0.00     0.006 C 
BRANCH   2   3
ATOM      3  C   UNL     1      19.483  20.077  45.092  1.00  0.00     0.053 C 
BRANCH   3   4
ATOM      4  C   UNL     1      18.459  21.134  44.825  1.00  0.00     0.041 C 
ATOM      5  O   UNL     1      17.925  21.228  43.688  1.00  0.00    -0.550 OA
ATOM      6  O   UNL     1      18.058  21.987  45.845  1.00  0.00    -0.550 OA
ENDBRANCH   3   4
ENDBRANCH   2   3
ENDBRANCH   1   2
BRANCH   1   7
ATOM      7  C   UNL     1      20.517  18.062  47.842  1.00  0.00     0.000 C 
BRANCH   7   8
ATOM      8  C   UNL     1      20.397  16.694  47.161  1.00  0.00    -0.000 C 
BRANCH   8   9
ATOM      9  C   UNL     1      19.013  16.514  46.527  1.00  0.00    -0.000 C 
BRANCH   9  10
ATOM     10  C   UNL     1      17.920  17.138  47.403  1.00  0.00    -0.003 C 
ATOM     11  C   UNL     1      16.872  17.850  46.554  1.00  0.00     0.004 C 
ENDBRANCH   9  10
ENDBRANCH   8   9
ENDBRANCH   7   8
ENDBRANCH   1   7
TORSDOF 7
ENDMDL
MODEL 2
REMARK VINA RESULT:    -4.071      2.958      4.155
REMARK INTER + INTRA:          -6.482
REMARK INTER:                  -5.960
REMARK INTRA:                  -0.522
REMARK UNBOUND:                -0.745
REMARK SMILES CCCCCCCCC(=O)[O-]
REMARK SMILES IDX 6 1 7 2 8 3 9 4 10 5 11 6 5 7 4 8 3 9 2 10 1 11
REMARK H PARENT
REMARK Flexibility Score: inf
ROOT
ATOM      1  C   UNL     1      20.784  19.148  46.681  1.00  0.00     0.000 C 
ENDROOT
BRANCH   1   2
ATOM      2  C   UNL     1      20.140  20.471  47.123  1.00  0.00     0.006 C 
BRANCH   2   3
ATOM      3  C   UNL     1      19.143  20.286  48.275  1.00  0.00     0.053 C 
BRANCH   3   4
ATOM      4  C   UNL     1      19.766  20.691  49.574  1.00  0.00     0.041 C 
ATOM      5  O   UNL     1      19.429  21.768  50.132  1.00  0.00    -0.550 OA
ATOM      6  O   UNL     1      20.686  19.854  50.194  1.00  0.00    -0.550 OA
ENDBRANCH   3   4
ENDBRANCH   2   3
ENDBRANCH   1   2
BRANCH   1   7
ATOM      7  C   UNL     1      19.866  17.937  46.910  1.00  0.00     0.000 C 
BRANCH   7   8
ATOM      8  C   UNL     1      20.679  16.701  47.314  1.00  0.00    -0.000 C 
BRANCH   8   9
ATOM      9  C   UNL     1      21.894  17.095  48.163  1.00  0.00    -0.000 C 
BRANCH   9  10
ATOM     10  C   UNL     1      22.852  15.910  48.334  1.00  0.00    -0.003 C 
ATOM     11  C   UNL     1      22.148  14.586  48.053  1.00  0.00     0.004 C 
ENDBRANCH   9  10
ENDBRANCH   8   9
ENDBRANCH   7   8
ENDBRANCH   1   7
TORSDOF 7
ENDMDL
MODEL 3
REMARK VINA RESULT:    -4.070      1.596      2.354
REMARK INTER + INTRA:          -6.481
REMARK INTER:                  -5.848
REMARK INTRA:                  -0.633
REMARK UNBOUND:                -0.745
REMARK SMILES CCCCCCCCC(=O)[O-]
REMARK SMILES IDX 6 1 7 2 8 3 9 4 10 5 11 6 5 7 4 8 3 9 2 10 1 11
REMARK H PARENT
REMARK Flexibility Score: inf
ROOT
ATOM      1  C   UNL     1      20.239  20.570  47.198  1.00  0.00     0.000 C 
ENDROOT
BRANCH   1   2
ATOM      2  C   UNL     1      19.193  20.757  46.087  1.00  0.00     0.006 C 
BRANCH   2   3
ATOM      3  C   UNL     1      19.418  19.812  44.900  1.00  0.00     0.053 C 
BRANCH   3   4
ATOM      4  C   UNL     1      18.525  20.187  43.759  1.00  0.00     0.041 C 
ATOM      5  O   UNL     1      18.640  21.312  43.206  1.00  0.00    -0.550 OA
ATOM      6  O   UNL     1      17.596  19.274  43.275  1.00  0.00    -0.550 OA
ENDBRANCH   3   4
ENDBRANCH   2   3
ENDBRANCH   1   2
BRANCH   1   7
ATOM      7  C   UNL     1      19.671  19.848  48.430  1.00  0.00     0.000 C 
BRANCH   7   8
ATOM      8  C   UNL     1      20.617  18.737  48.899  1.00  0.00    -0.000 C 
BRANCH   8   9
ATOM      9  C   UNL     1      21.350  18.100  47.713  1.00  0.00    -0.000 C 
BRANCH   9  10
ATOM     10  C   UNL     1      20.944  16.632  47.538  1.00  0.00    -0.003 C 
ATOM     11  C   UNL     1      19.639  16.510  46.758  1.00  0.00     0.004 C 
ENDBRANCH   9  10
ENDBRANCH   8   9
ENDBRANCH   7   8
ENDBRANCH   1   7
TORSDOF 7
ENDMDL
MODEL 4
REMARK VINA RESULT:    -4.069      2.262      3.808
REMARK INTER + INTRA:          -6.480
REMARK INTER:                  -5.822
REMARK INTRA:                  -0.658
REMARK UNBOUND:                -0.745
REMARK SMILES CCCCCCCCC(=O)[O-]
REMARK SMILES IDX 6 1 7 2 8 3 9 4 10 5 11 6 5 7 4 8 3 9 2 10 1 11
REMARK H PARENT
REMARK Flexibility Score: inf
ROOT
ATOM      1  C   UNL     1      20.489  16.788  47.419  1.00  0.00     0.000 C 
ENDROOT
BRANCH   1   2
ATOM      2  C   UNL     1      19.255  16.830  46.503  1.00  0.00     0.006 C 
BRANCH   2   3
ATOM      3  C   UNL     1      17.942  16.952  47.287  1.00  0.00     0.053 C 
BRANCH   3   4
ATOM      4  C   UNL     1      16.900  17.632  46.455  1.00  0.00     0.041 C 
ATOM      5  O   UNL     1      17.094  18.799  46.024  1.00  0.00    -0.550 OA
ATOM      6  O   UNL     1      15.734  16.958  46.115  1.00  0.00    -0.550 OA
ENDBRANCH   3   4
ENDBRANCH   2   3
ENDBRANCH   1   2
BRANCH   1   7
ATOM      7  C   UNL     1      21.181  18.154  47.542  1.00  0.00     0.000 C 
BRANCH   7   8
ATOM      8  C   UNL     1      20.607  19.153  46.530  1.00  0.00    -0.000 C 
BRANCH   8   9
ATOM      9  C   UNL     1      20.227  20.472  47.214  1.00  0.00    -0.000 C 
BRANCH   9  10
ATOM     10  C   UNL     1      19.279  20.227  48.394  1.00  0.00    -0.003 C 
ATOM     11  C   UNL     1      19.839  20.820  49.683  1.00  0.00     0.004 C 
ENDBRANCH   9  10
ENDBRANCH   8   9
ENDBRANCH   7   8
ENDBRANCH   1   7
TORSDOF 7
ENDMDL
MODEL 5
REMARK VINA RESULT:    -4.043      4.090      5.614
REMARK INTER + INTRA:          -6.442
REMARK INTER:                  -5.797
REMARK INTRA:                  -0.645
REMARK UNBOUND:                -0.745
REMARK SMILES CCCCCCCCC(=O)[O-]
REMARK SMILES IDX 6 1 7 2 8 3 9 4 10 5 11 6 5 7 4 8 3 9 2 10 1 11
REMARK H PARENT
REMARK Flexibility Score: inf
ROOT
ATOM      1  C   UNL     1      19.625  18.046  46.949  1.00  0.00     0.000 C 
ENDROOT
BRANCH   1   2
ATOM      2  C   UNL     1      20.477  16.806  47.261  1.00  0.00     0.006 C 
BRANCH   2   3
ATOM      3  C   UNL     1      21.787  17.155  47.979  1.00  0.00     0.053 C 
BRANCH   3   4
ATOM      4  C   UNL     1      22.380  15.932  48.604  1.00  0.00     0.041 C 
ATOM      5  O   UNL     1      21.906  15.474  49.677  1.00  0.00    -0.550 OA
ATOM      6  O   UNL     1      23.428  15.269  47.977  1.00  0.00    -0.550 OA
ENDBRANCH   3   4
ENDBRANCH   2   3
ENDBRANCH   1   2
BRANCH   1   7
ATOM      7  C   UNL     1      20.466  19.232  46.453  1.00  0.00     0.000 C 
BRANCH   7   8
ATOM      8  C   UNL     1      19.939  20.554  47.023  1.00  0.00    -0.000 C 
BRANCH   8   9
ATOM      9  C   UNL     1      19.099  20.315  48.283  1.00  0.00    -0.000 C 
BRANCH   9  10
ATOM     10  C   UNL     1      19.811  20.854  49.529  1.00  0.00    -0.003 C 
ATOM     11  C   UNL     1      20.605  19.756  50.229  1.00  0.00     0.004 C 
ENDBRANCH   9  10
ENDBRANCH   8   9
ENDBRANCH   7   8
ENDBRANCH   1   7
TORSDOF 7
ENDMDL
MODEL 6
REMARK VINA RESULT:    -4.042      2.366      3.972
REMARK INTER + INTRA:          -6.441
REMARK INTER:                  -5.734
REMARK INTRA:                  -0.707
REMARK UNBOUND:                -0.745
REMARK SMILES CCCCCCCCC(=O)[O-]
REMARK SMILES IDX 6 1 7 2 8 3 9 4 10 5 11 6 5 7 4 8 3 9 2 10 1 11
REMARK H PARENT
REMARK Flexibility Score: inf
ROOT
ATOM      1  C   UNL     1      20.533  16.676  47.284  1.00  0.00     0.000 C 
ENDROOT
BRANCH   1   2
ATOM      2  C   UNL     1      19.170  16.652  46.574  1.00  0.00     0.006 C 
BRANCH   2   3
ATOM      3  C   UNL     1      18.024  17.119  47.480  1.00  0.00     0.053 C 
BRANCH   3   4
ATOM      4  C   UNL     1      16.717  17.021  46.759  1.00  0.00     0.041 C 
ATOM      5  O   UNL     1      15.969  16.023  46.934  1.00  0.00    -0.550 OA
ATOM      6  O   UNL     1      16.301  18.056  45.930  1.00  0.00    -0.550 OA
ENDBRANCH   3   4
ENDBRANCH   2   3
ENDBRANCH   1   2
BRANCH   1   7
ATOM      7  C   UNL     1      20.837  18.034  47.936  1.00  0.00     0.000 C 
BRANCH   7   8
ATOM      8  C   UNL     1      21.002  19.128  46.875  1.00  0.00    -0.000 C 
BRANCH   8   9
ATOM      9  C   UNL     1      20.213  20.386  47.254  1.00  0.00    -0.000 C 
BRANCH   9  10
ATOM     10  C   UNL     1      19.220  20.766  46.149  1.00  0.00    -0.003 C 
ATOM     11  C   UNL     1      19.441  19.925  44.895  1.00  0.00     0.004 C 
ENDBRANCH   9  10
ENDBRANCH   8   9
ENDBRANCH   7   8
ENDBRANCH   1   7
TORSDOF 7
ENDMDL
MODEL 7
REMARK VINA RESULT:    -3.960      1.808      2.744
REMARK INTER + INTRA:          -6.325
REMARK INTER:                  -5.494
REMARK INTRA:                  -0.832
REMARK UNBOUND:                -0.745
REMARK SMILES CCCCCCCCC(=O)[O-]
REMARK SMILES IDX 6 1 7 2 8 3 9 4 10 5 11 6 5 7 4 8 3 9 2 10 1 11
REMARK H PARENT
REMARK Flexibility Score: inf
ROOT
ATOM      1  C   UNL     1      20.374  17.229  48.004  1.00  0.00     0.000 C 
ENDROOT
BRANCH   1   2
ATOM      2  C   UNL     1      21.334  18.348  47.569  1.00  0.00     0.006 C 
BRANCH   2   3
ATOM      3  C   UNL     1      20.610  19.513  46.881  1.00  0.00     0.053 C 
BRANCH   3   4
ATOM      4  C   UNL     1      19.793  20.278  47.873  1.00  0.00     0.041 C 
ATOM      5  O   UNL     1      20.248  20.514  49.024  1.00  0.00    -0.550 OA
ATOM      6  O   UNL     1      18.547  20.775  47.512  1.00  0.00    -0.550 OA
ENDBRANCH   3   4
ENDBRANCH   2   3
ENDBRANCH   1   2
BRANCH   1   7
ATOM      7  C   UNL     1      20.139  16.188  46.899  1.00  0.00     0.000 C 
BRANCH   7   8
ATOM      8  C   UNL     1      18.660  16.136  46.499  1.00  0.00    -0.000 C 
BRANCH   8   9
ATOM      9  C   UNL     1      17.828  17.111  47.340  1.00  0.00    -0.000 C 
BRANCH   9  10
ATOM     10  C   UNL     1      16.800  17.848  46.472  1.00  0.00    -0.003 C 
ATOM     11  C   UNL     1      17.440  18.386  45.196  1.00  0.00     0.004 C 
ENDBRANCH   9  10
ENDBRANCH   8   9
ENDBRANCH   7   8
ENDBRANCH   1   7
TORSDOF 7
ENDMDL
MODEL 8
REMARK VINA RESULT:    -3.952      1.729      2.659
REMARK INTER + INTRA:          -6.314
REMARK INTER:                  -5.610
REMARK INTRA:                  -0.704
REMARK UNBOUND:                -0.745
REMARK SMILES CCCCCCCCC(=O)[O-]
REMARK SMILES IDX 6 1 7 2 8 3 9 4 10 5 11 6 5 7 4 8 3 9 2 10 1 11
REMARK H PARENT
REMARK Flexibility Score: inf
ROOT
ATOM      1  C   UNL     1      20.284  20.294  46.613  1.00  0.00     0.000 C 
ENDROOT
BRANCH   1   2
ATOM      2  C   UNL     1      19.173  20.694  45.629  1.00  0.00     0.006 C 
BRANCH   2   3
ATOM      3  C   UNL     1      18.718  19.525  44.745  1.00  0.00     0.053 C 
BRANCH   3   4
ATOM      4  C   UNL     1      17.323  19.117  45.098  1.00  0.00     0.041 C 
ATOM      5  O   UNL     1      17.095  18.491  46.167  1.00  0.00    -0.550 OA
ATOM      6  O   UNL     1      16.265  19.469  44.269  1.00  0.00    -0.550 OA
ENDBRANCH   3   4
ENDBRANCH   2   3
ENDBRANCH   1   2
BRANCH   1   7
ATOM      7  C   UNL     1      19.754  20.042  48.033  1.00  0.00     0.000 C 
BRANCH   7   8
ATOM      8  C   UNL     1      20.493  18.873  48.694  1.00  0.00    -0.000 C 
BRANCH   8   9
ATOM      9  C   UNL     1      21.286  18.067  47.660  1.00  0.00    -0.000 C 
BRANCH   9  10
ATOM     10  C   UNL     1      20.927  16.577  47.730  1.00  0.00    -0.003 C 
ATOM     11  C   UNL     1      19.795  16.237  46.766  1.00  0.00     0.004 C 
ENDBRANCH   9  10
ENDBRANCH   8   9
ENDBRANCH   7   8
ENDBRANCH   1   7
TORSDOF 7
ENDMDL
MODEL 9
REMARK VINA RESULT:    -3.937      1.344      3.019
REMARK INTER + INTRA:          -6.293
REMARK INTER:                  -5.443
REMARK INTRA:                  -0.850
REMARK UNBOUND:                -0.745
REMARK SMILES CCCCCCCCC(=O)[O-]
REMARK SMILES IDX 6 1 7 2 8 3 9 4 10 5 11 6 5 7 4 8 3 9 2 10 1 11
REMARK H PARENT
REMARK Flexibility Score: inf
ROOT
ATOM      1  C   UNL     1      18.224  17.182  47.403  1.00  0.00     0.000 C 
ENDROOT
BRANCH   1   2
ATOM      2  C   UNL     1      17.324  18.001  46.464  1.00  0.00     0.006 C 
BRANCH   2   3
ATOM      3  C   UNL     1      17.824  17.996  45.013  1.00  0.00     0.053 C 
BRANCH   3   4
ATOM      4  C   UNL     1      17.947  19.396  44.499  1.00  0.00     0.041 C 
ATOM      5  O   UNL     1      17.308  20.332  45.047  1.00  0.00    -0.550 OA
ATOM      6  O   UNL     1      18.806  19.675  43.444  1.00  0.00    -0.550 OA
ENDBRANCH   3   4
ENDBRANCH   2   3
ENDBRANCH   1   2
BRANCH   1   7
ATOM      7  C   UNL     1      19.642  16.990  46.844  1.00  0.00     0.000 C 
BRANCH   7   8
ATOM      8  C   UNL     1      20.651  17.865  47.597  1.00  0.00    -0.000 C 
BRANCH   8   9
ATOM      9  C   UNL     1      20.984  19.132  46.800  1.00  0.00    -0.000 C 
BRANCH   9  10
ATOM     10  C   UNL     1      20.181  20.332  47.314  1.00  0.00    -0.003 C 
ATOM     11  C   UNL     1      19.951  20.239  48.819  1.00  0.00     0.004 C 
ENDBRANCH   9  10
ENDBRANCH   8   9
ENDBRANCH   7   8
ENDBRANCH   1   7
TORSDOF 7
ENDMDL
