MODEL 1
REMARK VINA RESULT:    -6.275      0.000      0.000
REMARK INTER + INTRA:          -6.825
REMARK INTER:                  -6.825
REMARK INTRA:                   0.000
REMARK UNBOUND:                 0.000
REMARK SMILES Cc1cc(O)c2c(c1)C(=O)c1cc(O)cc(O)c1C2=O
REMARK SMILES IDX 1 1 2 2 8 3 7 4 6 5 4 6 3 7 19 8 20 9 18 10 11 11 9 12 10 13
REMARK SMILES IDX 12 14 13 15 15 16 16 17 5 18 17 20 14 22
REMARK H PARENT 5 19 17 21 14 23
REMARK Flexibility Score: inf
ROOT
ATOM      1  C   UNL     1      19.583  91.359  21.080  1.00  0.00     0.044 C 
ATOM      2  C   UNL     1      19.584  91.059  22.551  1.00  0.00    -0.047 A 
ATOM      3  C   UNL     1      18.773  91.794  23.421  1.00  0.00     0.016 A 
ATOM      4  C   UNL     1      18.800  91.550  24.804  1.00  0.00     0.038 A 
ATOM      5  C   UNL     1      19.673  90.571  25.329  1.00  0.00     0.076 A 
ATOM      6  C   UNL     1      20.460  89.796  24.438  1.00  0.00     0.127 A 
ATOM      7  C   UNL     1      20.431  90.072  23.067  1.00  0.00     0.050 A 
ATOM      8  C   UNL     1      19.780  90.446  26.806  1.00  0.00     0.201 C 
ATOM      9  O   UNL     1      20.862  90.064  27.326  1.00  0.00    -0.288 OA
ATOM     10  C   UNL     1      18.681  90.948  27.671  1.00  0.00     0.076 A 
ATOM     11  C   UNL     1      17.810  91.926  27.142  1.00  0.00     0.041 A 
ATOM     12  C   UNL     1      17.913  92.313  25.715  1.00  0.00     0.194 C 
ATOM     13  O   UNL     1      17.227  93.274  25.270  1.00  0.00    -0.289 OA
ATOM     14  C   UNL     1      16.846  92.526  27.970  1.00  0.00     0.059 A 
ATOM     15  C   UNL     1      16.731  92.149  29.312  1.00  0.00     0.120 A 
ATOM     16  C   UNL     1      17.562  91.156  29.826  1.00  0.00     0.093 A 
ATOM     17  C   UNL     1      18.516  90.529  29.017  1.00  0.00     0.131 A 
ENDROOT
BRANCH   6  18
ATOM     18  O   UNL     1      21.255  88.730  24.864  1.00  0.00    -0.507 OA
ATOM     19  H   UNL     1      21.212  87.804  24.461  1.00  0.00     0.293 HD
ENDBRANCH   6  18
BRANCH  17  20
ATOM     20  O   UNL     1      19.249  89.480  29.577  1.00  0.00    -0.507 OA
ATOM     21  H   UNL     1      19.854  88.874  29.043  1.00  0.00     0.293 HD
ENDBRANCH  17  20
BRANCH  15  22
ATOM     22  O   UNL     1      15.786  92.750  30.140  1.00  0.00    -0.508 OA
ATOM     23  H   UNL     1      15.620  92.420  31.083  1.00  0.00     0.293 HD
ENDBRANCH  15  22
TORSDOF 3
ENDMDL
MODEL 2
REMARK VINA RESULT:    -5.815      1.558      3.570
REMARK INTER + INTRA:          -6.325
REMARK INTER:                  -6.325
REMARK INTRA:                   0.000
REMARK UNBOUND:                 0.000
REMARK SMILES Cc1cc(O)c2c(c1)C(=O)c1cc(O)cc(O)c1C2=O
REMARK SMILES IDX 1 1 2 2 8 3 7 4 6 5 4 6 3 7 19 8 20 9 18 10 11 11 9 12 10 13
REMARK SMILES IDX 12 14 13 15 15 16 16 17 5 18 17 20 14 22
REMARK H PARENT 5 19 17 21 14 23
REMARK Flexibility Score: inf
ROOT
ATOM      1  C   UNL     1      20.148  90.626  22.281  1.00  0.00     0.044 C 
ATOM      2  C   UNL     1      19.627  91.111  23.602  1.00  0.00    -0.047 A 
ATOM      3  C   UNL     1      20.140  90.594  24.795  1.00  0.00     0.016 A 
ATOM      4  C   UNL     1      19.628  91.010  26.035  1.00  0.00     0.038 A 
ATOM      5  C   UNL     1      18.566  91.940  26.082  1.00  0.00     0.076 A 
ATOM      6  C   UNL     1      18.079  92.496  24.870  1.00  0.00     0.127 A 
ATOM      7  C   UNL     1      18.592  92.051  23.647  1.00  0.00     0.050 A 
ATOM      8  C   UNL     1      17.954  92.241  27.403  1.00  0.00     0.201 C 
ATOM      9  O   UNL     1      16.737  92.558  27.472  1.00  0.00    -0.288 OA
ATOM     10  C   UNL     1      18.724  91.987  28.647  1.00  0.00     0.076 A 
ATOM     11  C   UNL     1      19.786  91.057  28.597  1.00  0.00     0.041 A 
ATOM     12  C   UNL     1      20.201  90.480  27.296  1.00  0.00     0.194 C 
ATOM     13  O   UNL     1      21.059  89.556  27.260  1.00  0.00    -0.289 OA
ATOM     14  C   UNL     1      20.448  90.686  29.779  1.00  0.00     0.059 A 
ATOM     15  C   UNL     1      20.074  91.244  31.006  1.00  0.00     0.120 A 
ATOM     16  C   UNL     1      19.054  92.192  31.053  1.00  0.00     0.093 A 
ATOM     17  C   UNL     1      18.393  92.593  29.888  1.00  0.00     0.131 A 
ENDROOT
BRANCH   6  18
ATOM     18  O   UNL     1      17.118  93.508  24.836  1.00  0.00    -0.507 OA
ATOM     19  H   UNL     1      16.917  94.115  25.619  1.00  0.00     0.293 HD
ENDBRANCH   6  18
BRANCH  17  20
ATOM     20  O   UNL     1      17.445  93.612  30.002  1.00  0.00    -0.507 OA
ATOM     21  H   UNL     1      16.490  93.458  30.292  1.00  0.00     0.293 HD
ENDBRANCH  17  20
BRANCH  15  22
ATOM     22  O   UNL     1      20.719  90.869  32.182  1.00  0.00    -0.508 OA
ATOM     23  H   UNL     1      20.239  90.355  32.911  1.00  0.00     0.293 HD
ENDBRANCH  15  22
TORSDOF 3
ENDMDL
MODEL 3
REMARK VINA RESULT:    -5.474      1.495      6.426
REMARK INTER + INTRA:          -5.955
REMARK INTER:                  -5.955
REMARK INTRA:                   0.000
REMARK UNBOUND:                 0.000
REMARK SMILES Cc1cc(O)c2c(c1)C(=O)c1cc(O)cc(O)c1C2=O
REMARK SMILES IDX 1 1 2 2 8 3 7 4 6 5 4 6 3 7 19 8 20 9 18 10 11 11 9 12 10 13
REMARK SMILES IDX 12 14 13 15 15 16 16 17 5 18 17 20 14 22
REMARK H PARENT 5 19 17 21 14 23
REMARK Flexibility Score: inf
ROOT
ATOM      1  C   UNL     1      19.015  89.863  32.916  1.00  0.00     0.044 C 
ATOM      2  C   UNL     1      18.679  90.386  31.550  1.00  0.00    -0.047 A 
ATOM      3  C   UNL     1      19.521  90.119  30.466  1.00  0.00     0.016 A 
ATOM      4  C   UNL     1      19.239  90.641  29.193  1.00  0.00     0.038 A 
ATOM      5  C   UNL     1      18.107  91.466  29.007  1.00  0.00     0.076 A 
ATOM      6  C   UNL     1      17.230  91.696  30.099  1.00  0.00     0.127 A 
ATOM      7  C   UNL     1      17.544  91.182  31.361  1.00  0.00     0.050 A 
ATOM      8  C   UNL     1      17.924  92.117  27.683  1.00  0.00     0.201 C 
ATOM      9  O   UNL     1      17.343  93.233  27.609  1.00  0.00    -0.288 OA
ATOM     10  C   UNL     1      18.588  91.548  26.483  1.00  0.00     0.076 A 
ATOM     11  C   UNL     1      19.719  90.724  26.673  1.00  0.00     0.041 A 
ATOM     12  C   UNL     1      20.121  90.327  28.044  1.00  0.00     0.194 C 
ATOM     13  O   UNL     1      21.199  89.700  28.229  1.00  0.00    -0.289 OA
ATOM     14  C   UNL     1      20.456  90.279  25.563  1.00  0.00     0.059 A 
ATOM     15  C   UNL     1      20.069  90.634  24.267  1.00  0.00     0.120 A 
ATOM     16  C   UNL     1      18.930  91.414  24.073  1.00  0.00     0.093 A 
ATOM     17  C   UNL     1      18.168  91.852  25.161  1.00  0.00     0.131 A 
ENDROOT
BRANCH   6  18
ATOM     18  O   UNL     1      16.029  92.396  29.969  1.00  0.00    -0.507 OA
ATOM     19  H   UNL     1      15.886  93.332  30.323  1.00  0.00     0.293 HD
ENDBRANCH   6  18
BRANCH  17  20
ATOM     20  O   UNL     1      16.991  92.552  24.884  1.00  0.00    -0.507 OA
ATOM     21  H   UNL     1      16.692  93.368  25.398  1.00  0.00     0.293 HD
ENDBRANCH  17  20
BRANCH  15  22
ATOM     22  O   UNL     1      20.804  90.206  23.164  1.00  0.00    -0.508 OA
ATOM     23  H   UNL     1      21.573  89.553  23.260  1.00  0.00     0.293 HD
ENDBRANCH  15  22
TORSDOF 3
ENDMDL
MODEL 4
REMARK VINA RESULT:    -5.472      2.494      2.910
REMARK INTER + INTRA:          -5.952
REMARK INTER:                  -5.952
REMARK INTRA:                   0.000
REMARK UNBOUND:                 0.000
REMARK SMILES Cc1cc(O)c2c(c1)C(=O)c1cc(O)cc(O)c1C2=O
REMARK SMILES IDX 1 1 2 2 8 3 7 4 6 5 4 6 3 7 19 8 20 9 18 10 11 11 9 12 10 13
REMARK SMILES IDX 12 14 13 15 15 16 16 17 5 18 17 20 14 22
REMARK H PARENT 5 19 17 21 14 23
REMARK Flexibility Score: inf
ROOT
ATOM      1  C   UNL     1      18.910  90.625  21.982  1.00  0.00     0.044 C 
ATOM      2  C   UNL     1      19.364  90.960  23.373  1.00  0.00    -0.047 A 
ATOM      3  C   UNL     1      18.763  90.348  24.477  1.00  0.00     0.016 A 
ATOM      4  C   UNL     1      19.150  90.687  25.784  1.00  0.00     0.038 A 
ATOM      5  C   UNL     1      20.138  91.677  25.990  1.00  0.00     0.076 A 
ATOM      6  C   UNL     1      20.777  92.262  24.866  1.00  0.00     0.127 A 
ATOM      7  C   UNL     1      20.360  91.922  23.575  1.00  0.00     0.050 A 
ATOM      8  C   UNL     1      20.414  92.113  27.384  1.00  0.00     0.201 C 
ATOM      9  O   UNL     1      20.798  93.292  27.607  1.00  0.00    -0.288 OA
ATOM     10  C   UNL     1      20.057  91.224  28.520  1.00  0.00     0.076 A 
ATOM     11  C   UNL     1      19.070  90.236  28.309  1.00  0.00     0.041 A 
ATOM     12  C   UNL     1      18.530  90.010  26.947  1.00  0.00     0.194 C 
ATOM     13  O   UNL     1      17.560  89.222  26.776  1.00  0.00    -0.289 OA
ATOM     14  C   UNL     1      18.607  89.468  29.391  1.00  0.00     0.059 A 
ATOM     15  C   UNL     1      19.128  89.664  30.674  1.00  0.00     0.120 A 
ATOM     16  C   UNL     1      20.131  90.610  30.877  1.00  0.00     0.093 A 
ATOM     17  C   UNL     1      20.623  91.373  29.813  1.00  0.00     0.131 A 
ENDROOT
BRANCH   6  18
ATOM     18  O   UNL     1      21.844  93.154  24.984  1.00  0.00    -0.507 OA
ATOM     19  H   UNL     1      22.530  93.305  24.257  1.00  0.00     0.293 HD
ENDBRANCH   6  18
BRANCH  17  20
ATOM     20  O   UNL     1      21.691  92.235  30.076  1.00  0.00    -0.507 OA
ATOM     21  H   UNL     1      21.936  93.017  29.486  1.00  0.00     0.293 HD
ENDBRANCH  17  20
BRANCH  15  22
ATOM     22  O   UNL     1      18.663  88.914  31.751  1.00  0.00    -0.508 OA
ATOM     23  H   UNL     1      17.787  88.406  31.706  1.00  0.00     0.293 HD
ENDBRANCH  15  22
TORSDOF 3
ENDMDL
MODEL 5
REMARK VINA RESULT:    -5.124      2.153      5.960
REMARK INTER + INTRA:          -5.573
REMARK INTER:                  -5.573
REMARK INTRA:                   0.000
REMARK UNBOUND:                 0.000
REMARK SMILES Cc1cc(O)c2c(c1)C(=O)c1cc(O)cc(O)c1C2=O
REMARK SMILES IDX 1 1 2 2 8 3 7 4 6 5 4 6 3 7 19 8 20 9 18 10 11 11 9 12 10 13
REMARK SMILES IDX 12 14 13 15 15 16 16 17 5 18 17 20 14 22
REMARK H PARENT 5 19 17 21 14 23
REMARK Flexibility Score: inf
ROOT
ATOM      1  C   UNL     1      19.000  91.524  34.261  1.00  0.00     0.044 C 
ATOM      2  C   UNL     1      19.271  91.455  32.786  1.00  0.00    -0.047 A 
ATOM      3  C   UNL     1      18.294  91.856  31.870  1.00  0.00     0.016 A 
ATOM      4  C   UNL     1      18.522  91.753  30.488  1.00  0.00     0.038 A 
ATOM      5  C   UNL     1      19.741  91.216  30.014  1.00  0.00     0.076 A 
ATOM      6  C   UNL     1      20.747  90.854  30.947  1.00  0.00     0.127 A 
ATOM      7  C   UNL     1      20.488  90.947  32.318  1.00  0.00     0.050 A 
ATOM      8  C   UNL     1      19.885  90.988  28.552  1.00  0.00     0.201 C 
ATOM      9  O   UNL     1      20.616  90.050  28.134  1.00  0.00    -0.288 OA
ATOM     10  C   UNL     1      19.026  91.737  27.600  1.00  0.00     0.076 A 
ATOM     11  C   UNL     1      17.810  92.273  28.077  1.00  0.00     0.041 A 
ATOM     12  C   UNL     1      17.492  92.210  29.524  1.00  0.00     0.194 C 
ATOM     13  O   UNL     1      16.356  92.569  29.937  1.00  0.00    -0.289 OA
ATOM     14  C   UNL     1      16.907  92.867  27.180  1.00  0.00     0.059 A 
ATOM     15  C   UNL     1      17.211  92.947  25.817  1.00  0.00     0.120 A 
ATOM     16  C   UNL     1      18.428  92.455  25.349  1.00  0.00     0.093 A 
ATOM     17  C   UNL     1      19.352  91.878  26.225  1.00  0.00     0.131 A 
ENDROOT
BRANCH   6  18
ATOM     18  O   UNL     1      22.020  90.432  30.559  1.00  0.00    -0.507 OA
ATOM     19  H   UNL     1      22.797  90.338  31.198  1.00  0.00     0.293 HD
ENDBRANCH   6  18
BRANCH  17  20
ATOM     20  O   UNL     1      20.587  91.491  25.698  1.00  0.00    -0.507 OA
ATOM     21  H   UNL     1      21.038  90.615  25.917  1.00  0.00     0.293 HD
ENDBRANCH  17  20
BRANCH  15  22
ATOM     22  O   UNL     1      16.313  93.524  24.922  1.00  0.00    -0.508 OA
ATOM     23  H   UNL     1      16.228  93.193  23.968  1.00  0.00     0.293 HD
ENDBRANCH  15  22
TORSDOF 3
ENDMDL
MODEL 6
REMARK VINA RESULT:    -5.087      2.181      2.579
REMARK INTER + INTRA:          -5.533
REMARK INTER:                  -5.533
REMARK INTRA:                   0.000
REMARK UNBOUND:                 0.000
REMARK SMILES Cc1cc(O)c2c(c1)C(=O)c1cc(O)cc(O)c1C2=O
REMARK SMILES IDX 1 1 2 2 8 3 7 4 6 5 4 6 3 7 19 8 20 9 18 10 11 11 9 12 10 13
REMARK SMILES IDX 12 14 13 15 15 16 16 17 5 18 17 20 14 22
REMARK H PARENT 5 19 17 21 14 23
REMARK Flexibility Score: inf
ROOT
ATOM      1  C   UNL     1      20.372  91.744  22.432  1.00  0.00     0.044 C 
ATOM      2  C   UNL     1      19.747  91.329  23.732  1.00  0.00    -0.047 A 
ATOM      3  C   UNL     1      20.183  91.892  24.935  1.00  0.00     0.016 A 
ATOM      4  C   UNL     1      19.634  91.478  26.160  1.00  0.00     0.038 A 
ATOM      5  C   UNL     1      18.651  90.464  26.184  1.00  0.00     0.076 A 
ATOM      6  C   UNL     1      18.180  89.928  24.957  1.00  0.00     0.127 A 
ATOM      7  C   UNL     1      18.755  90.342  23.752  1.00  0.00     0.050 A 
ATOM      8  C   UNL     1      18.204  89.951  27.505  1.00  0.00     0.201 C 
ATOM      9  O   UNL     1      17.821  88.755  27.616  1.00  0.00    -0.288 OA
ATOM     10  C   UNL     1      18.386  90.784  28.721  1.00  0.00     0.076 A 
ATOM     11  C   UNL     1      19.370  91.798  28.693  1.00  0.00     0.041 A 
ATOM     12  C   UNL     1      20.080  92.104  27.428  1.00  0.00     0.194 C 
ATOM     13  O   UNL     1      21.045  92.915  27.427  1.00  0.00    -0.289 OA
ATOM     14  C   UNL     1      19.668  92.515  29.864  1.00  0.00     0.059 A 
ATOM     15  C   UNL     1      18.987  92.244  31.055  1.00  0.00     0.120 A 
ATOM     16  C   UNL     1      17.988  91.272  31.075  1.00  0.00     0.093 A 
ATOM     17  C   UNL     1      17.658  90.559  29.918  1.00  0.00     0.131 A 
ENDROOT
BRANCH   6  18
ATOM     18  O   UNL     1      17.127  89.014  24.887  1.00  0.00    -0.507 OA
ATOM     19  H   UNL     1      17.035  88.321  24.156  1.00  0.00     0.293 HD
ENDBRANCH   6  18
BRANCH  17  20
ATOM     20  O   UNL     1      16.585  89.667  29.994  1.00  0.00    -0.507 OA
ATOM     21  H   UNL     1      15.618  89.956  29.992  1.00  0.00     0.293 HD
ENDBRANCH  17  20
BRANCH  15  22
ATOM     22  O   UNL     1      19.289  92.944  32.221  1.00  0.00    -0.508 OA
ATOM     23  H   UNL     1      20.216  92.919  32.630  1.00  0.00     0.293 HD
ENDBRANCH  15  22
TORSDOF 3
ENDMDL
MODEL 7
REMARK VINA RESULT:    -4.874      2.248      5.980
REMARK INTER + INTRA:          -5.301
REMARK INTER:                  -5.301
REMARK INTRA:                   0.000
REMARK UNBOUND:                 0.000
REMARK SMILES Cc1cc(O)c2c(c1)C(=O)c1cc(O)cc(O)c1C2=O
REMARK SMILES IDX 1 1 2 2 8 3 7 4 6 5 4 6 3 7 19 8 20 9 18 10 11 11 9 12 10 13
REMARK SMILES IDX 12 14 13 15 15 16 16 17 5 18 17 20 14 22
REMARK H PARENT 5 19 17 21 14 23
REMARK Flexibility Score: inf
ROOT
ATOM      1  C   UNL     1      16.346  90.999  31.383  1.00  0.00     0.044 C 
ATOM      2  C   UNL     1      17.319  91.393  30.310  1.00  0.00    -0.047 A 
ATOM      3  C   UNL     1      17.336  90.713  29.089  1.00  0.00     0.016 A 
ATOM      4  C   UNL     1      18.272  91.045  28.096  1.00  0.00     0.038 A 
ATOM      5  C   UNL     1      19.226  92.059  28.340  1.00  0.00     0.076 A 
ATOM      6  C   UNL     1      19.175  92.777  29.563  1.00  0.00     0.127 A 
ATOM      7  C   UNL     1      18.246  92.415  30.543  1.00  0.00     0.050 A 
ATOM      8  C   UNL     1      20.291  92.279  27.326  1.00  0.00     0.201 C 
ATOM      9  O   UNL     1      21.423  92.697  27.688  1.00  0.00    -0.288 OA
ATOM     10  C   UNL     1      20.081  91.830  25.926  1.00  0.00     0.076 A 
ATOM     11  C   UNL     1      19.126  90.817  25.686  1.00  0.00     0.041 A 
ATOM     12  C   UNL     1      18.262  90.339  26.793  1.00  0.00     0.194 C 
ATOM     13  O   UNL     1      17.501  89.350  26.616  1.00  0.00    -0.289 OA
ATOM     14  C   UNL     1      18.996  90.269  24.399  1.00  0.00     0.059 A 
ATOM     15  C   UNL     1      19.794  90.730  23.348  1.00  0.00     0.120 A 
ATOM     16  C   UNL     1      20.708  91.758  23.572  1.00  0.00     0.093 A 
ATOM     17  C   UNL     1      20.843  92.334  24.839  1.00  0.00     0.131 A 
ENDROOT
BRANCH   6  18
ATOM     18  O   UNL     1      20.001  93.871  29.831  1.00  0.00    -0.507 OA
ATOM     19  H   UNL     1      19.719  94.659  30.398  1.00  0.00     0.293 HD
ENDBRANCH   6  18
BRANCH  17  20
ATOM     20  O   UNL     1      21.713  93.420  24.966  1.00  0.00    -0.507 OA
ATOM     21  H   UNL     1      22.682  93.330  25.238  1.00  0.00     0.293 HD
ENDBRANCH  17  20
BRANCH  15  22
ATOM     22  O   UNL     1      19.677  90.181  22.073  1.00  0.00    -0.508 OA
ATOM     23  H   UNL     1      18.991  89.464  21.866  1.00  0.00     0.293 HD
ENDBRANCH  15  22
TORSDOF 3
ENDMDL
MODEL 8
REMARK VINA RESULT:    -4.572      2.727      6.417
REMARK INTER + INTRA:          -4.973
REMARK INTER:                  -4.973
REMARK INTRA:                   0.000
REMARK UNBOUND:                 0.000
REMARK SMILES Cc1cc(O)c2c(c1)C(=O)c1cc(O)cc(O)c1C2=O
REMARK SMILES IDX 1 1 2 2 8 3 7 4 6 5 4 6 3 7 19 8 20 9 18 10 11 11 9 12 10 13
REMARK SMILES IDX 12 14 13 15 15 16 16 17 5 18 17 20 14 22
REMARK H PARENT 5 19 17 21 14 23
REMARK Flexibility Score: inf
ROOT
ATOM      1  C   UNL     1      19.243  91.556  34.281  1.00  0.00     0.044 C 
ATOM      2  C   UNL     1      19.296  91.159  32.835  1.00  0.00    -0.047 A 
ATOM      3  C   UNL     1      19.676  92.088  31.862  1.00  0.00     0.016 A 
ATOM      4  C   UNL     1      19.685  91.738  30.501  1.00  0.00     0.038 A 
ATOM      5  C   UNL     1      19.281  90.444  30.105  1.00  0.00     0.076 A 
ATOM      6  C   UNL     1      18.940  89.491  31.099  1.00  0.00     0.127 A 
ATOM      7  C   UNL     1      18.919  89.869  32.446  1.00  0.00     0.050 A 
ATOM      8  C   UNL     1      19.163  90.160  28.651  1.00  0.00     0.201 C 
ATOM      9  O   UNL     1      18.317  89.319  28.243  1.00  0.00    -0.288 OA
ATOM     10  C   UNL     1      19.903  90.998  27.673  1.00  0.00     0.076 A 
ATOM     11  C   UNL     1      20.306  92.292  28.073  1.00  0.00     0.041 A 
ATOM     12  C   UNL     1      20.121  92.721  29.480  1.00  0.00     0.194 C 
ATOM     13  O   UNL     1      20.359  93.914  29.812  1.00  0.00    -0.289 OA
ATOM     14  C   UNL     1      20.884  93.165  27.137  1.00  0.00     0.059 A 
ATOM     15  C   UNL     1      21.079  92.758  25.813  1.00  0.00     0.120 A 
ATOM     16  C   UNL     1      20.720  91.468  25.425  1.00  0.00     0.093 A 
ATOM     17  C   UNL     1      20.161  90.573  26.343  1.00  0.00     0.131 A 
ENDROOT
BRANCH   6  18
ATOM     18  O   UNL     1      18.648  88.158  30.800  1.00  0.00    -0.507 OA
ATOM     19  H   UNL     1      19.045  87.662  30.013  1.00  0.00     0.293 HD
ENDBRANCH   6  18
BRANCH  17  20
ATOM     20  O   UNL     1      19.911  89.271  25.904  1.00  0.00    -0.507 OA
ATOM     21  H   UNL     1      20.399  88.460  26.257  1.00  0.00     0.293 HD
ENDBRANCH  17  20
BRANCH  15  22
ATOM     22  O   UNL     1      21.641  93.625  24.879  1.00  0.00    -0.508 OA
ATOM     23  H   UNL     1      21.457  93.528  23.887  1.00  0.00     0.293 HD
ENDBRANCH  15  22
TORSDOF 3
ENDMDL
MODEL 9
REMARK VINA RESULT:    -4.426      3.189      4.955
REMARK INTER + INTRA:          -4.814
REMARK INTER:                  -4.814
REMARK INTRA:                   0.000
REMARK UNBOUND:                 0.000
REMARK SMILES Cc1cc(O)c2c(c1)C(=O)c1cc(O)cc(O)c1C2=O
REMARK SMILES IDX 1 1 2 2 8 3 7 4 6 5 4 6 3 7 19 8 20 9 18 10 11 11 9 12 10 13
REMARK SMILES IDX 12 14 13 15 15 16 16 17 5 18 17 20 14 22
REMARK H PARENT 5 19 17 21 14 23
REMARK Flexibility Score: inf
ROOT
ATOM      1  C   UNL     1      18.036  92.105  25.673  1.00  0.00     0.044 C 
ATOM      2  C   UNL     1      18.198  91.465  27.021  1.00  0.00    -0.047 A 
ATOM      3  C   UNL     1      18.700  92.203  28.097  1.00  0.00     0.016 A 
ATOM      4  C   UNL     1      18.897  91.600  29.350  1.00  0.00     0.038 A 
ATOM      5  C   UNL     1      18.610  90.228  29.523  1.00  0.00     0.076 A 
ATOM      6  C   UNL     1      18.057  89.494  28.441  1.00  0.00     0.127 A 
ATOM      7  C   UNL     1      17.890  90.111  27.198  1.00  0.00     0.050 A 
ATOM      8  C   UNL     1      18.969  89.594  30.819  1.00  0.00     0.201 C 
ATOM      9  O   UNL     1      19.282  88.373  30.854  1.00  0.00    -0.288 OA
ATOM     10  C   UNL     1      19.143  90.437  32.030  1.00  0.00     0.076 A 
ATOM     11  C   UNL     1      19.429  91.809  31.852  1.00  0.00     0.041 A 
ATOM     12  C   UNL     1      19.400  92.399  30.493  1.00  0.00     0.194 C 
ATOM     13  O   UNL     1      19.779  93.589  30.314  1.00  0.00    -0.289 OA
ATOM     14  C   UNL     1      19.736  92.609  32.966  1.00  0.00     0.059 A 
ATOM     15  C   UNL     1      19.745  92.061  34.252  1.00  0.00     0.120 A 
ATOM     16  C   UNL     1      19.423  90.717  34.434  1.00  0.00     0.093 A 
ATOM     17  C   UNL     1      19.094  89.904  33.345  1.00  0.00     0.131 A 
ENDROOT
BRANCH   6  18
ATOM     18  O   UNL     1      17.634  88.170  28.565  1.00  0.00    -0.507 OA
ATOM     19  H   UNL     1      17.146  87.667  27.836  1.00  0.00     0.293 HD
ENDBRANCH   6  18
BRANCH  17  20
ATOM     20  O   UNL     1      18.695  88.593  33.615  1.00  0.00    -0.507 OA
ATOM     21  H   UNL     1      18.430  87.931  32.899  1.00  0.00     0.293 HD
ENDBRANCH  17  20
BRANCH  15  22
ATOM     22  O   UNL     1      20.060  92.848  35.357  1.00  0.00    -0.508 OA
ATOM     23  H   UNL     1      19.592  93.730  35.531  1.00  0.00     0.293 HD
ENDBRANCH  15  22
TORSDOF 3
ENDMDL
