MODEL 1
REMARK VINA RESULT:    -4.462      0.000      0.000
REMARK INTER + INTRA:          -4.592
REMARK INTER:                  -4.592
REMARK INTRA:                   0.000
REMARK UNBOUND:                 0.000
REMARK SMILES Oc1ccc2[nH]ccc2c1
REMARK SMILES IDX 3 1 4 2 5 3 9 4 8 5 7 6 6 7 10 8 2 9 1 11
REMARK H PARENT 6 10 1 12
REMARK Flexibility Score: inf
ROOT
ATOM      1  C   UNL     1      30.100  75.651  94.885  1.00  0.00     0.048 A 
ATOM      2  C   UNL     1      29.105  75.251  95.796  1.00  0.00     0.030 A 
ATOM      3  C   UNL     1      27.802  75.688  95.570  1.00  0.00     0.046 A 
ATOM      4  C   UNL     1      27.484  76.480  94.499  1.00  0.00     0.003 A 
ATOM      5  C   UNL     1      26.132  76.732  94.560  1.00  0.00     0.028 A 
ATOM      6  C   UNL     1      25.687  76.061  95.695  1.00  0.00     0.083 A 
ATOM      7  N   UNL     1      26.711  75.425  96.308  1.00  0.00    -0.361 N 
ATOM      8  C   UNL     1      28.445  76.895  93.579  1.00  0.00     0.056 A 
ATOM      9  C   UNL     1      29.774  76.472  93.777  1.00  0.00     0.116 A 
ATOM     10  H   UNL     1      26.661  74.848  97.177  1.00  0.00     0.166 HD
ENDROOT
BRANCH   9  11
ATOM     11  O   UNL     1      30.759  76.867  92.876  1.00  0.00    -0.508 OA
ATOM     12  H   UNL     1      31.742  76.828  93.117  1.00  0.00     0.293 HD
ENDBRANCH   9  11
TORSDOF 1
ENDMDL
MODEL 2
REMARK VINA RESULT:    -4.337     13.422     14.066
REMARK INTER + INTRA:          -4.464
REMARK INTER:                  -4.464
REMARK INTRA:                   0.000
REMARK UNBOUND:                 0.000
REMARK SMILES Oc1ccc2[nH]ccc2c1
REMARK SMILES IDX 3 1 4 2 5 3 9 4 8 5 7 6 6 7 10 8 2 9 1 11
REMARK H PARENT 6 10 1 12
REMARK Flexibility Score: inf
ROOT
ATOM      1  C   UNL     1      30.119  69.325 107.116  1.00  0.00     0.048 A 
ATOM      2  C   UNL     1      31.418  68.882 106.805  1.00  0.00     0.030 A 
ATOM      3  C   UNL     1      32.372  69.843 106.479  1.00  0.00     0.046 A 
ATOM      4  C   UNL     1      32.072  71.179 106.458  1.00  0.00     0.003 A 
ATOM      5  C   UNL     1      33.218  71.854 106.102  1.00  0.00     0.028 A 
ATOM      6  C   UNL     1      34.181  70.866 105.922  1.00  0.00     0.083 A 
ATOM      7  N   UNL     1      33.660  69.640 106.153  1.00  0.00    -0.361 N 
ATOM      8  C   UNL     1      30.796  71.651 106.759  1.00  0.00     0.056 A 
ATOM      9  C   UNL     1      29.805  70.707 107.093  1.00  0.00     0.116 A 
ATOM     10  H   UNL     1      34.159  68.725 106.091  1.00  0.00     0.166 HD
ENDROOT
BRANCH   9  11
ATOM     11  O   UNL     1      28.519  71.145 107.401  1.00  0.00    -0.508 OA
ATOM     12  H   UNL     1      28.042  71.828 106.826  1.00  0.00     0.293 HD
ENDBRANCH   9  11
TORSDOF 1
ENDMDL
MODEL 3
REMARK VINA RESULT:    -4.301     13.201     13.788
REMARK INTER + INTRA:          -4.427
REMARK INTER:                  -4.427
REMARK INTRA:                   0.000
REMARK UNBOUND:                 0.000
REMARK SMILES Oc1ccc2[nH]ccc2c1
REMARK SMILES IDX 3 1 4 2 5 3 9 4 8 5 7 6 6 7 10 8 2 9 1 11
REMARK H PARENT 6 10 1 12
REMARK Flexibility Score: inf
ROOT
ATOM      1  C   UNL     1      34.239  70.392 106.610  1.00  0.00     0.048 A 
ATOM      2  C   UNL     1      33.303  69.419 107.007  1.00  0.00     0.030 A 
ATOM      3  C   UNL     1      31.957  69.778 107.019  1.00  0.00     0.046 A 
ATOM      4  C   UNL     1      31.543  71.032 106.657  1.00  0.00     0.003 A 
ATOM      5  C   UNL     1      30.171  71.063 106.775  1.00  0.00     0.028 A 
ATOM      6  C   UNL     1      29.815  69.792 107.215  1.00  0.00     0.083 A 
ATOM      7  N   UNL     1      30.909  69.011 107.362  1.00  0.00    -0.361 N 
ATOM      8  C   UNL     1      32.443  72.018 106.259  1.00  0.00     0.056 A 
ATOM      9  C   UNL     1      33.812  71.690 106.235  1.00  0.00     0.116 A 
ATOM     10  H   UNL     1      30.931  68.016 107.677  1.00  0.00     0.166 HD
ENDROOT
BRANCH   9  11
ATOM     11  O   UNL     1      34.739  72.653 105.841  1.00  0.00    -0.508 OA
ATOM     12  H   UNL     1      35.169  73.279 106.512  1.00  0.00     0.293 HD
ENDBRANCH   9  11
TORSDOF 1
ENDMDL
MODEL 4
REMARK VINA RESULT:    -4.222     13.125     14.192
REMARK INTER + INTRA:          -4.346
REMARK INTER:                  -4.346
REMARK INTRA:                   0.000
REMARK UNBOUND:                 0.000
REMARK SMILES Oc1ccc2[nH]ccc2c1
REMARK SMILES IDX 3 1 4 2 5 3 9 4 8 5 7 6 6 7 10 8 2 9 1 11
REMARK H PARENT 6 10 1 12
REMARK Flexibility Score: inf
ROOT
ATOM      1  C   UNL     1      30.389  71.417 106.747  1.00  0.00     0.048 A 
ATOM      2  C   UNL     1      31.455  72.196 106.260  1.00  0.00     0.030 A 
ATOM      3  C   UNL     1      32.719  71.612 106.213  1.00  0.00     0.046 A 
ATOM      4  C   UNL     1      32.932  70.322 106.622  1.00  0.00     0.003 A 
ATOM      5  C   UNL     1      34.271  70.051 106.449  1.00  0.00     0.028 A 
ATOM      6  C   UNL     1      34.815  71.222 105.930  1.00  0.00     0.083 A 
ATOM      7  N   UNL     1      33.863  72.172 105.788  1.00  0.00    -0.361 N 
ATOM      8  C   UNL     1      31.899  69.524 107.109  1.00  0.00     0.056 A 
ATOM      9  C   UNL     1      30.607  70.083 107.171  1.00  0.00     0.116 A 
ATOM     10  H   UNL     1      33.995  73.141 105.422  1.00  0.00     0.166 HD
ENDROOT
BRANCH   9  11
ATOM     11  O   UNL     1      29.551  69.312 107.652  1.00  0.00    -0.508 OA
ATOM     12  H   UNL     1      29.433  68.346 107.374  1.00  0.00     0.293 HD
ENDBRANCH   9  11
TORSDOF 1
ENDMDL
MODEL 5
REMARK VINA RESULT:    -4.220     12.775     13.005
REMARK INTER + INTRA:          -4.343
REMARK INTER:                  -4.343
REMARK INTRA:                   0.000
REMARK UNBOUND:                 0.000
REMARK SMILES Oc1ccc2[nH]ccc2c1
REMARK SMILES IDX 3 1 4 2 5 3 9 4 8 5 7 6 6 7 10 8 2 9 1 11
REMARK H PARENT 6 10 1 12
REMARK Flexibility Score: inf
ROOT
ATOM      1  C   UNL     1      32.613  72.206 106.673  1.00  0.00     0.048 A 
ATOM      2  C   UNL     1      31.445  71.425 106.594  1.00  0.00     0.030 A 
ATOM      3  C   UNL     1      31.451  70.333 105.728  1.00  0.00     0.046 A 
ATOM      4  C   UNL     1      32.549  70.018 104.974  1.00  0.00     0.003 A 
ATOM      5  C   UNL     1      32.234  68.899 104.235  1.00  0.00     0.028 A 
ATOM      6  C   UNL     1      30.926  68.585 104.590  1.00  0.00     0.083 A 
ATOM      7  N   UNL     1      30.452  69.464 105.502  1.00  0.00    -0.361 N 
ATOM      8  C   UNL     1      33.720  70.771 105.027  1.00  0.00     0.056 A 
ATOM      9  C   UNL     1      33.750  71.883 105.892  1.00  0.00     0.116 A 
ATOM     10  H   UNL     1      29.504  69.463 105.939  1.00  0.00     0.166 HD
ENDROOT
BRANCH   9  11
ATOM     11  O   UNL     1      34.905  72.657 105.971  1.00  0.00    -0.508 OA
ATOM     12  H   UNL     1      35.489  72.819 105.160  1.00  0.00     0.293 HD
ENDBRANCH   9  11
TORSDOF 1
ENDMDL
MODEL 6
REMARK VINA RESULT:    -4.163     14.528     15.473
REMARK INTER + INTRA:          -4.285
REMARK INTER:                  -4.285
REMARK INTRA:                   0.000
REMARK UNBOUND:                 0.000
REMARK SMILES Oc1ccc2[nH]ccc2c1
REMARK SMILES IDX 3 1 4 2 5 3 9 4 8 5 7 6 6 7 10 8 2 9 1 11
REMARK H PARENT 6 10 1 12
REMARK Flexibility Score: inf
ROOT
ATOM      1  C   UNL     1      30.132  60.310  99.926  1.00  0.00     0.048 A 
ATOM      2  C   UNL     1      30.414  61.684  99.812  1.00  0.00     0.030 A 
ATOM      3  C   UNL     1      29.815  62.386  98.768  1.00  0.00     0.046 A 
ATOM      4  C   UNL     1      28.977  61.773  97.876  1.00  0.00     0.003 A 
ATOM      5  C   UNL     1      28.558  62.731  96.979  1.00  0.00     0.028 A 
ATOM      6  C   UNL     1      29.180  63.907  97.386  1.00  0.00     0.083 A 
ATOM      7  N   UNL     1      29.947  63.692  98.479  1.00  0.00    -0.361 N 
ATOM      8  C   UNL     1      28.678  60.415  97.960  1.00  0.00     0.056 A 
ATOM      9  C   UNL     1      29.266  59.674  99.003  1.00  0.00     0.116 A 
ATOM     10  H   UNL     1      30.521  64.397  98.991  1.00  0.00     0.166 HD
ENDROOT
BRANCH   9  11
ATOM     11  O   UNL     1      28.987  58.314  99.117  1.00  0.00    -0.508 OA
ATOM     12  H   UNL     1      29.583  57.615  98.690  1.00  0.00     0.293 HD
ENDBRANCH   9  11
TORSDOF 1
ENDMDL
MODEL 7
REMARK VINA RESULT:    -4.151     12.591     12.746
REMARK INTER + INTRA:          -4.272
REMARK INTER:                  -4.272
REMARK INTRA:                   0.000
REMARK UNBOUND:                 0.000
REMARK SMILES Oc1ccc2[nH]ccc2c1
REMARK SMILES IDX 3 1 4 2 5 3 9 4 8 5 7 6 6 7 10 8 2 9 1 11
REMARK H PARENT 6 10 1 12
REMARK Flexibility Score: inf
ROOT
ATOM      1  C   UNL     1      33.781  69.829 104.168  1.00  0.00     0.048 A 
ATOM      2  C   UNL     1      32.426  69.537 104.412  1.00  0.00     0.030 A 
ATOM      3  C   UNL     1      31.732  70.359 105.297  1.00  0.00     0.046 A 
ATOM      4  C   UNL     1      32.335  71.421 105.917  1.00  0.00     0.003 A 
ATOM      5  C   UNL     1      31.389  72.023 106.717  1.00  0.00     0.028 A 
ATOM      6  C   UNL     1      30.230  71.274 106.536  1.00  0.00     0.083 A 
ATOM      7  N   UNL     1      30.445  70.259 105.668  1.00  0.00    -0.361 N 
ATOM      8  C   UNL     1      33.674  71.737 105.698  1.00  0.00     0.056 A 
ATOM      9  C   UNL     1      34.407  70.927 104.809  1.00  0.00     0.116 A 
ATOM     10  H   UNL     1      29.750  69.547 105.352  1.00  0.00     0.166 HD
ENDROOT
BRANCH   9  11
ATOM     11  O   UNL     1      35.748  71.216 104.567  1.00  0.00    -0.508 OA
ATOM     12  H   UNL     1      36.359  70.547 104.115  1.00  0.00     0.293 HD
ENDBRANCH   9  11
TORSDOF 1
ENDMDL
MODEL 8
REMARK VINA RESULT:    -4.069     12.433     12.997
REMARK INTER + INTRA:          -4.188
REMARK INTER:                  -4.188
REMARK INTRA:                   0.000
REMARK UNBOUND:                 0.000
REMARK SMILES Oc1ccc2[nH]ccc2c1
REMARK SMILES IDX 3 1 4 2 5 3 9 4 8 5 7 6 6 7 10 8 2 9 1 11
REMARK H PARENT 6 10 1 12
REMARK Flexibility Score: inf
ROOT
ATOM      1  C   UNL     1      32.761  71.905 106.484  1.00  0.00     0.048 A 
ATOM      2  C   UNL     1      33.794  71.166 105.878  1.00  0.00     0.030 A 
ATOM      3  C   UNL     1      33.439  70.212 104.927  1.00  0.00     0.046 A 
ATOM      4  C   UNL     1      32.133  69.991 104.581  1.00  0.00     0.003 A 
ATOM      5  C   UNL     1      32.122  68.998 103.626  1.00  0.00     0.028 A 
ATOM      6  C   UNL     1      33.459  68.660 103.438  1.00  0.00     0.083 A 
ATOM      7  N   UNL     1      34.260  69.405 104.234  1.00  0.00    -0.361 N 
ATOM      8  C   UNL     1      31.087  70.704 105.161  1.00  0.00     0.056 A 
ATOM      9  C   UNL     1      31.408  71.677 106.128  1.00  0.00     0.116 A 
ATOM     10  H   UNL     1      35.301  69.359 104.294  1.00  0.00     0.166 HD
ENDROOT
BRANCH   9  11
ATOM     11  O   UNL     1      30.387  72.409 106.728  1.00  0.00    -0.508 OA
ATOM     12  H   UNL     1      30.514  73.380 106.987  1.00  0.00     0.293 HD
ENDBRANCH   9  11
TORSDOF 1
ENDMDL
MODEL 9
REMARK VINA RESULT:    -3.954     13.034     14.358
REMARK INTER + INTRA:          -4.069
REMARK INTER:                  -4.069
REMARK INTRA:                   0.000
REMARK UNBOUND:                 0.000
REMARK SMILES Oc1ccc2[nH]ccc2c1
REMARK SMILES IDX 3 1 4 2 5 3 9 4 8 5 7 6 6 7 10 8 2 9 1 11
REMARK H PARENT 6 10 1 12
REMARK Flexibility Score: inf
ROOT
ATOM      1  C   UNL     1      31.858  69.470 105.918  1.00  0.00     0.048 A 
ATOM      2  C   UNL     1      32.977  69.125 106.699  1.00  0.00     0.030 A 
ATOM      3  C   UNL     1      33.775  70.159 107.184  1.00  0.00     0.046 A 
ATOM      4  C   UNL     1      33.492  71.472 106.920  1.00  0.00     0.003 A 
ATOM      5  C   UNL     1      34.459  72.234 107.536  1.00  0.00     0.028 A 
ATOM      6  C   UNL     1      35.302  71.318 108.159  1.00  0.00     0.083 A 
ATOM      7  N   UNL     1      34.879  70.052 107.942  1.00  0.00    -0.361 N 
ATOM      8  C   UNL     1      32.393  71.848 106.151  1.00  0.00     0.056 A 
ATOM      9  C   UNL     1      31.564  70.829 105.643  1.00  0.00     0.116 A 
ATOM     10  H   UNL     1      35.323  69.175 108.292  1.00  0.00     0.166 HD
ENDROOT
BRANCH   9  11
ATOM     11  O   UNL     1      30.456  71.170 104.871  1.00  0.00    -0.508 OA
ATOM     12  H   UNL     1      30.556  71.662 103.991  1.00  0.00     0.293 HD
ENDBRANCH   9  11
TORSDOF 1
ENDMDL
