MODEL 1
REMARK VINA RESULT:    -5.756      0.000      0.000
REMARK INTER + INTRA:         -10.378
REMARK INTER:                  -8.785
REMARK INTRA:                  -1.594
REMARK UNBOUND:                -1.594
REMARK SMILES CC(=O)CCC=C(C)CCC=C(C)CCC=C(C)C
REMARK SMILES IDX 10 1 11 2 12 3 13 4 14 5 15 6 16 7 18 8 17 9 19 10 9 11 7 12
REMARK SMILES IDX 6 13 8 14 5 15 4 16 2 17 3 18 1 19
REMARK H PARENT
REMARK Flexibility Score: inf
ROOT
ATOM      1  C   UNL     1     -12.870   2.493 -11.997  1.00  0.00     0.032 C 
ENDROOT
BRANCH   1   2
ATOM      2  C   UNL     1     -13.343   2.504 -13.430  1.00  0.00    -0.028 C 
ATOM      3  C   UNL     1     -12.543   2.652 -14.511  1.00  0.00    -0.077 C 
ATOM      4  C   UNL     1     -11.041   2.729 -14.391  1.00  0.00     0.039 C 
BRANCH   3   5
ATOM      5  C   UNL     1     -13.168   2.709 -15.889  1.00  0.00     0.034 C 
BRANCH   5   6
ATOM      6  C   UNL     1     -12.521   3.790 -16.765  1.00  0.00     0.032 C 
BRANCH   6   7
ATOM      7  C   UNL     1     -13.354   5.049 -16.821  1.00  0.00    -0.028 C 
ATOM      8  C   UNL     1     -11.858   6.315 -15.261  1.00  0.00     0.039 C 
ATOM      9  C   UNL     1     -13.087   6.178 -16.129  1.00  0.00    -0.080 C 
ATOM     10  C   UNL     1     -14.043   7.336 -16.250  1.00  0.00     0.039 C 
ENDBRANCH   6   7
ENDBRANCH   5   6
ENDBRANCH   3   5
ENDBRANCH   1   2
BRANCH   1  11
ATOM     11  C   UNL     1     -13.992   2.905 -11.034  1.00  0.00     0.034 C 
BRANCH  11  12
ATOM     12  C   UNL     1     -14.864   1.724 -10.642  1.00  0.00    -0.077 C 
ATOM     13  C   UNL     1     -16.188   1.650 -10.917  1.00  0.00    -0.028 C 
ATOM     14  C   UNL     1     -14.232   0.592  -9.875  1.00  0.00     0.039 C 
BRANCH  13  15
ATOM     15  C   UNL     1     -16.968   2.666 -11.712  1.00  0.00     0.035 C 
BRANCH  15  16
ATOM     16  C   UNL     1     -17.003   2.289 -13.196  1.00  0.00     0.079 C 
BRANCH  16  17
ATOM     17  C   UNL     1     -17.976   3.163 -13.943  1.00  0.00     0.130 C 
ATOM     18  O   UNL     1     -19.166   3.110 -13.668  1.00  0.00    -0.300 OA
ATOM     19  C   UNL     1     -17.515   4.109 -15.013  1.00  0.00     0.087 C 
ENDBRANCH  16  17
ENDBRANCH  15  16
ENDBRANCH  13  15
ENDBRANCH  11  12
ENDBRANCH   1  11
TORSDOF 9
ENDMDL
MODEL 2
REMARK VINA RESULT:    -5.469      2.065      5.559
REMARK INTER + INTRA:          -9.941
REMARK INTER:                  -8.661
REMARK INTRA:                  -1.280
REMARK UNBOUND:                -1.594
REMARK SMILES CC(=O)CCC=C(C)CCC=C(C)CCC=C(C)C
REMARK SMILES IDX 10 1 11 2 12 3 13 4 14 5 15 6 16 7 18 8 17 9 19 10 9 11 7 12
REMARK SMILES IDX 6 13 8 14 5 15 4 16 2 17 3 18 1 19
REMARK H PARENT
REMARK Flexibility Score: inf
ROOT
ATOM      1  C   UNL     1     -12.030   2.959 -11.899  1.00  0.00     0.032 C 
ENDROOT
BRANCH   1   2
ATOM      2  C   UNL     1     -13.430   2.469 -12.176  1.00  0.00    -0.028 C 
ATOM      3  C   UNL     1     -14.392   2.298 -11.240  1.00  0.00    -0.077 C 
ATOM      4  C   UNL     1     -14.181   2.681  -9.796  1.00  0.00     0.039 C 
BRANCH   3   5
ATOM      5  C   UNL     1     -15.735   1.736 -11.656  1.00  0.00     0.034 C 
BRANCH   5   6
ATOM      6  C   UNL     1     -16.082   2.100 -13.106  1.00  0.00     0.032 C 
BRANCH   6   7
ATOM      7  C   UNL     1     -17.572   2.091 -13.354  1.00  0.00    -0.028 C 
ATOM      8  C   UNL     1     -17.507   4.096 -14.856  1.00  0.00     0.039 C 
ATOM      9  C   UNL     1     -18.229   2.997 -14.111  1.00  0.00    -0.080 C 
ATOM     10  C   UNL     1     -19.728   2.886 -14.222  1.00  0.00     0.039 C 
ENDBRANCH   6   7
ENDBRANCH   5   6
ENDBRANCH   3   5
ENDBRANCH   1   2
BRANCH   1  11
ATOM     11  C   UNL     1     -11.485   3.785 -13.073  1.00  0.00     0.034 C 
BRANCH  11  12
ATOM     12  C   UNL     1     -11.013   2.903 -14.216  1.00  0.00    -0.077 C 
ATOM     13  C   UNL     1     -11.715   2.724 -15.360  1.00  0.00    -0.028 C 
ATOM     14  C   UNL     1      -9.712   2.160 -14.056  1.00  0.00     0.039 C 
BRANCH  13  15
ATOM     15  C   UNL     1     -13.005   3.422 -15.706  1.00  0.00     0.035 C 
BRANCH  15  16
ATOM     16  C   UNL     1     -12.807   4.390 -16.876  1.00  0.00     0.079 C 
BRANCH  16  17
ATOM     17  C   UNL     1     -12.961   5.816 -16.418  1.00  0.00     0.130 C 
ATOM     18  O   UNL     1     -12.186   6.268 -15.587  1.00  0.00    -0.300 OA
ATOM     19  C   UNL     1     -14.041   6.702 -16.967  1.00  0.00     0.087 C 
ENDBRANCH  16  17
ENDBRANCH  15  16
ENDBRANCH  13  15
ENDBRANCH  11  12
ENDBRANCH   1  11
TORSDOF 9
ENDMDL
MODEL 3
REMARK VINA RESULT:    -5.274      1.273      2.321
REMARK INTER + INTRA:          -9.643
REMARK INTER:                  -8.060
REMARK INTRA:                  -1.583
REMARK UNBOUND:                -1.594
REMARK SMILES CC(=O)CCC=C(C)CCC=C(C)CCC=C(C)C
REMARK SMILES IDX 10 1 11 2 12 3 13 4 14 5 15 6 16 7 18 8 17 9 19 10 9 11 7 12
REMARK SMILES IDX 6 13 8 14 5 15 4 16 2 17 3 18 1 19
REMARK H PARENT
REMARK Flexibility Score: inf
ROOT
ATOM      1  C   UNL     1     -12.665   2.284 -10.904  1.00  0.00     0.032 C 
ENDROOT
BRANCH   1   2
ATOM      2  C   UNL     1     -11.537   2.344 -11.905  1.00  0.00    -0.028 C 
ATOM      3  C   UNL     1     -10.911   3.474 -12.302  1.00  0.00    -0.077 C 
ATOM      4  C   UNL     1     -11.224   4.820 -11.695  1.00  0.00     0.039 C 
BRANCH   3   5
ATOM      5  C   UNL     1      -9.835   3.388 -13.365  1.00  0.00     0.034 C 
BRANCH   5   6
ATOM      6  C   UNL     1     -10.378   2.817 -14.682  1.00  0.00     0.032 C 
BRANCH   6   7
ATOM      7  C   UNL     1     -11.290   3.791 -15.391  1.00  0.00    -0.028 C 
ATOM      8  C   UNL     1     -13.236   2.213 -15.419  1.00  0.00     0.039 C 
ATOM      9  C   UNL     1     -12.563   3.523 -15.756  1.00  0.00    -0.080 C 
ATOM     10  C   UNL     1     -13.331   4.582 -16.505  1.00  0.00     0.039 C 
ENDBRANCH   6   7
ENDBRANCH   5   6
ENDBRANCH   3   5
ENDBRANCH   1   2
BRANCH   1  11
ATOM     11  C   UNL     1     -14.032   2.381 -11.597  1.00  0.00     0.034 C 
BRANCH  11  12
ATOM     12  C   UNL     1     -15.062   1.472 -10.947  1.00  0.00    -0.077 C 
ATOM     13  C   UNL     1     -16.275   1.212 -11.490  1.00  0.00    -0.028 C 
ATOM     14  C   UNL     1     -14.732   0.856  -9.613  1.00  0.00     0.039 C 
BRANCH  13  15
ATOM     15  C   UNL     1     -16.750   1.704 -12.833  1.00  0.00     0.035 C 
BRANCH  15  16
ATOM     16  C   UNL     1     -17.580   2.982 -12.686  1.00  0.00     0.079 C 
BRANCH  16  17
ATOM     17  C   UNL     1     -18.239   3.342 -13.991  1.00  0.00     0.130 C 
ATOM     18  O   UNL     1     -19.402   3.020 -14.186  1.00  0.00    -0.300 OA
ATOM     19  C   UNL     1     -17.502   4.097 -15.058  1.00  0.00     0.087 C 
ENDBRANCH  16  17
ENDBRANCH  15  16
ENDBRANCH  13  15
ENDBRANCH  11  12
ENDBRANCH   1  11
TORSDOF 9
ENDMDL
MODEL 4
REMARK VINA RESULT:    -5.262      1.284      2.034
REMARK INTER + INTRA:          -9.624
REMARK INTER:                  -8.302
REMARK INTRA:                  -1.322
REMARK UNBOUND:                -1.594
REMARK SMILES CC(=O)CCC=C(C)CCC=C(C)CCC=C(C)C
REMARK SMILES IDX 10 1 11 2 12 3 13 4 14 5 15 6 16 7 18 8 17 9 19 10 9 11 7 12
REMARK SMILES IDX 6 13 8 14 5 15 4 16 2 17 3 18 1 19
REMARK H PARENT
REMARK Flexibility Score: inf
ROOT
ATOM      1  C   UNL     1     -11.240   2.556 -13.647  1.00  0.00     0.032 C 
ENDROOT
BRANCH   1   2
ATOM      2  C   UNL     1     -11.395   3.194 -15.006  1.00  0.00    -0.028 C 
ATOM      3  C   UNL     1     -12.326   2.848 -15.924  1.00  0.00    -0.077 C 
ATOM      4  C   UNL     1     -13.393   1.822 -15.635  1.00  0.00     0.039 C 
BRANCH   3   5
ATOM      5  C   UNL     1     -12.322   3.534 -17.274  1.00  0.00     0.034 C 
BRANCH   5   6
ATOM      6  C   UNL     1     -12.116   5.049 -17.144  1.00  0.00     0.032 C 
BRANCH   6   7
ATOM      7  C   UNL     1     -13.422   5.787 -16.962  1.00  0.00    -0.028 C 
ATOM      8  C   UNL     1     -12.400   7.601 -15.569  1.00  0.00     0.039 C 
ATOM      9  C   UNL     1     -13.571   6.914 -16.233  1.00  0.00    -0.080 C 
ATOM     10  C   UNL     1     -14.951   7.506 -16.102  1.00  0.00     0.039 C 
ENDBRANCH   6   7
ENDBRANCH   5   6
ENDBRANCH   3   5
ENDBRANCH   1   2
BRANCH   1  11
ATOM     11  C   UNL     1     -12.130   3.243 -12.602  1.00  0.00     0.034 C 
BRANCH  11  12
ATOM     12  C   UNL     1     -12.624   2.267 -11.548  1.00  0.00    -0.077 C 
ATOM     13  C   UNL     1     -13.924   1.912 -11.411  1.00  0.00    -0.028 C 
ATOM     14  C   UNL     1     -11.622   1.689 -10.582  1.00  0.00     0.039 C 
BRANCH  13  15
ATOM     15  C   UNL     1     -15.045   2.355 -12.315  1.00  0.00     0.035 C 
BRANCH  15  16
ATOM     16  C   UNL     1     -16.404   1.927 -11.751  1.00  0.00     0.079 C 
BRANCH  16  17
ATOM     17  C   UNL     1     -17.494   2.844 -12.240  1.00  0.00     0.130 C 
ATOM     18  O   UNL     1     -17.907   3.730 -11.507  1.00  0.00    -0.300 OA
ATOM     19  C   UNL     1     -18.080   2.700 -13.613  1.00  0.00     0.087 C 
ENDBRANCH  16  17
ENDBRANCH  15  16
ENDBRANCH  13  15
ENDBRANCH  11  12
ENDBRANCH   1  11
TORSDOF 9
ENDMDL
MODEL 5
REMARK VINA RESULT:    -5.176      2.306      3.742
REMARK INTER + INTRA:          -9.493
REMARK INTER:                  -7.521
REMARK INTRA:                  -1.973
REMARK UNBOUND:                -1.594
REMARK SMILES CC(=O)CCC=C(C)CCC=C(C)CCC=C(C)C
REMARK SMILES IDX 10 1 11 2 12 3 13 4 14 5 15 6 16 7 18 8 17 9 19 10 9 11 7 12
REMARK SMILES IDX 6 13 8 14 5 15 4 16 2 17 3 18 1 19
REMARK H PARENT
REMARK Flexibility Score: inf
ROOT
ATOM      1  C   UNL     1      -8.888   2.394 -13.326  1.00  0.00     0.032 C 
ENDROOT
BRANCH   1   2
ATOM      2  C   UNL     1     -10.074   2.498 -14.253  1.00  0.00    -0.028 C 
ATOM      3  C   UNL     1     -10.743   3.640 -14.534  1.00  0.00    -0.077 C 
ATOM      4  C   UNL     1     -10.295   4.980 -14.006  1.00  0.00     0.039 C 
BRANCH   3   5
ATOM      5  C   UNL     1     -11.959   3.581 -15.435  1.00  0.00     0.034 C 
BRANCH   5   6
ATOM      6  C   UNL     1     -11.870   4.599 -16.580  1.00  0.00     0.032 C 
BRANCH   6   7
ATOM      7  C   UNL     1     -13.191   5.287 -16.833  1.00  0.00    -0.028 C 
ATOM      8  C   UNL     1     -12.499   7.408 -15.693  1.00  0.00     0.039 C 
ATOM      9  C   UNL     1     -13.498   6.534 -16.414  1.00  0.00    -0.080 C 
ATOM     10  C   UNL     1     -14.880   7.065 -16.698  1.00  0.00     0.039 C 
ENDBRANCH   6   7
ENDBRANCH   5   6
ENDBRANCH   3   5
ENDBRANCH   1   2
BRANCH   1  11
ATOM     11  C   UNL     1      -9.287   1.790 -11.973  1.00  0.00     0.034 C 
BRANCH  11  12
ATOM     12  C   UNL     1      -9.865   2.834 -11.033  1.00  0.00    -0.077 C 
ATOM     13  C   UNL     1     -11.163   2.854 -10.647  1.00  0.00    -0.028 C 
ATOM     14  C   UNL     1      -8.957   3.927 -10.533  1.00  0.00     0.039 C 
BRANCH  13  15
ATOM     15  C   UNL     1     -12.194   1.817 -11.012  1.00  0.00     0.035 C 
BRANCH  15  16
ATOM     16  C   UNL     1     -13.226   2.391 -11.987  1.00  0.00     0.079 C 
BRANCH  16  17
ATOM     17  C   UNL     1     -14.624   2.169 -11.472  1.00  0.00     0.130 C 
ATOM     18  O   UNL     1     -14.805   2.012 -10.273  1.00  0.00    -0.300 OA
ATOM     19  C   UNL     1     -15.804   2.146 -12.398  1.00  0.00     0.087 C 
ENDBRANCH  16  17
ENDBRANCH  15  16
ENDBRANCH  13  15
ENDBRANCH  11  12
ENDBRANCH   1  11
TORSDOF 9
ENDMDL
MODEL 6
REMARK VINA RESULT:    -5.118      1.663      3.037
REMARK INTER + INTRA:          -9.405
REMARK INTER:                  -8.245
REMARK INTRA:                  -1.160
REMARK UNBOUND:                -1.594
REMARK SMILES CC(=O)CCC=C(C)CCC=C(C)CCC=C(C)C
REMARK SMILES IDX 10 1 11 2 12 3 13 4 14 5 15 6 16 7 18 8 17 9 19 10 9 11 7 12
REMARK SMILES IDX 6 13 8 14 5 15 4 16 2 17 3 18 1 19
REMARK H PARENT
REMARK Flexibility Score: inf
ROOT
ATOM      1  C   UNL     1     -12.685   1.674 -10.495  1.00  0.00     0.032 C 
ENDROOT
BRANCH   1   2
ATOM      2  C   UNL     1     -11.469   2.073 -11.295  1.00  0.00    -0.028 C 
ATOM      3  C   UNL     1     -10.322   1.361 -11.370  1.00  0.00    -0.077 C 
ATOM      4  C   UNL     1     -10.174   0.009 -10.716  1.00  0.00     0.039 C 
BRANCH   3   5
ATOM      5  C   UNL     1      -9.157   1.918 -12.163  1.00  0.00     0.034 C 
BRANCH   5   6
ATOM      6  C   UNL     1      -9.408   1.839 -13.675  1.00  0.00     0.032 C 
BRANCH   6   7
ATOM      7  C   UNL     1      -9.707   3.194 -14.272  1.00  0.00    -0.028 C 
ATOM      8  C   UNL     1     -12.077   2.610 -14.839  1.00  0.00     0.039 C 
ATOM      9  C   UNL     1     -10.889   3.544 -14.826  1.00  0.00    -0.080 C 
ATOM     10  C   UNL     1     -11.018   4.919 -15.429  1.00  0.00     0.039 C 
ENDBRANCH   6   7
ENDBRANCH   5   6
ENDBRANCH   3   5
ENDBRANCH   1   2
BRANCH   1  11
ATOM     11  C   UNL     1     -13.979   2.145 -11.174  1.00  0.00     0.034 C 
BRANCH  11  12
ATOM     12  C   UNL     1     -15.165   1.271 -10.800  1.00  0.00    -0.077 C 
ATOM     13  C   UNL     1     -16.327   1.254 -11.496  1.00  0.00    -0.028 C 
ATOM     14  C   UNL     1     -15.057   0.406  -9.572  1.00  0.00     0.039 C 
BRANCH  13  15
ATOM     15  C   UNL     1     -16.590   2.017 -12.769  1.00  0.00     0.035 C 
BRANCH  15  16
ATOM     16  C   UNL     1     -17.774   2.974 -12.599  1.00  0.00     0.079 C 
BRANCH  16  17
ATOM     17  C   UNL     1     -18.381   3.309 -13.935  1.00  0.00     0.130 C 
ATOM     18  O   UNL     1     -19.527   2.960 -14.179  1.00  0.00    -0.300 OA
ATOM     19  C   UNL     1     -17.614   4.074 -14.973  1.00  0.00     0.087 C 
ENDBRANCH  16  17
ENDBRANCH  15  16
ENDBRANCH  13  15
ENDBRANCH  11  12
ENDBRANCH   1  11
TORSDOF 9
ENDMDL
MODEL 7
REMARK VINA RESULT:    -5.107      1.908      5.897
REMARK INTER + INTRA:          -9.388
REMARK INTER:                  -7.855
REMARK INTRA:                  -1.533
REMARK UNBOUND:                -1.594
REMARK SMILES CC(=O)CCC=C(C)CCC=C(C)CCC=C(C)C
REMARK SMILES IDX 10 1 11 2 12 3 13 4 14 5 15 6 16 7 18 8 17 9 19 10 9 11 7 12
REMARK SMILES IDX 6 13 8 14 5 15 4 16 2 17 3 18 1 19
REMARK H PARENT
REMARK Flexibility Score: inf
ROOT
ATOM      1  C   UNL     1     -11.815   2.963 -12.144  1.00  0.00     0.032 C 
ENDROOT
BRANCH   1   2
ATOM      2  C   UNL     1     -12.861   2.124 -11.451  1.00  0.00    -0.028 C 
ATOM      3  C   UNL     1     -13.667   2.555 -10.454  1.00  0.00    -0.077 C 
ATOM      4  C   UNL     1     -13.664   3.990  -9.986  1.00  0.00     0.039 C 
BRANCH   3   5
ATOM      5  C   UNL     1     -14.629   1.580  -9.808  1.00  0.00     0.034 C 
BRANCH   5   6
ATOM      6  C   UNL     1     -15.569   0.939 -10.837  1.00  0.00     0.032 C 
BRANCH   6   7
ATOM      7  C   UNL     1     -16.705   1.858 -11.220  1.00  0.00    -0.028 C 
ATOM      8  C   UNL     1     -15.879   2.186 -13.562  1.00  0.00     0.039 C 
ATOM      9  C   UNL     1     -16.841   2.450 -12.427  1.00  0.00    -0.080 C 
ATOM     10  C   UNL     1     -18.003   3.384 -12.641  1.00  0.00     0.039 C 
ENDBRANCH   6   7
ENDBRANCH   5   6
ENDBRANCH   3   5
ENDBRANCH   1   2
BRANCH   1  11
ATOM     11  C   UNL     1     -11.818   2.719 -13.660  1.00  0.00     0.034 C 
BRANCH  11  12
ATOM     12  C   UNL     1     -10.518   3.164 -14.308  1.00  0.00    -0.077 C 
ATOM     13  C   UNL     1     -10.348   4.378 -14.884  1.00  0.00    -0.028 C 
ATOM     14  C   UNL     1      -9.367   2.193 -14.344  1.00  0.00     0.039 C 
BRANCH  13  15
ATOM     15  C   UNL     1     -11.373   5.484 -14.897  1.00  0.00     0.035 C 
BRANCH  15  16
ATOM     16  C   UNL     1     -11.810   5.807 -16.329  1.00  0.00     0.079 C 
BRANCH  16  17
ATOM     17  C   UNL     1     -13.283   5.543 -16.507  1.00  0.00     0.130 C 
ATOM     18  O   UNL     1     -13.704   4.399 -16.412  1.00  0.00    -0.300 OA
ATOM     19  C   UNL     1     -14.248   6.656 -16.789  1.00  0.00     0.087 C 
ENDBRANCH  16  17
ENDBRANCH  15  16
ENDBRANCH  13  15
ENDBRANCH  11  12
ENDBRANCH   1  11
TORSDOF 9
ENDMDL
MODEL 8
REMARK VINA RESULT:    -5.015      2.652      5.826
REMARK INTER + INTRA:          -9.248
REMARK INTER:                  -7.390
REMARK INTRA:                  -1.858
REMARK UNBOUND:                -1.594
REMARK SMILES CC(=O)CCC=C(C)CCC=C(C)CCC=C(C)C
REMARK SMILES IDX 10 1 11 2 12 3 13 4 14 5 15 6 16 7 18 8 17 9 19 10 9 11 7 12
REMARK SMILES IDX 6 13 8 14 5 15 4 16 2 17 3 18 1 19
REMARK H PARENT
REMARK Flexibility Score: inf
ROOT
ATOM      1  C   UNL     1      -8.875   1.965 -13.425  1.00  0.00     0.032 C 
ENDROOT
BRANCH   1   2
ATOM      2  C   UNL     1     -10.062   1.548 -12.591  1.00  0.00    -0.028 C 
ATOM      3  C   UNL     1     -10.232   1.843 -11.282  1.00  0.00    -0.077 C 
ATOM      4  C   UNL     1      -9.268   2.725 -10.528  1.00  0.00     0.039 C 
BRANCH   3   5
ATOM      5  C   UNL     1     -11.446   1.302 -10.556  1.00  0.00     0.034 C 
BRANCH   5   6
ATOM      6  C   UNL     1     -12.593   2.322 -10.522  1.00  0.00     0.032 C 
BRANCH   6   7
ATOM      7  C   UNL     1     -13.519   2.175 -11.707  1.00  0.00    -0.028 C 
ATOM      8  C   UNL     1     -15.524   3.012 -10.460  1.00  0.00     0.039 C 
ATOM      9  C   UNL     1     -14.841   2.450 -11.686  1.00  0.00    -0.080 C 
ATOM     10  C   UNL     1     -15.645   2.203 -12.936  1.00  0.00     0.039 C 
ENDBRANCH   6   7
ENDBRANCH   5   6
ENDBRANCH   3   5
ENDBRANCH   1   2
BRANCH   1  11
ATOM     11  C   UNL     1      -9.303   2.857 -14.599  1.00  0.00     0.034 C 
BRANCH  11  12
ATOM     12  C   UNL     1     -10.237   3.970 -14.155  1.00  0.00    -0.077 C 
ATOM     13  C   UNL     1     -11.564   3.981 -14.423  1.00  0.00    -0.028 C 
ATOM     14  C   UNL     1      -9.651   5.139 -13.407  1.00  0.00     0.039 C 
BRANCH  13  15
ATOM     15  C   UNL     1     -12.320   2.877 -15.115  1.00  0.00     0.035 C 
BRANCH  15  16
ATOM     16  C   UNL     1     -13.470   3.443 -15.954  1.00  0.00     0.079 C 
BRANCH  16  17
ATOM     17  C   UNL     1     -12.971   4.522 -16.878  1.00  0.00     0.130 C 
ATOM     18  O   UNL     1     -12.168   4.239 -17.755  1.00  0.00    -0.300 OA
ATOM     19  C   UNL     1     -13.447   5.940 -16.754  1.00  0.00     0.087 C 
ENDBRANCH  16  17
ENDBRANCH  15  16
ENDBRANCH  13  15
ENDBRANCH  11  12
ENDBRANCH   1  11
TORSDOF 9
ENDMDL
MODEL 9
REMARK VINA RESULT:    -4.999     12.064     15.373
REMARK INTER + INTRA:          -9.223
REMARK INTER:                  -8.009
REMARK INTRA:                  -1.214
REMARK UNBOUND:                -1.594
REMARK SMILES CC(=O)CCC=C(C)CCC=C(C)CCC=C(C)C
REMARK SMILES IDX 10 1 11 2 12 3 13 4 14 5 15 6 16 7 18 8 17 9 19 10 9 11 7 12
REMARK SMILES IDX 6 13 8 14 5 15 4 16 2 17 3 18 1 19
REMARK H PARENT
REMARK Flexibility Score: inf
ROOT
ATOM      1  C   UNL     1     -28.283   6.815 -19.768  1.00  0.00     0.032 C 
ENDROOT
BRANCH   1   2
ATOM      2  C   UNL     1     -28.256   5.645 -18.815  1.00  0.00    -0.028 C 
ATOM      3  C   UNL     1     -28.286   4.344 -19.181  1.00  0.00    -0.077 C 
ATOM      4  C   UNL     1     -28.253   3.918 -20.628  1.00  0.00     0.039 C 
BRANCH   3   5
ATOM      5  C   UNL     1     -28.318   3.275 -18.108  1.00  0.00     0.034 C 
BRANCH   5   6
ATOM      6  C   UNL     1     -28.695   1.902 -18.681  1.00  0.00     0.032 C 
BRANCH   6   7
ATOM      7  C   UNL     1     -27.634   0.862 -18.408  1.00  0.00    -0.028 C 
ATOM      8  C   UNL     1     -27.205   0.415 -20.836  1.00  0.00     0.039 C 
ATOM      9  C   UNL     1     -26.980   0.164 -19.363  1.00  0.00    -0.080 C 
ATOM     10  C   UNL     1     -25.984  -0.880 -18.931  1.00  0.00     0.039 C 
ENDBRANCH   6   7
ENDBRANCH   5   6
ENDBRANCH   3   5
ENDBRANCH   1   2
BRANCH   1  11
ATOM     11  C   UNL     1     -26.863   7.267 -20.138  1.00  0.00     0.034 C 
BRANCH  11  12
ATOM     12  C   UNL     1     -26.590   7.117 -21.625  1.00  0.00    -0.077 C 
ATOM     13  C   UNL     1     -25.344   7.049 -22.152  1.00  0.00    -0.028 C 
ATOM     14  C   UNL     1     -27.765   7.077 -22.568  1.00  0.00     0.039 C 
BRANCH  13  15
ATOM     15  C   UNL     1     -24.065   7.027 -21.356  1.00  0.00     0.035 C 
BRANCH  15  16
ATOM     16  C   UNL     1     -22.873   7.443 -22.225  1.00  0.00     0.079 C 
BRANCH  16  17
ATOM     17  C   UNL     1     -22.494   8.876 -21.955  1.00  0.00     0.130 C 
ATOM     18  O   UNL     1     -23.205   9.775 -22.380  1.00  0.00    -0.300 OA
ATOM     19  C   UNL     1     -21.267   9.225 -21.167  1.00  0.00     0.087 C 
ENDBRANCH  16  17
ENDBRANCH  15  16
ENDBRANCH  13  15
ENDBRANCH  11  12
ENDBRANCH   1  11
TORSDOF 9
ENDMDL
