MODEL 1
REMARK VINA RESULT:    -5.934      0.000      0.000
REMARK INTER + INTRA:          -5.934
REMARK INTER:                  -5.934
REMARK INTRA:                   0.000
REMARK UNBOUND:                 0.000
REMARK SMILES C=C1CCC[C@@]2(C)CC(=O)C(=C(C)C)C[C@@H]12
REMARK SMILES IDX 13 1 12 2 11 3 15 4 16 5 2 6 1 7 3 8 4 9 5 10 6 11 8 12 9 13
REMARK SMILES IDX 10 14 7 15 14 16
REMARK H PARENT
REMARK Flexibility Score: inf
ROOT
ATOM      1  C   UNL     1       3.573  15.025  -4.782  1.00  0.00     0.039 C 
ATOM      2  C   UNL     1       3.977  15.382  -6.194  1.00  0.00    -0.070 C 
ATOM      3  C   UNL     1       3.243  16.259  -6.941  1.00  0.00    -0.006 C 
ATOM      4  C   UNL     1       2.001  16.934  -6.372  1.00  0.00     0.047 C 
ATOM      5  C   UNL     1       1.741  18.345  -6.961  1.00  0.00     0.025 C 
ATOM      6  C   UNL     1       2.627  19.456  -6.392  1.00  0.00    -0.073 C 
ATOM      7  C   UNL     1       3.675  19.250  -5.570  1.00  0.00     0.008 C 
ATOM      8  C   UNL     1       2.325  20.849  -6.880  1.00  0.00     0.031 C 
ATOM      9  C   UNL     1       2.429  20.887  -8.405  1.00  0.00     0.005 C 
ATOM     10  C   UNL     1       1.550  19.806  -9.058  1.00  0.00     0.008 C 
ATOM     11  C   UNL     1       1.806  18.361  -8.523  1.00  0.00    -0.018 C 
ATOM     12  C   UNL     1       3.195  17.850  -8.989  1.00  0.00     0.088 C 
ATOM     13  C   UNL     1       3.539  16.522  -8.379  1.00  0.00     0.159 C 
ATOM     14  O   UNL     1       4.067  15.641  -9.109  1.00  0.00    -0.295 OA
ATOM     15  C   UNL     1       0.701  17.453  -9.125  1.00  0.00     0.012 C 
ATOM     16  C   UNL     1       5.247  14.756  -6.724  1.00  0.00     0.039 C 
ENDROOT
TORSDOF 0
ENDMDL
MODEL 2
REMARK VINA RESULT:    -5.817      1.773      4.613
REMARK INTER + INTRA:          -5.817
REMARK INTER:                  -5.817
REMARK INTRA:                   0.000
REMARK UNBOUND:                 0.000
REMARK SMILES C=C1CCC[C@@]2(C)CC(=O)C(=C(C)C)C[C@@H]12
REMARK SMILES IDX 13 1 12 2 11 3 15 4 16 5 2 6 1 7 3 8 4 9 5 10 6 11 8 12 9 13
REMARK SMILES IDX 10 14 7 15 14 16
REMARK H PARENT
REMARK Flexibility Score: inf
ROOT
ATOM      1  C   UNL     1       3.236  21.413  -8.771  1.00  0.00     0.039 C 
ATOM      2  C   UNL     1       2.072  20.529  -8.387  1.00  0.00    -0.070 C 
ATOM      3  C   UNL     1       2.236  19.187  -8.193  1.00  0.00    -0.006 C 
ATOM      4  C   UNL     1       3.603  18.530  -8.331  1.00  0.00     0.047 C 
ATOM      5  C   UNL     1       3.789  17.293  -7.414  1.00  0.00     0.025 C 
ATOM      6  C   UNL     1       4.073  17.614  -5.945  1.00  0.00    -0.073 C 
ATOM      7  C   UNL     1       4.009  18.848  -5.408  1.00  0.00     0.008 C 
ATOM      8  C   UNL     1       4.351  16.429  -5.057  1.00  0.00     0.031 C 
ATOM      9  C   UNL     1       3.170  15.460  -5.117  1.00  0.00     0.005 C 
ATOM     10  C   UNL     1       2.830  15.073  -6.567  1.00  0.00     0.008 C 
ATOM     11  C   UNL     1       2.595  16.289  -7.518  1.00  0.00    -0.018 C 
ATOM     12  C   UNL     1       1.274  17.014  -7.151  1.00  0.00     0.088 C 
ATOM     13  C   UNL     1       1.084  18.272  -7.950  1.00  0.00     0.159 C 
ATOM     14  O   UNL     1      -0.060  18.523  -8.415  1.00  0.00    -0.295 OA
ATOM     15  C   UNL     1       2.482  15.721  -8.958  1.00  0.00     0.012 C 
ATOM     16  C   UNL     1       0.734  21.203  -8.188  1.00  0.00     0.039 C 
ENDROOT
TORSDOF 0
ENDMDL
MODEL 3
REMARK VINA RESULT:    -5.708      2.362      5.662
REMARK INTER + INTRA:          -5.708
REMARK INTER:                  -5.708
REMARK INTRA:                   0.000
REMARK UNBOUND:                 0.000
REMARK SMILES C=C1CCC[C@@]2(C)CC(=O)C(=C(C)C)C[C@@H]12
REMARK SMILES IDX 13 1 12 2 11 3 15 4 16 5 2 6 1 7 3 8 4 9 5 10 6 11 8 12 9 13
REMARK SMILES IDX 10 14 7 15 14 16
REMARK H PARENT
REMARK Flexibility Score: inf
ROOT
ATOM      1  C   UNL     1       1.706  17.734  -8.690  1.00  0.00     0.039 C 
ATOM      2  C   UNL     1       2.207  17.090  -7.418  1.00  0.00    -0.070 C 
ATOM      3  C   UNL     1       2.625  15.790  -7.398  1.00  0.00    -0.006 C 
ATOM      4  C   UNL     1       2.629  14.943  -8.664  1.00  0.00     0.047 C 
ATOM      5  C   UNL     1       3.743  13.864  -8.682  1.00  0.00     0.025 C 
ATOM      6  C   UNL     1       5.144  14.387  -9.007  1.00  0.00    -0.073 C 
ATOM      7  C   UNL     1       5.466  15.691  -9.111  1.00  0.00     0.008 C 
ATOM      8  C   UNL     1       6.223  13.342  -9.124  1.00  0.00     0.031 C 
ATOM      9  C   UNL     1       6.299  12.544  -7.822  1.00  0.00     0.005 C 
ATOM     10  C   UNL     1       4.927  11.966  -7.432  1.00  0.00     0.008 C 
ATOM     11  C   UNL     1       3.781  13.025  -7.363  1.00  0.00    -0.018 C 
ATOM     12  C   UNL     1       3.993  13.972  -6.152  1.00  0.00     0.088 C 
ATOM     13  C   UNL     1       2.992  15.091  -6.133  1.00  0.00     0.159 C 
ATOM     14  O   UNL     1       2.466  15.411  -5.034  1.00  0.00    -0.295 OA
ATOM     15  C   UNL     1       2.454  12.244  -7.173  1.00  0.00     0.012 C 
ATOM     16  C   UNL     1       2.260  17.961  -6.183  1.00  0.00     0.039 C 
ENDROOT
TORSDOF 0
ENDMDL
MODEL 4
REMARK VINA RESULT:    -5.278      1.768      5.090
REMARK INTER + INTRA:          -5.278
REMARK INTER:                  -5.278
REMARK INTRA:                   0.000
REMARK UNBOUND:                 0.000
REMARK SMILES C=C1CCC[C@@]2(C)CC(=O)C(=C(C)C)C[C@@H]12
REMARK SMILES IDX 13 1 12 2 11 3 15 4 16 5 2 6 1 7 3 8 4 9 5 10 6 11 8 12 9 13
REMARK SMILES IDX 10 14 7 15 14 16
REMARK H PARENT
REMARK Flexibility Score: inf
ROOT
ATOM      1  C   UNL     1      -0.420  17.768  -8.068  1.00  0.00     0.039 C 
ATOM      2  C   UNL     1       1.028  18.172  -8.223  1.00  0.00    -0.070 C 
ATOM      3  C   UNL     1       2.029  17.477  -7.605  1.00  0.00    -0.006 C 
ATOM      4  C   UNL     1       1.728  16.251  -6.753  1.00  0.00     0.047 C 
ATOM      5  C   UNL     1       2.870  15.202  -6.757  1.00  0.00     0.025 C 
ATOM      6  C   UNL     1       2.943  14.332  -8.014  1.00  0.00    -0.073 C 
ATOM      7  C   UNL     1       2.208  14.533  -9.125  1.00  0.00     0.008 C 
ATOM      8  C   UNL     1       3.984  13.242  -7.998  1.00  0.00     0.031 C 
ATOM      9  C   UNL     1       5.362  13.860  -7.761  1.00  0.00     0.005 C 
ATOM     10  C   UNL     1       5.378  14.741  -6.499  1.00  0.00     0.008 C 
ATOM     11  C   UNL     1       4.268  15.840  -6.470  1.00  0.00    -0.018 C 
ATOM     12  C   UNL     1       4.565  16.936  -7.527  1.00  0.00     0.088 C 
ATOM     13  C   UNL     1       3.448  17.935  -7.628  1.00  0.00     0.159 C 
ATOM     14  O   UNL     1       3.739  19.158  -7.720  1.00  0.00    -0.295 OA
ATOM     15  C   UNL     1       4.298  16.476  -5.054  1.00  0.00     0.012 C 
ATOM     16  C   UNL     1       1.319  19.350  -9.124  1.00  0.00     0.039 C 
ENDROOT
TORSDOF 0
ENDMDL
MODEL 5
REMARK VINA RESULT:    -4.999      2.149      4.132
REMARK INTER + INTRA:          -4.999
REMARK INTER:                  -4.999
REMARK INTRA:                   0.000
REMARK UNBOUND:                 0.000
REMARK SMILES C=C1CCC[C@@]2(C)CC(=O)C(=C(C)C)C[C@@H]12
REMARK SMILES IDX 13 1 12 2 11 3 15 4 16 5 2 6 1 7 3 8 4 9 5 10 6 11 8 12 9 13
REMARK SMILES IDX 10 14 7 15 14 16
REMARK H PARENT
REMARK Flexibility Score: inf
ROOT
ATOM      1  C   UNL     1       6.226  12.312  -8.424  1.00  0.00     0.039 C 
ATOM      2  C   UNL     1       4.763  12.407  -8.057  1.00  0.00    -0.070 C 
ATOM      3  C   UNL     1       4.292  13.427  -7.280  1.00  0.00    -0.006 C 
ATOM      4  C   UNL     1       5.217  14.526  -6.773  1.00  0.00     0.047 C 
ATOM      5  C   UNL     1       4.510  15.894  -6.593  1.00  0.00     0.025 C 
ATOM      6  C   UNL     1       4.269  16.671  -7.889  1.00  0.00    -0.073 C 
ATOM      7  C   UNL     1       4.481  16.179  -9.125  1.00  0.00     0.008 C 
ATOM      8  C   UNL     1       3.671  18.045  -7.728  1.00  0.00     0.031 C 
ATOM      9  C   UNL     1       2.342  17.936  -6.980  1.00  0.00     0.005 C 
ATOM     10  C   UNL     1       2.502  17.177  -5.651  1.00  0.00     0.008 C 
ATOM     11  C   UNL     1       3.175  15.774  -5.788  1.00  0.00    -0.018 C 
ATOM     12  C   UNL     1       2.221  14.787  -6.511  1.00  0.00     0.088 C 
ATOM     13  C   UNL     1       2.884  13.469  -6.789  1.00  0.00     0.159 C 
ATOM     14  O   UNL     1       2.231  12.410  -6.588  1.00  0.00    -0.295 OA
ATOM     15  C   UNL     1       3.448  15.260  -4.350  1.00  0.00     0.012 C 
ATOM     16  C   UNL     1       3.844  11.348  -8.621  1.00  0.00     0.039 C 
ENDROOT
TORSDOF 0
ENDMDL
MODEL 6
REMARK VINA RESULT:    -4.942      2.050      5.461
REMARK INTER + INTRA:          -4.942
REMARK INTER:                  -4.942
REMARK INTRA:                   0.000
REMARK UNBOUND:                 0.000
REMARK SMILES C=C1CCC[C@@]2(C)CC(=O)C(=C(C)C)C[C@@H]12
REMARK SMILES IDX 13 1 12 2 11 3 15 4 16 5 2 6 1 7 3 8 4 9 5 10 6 11 8 12 9 13
REMARK SMILES IDX 10 14 7 15 14 16
REMARK H PARENT
REMARK Flexibility Score: inf
ROOT
ATOM      1  C   UNL     1       0.370  17.374  -7.439  1.00  0.00     0.039 C 
ATOM      2  C   UNL     1       1.721  17.497  -8.106  1.00  0.00    -0.070 C 
ATOM      3  C   UNL     1       2.733  16.624  -7.824  1.00  0.00    -0.006 C 
ATOM      4  C   UNL     1       2.534  15.475  -6.845  1.00  0.00     0.047 C 
ATOM      5  C   UNL     1       3.397  14.228  -7.173  1.00  0.00     0.025 C 
ATOM      6  C   UNL     1       2.873  13.364  -8.321  1.00  0.00    -0.073 C 
ATOM      7  C   UNL     1       1.845  13.703  -9.124  1.00  0.00     0.008 C 
ATOM      8  C   UNL     1       3.643  12.097  -8.592  1.00  0.00     0.031 C 
ATOM      9  C   UNL     1       5.104  12.443  -8.881  1.00  0.00     0.005 C 
ATOM     10  C   UNL     1       5.713  13.302  -7.759  1.00  0.00     0.008 C 
ATOM     11  C   UNL     1       4.898  14.591  -7.422  1.00  0.00    -0.018 C 
ATOM     12  C   UNL     1       4.998  15.614  -8.584  1.00  0.00     0.088 C 
ATOM     13  C   UNL     1       4.112  16.805  -8.361  1.00  0.00     0.159 C 
ATOM     14  O   UNL     1       4.566  17.952  -8.624  1.00  0.00    -0.295 OA
ATOM     15  C   UNL     1       5.531  15.206  -6.146  1.00  0.00     0.012 C 
ATOM     16  C   UNL     1       1.885  18.601  -9.125  1.00  0.00     0.039 C 
ENDROOT
TORSDOF 0
ENDMDL
MODEL 7
REMARK VINA RESULT:    -3.211      1.620      3.113
REMARK INTER + INTRA:          -3.211
REMARK INTER:                  -3.211
REMARK INTRA:                   0.000
REMARK UNBOUND:                 0.000
REMARK SMILES C=C1CCC[C@@]2(C)CC(=O)C(=C(C)C)C[C@@H]12
REMARK SMILES IDX 13 1 12 2 11 3 15 4 16 5 2 6 1 7 3 8 4 9 5 10 6 11 8 12 9 13
REMARK SMILES IDX 10 14 7 15 14 16
REMARK H PARENT
REMARK Flexibility Score: inf
ROOT
ATOM      1  C   UNL     1       4.483  13.885  -8.371  1.00  0.00     0.039 C 
ATOM      2  C   UNL     1       3.879  14.487  -7.123  1.00  0.00    -0.070 C 
ATOM      3  C   UNL     1       3.723  15.837  -6.990  1.00  0.00    -0.006 C 
ATOM      4  C   UNL     1       4.128  16.792  -8.106  1.00  0.00     0.047 C 
ATOM      5  C   UNL     1       3.268  18.081  -8.158  1.00  0.00     0.025 C 
ATOM      6  C   UNL     1       1.882  17.909  -8.785  1.00  0.00    -0.073 C 
ATOM      7  C   UNL     1       1.341  16.723  -9.125  1.00  0.00     0.008 C 
ATOM      8  C   UNL     1       1.068  19.168  -8.932  1.00  0.00     0.031 C 
ATOM      9  C   UNL     1       0.897  19.825  -7.563  1.00  0.00     0.005 C 
ATOM     10  C   UNL     1       2.252  20.050  -6.870  1.00  0.00     0.008 C 
ATOM     11  C   UNL     1       3.137  18.768  -6.759  1.00  0.00    -0.018 C 
ATOM     12  C   UNL     1       2.516  17.768  -5.747  1.00  0.00     0.088 C 
ATOM     13  C   UNL     1       3.260  16.464  -5.719  1.00  0.00     0.159 C 
ATOM     14  O   UNL     1       3.492  15.926  -4.603  1.00  0.00    -0.295 OA
ATOM     15  C   UNL     1       4.528  19.221  -6.241  1.00  0.00     0.012 C 
ATOM     16  C   UNL     1       3.420  13.525  -6.051  1.00  0.00     0.039 C 
ENDROOT
TORSDOF 0
ENDMDL
