MODEL 1
REMARK VINA RESULT:    12.237      0.000      0.000
REMARK INTER + INTRA:          17.321
REMARK INTER:                  16.887
REMARK INTRA:                   0.434
REMARK UNBOUND:                 0.434
REMARK SMILES C[C@H]1OC(=O)[C@H](C)[C@@H]1C[C@@H](O)[C@@](C)(O)[C@@H]1CC[C@@]2(O)C3=CC(=O)[C@H]4C[C@@H](O)[C@H](O)C[C@@]4(C)[C@H]3CC[C@]12C
REMARK SMILES IDX 12 1 13 2 10 3 9 4 8 5 7 6 6 7 4 8 2 9 3 10 5 11 1 12 11 13
REMARK SMILES IDX 15 15 16 16 36 17 17 18 18 19 35 20 37 21 20 22 34 23 33 24
REMARK SMILES IDX 21 25 31 26 22 27 24 28 30 29 32 30 23 31 25 32 28 33 26 34
REMARK SMILES IDX 19 35 29 37 27 39 14 41
REMARK H PARENT 11 14 19 36 29 38 27 40 14 42
REMARK Flexibility Score: inf
ROOT
ATOM      1  C   UNL     1      -4.118  33.498  27.173  1.00  0.00     0.091 C 
ATOM      2  C   UNL     1      -2.737  33.730  26.502  1.00  0.00     0.045 C 
ENDROOT
BRANCH   1   3
ATOM      3  C   UNL     1      -5.104  34.532  26.488  1.00  0.00     0.146 C 
BRANCH   3   4
ATOM      4  C   UNL     1      -6.125  33.984  25.444  1.00  0.00     0.043 C 
BRANCH   4   5
ATOM      5  C   UNL     1      -6.007  34.564  24.007  1.00  0.00     0.046 C 
ATOM      6  C   UNL     1      -4.543  36.526  24.930  1.00  0.00     0.020 C 
ATOM      7  C   UNL     1      -5.558  36.051  23.877  1.00  0.00     0.103 C 
ATOM      8  C   UNL     1      -4.878  36.018  22.561  1.00  0.00     0.309 C 
ATOM      9  C   UNL     1      -4.989  33.793  23.123  1.00  0.00     0.177 C 
ATOM     10  O   UNL     1      -4.559  34.740  22.161  1.00  0.00    -0.462 OA
ATOM     11  O   UNL     1      -4.601  37.037  21.876  1.00  0.00    -0.252 OA
ATOM     12  C   UNL     1      -5.578  32.570  22.417  1.00  0.00     0.053 C 
ENDBRANCH   4   5
ENDBRANCH   3   4
BRANCH   3  13
ATOM     13  O   UNL     1      -5.812  35.239  27.480  1.00  0.00    -0.390 OA
ATOM     14  H   UNL     1      -6.211  36.044  27.055  1.00  0.00     0.211 HD
ENDBRANCH   3  13
ENDBRANCH   1   3
BRANCH   1  15
ATOM     15  C   UNL     1      -4.676  31.994  27.009  1.00  0.00     0.032 C 
ATOM     16  C   UNL     1      -6.066  31.813  27.702  1.00  0.00     0.010 C 
ATOM     17  C   UNL     1      -3.930  30.657  27.438  1.00  0.00     0.006 C 
ATOM     18  C   UNL     1      -5.950  30.693  28.750  1.00  0.00     0.041 C 
ATOM     19  C   UNL     1      -4.446  30.399  28.872  1.00  0.00     0.092 C 
ATOM     20  C   UNL     1      -2.372  30.554  27.444  1.00  0.00     0.011 C 
ATOM     21  C   UNL     1      -4.442  29.543  26.441  1.00  0.00     0.015 C 
ATOM     22  C   UNL     1      -3.984  29.013  29.331  1.00  0.00    -0.031 C 
ATOM     23  C   UNL     1      -1.880  29.167  27.937  1.00  0.00     0.009 C 
ATOM     24  C   UNL     1      -2.463  28.804  29.332  1.00  0.00     0.025 C 
ATOM     25  C   UNL     1      -4.843  28.037  29.668  1.00  0.00     0.050 C 
ATOM     26  C   UNL     1      -1.991  27.439  30.001  1.00  0.00    -0.013 C 
ATOM     27  C   UNL     1      -4.399  26.669  29.943  1.00  0.00     0.159 C 
ATOM     28  C   UNL     1      -2.972  26.259  29.717  1.00  0.00     0.070 C 
ATOM     29  C   UNL     1      -0.531  27.011  29.625  1.00  0.00     0.042 C 
ATOM     30  C   UNL     1      -1.987  27.672  31.541  1.00  0.00     0.013 C 
ATOM     31  O   UNL     1      -5.239  25.813  30.330  1.00  0.00    -0.295 OA
ATOM     32  C   UNL     1      -2.810  25.665  28.311  1.00  0.00     0.047 C 
ATOM     33  C   UNL     1      -0.356  26.277  28.274  1.00  0.00     0.143 C 
ATOM     34  C   UNL     1      -1.385  25.142  28.106  1.00  0.00     0.143 C 
BRANCH  19  35
ATOM     35  O   UNL     1      -3.886  31.350  29.750  1.00  0.00    -0.385 OA
ATOM     36  H   UNL     1      -3.755  32.193  29.239  1.00  0.00     0.211 HD
ENDBRANCH  19  35
BRANCH  33  37
ATOM     37  O   UNL     1       0.944  25.745  28.229  1.00  0.00    -0.390 OA
ATOM     38  H   UNL     1       1.341  26.009  27.357  1.00  0.00     0.211 HD
ENDBRANCH  33  37
BRANCH  34  39
ATOM     39  O   UNL     1      -1.289  24.598  26.816  1.00  0.00    -0.390 OA
ATOM     40  H   UNL     1      -0.387  24.827  26.470  1.00  0.00     0.211 HD
ENDBRANCH  34  39
ENDBRANCH   1  15
BRANCH   1  41
ATOM     41  O   UNL     1      -4.006  33.870  28.530  1.00  0.00    -0.387 OA
ATOM     42  H   UNL     1      -3.695  34.808  28.579  1.00  0.00     0.211 HD
ENDBRANCH   1  41
TORSDOF 9
ENDMDL
MODEL 2
REMARK VINA RESULT:    12.773      0.905      1.669
REMARK INTER + INTRA:          18.061
REMARK INTER:                  11.005
REMARK INTRA:                   7.055
REMARK UNBOUND:                 0.434
REMARK SMILES C[C@H]1OC(=O)[C@H](C)[C@@H]1C[C@@H](O)[C@@](C)(O)[C@@H]1CC[C@@]2(O)C3=CC(=O)[C@H]4C[C@@H](O)[C@H](O)C[C@@]4(C)[C@H]3CC[C@]12C
REMARK SMILES IDX 12 1 13 2 10 3 9 4 8 5 7 6 6 7 4 8 2 9 3 10 5 11 1 12 11 13
REMARK SMILES IDX 15 15 16 16 36 17 17 18 18 19 35 20 37 21 20 22 34 23 33 24
REMARK SMILES IDX 21 25 31 26 22 27 24 28 30 29 32 30 23 31 25 32 28 33 26 34
REMARK SMILES IDX 19 35 29 37 27 39 14 41
REMARK H PARENT 11 14 19 36 29 38 27 40 14 42
REMARK Flexibility Score: inf
ROOT
ATOM      1  C   UNL     1      -4.142  33.574  27.119  1.00  0.00     0.091 C 
ATOM      2  C   UNL     1      -2.642  33.679  26.730  1.00  0.00     0.045 C 
ENDROOT
BRANCH   1   3
ATOM      3  C   UNL     1      -4.906  34.562  26.146  1.00  0.00     0.146 C 
BRANCH   3   4
ATOM      4  C   UNL     1      -4.135  35.101  24.901  1.00  0.00     0.043 C 
BRANCH   4   5
ATOM      5  C   UNL     1      -4.434  34.388  23.553  1.00  0.00     0.046 C 
ATOM      6  C   UNL     1      -5.661  32.474  24.850  1.00  0.00     0.020 C 
ATOM      7  C   UNL     1      -4.832  32.882  23.621  1.00  0.00     0.103 C 
ATOM      8  C   UNL     1      -5.695  32.772  22.422  1.00  0.00     0.309 C 
ATOM      9  C   UNL     1      -5.603  35.042  22.766  1.00  0.00     0.177 C 
ATOM     10  O   UNL     1      -6.125  33.997  21.965  1.00  0.00    -0.462 OA
ATOM     11  O   UNL     1      -6.023  31.685  21.876  1.00  0.00    -0.252 OA
ATOM     12  C   UNL     1      -5.176  36.212  21.877  1.00  0.00     0.053 C 
ENDBRANCH   4   5
ENDBRANCH   3   4
BRANCH   3  13
ATOM     13  O   UNL     1      -6.104  33.964  25.708  1.00  0.00    -0.390 OA
ATOM     14  H   UNL     1      -6.648  34.664  25.259  1.00  0.00     0.211 HD
ENDBRANCH   3  13
ENDBRANCH   1   3
BRANCH   1  15
ATOM     15  C   UNL     1      -4.741  32.082  26.992  1.00  0.00     0.032 C 
ATOM     16  C   UNL     1      -6.108  31.942  27.739  1.00  0.00     0.010 C 
ATOM     17  C   UNL     1      -4.013  30.731  27.407  1.00  0.00     0.006 C 
ATOM     18  C   UNL     1      -5.980  30.831  28.793  1.00  0.00     0.041 C 
ATOM     19  C   UNL     1      -4.479  30.500  28.862  1.00  0.00     0.092 C 
ATOM     20  C   UNL     1      -2.459  30.590  27.356  1.00  0.00     0.011 C 
ATOM     21  C   UNL     1      -4.589  29.620  26.442  1.00  0.00     0.015 C 
ATOM     22  C   UNL     1      -4.034  29.107  29.318  1.00  0.00    -0.031 C 
ATOM     23  C   UNL     1      -1.982  29.196  27.844  1.00  0.00     0.009 C 
ATOM     24  C   UNL     1      -2.520  28.862  29.264  1.00  0.00     0.025 C 
ATOM     25  C   UNL     1      -4.904  28.156  29.698  1.00  0.00     0.050 C 
ATOM     26  C   UNL     1      -2.056  27.492  29.929  1.00  0.00    -0.013 C 
ATOM     27  C   UNL     1      -4.482  26.780  29.970  1.00  0.00     0.159 C 
ATOM     28  C   UNL     1      -3.076  26.334  29.696  1.00  0.00     0.070 C 
ATOM     29  C   UNL     1      -0.623  27.024  29.504  1.00  0.00     0.042 C 
ATOM     30  C   UNL     1      -1.989  27.740  31.466  1.00  0.00     0.013 C 
ATOM     31  O   UNL     1      -5.328  25.950  30.398  1.00  0.00    -0.295 OA
ATOM     32  C   UNL     1      -2.982  25.722  28.291  1.00  0.00     0.047 C 
ATOM     33  C   UNL     1      -0.517  26.273  28.155  1.00  0.00     0.143 C 
ATOM     34  C   UNL     1      -1.579  25.162  28.038  1.00  0.00     0.143 C 
BRANCH  19  35
ATOM     35  O   UNL     1      -3.864  31.445  29.708  1.00  0.00    -0.385 OA
ATOM     36  H   UNL     1      -4.248  31.333  30.619  1.00  0.00     0.211 HD
ENDBRANCH  19  35
BRANCH  33  37
ATOM     37  O   UNL     1       0.768  25.708  28.066  1.00  0.00    -0.390 OA
ATOM     38  H   UNL     1       1.422  26.453  28.125  1.00  0.00     0.211 HD
ENDBRANCH  33  37
BRANCH  34  39
ATOM     39  O   UNL     1      -1.545  24.603  26.751  1.00  0.00    -0.390 OA
ATOM     40  H   UNL     1      -1.230  23.666  26.849  1.00  0.00     0.211 HD
ENDBRANCH  34  39
ENDBRANCH   1  15
BRANCH   1  41
ATOM     41  O   UNL     1      -4.285  34.086  28.426  1.00  0.00    -0.387 OA
ATOM     42  H   UNL     1      -3.979  33.403  29.072  1.00  0.00     0.211 HD
ENDBRANCH   1  41
TORSDOF 9
ENDMDL
