MODEL 1
REMARK VINA RESULT:    10.887      0.000      0.000
REMARK INTER + INTRA:          18.681
REMARK INTER:                  19.161
REMARK INTRA:                  -0.479
REMARK UNBOUND:                -0.479
REMARK SMILES CCCCCCC=CCCCCCCCC(=O)[O-]
REMARK SMILES IDX 10 1 11 2 12 3 13 4 14 5 15 6 16 7 17 8 18 9 9 10 8 11 7 12
REMARK SMILES IDX 6 13 5 14 4 15 3 16 2 17 1 18
REMARK H PARENT
REMARK Flexibility Score: inf
ROOT
ATOM      1  C   UNL     1     -18.869  21.895  19.187  1.00  0.00     0.004 C 
ENDROOT
BRANCH   1   2
ATOM      2  C   UNL     1     -18.412  23.310  18.799  1.00  0.00     0.000 C 
BRANCH   2   3
ATOM      3  C   UNL     1     -19.009  23.779  17.461  1.00  0.00     0.000 C 
BRANCH   3   4
ATOM      4  C   UNL     1     -17.960  24.422  16.539  1.00  0.00     0.000 C 
BRANCH   4   5
ATOM      5  C   UNL     1     -17.320  25.678  17.156  1.00  0.00     0.006 C 
BRANCH   5   6
ATOM      6  C   UNL     1     -16.101  26.157  16.358  1.00  0.00     0.053 C 
BRANCH   6   7
ATOM      7  C   UNL     1     -14.869  25.372  16.691  1.00  0.00     0.041 C 
ATOM      8  O   UNL     1     -14.929  24.415  17.508  1.00  0.00    -0.550 OA
ATOM      9  O   UNL     1     -13.648  25.716  16.124  1.00  0.00    -0.550 OA
ENDBRANCH   6   7
ENDBRANCH   5   6
ENDBRANCH   4   5
ENDBRANCH   3   4
ENDBRANCH   2   3
ENDBRANCH   1   2
BRANCH   1  10
ATOM     10  C   UNL     1     -18.974  21.703  20.708  1.00  0.00     0.027 C 
BRANCH  10  11
ATOM     11  C   UNL     1     -17.868  20.820  21.230  1.00  0.00    -0.031 C 
ATOM     12  C   UNL     1     -17.847  19.475  21.158  1.00  0.00    -0.031 C 
BRANCH  12  13
ATOM     13  C   UNL     1     -18.917  18.615  20.524  1.00  0.00     0.027 C 
BRANCH  13  14
ATOM     14  C   UNL     1     -18.687  18.425  19.015  1.00  0.00     0.004 C 
BRANCH  14  15
ATOM     15  C   UNL     1     -18.520  16.960  18.566  1.00  0.00     0.000 C 
BRANCH  15  16
ATOM     16  C   UNL     1     -19.124  16.688  17.177  1.00  0.00    -0.000 C 
BRANCH  16  17
ATOM     17  C   UNL     1     -18.563  17.626  16.097  1.00  0.00    -0.003 C 
ATOM     18  C   UNL     1     -18.686  17.045  14.690  1.00  0.00     0.004 C 
ENDBRANCH  16  17
ENDBRANCH  15  16
ENDBRANCH  14  15
ENDBRANCH  13  14
ENDBRANCH  12  13
ENDBRANCH  10  11
ENDBRANCH   1  10
TORSDOF 13
ENDMDL
MODEL 2
REMARK VINA RESULT:    11.026      2.757      3.714
REMARK INTER + INTRA:          18.925
REMARK INTER:                  18.475
REMARK INTRA:                   0.451
REMARK UNBOUND:                -0.479
REMARK SMILES CCCCCCC=CCCCCCCCC(=O)[O-]
REMARK SMILES IDX 10 1 11 2 12 3 13 4 14 5 15 6 16 7 17 8 18 9 9 10 8 11 7 12
REMARK SMILES IDX 6 13 5 14 4 15 3 16 2 17 1 18
REMARK H PARENT
REMARK Flexibility Score: inf
ROOT
ATOM      1  C   UNL     1     -18.769  23.494  17.985  1.00  0.00     0.004 C 
ENDROOT
BRANCH   1   2
ATOM      2  C   UNL     1     -17.767  24.595  17.600  1.00  0.00     0.000 C 
BRANCH   2   3
ATOM      3  C   UNL     1     -18.456  25.859  17.058  1.00  0.00     0.000 C 
BRANCH   3   4
ATOM      4  C   UNL     1     -18.049  26.179  15.611  1.00  0.00     0.000 C 
BRANCH   4   5
ATOM      5  C   UNL     1     -16.630  25.691  15.273  1.00  0.00     0.006 C 
BRANCH   5   6
ATOM      6  C   UNL     1     -15.610  26.088  16.347  1.00  0.00     0.053 C 
BRANCH   6   7
ATOM      7  C   UNL     1     -14.455  25.136  16.403  1.00  0.00     0.041 C 
ATOM      8  O   UNL     1     -14.365  24.303  17.343  1.00  0.00    -0.550 OA
ATOM      9  O   UNL     1     -13.462  25.188  15.433  1.00  0.00    -0.550 OA
ENDBRANCH   6   7
ENDBRANCH   5   6
ENDBRANCH   4   5
ENDBRANCH   3   4
ENDBRANCH   2   3
ENDBRANCH   1   2
BRANCH   1  10
ATOM     10  C   UNL     1     -18.464  22.871  19.356  1.00  0.00     0.027 C 
BRANCH  10  11
ATOM     11  C   UNL     1     -19.002  21.465  19.454  1.00  0.00    -0.031 C 
ATOM     12  C   UNL     1     -19.124  20.756  20.592  1.00  0.00    -0.031 C 
BRANCH  12  13
ATOM     13  C   UNL     1     -18.762  21.250  21.975  1.00  0.00     0.027 C 
BRANCH  13  14
ATOM     14  C   UNL     1     -18.895  20.145  23.037  1.00  0.00     0.004 C 
BRANCH  14  15
ATOM     15  C   UNL     1     -17.961  18.936  22.832  1.00  0.00     0.000 C 
BRANCH  15  16
ATOM     16  C   UNL     1     -16.863  19.199  21.787  1.00  0.00    -0.000 C 
BRANCH  16  17
ATOM     17  C   UNL     1     -15.593  18.375  22.049  1.00  0.00    -0.003 C 
ATOM     18  C   UNL     1     -15.596  17.707  23.422  1.00  0.00     0.004 C 
ENDBRANCH  16  17
ENDBRANCH  15  16
ENDBRANCH  14  15
ENDBRANCH  13  14
ENDBRANCH  12  13
ENDBRANCH  10  11
ENDBRANCH   1  10
TORSDOF 13
ENDMDL
MODEL 3
REMARK VINA RESULT:    12.161      1.779      2.875
REMARK INTER + INTRA:          20.924
REMARK INTER:                  18.347
REMARK INTRA:                   2.576
REMARK UNBOUND:                -0.479
REMARK SMILES CCCCCCC=CCCCCCCCC(=O)[O-]
REMARK SMILES IDX 10 1 11 2 12 3 13 4 14 5 15 6 16 7 17 8 18 9 9 10 8 11 7 12
REMARK SMILES IDX 6 13 5 14 4 15 3 16 2 17 1 18
REMARK H PARENT
REMARK Flexibility Score: inf
ROOT
ATOM      1  C   UNL     1     -17.704  23.346  18.278  1.00  0.00     0.004 C 
ENDROOT
BRANCH   1   2
ATOM      2  C   UNL     1     -17.795  24.853  17.989  1.00  0.00     0.000 C 
BRANCH   2   3
ATOM      3  C   UNL     1     -18.921  25.198  16.999  1.00  0.00     0.000 C 
BRANCH   3   4
ATOM      4  C   UNL     1     -18.491  26.243  15.956  1.00  0.00     0.000 C 
BRANCH   4   5
ATOM      5  C   UNL     1     -17.071  25.994  15.419  1.00  0.00     0.006 C 
BRANCH   5   6
ATOM      6  C   UNL     1     -16.002  26.164  16.507  1.00  0.00     0.053 C 
BRANCH   6   7
ATOM      7  C   UNL     1     -14.751  25.406  16.186  1.00  0.00     0.041 C 
ATOM      8  O   UNL     1     -14.033  25.750  15.211  1.00  0.00    -0.550 OA
ATOM      9  O   UNL     1     -14.393  24.299  16.946  1.00  0.00    -0.550 OA
ENDBRANCH   6   7
ENDBRANCH   5   6
ENDBRANCH   4   5
ENDBRANCH   3   4
ENDBRANCH   2   3
ENDBRANCH   1   2
BRANCH   1  10
ATOM     10  C   UNL     1     -18.614  22.909  19.436  1.00  0.00     0.027 C 
BRANCH  10  11
ATOM     11  C   UNL     1     -18.959  21.444  19.343  1.00  0.00    -0.031 C 
ATOM     12  C   UNL     1     -19.125  20.615  20.391  1.00  0.00    -0.031 C 
BRANCH  12  13
ATOM     13  C   UNL     1     -19.015  21.011  21.847  1.00  0.00     0.027 C 
BRANCH  13  14
ATOM     14  C   UNL     1     -17.677  20.572  22.466  1.00  0.00     0.004 C 
BRANCH  14  15
ATOM     15  C   UNL     1     -17.095  19.268  21.888  1.00  0.00     0.000 C 
BRANCH  15  16
ATOM     16  C   UNL     1     -18.158  18.173  21.693  1.00  0.00    -0.000 C 
BRANCH  16  17
ATOM     17  C   UNL     1     -18.789  18.208  20.293  1.00  0.00    -0.003 C 
ATOM     18  C   UNL     1     -18.612  16.894  19.533  1.00  0.00     0.004 C 
ENDBRANCH  16  17
ENDBRANCH  15  16
ENDBRANCH  14  15
ENDBRANCH  13  14
ENDBRANCH  12  13
ENDBRANCH  10  11
ENDBRANCH   1  10
TORSDOF 13
ENDMDL
