MODEL 1
REMARK VINA RESULT:    -3.918      0.000      0.000
REMARK INTER + INTRA:          -4.613
REMARK INTER:                  -4.606
REMARK INTRA:                  -0.008
REMARK UNBOUND:                -0.008
REMARK SMILES [NH3+][C@H](CO)C(=O)[O-]
REMARK SMILES IDX 3 1 2 2 1 3 5 7 6 8 7 9 4 10
REMARK H PARENT 1 4 1 5 1 6 4 11
REMARK Flexibility Score: inf
ROOT
ATOM      1  C   UNL     1     -23.092  -4.892  17.750  1.00  0.00     0.227 C 
ENDROOT
BRANCH   1   2
ATOM      2  C   UNL     1     -23.657  -4.884  16.317  1.00  0.00     0.253 C 
BRANCH   2   3
ATOM      3  N   UNL     1     -23.344  -3.626  15.624  1.00  0.00    -0.348 N 
ATOM      4  H   UNL     1     -24.190  -3.286  15.110  1.00  0.00     0.345 HD
ATOM      5  H   UNL     1     -22.582  -3.789  14.926  1.00  0.00     0.345 HD
ATOM      6  H   UNL     1     -23.034  -2.890  16.299  1.00  0.00     0.345 HD
ENDBRANCH   2   3
BRANCH   2   7
ATOM      7  C   UNL     1     -23.155  -6.069  15.535  1.00  0.00     0.102 C 
ATOM      8  O   UNL     1     -23.829  -6.543  14.582  1.00  0.00    -0.544 OA
ATOM      9  O   UNL     1     -21.918  -6.624  15.839  1.00  0.00    -0.544 OA
ENDBRANCH   2   7
ENDBRANCH   1   2
BRANCH   1  10
ATOM     10  O   UNL     1     -24.070  -4.526  18.687  1.00  0.00    -0.390 OA
ATOM     11  H   UNL     1     -23.642  -4.567  19.582  1.00  0.00     0.210 HD
ENDBRANCH   1  10
TORSDOF 4
ENDMDL
MODEL 2
REMARK VINA RESULT:    -3.830      3.959      4.921
REMARK INTER + INTRA:          -4.510
REMARK INTER:                  -4.182
REMARK INTRA:                  -0.328
REMARK UNBOUND:                -0.008
REMARK SMILES [NH3+][C@H](CO)C(=O)[O-]
REMARK SMILES IDX 3 1 2 2 1 3 5 7 6 8 7 9 4 10
REMARK H PARENT 1 4 1 5 1 6 4 11
REMARK Flexibility Score: inf
ROOT
ATOM      1  C   UNL     1     -26.478  -7.004  12.712  1.00  0.00     0.227 C 
ENDROOT
BRANCH   1   2
ATOM      2  C   UNL     1     -25.767  -7.399  14.020  1.00  0.00     0.253 C 
BRANCH   2   3
ATOM      3  N   UNL     1     -24.495  -6.679  14.178  1.00  0.00    -0.348 N 
ATOM      4  H   UNL     1     -23.960  -6.706  13.280  1.00  0.00     0.345 HD
ATOM      5  H   UNL     1     -23.918  -7.145  14.917  1.00  0.00     0.345 HD
ATOM      6  H   UNL     1     -24.657  -5.683  14.451  1.00  0.00     0.345 HD
ENDBRANCH   2   3
BRANCH   2   7
ATOM      7  C   UNL     1     -26.664  -7.175  15.208  1.00  0.00     0.102 C 
ATOM      8  O   UNL     1     -27.544  -8.022  15.518  1.00  0.00    -0.544 OA
ATOM      9  O   UNL     1     -26.498  -6.043  15.996  1.00  0.00    -0.544 OA
ENDBRANCH   2   7
ENDBRANCH   1   2
BRANCH   1  10
ATOM     10  O   UNL     1     -27.551  -6.134  12.955  1.00  0.00    -0.390 OA
ATOM     11  H   UNL     1     -27.164  -5.283  13.289  1.00  0.00     0.210 HD
ENDBRANCH   1  10
TORSDOF 4
ENDMDL
MODEL 3
REMARK VINA RESULT:    -3.731      1.448      3.030
REMARK INTER + INTRA:          -4.394
REMARK INTER:                  -4.171
REMARK INTRA:                  -0.223
REMARK UNBOUND:                -0.008
REMARK SMILES [NH3+][C@H](CO)C(=O)[O-]
REMARK SMILES IDX 3 1 2 2 1 3 5 7 6 8 7 9 4 10
REMARK H PARENT 1 4 1 5 1 6 4 11
REMARK Flexibility Score: inf
ROOT
ATOM      1  C   UNL     1     -24.234  -6.794  14.813  1.00  0.00     0.227 C 
ENDROOT
BRANCH   1   2
ATOM      2  C   UNL     1     -23.820  -5.498  15.536  1.00  0.00     0.253 C 
BRANCH   2   3
ATOM      3  N   UNL     1     -24.937  -4.930  16.302  1.00  0.00    -0.348 N 
ATOM      4  H   UNL     1     -25.836  -5.098  15.794  1.00  0.00     0.345 HD
ATOM      5  H   UNL     1     -24.805  -3.897  16.400  1.00  0.00     0.345 HD
ATOM      6  H   UNL     1     -24.997  -5.357  17.255  1.00  0.00     0.345 HD
ENDBRANCH   2   3
BRANCH   2   7
ATOM      7  C   UNL     1     -22.624  -5.736  16.421  1.00  0.00     0.102 C 
ATOM      8  O   UNL     1     -22.505  -5.128  17.517  1.00  0.00    -0.544 OA
ATOM      9  O   UNL     1     -21.660  -6.663  16.045  1.00  0.00    -0.544 OA
ENDBRANCH   2   7
ENDBRANCH   1   2
BRANCH   1  10
ATOM     10  O   UNL     1     -23.346  -7.106  13.772  1.00  0.00    -0.390 OA
ATOM     11  H   UNL     1     -23.463  -6.411  13.073  1.00  0.00     0.210 HD
ENDBRANCH   1  10
TORSDOF 4
ENDMDL
MODEL 4
REMARK VINA RESULT:    -3.729      6.923      8.430
REMARK INTER + INTRA:          -4.390
REMARK INTER:                  -4.383
REMARK INTRA:                  -0.007
REMARK UNBOUND:                -0.008
REMARK SMILES [NH3+][C@H](CO)C(=O)[O-]
REMARK SMILES IDX 3 1 2 2 1 3 5 7 6 8 7 9 4 10
REMARK H PARENT 1 4 1 5 1 6 4 11
REMARK Flexibility Score: inf
ROOT
ATOM      1  C   UNL     1     -26.516  -6.797   7.840  1.00  0.00     0.227 C 
ENDROOT
BRANCH   1   2
ATOM      2  C   UNL     1     -25.264  -6.469   8.674  1.00  0.00     0.253 C 
BRANCH   2   3
ATOM      3  N   UNL     1     -24.412  -5.481   7.999  1.00  0.00    -0.348 N 
ATOM      4  H   UNL     1     -23.420  -5.600   8.309  1.00  0.00     0.345 HD
ATOM      5  H   UNL     1     -24.722  -4.516   8.257  1.00  0.00     0.345 HD
ATOM      6  H   UNL     1     -24.461  -5.588   6.960  1.00  0.00     0.345 HD
ENDBRANCH   2   3
BRANCH   2   7
ATOM      7  C   UNL     1     -25.646  -5.999  10.053  1.00  0.00     0.102 C 
ATOM      8  O   UNL     1     -25.752  -4.770  10.308  1.00  0.00    -0.544 OA
ATOM      9  O   UNL     1     -25.923  -6.929  11.048  1.00  0.00    -0.544 OA
ENDBRANCH   2   7
ENDBRANCH   1   2
BRANCH   1  10
ATOM     10  O   UNL     1     -26.361  -6.397   6.503  1.00  0.00    -0.390 OA
ATOM     11  H   UNL     1     -25.387  -6.280   6.348  1.00  0.00     0.210 HD
ENDBRANCH   1  10
TORSDOF 4
ENDMDL
MODEL 5
REMARK VINA RESULT:    -3.725      4.015      4.443
REMARK INTER + INTRA:          -4.386
REMARK INTER:                  -4.379
REMARK INTRA:                  -0.007
REMARK UNBOUND:                -0.008
REMARK SMILES [NH3+][C@H](CO)C(=O)[O-]
REMARK SMILES IDX 3 1 2 2 1 3 5 7 6 8 7 9 4 10
REMARK H PARENT 1 4 1 5 1 6 4 11
REMARK Flexibility Score: inf
ROOT
ATOM      1  C   UNL     1     -27.103  -6.777  15.373  1.00  0.00     0.227 C 
ENDROOT
BRANCH   1   2
ATOM      2  C   UNL     1     -26.683  -7.214  13.957  1.00  0.00     0.253 C 
BRANCH   2   3
ATOM      3  N   UNL     1     -27.304  -6.369  12.927  1.00  0.00    -0.348 N 
ATOM      4  H   UNL     1     -28.154  -5.902  13.319  1.00  0.00     0.345 HD
ATOM      5  H   UNL     1     -27.601  -6.963  12.119  1.00  0.00     0.345 HD
ATOM      6  H   UNL     1     -26.638  -5.639  12.586  1.00  0.00     0.345 HD
ENDBRANCH   2   3
BRANCH   2   7
ATOM      7  C   UNL     1     -25.183  -7.217  13.819  1.00  0.00     0.102 C 
ATOM      8  O   UNL     1     -24.450  -7.583  14.776  1.00  0.00    -0.544 OA
ATOM      9  O   UNL     1     -24.599  -6.850  12.613  1.00  0.00    -0.544 OA
ENDBRANCH   2   7
ENDBRANCH   1   2
BRANCH   1  10
ATOM     10  O   UNL     1     -28.500  -6.770  15.513  1.00  0.00    -0.390 OA
ATOM     11  H   UNL     1     -28.878  -6.523  14.629  1.00  0.00     0.210 HD
ENDBRANCH   1  10
TORSDOF 4
ENDMDL
MODEL 6
REMARK VINA RESULT:    -3.664      2.581      2.972
REMARK INTER + INTRA:          -4.314
REMARK INTER:                  -4.069
REMARK INTRA:                  -0.245
REMARK UNBOUND:                -0.008
REMARK SMILES [NH3+][C@H](CO)C(=O)[O-]
REMARK SMILES IDX 3 1 2 2 1 3 5 7 6 8 7 9 4 10
REMARK H PARENT 1 4 1 5 1 6 4 11
REMARK Flexibility Score: inf
ROOT
ATOM      1  C   UNL     1     -21.908  -6.869  15.586  1.00  0.00     0.227 C 
ENDROOT
BRANCH   1   2
ATOM      2  C   UNL     1     -23.378  -6.417  15.503  1.00  0.00     0.253 C 
BRANCH   2   3
ATOM      3  N   UNL     1     -23.484  -4.976  15.233  1.00  0.00    -0.348 N 
ATOM      4  H   UNL     1     -24.345  -4.594  15.687  1.00  0.00     0.345 HD
ATOM      5  H   UNL     1     -23.559  -4.817  14.202  1.00  0.00     0.345 HD
ATOM      6  H   UNL     1     -22.648  -4.463  15.596  1.00  0.00     0.345 HD
ENDBRANCH   2   3
BRANCH   2   7
ATOM      7  C   UNL     1     -24.128  -7.216  14.468  1.00  0.00     0.102 C 
ATOM      8  O   UNL     1     -24.151  -6.846  13.264  1.00  0.00    -0.544 OA
ATOM      9  O   UNL     1     -24.768  -8.393  14.835  1.00  0.00    -0.544 OA
ENDBRANCH   2   7
ENDBRANCH   1   2
BRANCH   1  10
ATOM     10  O   UNL     1     -21.797  -8.266  15.524  1.00  0.00    -0.390 OA
ATOM     11  H   UNL     1     -22.683  -8.615  15.242  1.00  0.00     0.210 HD
ENDBRANCH   1  10
TORSDOF 4
ENDMDL
MODEL 7
REMARK VINA RESULT:    -3.652      2.398      2.784
REMARK INTER + INTRA:          -4.301
REMARK INTER:                  -4.119
REMARK INTRA:                  -0.182
REMARK UNBOUND:                -0.008
REMARK SMILES [NH3+][C@H](CO)C(=O)[O-]
REMARK SMILES IDX 3 1 2 2 1 3 5 7 6 8 7 9 4 10
REMARK H PARENT 1 4 1 5 1 6 4 11
REMARK Flexibility Score: inf
ROOT
ATOM      1  C   UNL     1     -23.504  -5.215  16.224  1.00  0.00     0.227 C 
ENDROOT
BRANCH   1   2
ATOM      2  C   UNL     1     -23.850  -6.108  15.018  1.00  0.00     0.253 C 
BRANCH   2   3
ATOM      3  N   UNL     1     -22.825  -7.137  14.799  1.00  0.00    -0.348 N 
ATOM      4  H   UNL     1     -23.096  -8.018  15.295  1.00  0.00     0.345 HD
ATOM      5  H   UNL     1     -21.911  -6.811  15.190  1.00  0.00     0.345 HD
ATOM      6  H   UNL     1     -22.706  -7.340  13.780  1.00  0.00     0.345 HD
ENDBRANCH   2   3
BRANCH   2   7
ATOM      7  C   UNL     1     -25.212  -6.730  15.184  1.00  0.00     0.102 C 
ATOM      8  O   UNL     1     -25.483  -7.836  14.647  1.00  0.00    -0.544 OA
ATOM      9  O   UNL     1     -26.168  -6.098  15.969  1.00  0.00    -0.544 OA
ENDBRANCH   2   7
ENDBRANCH   1   2
BRANCH   1  10
ATOM     10  O   UNL     1     -23.907  -3.888  16.012  1.00  0.00    -0.390 OA
ATOM     11  H   UNL     1     -24.895  -3.897  15.917  1.00  0.00     0.210 HD
ENDBRANCH   1  10
TORSDOF 4
ENDMDL
MODEL 8
REMARK VINA RESULT:    -3.606      2.121      3.390
REMARK INTER + INTRA:          -4.246
REMARK INTER:                  -4.002
REMARK INTRA:                  -0.244
REMARK UNBOUND:                -0.008
REMARK SMILES [NH3+][C@H](CO)C(=O)[O-]
REMARK SMILES IDX 3 1 2 2 1 3 5 7 6 8 7 9 4 10
REMARK H PARENT 1 4 1 5 1 6 4 11
REMARK Flexibility Score: inf
ROOT
ATOM      1  C   UNL     1     -23.859  -6.945  14.215  1.00  0.00     0.227 C 
ENDROOT
BRANCH   1   2
ATOM      2  C   UNL     1     -23.310  -6.458  15.569  1.00  0.00     0.253 C 
BRANCH   2   3
ATOM      3  N   UNL     1     -21.846  -6.336  15.543  1.00  0.00    -0.348 N 
ATOM      4  H   UNL     1     -21.567  -5.362  15.806  1.00  0.00     0.345 HD
ATOM      5  H   UNL     1     -21.495  -6.526  14.576  1.00  0.00     0.345 HD
ATOM      6  H   UNL     1     -21.400  -7.011  16.206  1.00  0.00     0.345 HD
ENDBRANCH   2   3
BRANCH   2   7
ATOM      7  C   UNL     1     -23.953  -5.156  15.971  1.00  0.00     0.102 C 
ATOM      8  O   UNL     1     -23.349  -4.063  15.806  1.00  0.00    -0.544 OA
ATOM      9  O   UNL     1     -25.239  -5.155  16.495  1.00  0.00    -0.544 OA
ENDBRANCH   2   7
ENDBRANCH   1   2
BRANCH   1  10
ATOM     10  O   UNL     1     -25.256  -6.832  14.157  1.00  0.00    -0.390 OA
ATOM     11  H   UNL     1     -25.464  -6.161  13.455  1.00  0.00     0.210 HD
ENDBRANCH   1  10
TORSDOF 4
ENDMDL
MODEL 9
REMARK VINA RESULT:    -3.600      4.050      4.792
REMARK INTER + INTRA:          -4.240
REMARK INTER:                  -4.233
REMARK INTRA:                  -0.007
REMARK UNBOUND:                -0.008
REMARK SMILES [NH3+][C@H](CO)C(=O)[O-]
REMARK SMILES IDX 3 1 2 2 1 3 5 7 6 8 7 9 4 10
REMARK H PARENT 1 4 1 5 1 6 4 11
REMARK Flexibility Score: inf
ROOT
ATOM      1  C   UNL     1     -26.911  -8.860  15.125  1.00  0.00     0.227 C 
ENDROOT
BRANCH   1   2
ATOM      2  C   UNL     1     -27.006  -7.345  14.862  1.00  0.00     0.253 C 
BRANCH   2   3
ATOM      3  N   UNL     1     -28.195  -6.763  15.498  1.00  0.00    -0.348 N 
ATOM      4  H   UNL     1     -28.010  -6.603  16.516  1.00  0.00     0.345 HD
ATOM      5  H   UNL     1     -28.999  -7.426  15.413  1.00  0.00     0.345 HD
ATOM      6  H   UNL     1     -28.455  -5.854  15.051  1.00  0.00     0.345 HD
ENDBRANCH   2   3
BRANCH   2   7
ATOM      7  C   UNL     1     -25.753  -6.642  15.315  1.00  0.00     0.102 C 
ATOM      8  O   UNL     1     -24.641  -6.906  14.785  1.00  0.00    -0.544 OA
ATOM      9  O   UNL     1     -25.827  -5.665  16.299  1.00  0.00    -0.544 OA
ENDBRANCH   2   7
ENDBRANCH   1   2
BRANCH   1  10
ATOM     10  O   UNL     1     -28.006  -9.320  15.872  1.00  0.00    -0.390 OA
ATOM     11  H   UNL     1     -28.155 -10.267  15.615  1.00  0.00     0.210 HD
ENDBRANCH   1  10
TORSDOF 4
ENDMDL
