MODEL 1
REMARK VINA RESULT:     4.461      0.000      0.000
REMARK INTER + INTRA:           5.773
REMARK INTER:                   6.026
REMARK INTRA:                  -0.253
REMARK UNBOUND:                -0.253
REMARK SMILES CCCCCCCC(=O)[O-]
REMARK SMILES IDX 5 1 6 2 7 3 8 4 9 5 10 6 4 7 3 8 2 9 1 10
REMARK H PARENT
REMARK Flexibility Score: inf
ROOT
ATOM      1  C   UNL     1     -10.755  -1.687 -18.234  1.00  0.00     0.000 C 
ENDROOT
BRANCH   1   2
ATOM      2  C   UNL     1      -9.679  -0.864 -17.516  1.00  0.00     0.006 C 
BRANCH   2   3
ATOM      3  C   UNL     1      -8.439  -1.714 -17.224  1.00  0.00     0.053 C 
BRANCH   3   4
ATOM      4  C   UNL     1      -7.398  -0.899 -16.526  1.00  0.00     0.041 C 
ATOM      5  O   UNL     1      -6.875   0.090 -17.105  1.00  0.00    -0.550 OA
ATOM      6  O   UNL     1      -7.039  -1.201 -15.219  1.00  0.00    -0.550 OA
ENDBRANCH   3   4
ENDBRANCH   2   3
ENDBRANCH   1   2
BRANCH   1   7
ATOM      7  C   UNL     1     -12.125  -0.998 -18.150  1.00  0.00     0.000 C 
BRANCH   7   8
ATOM      8  C   UNL     1     -12.103   0.234 -17.220  1.00  0.00    -0.000 C 
BRANCH   8   9
ATOM      9  C   UNL     1     -12.825   1.460 -17.802  1.00  0.00    -0.003 C 
ATOM     10  C   UNL     1     -12.146   2.780 -17.443  1.00  0.00     0.004 C 
ENDBRANCH   8   9
ENDBRANCH   7   8
ENDBRANCH   1   7
TORSDOF 6
ENDMDL
MODEL 2
REMARK VINA RESULT:     4.524      2.840      5.062
REMARK INTER + INTRA:           5.858
REMARK INTER:                   6.053
REMARK INTRA:                  -0.195
REMARK UNBOUND:                -0.253
REMARK SMILES CCCCCCCC(=O)[O-]
REMARK SMILES IDX 5 1 6 2 7 3 8 4 9 5 10 6 4 7 3 8 2 9 1 10
REMARK H PARENT
REMARK Flexibility Score: inf
ROOT
ATOM      1  C   UNL     1     -10.565  -1.365 -18.261  1.00  0.00     0.000 C 
ENDROOT
BRANCH   1   2
ATOM      2  C   UNL     1     -11.917  -0.641 -18.272  1.00  0.00     0.006 C 
BRANCH   2   3
ATOM      3  C   UNL     1     -12.069   0.258 -17.042  1.00  0.00     0.053 C 
BRANCH   3   4
ATOM      4  C   UNL     1     -12.416   1.653 -17.453  1.00  0.00     0.041 C 
ATOM      5  O   UNL     1     -13.444   1.872 -18.147  1.00  0.00    -0.550 OA
ATOM      6  O   UNL     1     -11.631   2.718 -17.030  1.00  0.00    -0.550 OA
ENDBRANCH   3   4
ENDBRANCH   2   3
ENDBRANCH   1   2
BRANCH   1   7
ATOM      7  C   UNL     1      -9.591  -0.701 -17.277  1.00  0.00     0.000 C 
BRANCH   7   8
ATOM      8  C   UNL     1      -8.238  -1.440 -17.206  1.00  0.00    -0.000 C 
BRANCH   8   9
ATOM      9  C   UNL     1      -7.170  -0.696 -16.388  1.00  0.00    -0.003 C 
ATOM     10  C   UNL     1      -6.919  -1.325 -15.019  1.00  0.00     0.004 C 
ENDBRANCH   8   9
ENDBRANCH   7   8
ENDBRANCH   1   7
TORSDOF 6
ENDMDL
