MODEL 1
REMARK VINA RESULT:    -2.284      0.000      0.000
REMARK INTER + INTRA:          -3.834
REMARK INTER:                  -3.352
REMARK INTRA:                  -0.482
REMARK UNBOUND:                -0.482
REMARK SMILES O=C([O-])CCCCCCCC(=O)[O-]
REMARK SMILES IDX 7 1 6 2 5 3 4 4 2 5 1 6 3 7 8 8 9 9 10 10 11 11 12 12 13 13
REMARK H PARENT
REMARK Flexibility Score: inf
ROOT
ATOM      1  C   UNL     1      31.133  23.554  28.075  1.00  0.00     0.000 C 
ENDROOT
BRANCH   1   2
ATOM      2  C   UNL     1      29.904  24.443  28.315  1.00  0.00     0.000 C 
BRANCH   2   3
ATOM      3  C   UNL     1      29.918  25.124  29.696  1.00  0.00     0.006 C 
BRANCH   3   4
ATOM      4  C   UNL     1      30.721  24.369  30.768  1.00  0.00     0.053 C 
BRANCH   4   5
ATOM      5  C   UNL     1      30.306  24.752  32.155  1.00  0.00     0.041 C 
ATOM      6  O   UNL     1      31.174  24.917  33.052  1.00  0.00    -0.550 OA
ATOM      7  O   UNL     1      28.960  24.893  32.466  1.00  0.00    -0.550 OA
ENDBRANCH   4   5
ENDBRANCH   3   4
ENDBRANCH   2   3
ENDBRANCH   1   2
BRANCH   1   8
ATOM      8  C   UNL     1      31.959  24.070  26.887  1.00  0.00     0.000 C 
BRANCH   8   9
ATOM      9  C   UNL     1      33.423  24.368  27.261  1.00  0.00     0.006 C 
BRANCH   9  10
ATOM     10  C   UNL     1      33.723  24.288  28.766  1.00  0.00     0.053 C 
BRANCH  10  11
ATOM     11  C   UNL     1      35.120  24.725  29.086  1.00  0.00     0.041 C 
ATOM     12  O   UNL     1      35.409  25.125  30.244  1.00  0.00    -0.550 OA
ATOM     13  O   UNL     1      36.111  24.656  28.114  1.00  0.00    -0.550 OA
ENDBRANCH  10  11
ENDBRANCH   9  10
ENDBRANCH   8   9
ENDBRANCH   1   8
TORSDOF 8
ENDMDL
MODEL 2
REMARK VINA RESULT:    -2.257      1.087      5.451
REMARK INTER + INTRA:          -3.794
REMARK INTER:                  -3.259
REMARK INTRA:                  -0.536
REMARK UNBOUND:                -0.482
REMARK SMILES O=C([O-])CCCCCCCC(=O)[O-]
REMARK SMILES IDX 7 1 6 2 5 3 4 4 2 5 1 6 3 7 8 8 9 9 10 10 11 11 12 12 13 13
REMARK H PARENT
REMARK Flexibility Score: inf
ROOT
ATOM      1  C   UNL     1      32.014  23.091  28.747  1.00  0.00     0.000 C 
ENDROOT
BRANCH   1   2
ATOM      2  C   UNL     1      32.993  23.015  27.566  1.00  0.00     0.000 C 
BRANCH   2   3
ATOM      3  C   UNL     1      33.788  24.318  27.362  1.00  0.00     0.006 C 
BRANCH   3   4
ATOM      4  C   UNL     1      34.678  24.711  28.552  1.00  0.00     0.053 C 
BRANCH   4   5
ATOM      5  C   UNL     1      36.098  24.275  28.361  1.00  0.00     0.041 C 
ATOM      6  O   UNL     1      36.994  25.125  28.121  1.00  0.00    -0.550 OA
ATOM      7  O   UNL     1      36.425  22.926  28.413  1.00  0.00    -0.550 OA
ENDBRANCH   4   5
ENDBRANCH   3   4
ENDBRANCH   2   3
ENDBRANCH   1   2
BRANCH   1   8
ATOM      8  C   UNL     1      30.823  24.002  28.415  1.00  0.00     0.000 C 
BRANCH   8   9
ATOM      9  C   UNL     1      30.250  24.712  29.656  1.00  0.00     0.006 C 
BRANCH   9  10
ATOM     10  C   UNL     1      31.274  24.967  30.773  1.00  0.00     0.053 C 
BRANCH  10  11
ATOM     11  C   UNL     1      30.635  24.993  32.127  1.00  0.00     0.041 C 
ATOM     12  O   UNL     1      29.384  24.907  32.239  1.00  0.00    -0.550 OA
ATOM     13  O   UNL     1      31.424  25.075  33.268  1.00  0.00    -0.550 OA
ENDBRANCH  10  11
ENDBRANCH   9  10
ENDBRANCH   8   9
ENDBRANCH   1   8
TORSDOF 8
ENDMDL
MODEL 3
REMARK VINA RESULT:    -2.176     18.541     20.431
REMARK INTER + INTRA:          -3.676
REMARK INTER:                  -3.721
REMARK INTRA:                   0.045
REMARK UNBOUND:                -0.482
REMARK SMILES O=C([O-])CCCCCCCC(=O)[O-]
REMARK SMILES IDX 7 1 6 2 5 3 4 4 2 5 1 6 3 7 8 8 9 9 10 10 11 11 12 12 13 13
REMARK H PARENT
REMARK Flexibility Score: inf
ROOT
ATOM      1  C   UNL     1      19.088  23.636  46.879  1.00  0.00     0.000 C 
ENDROOT
BRANCH   1   2
ATOM      2  C   UNL     1      19.631  22.823  45.694  1.00  0.00     0.000 C 
BRANCH   2   3
ATOM      3  C   UNL     1      20.639  21.741  46.122  1.00  0.00     0.006 C 
BRANCH   3   4
ATOM      4  C   UNL     1      21.993  22.289  46.600  1.00  0.00     0.053 C 
BRANCH   4   5
ATOM      5  C   UNL     1      22.779  22.902  45.482  1.00  0.00     0.041 C 
ATOM      6  O   UNL     1      22.199  23.264  44.425  1.00  0.00    -0.550 OA
ATOM      7  O   UNL     1      24.157  23.040  45.592  1.00  0.00    -0.550 OA
ENDBRANCH   4   5
ENDBRANCH   3   4
ENDBRANCH   2   3
ENDBRANCH   1   2
BRANCH   1   8
ATOM      8  C   UNL     1      17.635  24.066  46.629  1.00  0.00     0.000 C 
BRANCH   8   9
ATOM      9  C   UNL     1      17.506  25.116  45.509  1.00  0.00     0.006 C 
BRANCH   9  10
ATOM     10  C   UNL     1      16.932  24.572  44.192  1.00  0.00     0.053 C 
BRANCH  10  11
ATOM     11  C   UNL     1      17.821  24.871  43.024  1.00  0.00     0.041 C 
ATOM     12  O   UNL     1      19.041  25.124  43.205  1.00  0.00    -0.550 OA
ATOM     13  O   UNL     1      17.310  24.833  41.732  1.00  0.00    -0.550 OA
ENDBRANCH  10  11
ENDBRANCH   9  10
ENDBRANCH   8   9
ENDBRANCH   1   8
TORSDOF 8
ENDMDL
MODEL 4
REMARK VINA RESULT:    -2.040      3.047      5.222
REMARK INTER + INTRA:          -3.476
REMARK INTER:                  -3.200
REMARK INTRA:                  -0.276
REMARK UNBOUND:                -0.482
REMARK SMILES O=C([O-])CCCCCCCC(=O)[O-]
REMARK SMILES IDX 7 1 6 2 5 3 4 4 2 5 1 6 3 7 8 8 9 9 10 10 11 11 12 12 13 13
REMARK H PARENT
REMARK Flexibility Score: inf
ROOT
ATOM      1  C   UNL     1      31.258  24.211  32.809  1.00  0.00     0.000 C 
ENDROOT
BRANCH   1   2
ATOM      2  C   UNL     1      31.789  25.111  33.934  1.00  0.00     0.000 C 
BRANCH   2   3
ATOM      3  C   UNL     1      33.323  25.067  34.063  1.00  0.00     0.006 C 
BRANCH   3   4
ATOM      4  C   UNL     1      34.074  25.125  32.724  1.00  0.00     0.053 C 
BRANCH   4   5
ATOM      5  C   UNL     1      35.517  24.753  32.871  1.00  0.00     0.041 C 
ATOM      6  O   UNL     1      36.351  25.090  31.991  1.00  0.00    -0.550 OA
ATOM      7  O   UNL     1      35.936  24.004  33.964  1.00  0.00    -0.550 OA
ENDBRANCH   4   5
ENDBRANCH   3   4
ENDBRANCH   2   3
ENDBRANCH   1   2
BRANCH   1   8
ATOM      8  C   UNL     1      30.725  25.053  31.639  1.00  0.00     0.000 C 
BRANCH   8   9
ATOM      9  C   UNL     1      31.346  24.657  30.287  1.00  0.00     0.006 C 
BRANCH   9  10
ATOM     10  C   UNL     1      30.459  24.956  29.068  1.00  0.00     0.053 C 
BRANCH  10  11
ATOM     11  C   UNL     1      30.456  23.827  28.083  1.00  0.00     0.041 C 
ATOM     12  O   UNL     1      29.411  23.555  27.435  1.00  0.00    -0.550 OA
ATOM     13  O   UNL     1      31.617  23.100  27.854  1.00  0.00    -0.550 OA
ENDBRANCH  10  11
ENDBRANCH   9  10
ENDBRANCH   8   9
ENDBRANCH   1   8
TORSDOF 8
ENDMDL
MODEL 5
REMARK VINA RESULT:    -1.047     18.410     20.175
REMARK INTER + INTRA:          -2.018
REMARK INTER:                  -1.451
REMARK INTRA:                  -0.567
REMARK UNBOUND:                -0.482
REMARK SMILES O=C([O-])CCCCCCCC(=O)[O-]
REMARK SMILES IDX 7 1 6 2 5 3 4 4 2 5 1 6 3 7 8 8 9 9 10 10 11 11 12 12 13 13
REMARK H PARENT
REMARK Flexibility Score: inf
ROOT
ATOM      1  C   UNL     1      19.363  23.324  47.100  1.00  0.00     0.000 C 
ENDROOT
BRANCH   1   2
ATOM      2  C   UNL     1      18.002  24.034  47.125  1.00  0.00     0.000 C 
BRANCH   2   3
ATOM      3  C   UNL     1      17.870  25.116  46.037  1.00  0.00     0.006 C 
BRANCH   3   4
ATOM      4  C   UNL     1      17.070  24.677  44.800  1.00  0.00     0.053 C 
BRANCH   4   5
ATOM      5  C   UNL     1      17.899  24.708  43.553  1.00  0.00     0.041 C 
ATOM      6  O   UNL     1      19.148  24.849  43.627  1.00  0.00    -0.550 OA
ATOM      7  O   UNL     1      17.290  24.616  42.308  1.00  0.00    -0.550 OA
ENDBRANCH   4   5
ENDBRANCH   3   4
ENDBRANCH   2   3
ENDBRANCH   1   2
BRANCH   1   8
ATOM      8  C   UNL     1      19.338  22.122  46.144  1.00  0.00     0.000 C 
BRANCH   8   9
ATOM      9  C   UNL     1      20.586  22.046  45.245  1.00  0.00     0.006 C 
BRANCH   9  10
ATOM     10  C   UNL     1      21.914  21.938  46.011  1.00  0.00     0.053 C 
BRANCH  10  11
ATOM     11  C   UNL     1      22.952  22.877  45.474  1.00  0.00     0.041 C 
ATOM     12  O   UNL     1      22.790  23.423  44.351  1.00  0.00    -0.550 OA
ATOM     13  O   UNL     1      24.078  23.176  46.230  1.00  0.00    -0.550 OA
ENDBRANCH  10  11
ENDBRANCH   9  10
ENDBRANCH   8   9
ENDBRANCH   1   8
TORSDOF 8
ENDMDL
MODEL 6
REMARK VINA RESULT:    -0.978      2.061      3.000
REMARK INTER + INTRA:          -1.918
REMARK INTER:                  -2.096
REMARK INTRA:                   0.179
REMARK UNBOUND:                -0.482
REMARK SMILES O=C([O-])CCCCCCCC(=O)[O-]
REMARK SMILES IDX 7 1 6 2 5 3 4 4 2 5 1 6 3 7 8 8 9 9 10 10 11 11 12 12 13 13
REMARK H PARENT
REMARK Flexibility Score: inf
ROOT
ATOM      1  C   UNL     1      31.304  23.831  30.018  1.00  0.00     0.000 C 
ENDROOT
BRANCH   1   2
ATOM      2  C   UNL     1      32.514  24.778  30.031  1.00  0.00     0.000 C 
BRANCH   2   3
ATOM      3  C   UNL     1      32.988  25.125  31.454  1.00  0.00     0.006 C 
BRANCH   3   4
ATOM      4  C   UNL     1      31.934  24.892  32.549  1.00  0.00     0.053 C 
BRANCH   4   5
ATOM      5  C   UNL     1      32.528  24.944  33.922  1.00  0.00     0.041 C 
ATOM      6  O   UNL     1      33.777  24.962  34.072  1.00  0.00    -0.550 OA
ATOM      7  O   UNL     1      31.701  24.939  35.039  1.00  0.00    -0.550 OA
ENDBRANCH   4   5
ENDBRANCH   3   4
ENDBRANCH   2   3
ENDBRANCH   1   2
BRANCH   1   8
ATOM      8  C   UNL     1      30.355  24.170  28.859  1.00  0.00     0.000 C 
BRANCH   8   9
ATOM      9  C   UNL     1      30.891  23.705  27.492  1.00  0.00     0.006 C 
BRANCH   9  10
ATOM     10  C   UNL     1      32.160  24.436  27.025  1.00  0.00     0.053 C 
BRANCH  10  11
ATOM     11  C   UNL     1      33.347  23.524  26.970  1.00  0.00     0.041 C 
ATOM     12  O   UNL     1      33.187  22.276  26.977  1.00  0.00    -0.550 OA
ATOM     13  O   UNL     1      34.628  24.055  26.875  1.00  0.00    -0.550 OA
ENDBRANCH  10  11
ENDBRANCH   9  10
ENDBRANCH   8   9
ENDBRANCH   1   8
TORSDOF 8
ENDMDL
