MODEL 1
REMARK VINA RESULT:    -5.127      0.000      0.000
REMARK INTER + INTRA:          -6.672
REMARK INTER:                  -6.326
REMARK INTRA:                  -0.346
REMARK UNBOUND:                -0.346
REMARK SMILES O=c1c(O)c(-c2cc(O)c(O)c(O)c2)oc2cc(O)cc(O)c12
REMARK SMILES IDX 5 1 3 2 2 3 1 4 23 5 21 6 20 7 18 8 17 9 16 10 15 11 6 12
REMARK SMILES IDX 7 13 8 14 14 15 10 16 12 17 9 18 11 20 13 22 4 24 22 26
REMARK SMILES IDX 19 28
REMARK H PARENT 9 19 11 21 13 23 4 25 22 27 19 29
REMARK Flexibility Score: inf
ROOT
ATOM      1  C   UNL     1     140.059 170.491 176.502  1.00  0.00     0.180 A 
ATOM      2  C   UNL     1     140.052 171.614 175.657  1.00  0.00     0.208 A 
ATOM      3  C   UNL     1     141.243 171.995 175.019  1.00  0.00     0.238 A 
ATOM      4  O   UNL     1     141.212 172.955 174.207  1.00  0.00    -0.285 OA
ATOM      5  C   UNL     1     142.440 171.283 175.279  1.00  0.00     0.111 A 
ATOM      6  C   UNL     1     143.715 171.608 174.723  1.00  0.00     0.134 A 
ATOM      7  C   UNL     1     144.808 170.768 174.967  1.00  0.00     0.093 A 
ATOM      8  C   UNL     1     144.688 169.651 175.798  1.00  0.00     0.123 A 
ATOM      9  C   UNL     1     143.462 169.357 176.388  1.00  0.00     0.094 A 
ATOM     10  C   UNL     1     142.344 170.153 176.133  1.00  0.00     0.146 A 
ATOM     11  O   UNL     1     141.189 169.824 176.699  1.00  0.00    -0.452 OA
ENDROOT
BRANCH   1  12
ATOM     12  C   UNL     1     138.839 170.020 177.196  1.00  0.00     0.029 A 
ATOM     13  C   UNL     1     138.470 170.607 178.417  1.00  0.00     0.062 A 
ATOM     14  C   UNL     1     137.332 170.166 179.105  1.00  0.00     0.162 A 
ATOM     15  C   UNL     1     138.073 168.956 176.690  1.00  0.00     0.062 A 
ATOM     16  C   UNL     1     136.561 169.119 178.585  1.00  0.00     0.200 A 
ATOM     17  C   UNL     1     136.934 168.509 177.375  1.00  0.00     0.162 A 
BRANCH  14  18
ATOM     18  O   UNL     1     136.962 170.762 180.309  1.00  0.00    -0.504 OA
ATOM     19  H   UNL     1     137.423 170.528 181.181  1.00  0.00     0.293 HD
ENDBRANCH  14  18
BRANCH  16  20
ATOM     20  O   UNL     1     135.430 168.694 179.282  1.00  0.00    -0.502 OA
ATOM     21  H   UNL     1     135.376 167.782 179.719  1.00  0.00     0.293 HD
ENDBRANCH  16  20
BRANCH  17  22
ATOM     22  O   UNL     1     136.177 167.458 176.861  1.00  0.00    -0.504 OA
ATOM     23  H   UNL     1     136.493 166.913 176.067  1.00  0.00     0.293 HD
ENDBRANCH  17  22
ENDBRANCH   1  12
BRANCH   2  24
ATOM     24  O   UNL     1     138.877 172.349 175.474  1.00  0.00    -0.502 OA
ATOM     25  H   UNL     1     137.959 171.963 175.663  1.00  0.00     0.293 HD
ENDBRANCH   2  24
BRANCH   6  26
ATOM     26  O   UNL     1     143.966 172.748 173.953  1.00  0.00    -0.507 OA
ATOM     27  H   UNL     1     144.595 173.493 174.212  1.00  0.00     0.293 HD
ENDBRANCH   6  26
BRANCH   8  28
ATOM     28  O   UNL     1     145.786 168.831 176.047  1.00  0.00    -0.508 OA
ATOM     29  H   UNL     1     146.048 168.086 175.413  1.00  0.00     0.293 HD
ENDBRANCH   8  28
TORSDOF 7
ENDMDL
MODEL 2
REMARK VINA RESULT:    -5.065      1.484      7.104
REMARK INTER + INTRA:          -6.596
REMARK INTER:                  -6.230
REMARK INTRA:                  -0.365
REMARK UNBOUND:                -0.346
REMARK SMILES O=c1c(O)c(-c2cc(O)c(O)c(O)c2)oc2cc(O)cc(O)c12
REMARK SMILES IDX 5 1 3 2 2 3 1 4 23 5 21 6 20 7 18 8 17 9 16 10 15 11 6 12
REMARK SMILES IDX 7 13 8 14 14 15 10 16 12 17 9 18 11 20 13 22 4 24 22 26
REMARK SMILES IDX 19 28
REMARK H PARENT 9 19 11 21 13 23 4 25 22 27 19 29
REMARK Flexibility Score: inf
ROOT
ATOM      1  C   UNL     1     139.329 170.353 176.540  1.00  0.00     0.180 A 
ATOM      2  C   UNL     1     138.833 170.995 177.687  1.00  0.00     0.208 A 
ATOM      3  C   UNL     1     137.777 170.403 178.397  1.00  0.00     0.238 A 
ATOM      4  O   UNL     1     137.389 170.945 179.464  1.00  0.00    -0.285 OA
ATOM      5  C   UNL     1     137.191 169.206 177.920  1.00  0.00     0.111 A 
ATOM      6  C   UNL     1     136.085 168.541 178.533  1.00  0.00     0.134 A 
ATOM      7  C   UNL     1     135.659 167.305 178.033  1.00  0.00     0.093 A 
ATOM      8  C   UNL     1     136.254 166.740 176.902  1.00  0.00     0.123 A 
ATOM      9  C   UNL     1     137.296 167.407 176.264  1.00  0.00     0.094 A 
ATOM     10  C   UNL     1     137.770 168.623 176.762  1.00  0.00     0.146 A 
ATOM     11  O   UNL     1     138.781 169.213 176.136  1.00  0.00    -0.452 OA
ENDROOT
BRANCH   1  12
ATOM     12  C   UNL     1     140.450 170.908 175.748  1.00  0.00     0.029 A 
ATOM     13  C   UNL     1     140.175 171.750 174.659  1.00  0.00     0.062 A 
ATOM     14  C   UNL     1     141.216 172.272 173.880  1.00  0.00     0.162 A 
ATOM     15  C   UNL     1     141.784 170.563 176.026  1.00  0.00     0.062 A 
ATOM     16  C   UNL     1     142.545 171.942 174.175  1.00  0.00     0.200 A 
ATOM     17  C   UNL     1     142.830 171.081 175.250  1.00  0.00     0.162 A 
BRANCH  14  18
ATOM     18  O   UNL     1     140.938 173.119 172.809  1.00  0.00    -0.504 OA
ATOM     19  H   UNL     1     140.756 174.106 172.947  1.00  0.00     0.293 HD
ENDBRANCH  14  18
BRANCH  16  20
ATOM     20  O   UNL     1     143.570 172.472 173.392  1.00  0.00    -0.502 OA
ATOM     21  H   UNL     1     144.251 173.124 173.763  1.00  0.00     0.293 HD
ENDBRANCH  16  20
BRANCH  17  22
ATOM     22  O   UNL     1     144.151 170.739 175.538  1.00  0.00    -0.504 OA
ATOM     23  H   UNL     1     144.926 171.324 175.249  1.00  0.00     0.293 HD
ENDBRANCH  17  22
ENDBRANCH   1  12
BRANCH   2  24
ATOM     24  O   UNL     1     139.375 172.217 178.098  1.00  0.00    -0.502 OA
ATOM     25  H   UNL     1     139.612 172.953 177.445  1.00  0.00     0.293 HD
ENDBRANCH   2  24
BRANCH   6  26
ATOM     26  O   UNL     1     135.361 169.058 179.612  1.00  0.00    -0.507 OA
ATOM     27  H   UNL     1     135.687 169.088 180.566  1.00  0.00     0.293 HD
ENDBRANCH   6  26
BRANCH   8  28
ATOM     28  O   UNL     1     135.811 165.518 176.402  1.00  0.00    -0.508 OA
ATOM     29  H   UNL     1     135.147 165.467 175.639  1.00  0.00     0.293 HD
ENDBRANCH   8  28
TORSDOF 7
ENDMDL
MODEL 3
REMARK VINA RESULT:    -4.933      2.715      3.595
REMARK INTER + INTRA:          -6.433
REMARK INTER:                  -6.067
REMARK INTRA:                  -0.365
REMARK UNBOUND:                -0.346
REMARK SMILES O=c1c(O)c(-c2cc(O)c(O)c(O)c2)oc2cc(O)cc(O)c12
REMARK SMILES IDX 5 1 3 2 2 3 1 4 23 5 21 6 20 7 18 8 17 9 16 10 15 11 6 12
REMARK SMILES IDX 7 13 8 14 14 15 10 16 12 17 9 18 11 20 13 22 4 24 22 26
REMARK SMILES IDX 19 28
REMARK H PARENT 9 19 11 21 13 23 4 25 22 27 19 29
REMARK Flexibility Score: inf
ROOT
ATOM      1  C   UNL     1     141.774 171.203 174.029  1.00  0.00     0.180 A 
ATOM      2  C   UNL     1     141.461 171.924 172.864  1.00  0.00     0.208 A 
ATOM      3  C   UNL     1     142.328 171.848 171.762  1.00  0.00     0.238 A 
ATOM      4  O   UNL     1     142.004 172.435 170.698  1.00  0.00    -0.285 OA
ATOM      5  C   UNL     1     143.525 171.098 171.858  1.00  0.00     0.111 A 
ATOM      6  C   UNL     1     144.500 170.987 170.820  1.00  0.00     0.134 A 
ATOM      7  C   UNL     1     145.594 170.130 170.989  1.00  0.00     0.093 A 
ATOM      8  C   UNL     1     145.785 169.430 172.183  1.00  0.00     0.123 A 
ATOM      9  C   UNL     1     144.869 169.574 173.221  1.00  0.00     0.094 A 
ATOM     10  C   UNL     1     143.746 170.391 173.069  1.00  0.00     0.146 A 
ATOM     11  O   UNL     1     142.887 170.481 174.077  1.00  0.00    -0.452 OA
ENDROOT
BRANCH   1  12
ATOM     12  C   UNL     1     140.902 171.221 175.225  1.00  0.00     0.029 A 
ATOM     13  C   UNL     1     141.147 172.157 176.243  1.00  0.00     0.062 A 
ATOM     14  C   UNL     1     140.349 172.182 177.394  1.00  0.00     0.162 A 
ATOM     15  C   UNL     1     139.869 170.283 175.392  1.00  0.00     0.062 A 
ATOM     16  C   UNL     1     139.307 171.258 177.547  1.00  0.00     0.200 A 
ATOM     17  C   UNL     1     139.068 170.303 176.543  1.00  0.00     0.162 A 
BRANCH  14  18
ATOM     18  O   UNL     1     140.587 173.123 178.395  1.00  0.00    -0.504 OA
ATOM     19  H   UNL     1     141.123 172.892 179.224  1.00  0.00     0.293 HD
ENDBRANCH  14  18
BRANCH  16  20
ATOM     20  O   UNL     1     138.522 171.300 178.698  1.00  0.00    -0.502 OA
ATOM     21  H   UNL     1     137.568 170.958 178.714  1.00  0.00     0.293 HD
ENDBRANCH  16  20
BRANCH  17  22
ATOM     22  O   UNL     1     138.041 169.373 176.697  1.00  0.00    -0.504 OA
ATOM     23  H   UNL     1     137.074 169.660 176.793  1.00  0.00     0.293 HD
ENDBRANCH  17  22
ENDBRANCH   1  12
BRANCH   2  24
ATOM     24  O   UNL     1     140.313 172.719 172.817  1.00  0.00    -0.502 OA
ATOM     25  H   UNL     1     139.941 173.186 173.635  1.00  0.00     0.293 HD
ENDBRANCH   2  24
BRANCH   6  26
ATOM     26  O   UNL     1     144.455 171.709 169.623  1.00  0.00    -0.507 OA
ATOM     27  H   UNL     1     143.702 171.670 168.953  1.00  0.00     0.293 HD
ENDBRANCH   6  26
BRANCH   8  28
ATOM     28  O   UNL     1     146.886 168.594 172.347  1.00  0.00    -0.508 OA
ATOM     29  H   UNL     1     147.813 168.964 172.520  1.00  0.00     0.293 HD
ENDBRANCH   8  28
TORSDOF 7
ENDMDL
MODEL 4
REMARK VINA RESULT:    -4.907      9.326     11.142
REMARK INTER + INTRA:          -6.401
REMARK INTER:                  -6.196
REMARK INTRA:                  -0.205
REMARK UNBOUND:                -0.346
REMARK SMILES O=c1c(O)c(-c2cc(O)c(O)c(O)c2)oc2cc(O)cc(O)c12
REMARK SMILES IDX 5 1 3 2 2 3 1 4 23 5 21 6 20 7 18 8 17 9 16 10 15 11 6 12
REMARK SMILES IDX 7 13 8 14 14 15 10 16 12 17 9 18 11 20 13 22 4 24 22 26
REMARK SMILES IDX 19 28
REMARK H PARENT 9 19 11 21 13 23 4 25 22 27 19 29
REMARK Flexibility Score: inf
ROOT
ATOM      1  C   UNL     1     144.462 165.647 168.701  1.00  0.00     0.180 A 
ATOM      2  C   UNL     1     143.228 165.693 168.031  1.00  0.00     0.208 A 
ATOM      3  C   UNL     1     142.659 166.942 167.734  1.00  0.00     0.238 A 
ATOM      4  O   UNL     1     141.592 166.977 167.069  1.00  0.00    -0.285 OA
ATOM      5  C   UNL     1     143.304 168.129 168.161  1.00  0.00     0.111 A 
ATOM      6  C   UNL     1     142.797 169.448 167.955  1.00  0.00     0.134 A 
ATOM      7  C   UNL     1     143.574 170.552 168.327  1.00  0.00     0.093 A 
ATOM      8  C   UNL     1     144.810 170.385 168.955  1.00  0.00     0.123 A 
ATOM      9  C   UNL     1     145.289 169.103 169.210  1.00  0.00     0.094 A 
ATOM     10  C   UNL     1     144.555 167.981 168.817  1.00  0.00     0.146 A 
ATOM     11  O   UNL     1     145.058 166.778 169.059  1.00  0.00    -0.452 OA
ENDROOT
BRANCH   1  12
ATOM     12  C   UNL     1     145.130 164.369 169.035  1.00  0.00     0.029 A 
ATOM     13  C   UNL     1     145.379 164.051 170.380  1.00  0.00     0.062 A 
ATOM     14  C   UNL     1     146.029 162.858 170.721  1.00  0.00     0.162 A 
ATOM     15  C   UNL     1     145.574 163.491 168.031  1.00  0.00     0.062 A 
ATOM     16  C   UNL     1     146.450 161.977 169.718  1.00  0.00     0.200 A 
ATOM     17  C   UNL     1     146.226 162.296 168.367  1.00  0.00     0.162 A 
BRANCH  14  18
ATOM     18  O   UNL     1     146.260 162.541 172.059  1.00  0.00    -0.504 OA
ATOM     19  H   UNL     1     147.199 162.493 172.438  1.00  0.00     0.293 HD
ENDBRANCH  14  18
BRANCH  16  20
ATOM     20  O   UNL     1     147.093 160.792 170.076  1.00  0.00    -0.502 OA
ATOM     21  H   UNL     1     148.096 160.675 169.993  1.00  0.00     0.293 HD
ENDBRANCH  16  20
BRANCH  17  22
ATOM     22  O   UNL     1     146.656 161.428 167.365  1.00  0.00    -0.504 OA
ATOM     23  H   UNL     1     146.241 160.512 167.241  1.00  0.00     0.293 HD
ENDBRANCH  17  22
ENDBRANCH   1  12
BRANCH   2  24
ATOM     24  O   UNL     1     142.570 164.509 167.686  1.00  0.00    -0.502 OA
ATOM     25  H   UNL     1     142.357 163.788 168.365  1.00  0.00     0.293 HD
ENDBRANCH   2  24
BRANCH   6  26
ATOM     26  O   UNL     1     141.536 169.728 167.418  1.00  0.00    -0.507 OA
ATOM     27  H   UNL     1     141.326 170.508 166.815  1.00  0.00     0.293 HD
ENDBRANCH   6  26
BRANCH   8  28
ATOM     28  O   UNL     1     145.568 171.490 169.337  1.00  0.00    -0.508 OA
ATOM     29  H   UNL     1     145.842 171.638 170.300  1.00  0.00     0.293 HD
ENDBRANCH   8  28
TORSDOF 7
ENDMDL
MODEL 5
REMARK VINA RESULT:    -4.836      2.880      8.464
REMARK INTER + INTRA:          -6.313
REMARK INTER:                  -5.966
REMARK INTRA:                  -0.347
REMARK UNBOUND:                -0.346
REMARK SMILES O=c1c(O)c(-c2cc(O)c(O)c(O)c2)oc2cc(O)cc(O)c12
REMARK SMILES IDX 5 1 3 2 2 3 1 4 23 5 21 6 20 7 18 8 17 9 16 10 15 11 6 12
REMARK SMILES IDX 7 13 8 14 14 15 10 16 12 17 9 18 11 20 13 22 4 24 22 26
REMARK SMILES IDX 19 28
REMARK H PARENT 9 19 11 21 13 23 4 25 22 27 19 29
REMARK Flexibility Score: inf
ROOT
ATOM      1  C   UNL     1     136.890 168.755 178.333  1.00  0.00     0.180 A 
ATOM      2  C   UNL     1     137.191 167.869 179.381  1.00  0.00     0.208 A 
ATOM      3  C   UNL     1     136.154 167.118 179.957  1.00  0.00     0.238 A 
ATOM      4  O   UNL     1     136.442 166.273 180.844  1.00  0.00    -0.285 OA
ATOM      5  C   UNL     1     134.820 167.304 179.517  1.00  0.00     0.111 A 
ATOM      6  C   UNL     1     133.684 166.630 180.060  1.00  0.00     0.134 A 
ATOM      7  C   UNL     1     132.427 166.814 179.473  1.00  0.00     0.093 A 
ATOM      8  C   UNL     1     132.252 167.697 178.404  1.00  0.00     0.123 A 
ATOM      9  C   UNL     1     133.344 168.400 177.903  1.00  0.00     0.094 A 
ATOM     10  C   UNL     1     134.618 168.209 178.442  1.00  0.00     0.146 A 
ATOM     11  O   UNL     1     135.635 168.883 177.919  1.00  0.00    -0.452 OA
ENDROOT
BRANCH   1  12
ATOM     12  C   UNL     1     137.931 169.569 177.665  1.00  0.00     0.029 A 
ATOM     13  C   UNL     1     138.312 170.797 178.228  1.00  0.00     0.062 A 
ATOM     14  C   UNL     1     139.280 171.596 177.606  1.00  0.00     0.162 A 
ATOM     15  C   UNL     1     138.506 169.166 176.448  1.00  0.00     0.062 A 
ATOM     16  C   UNL     1     139.866 171.180 176.403  1.00  0.00     0.200 A 
ATOM     17  C   UNL     1     139.474 169.962 175.820  1.00  0.00     0.162 A 
BRANCH  14  18
ATOM     18  O   UNL     1     139.666 172.808 178.176  1.00  0.00    -0.504 OA
ATOM     19  H   UNL     1     140.452 173.337 177.818  1.00  0.00     0.293 HD
ENDBRANCH  14  18
BRANCH  16  20
ATOM     20  O   UNL     1     140.829 171.987 175.799  1.00  0.00    -0.502 OA
ATOM     21  H   UNL     1     141.358 171.683 174.989  1.00  0.00     0.293 HD
ENDBRANCH  16  20
BRANCH  17  22
ATOM     22  O   UNL     1     140.044 169.551 174.616  1.00  0.00    -0.504 OA
ATOM     23  H   UNL     1     139.483 169.161 173.868  1.00  0.00     0.293 HD
ENDBRANCH  17  22
ENDBRANCH   1  12
BRANCH   2  24
ATOM     24  O   UNL     1     138.502 167.757 179.852  1.00  0.00    -0.502 OA
ATOM     25  H   UNL     1     138.890 166.878 180.176  1.00  0.00     0.293 HD
ENDBRANCH   2  24
BRANCH   6  26
ATOM     26  O   UNL     1     133.731 165.795 181.182  1.00  0.00    -0.507 OA
ATOM     27  H   UNL     1     133.404 166.046 182.102  1.00  0.00     0.293 HD
ENDBRANCH   6  26
BRANCH   8  28
ATOM     28  O   UNL     1     130.993 167.886 177.839  1.00  0.00    -0.508 OA
ATOM     29  H   UNL     1     130.152 167.553 178.293  1.00  0.00     0.293 HD
ENDBRANCH   8  28
TORSDOF 7
ENDMDL
MODEL 6
REMARK VINA RESULT:    -4.814      8.910     10.631
REMARK INTER + INTRA:          -6.286
REMARK INTER:                  -5.920
REMARK INTRA:                  -0.366
REMARK UNBOUND:                -0.346
REMARK SMILES O=c1c(O)c(-c2cc(O)c(O)c(O)c2)oc2cc(O)cc(O)c12
REMARK SMILES IDX 5 1 3 2 2 3 1 4 23 5 21 6 20 7 18 8 17 9 16 10 15 11 6 12
REMARK SMILES IDX 7 13 8 14 14 15 10 16 12 17 9 18 11 20 13 22 4 24 22 26
REMARK SMILES IDX 19 28
REMARK H PARENT 9 19 11 21 13 23 4 25 22 27 19 29
REMARK Flexibility Score: inf
ROOT
ATOM      1  C   UNL     1     144.861 166.034 169.487  1.00  0.00     0.180 A 
ATOM      2  C   UNL     1     146.032 166.676 169.926  1.00  0.00     0.208 A 
ATOM      3  C   UNL     1     146.093 168.078 169.893  1.00  0.00     0.238 A 
ATOM      4  O   UNL     1     147.114 168.648 170.357  1.00  0.00    -0.285 OA
ATOM      5  C   UNL     1     145.005 168.819 169.369  1.00  0.00     0.111 A 
ATOM      6  C   UNL     1     144.976 170.242 169.246  1.00  0.00     0.134 A 
ATOM      7  C   UNL     1     143.803 170.873 168.812  1.00  0.00     0.093 A 
ATOM      8  C   UNL     1     142.681 170.130 168.436  1.00  0.00     0.123 A 
ATOM      9  C   UNL     1     142.719 168.740 168.501  1.00  0.00     0.094 A 
ATOM     10  C   UNL     1     143.860 168.082 168.966  1.00  0.00     0.146 A 
ATOM     11  O   UNL     1     143.846 166.757 169.032  1.00  0.00    -0.452 OA
ENDROOT
BRANCH   1  12
ATOM     12  C   UNL     1     144.717 164.560 169.505  1.00  0.00     0.029 A 
ATOM     13  C   UNL     1     145.044 163.821 168.357  1.00  0.00     0.062 A 
ATOM     14  C   UNL     1     144.896 162.428 168.341  1.00  0.00     0.162 A 
ATOM     15  C   UNL     1     144.203 163.889 170.628  1.00  0.00     0.062 A 
ATOM     16  C   UNL     1     144.404 161.762 169.470  1.00  0.00     0.200 A 
ATOM     17  C   UNL     1     144.052 162.496 170.617  1.00  0.00     0.162 A 
BRANCH  14  18
ATOM     18  O   UNL     1     145.236 161.697 167.204  1.00  0.00    -0.504 OA
ATOM     19  H   UNL     1     146.196 161.436 167.008  1.00  0.00     0.293 HD
ENDBRANCH  14  18
BRANCH  16  20
ATOM     20  O   UNL     1     144.266 160.374 169.438  1.00  0.00    -0.502 OA
ATOM     21  H   UNL     1     143.383 159.924 169.229  1.00  0.00     0.293 HD
ENDBRANCH  16  20
BRANCH  17  22
ATOM     22  O   UNL     1     143.548 161.838 171.738  1.00  0.00    -0.504 OA
ATOM     23  H   UNL     1     142.977 162.318 172.424  1.00  0.00     0.293 HD
ENDBRANCH  17  22
ENDBRANCH   1  12
BRANCH   2  24
ATOM     24  O   UNL     1     147.123 165.923 170.368  1.00  0.00    -0.502 OA
ATOM     25  H   UNL     1     147.016 165.024 170.821  1.00  0.00     0.293 HD
ENDBRANCH   2  24
BRANCH   6  26
ATOM     26  O   UNL     1     146.068 171.074 169.510  1.00  0.00    -0.507 OA
ATOM     27  H   UNL     1     146.444 171.260 170.427  1.00  0.00     0.293 HD
ENDBRANCH   6  26
BRANCH   8  28
ATOM     28  O   UNL     1     141.526 170.767 167.989  1.00  0.00    -0.508 OA
ATOM     29  H   UNL     1     140.828 170.278 167.442  1.00  0.00     0.293 HD
ENDBRANCH   8  28
TORSDOF 7
ENDMDL
MODEL 7
REMARK VINA RESULT:    -4.810      2.132      7.157
REMARK INTER + INTRA:          -6.281
REMARK INTER:                  -6.007
REMARK INTRA:                  -0.274
REMARK UNBOUND:                -0.346
REMARK SMILES O=c1c(O)c(-c2cc(O)c(O)c(O)c2)oc2cc(O)cc(O)c12
REMARK SMILES IDX 5 1 3 2 2 3 1 4 23 5 21 6 20 7 18 8 17 9 16 10 15 11 6 12
REMARK SMILES IDX 7 13 8 14 14 15 10 16 12 17 9 18 11 20 13 22 4 24 22 26
REMARK SMILES IDX 19 28
REMARK H PARENT 9 19 11 21 13 23 4 25 22 27 19 29
REMARK Flexibility Score: inf
ROOT
ATOM      1  C   UNL     1     140.678 171.129 174.885  1.00  0.00     0.180 A 
ATOM      2  C   UNL     1     140.691 171.987 175.998  1.00  0.00     0.208 A 
ATOM      3  C   UNL     1     139.863 171.694 177.094  1.00  0.00     0.238 A 
ATOM      4  O   UNL     1     139.935 172.424 178.116  1.00  0.00    -0.285 OA
ATOM      5  C   UNL     1     138.992 170.579 177.040  1.00  0.00     0.111 A 
ATOM      6  C   UNL     1     138.076 170.213 178.074  1.00  0.00     0.134 A 
ATOM      7  C   UNL     1     137.340 169.028 177.956  1.00  0.00     0.093 A 
ATOM      8  C   UNL     1     137.437 168.229 176.814  1.00  0.00     0.123 A 
ATOM      9  C   UNL     1     138.285 168.606 175.777  1.00  0.00     0.094 A 
ATOM     10  C   UNL     1     139.062 169.762 175.881  1.00  0.00     0.146 A 
ATOM     11  O   UNL     1     139.874 170.073 174.878  1.00  0.00    -0.452 OA
ENDROOT
BRANCH   1  12
ATOM     12  C   UNL     1     141.534 171.364 173.699  1.00  0.00     0.029 A 
ATOM     13  C   UNL     1     140.937 171.713 172.477  1.00  0.00     0.062 A 
ATOM     14  C   UNL     1     141.722 171.920 171.335  1.00  0.00     0.162 A 
ATOM     15  C   UNL     1     142.927 171.188 173.756  1.00  0.00     0.062 A 
ATOM     16  C   UNL     1     143.112 171.764 171.402  1.00  0.00     0.200 A 
ATOM     17  C   UNL     1     143.717 171.393 172.616  1.00  0.00     0.162 A 
BRANCH  14  18
ATOM     18  O   UNL     1     141.126 172.281 170.128  1.00  0.00    -0.504 OA
ATOM     19  H   UNL     1     140.758 171.586 169.489  1.00  0.00     0.293 HD
ENDBRANCH  14  18
BRANCH  16  20
ATOM     20  O   UNL     1     143.878 171.977 170.256  1.00  0.00    -0.502 OA
ATOM     21  H   UNL     1     144.037 172.904 169.877  1.00  0.00     0.293 HD
ENDBRANCH  16  20
BRANCH  17  22
ATOM     22  O   UNL     1     145.099 171.223 172.683  1.00  0.00    -0.504 OA
ATOM     23  H   UNL     1     145.732 172.015 172.691  1.00  0.00     0.293 HD
ENDBRANCH  17  22
ENDBRANCH   1  12
BRANCH   2  24
ATOM     24  O   UNL     1     141.502 173.125 176.000  1.00  0.00    -0.502 OA
ATOM     25  H   UNL     1     142.505 173.078 175.863  1.00  0.00     0.293 HD
ENDBRANCH   2  24
BRANCH   6  26
ATOM     26  O   UNL     1     137.835 170.983 179.216  1.00  0.00    -0.507 OA
ATOM     27  H   UNL     1     137.137 170.779 179.914  1.00  0.00     0.293 HD
ENDBRANCH   6  26
BRANCH   8  28
ATOM     28  O   UNL     1     136.687 167.061 176.699  1.00  0.00    -0.508 OA
ATOM     29  H   UNL     1     136.467 166.490 177.505  1.00  0.00     0.293 HD
ENDBRANCH   8  28
TORSDOF 7
ENDMDL
MODEL 8
REMARK VINA RESULT:    -4.798      1.442      7.149
REMARK INTER + INTRA:          -6.266
REMARK INTER:                  -5.950
REMARK INTRA:                  -0.316
REMARK UNBOUND:                -0.346
REMARK SMILES O=c1c(O)c(-c2cc(O)c(O)c(O)c2)oc2cc(O)cc(O)c12
REMARK SMILES IDX 5 1 3 2 2 3 1 4 23 5 21 6 20 7 18 8 17 9 16 10 15 11 6 12
REMARK SMILES IDX 7 13 8 14 14 15 10 16 12 17 9 18 11 20 13 22 4 24 22 26
REMARK SMILES IDX 19 28
REMARK H PARENT 9 19 11 21 13 23 4 25 22 27 19 29
REMARK Flexibility Score: inf
ROOT
ATOM      1  C   UNL     1     139.519 170.018 175.923  1.00  0.00     0.180 A 
ATOM      2  C   UNL     1     138.781 168.980 175.329  1.00  0.00     0.208 A 
ATOM      3  C   UNL     1     137.696 168.428 176.029  1.00  0.00     0.238 A 
ATOM      4  O   UNL     1     136.995 167.551 175.461  1.00  0.00    -0.285 OA
ATOM      5  C   UNL     1     137.398 168.881 177.337  1.00  0.00     0.111 A 
ATOM      6  C   UNL     1     136.350 168.362 178.157  1.00  0.00     0.134 A 
ATOM      7  C   UNL     1     136.080 168.961 179.394  1.00  0.00     0.093 A 
ATOM      8  C   UNL     1     136.861 170.018 179.869  1.00  0.00     0.123 A 
ATOM      9  C   UNL     1     137.919 170.495 179.101  1.00  0.00     0.094 A 
ATOM     10  C   UNL     1     138.190 169.944 177.846  1.00  0.00     0.146 A 
ATOM     11  O   UNL     1     139.194 170.444 177.137  1.00  0.00    -0.452 OA
ENDROOT
BRANCH   1  12
ATOM     12  C   UNL     1     140.666 170.660 175.241  1.00  0.00     0.029 A 
ATOM     13  C   UNL     1     141.971 170.381 175.676  1.00  0.00     0.062 A 
ATOM     14  C   UNL     1     143.073 170.991 175.061  1.00  0.00     0.162 A 
ATOM     15  C   UNL     1     140.474 171.589 174.204  1.00  0.00     0.062 A 
ATOM     16  C   UNL     1     142.877 171.900 174.014  1.00  0.00     0.200 A 
ATOM     17  C   UNL     1     141.572 172.203 173.586  1.00  0.00     0.162 A 
BRANCH  14  18
ATOM     18  O   UNL     1     144.367 170.699 175.487  1.00  0.00    -0.504 OA
ATOM     19  H   UNL     1     144.650 169.754 175.718  1.00  0.00     0.293 HD
ENDBRANCH  14  18
BRANCH  16  20
ATOM     20  O   UNL     1     143.985 172.496 173.412  1.00  0.00    -0.502 OA
ATOM     21  H   UNL     1     144.905 172.477 173.836  1.00  0.00     0.293 HD
ENDBRANCH  16  20
BRANCH  17  22
ATOM     22  O   UNL     1     141.373 173.119 172.554  1.00  0.00    -0.504 OA
ATOM     23  H   UNL     1     141.448 172.846 171.580  1.00  0.00     0.293 HD
ENDBRANCH  17  22
ENDBRANCH   1  12
BRANCH   2  24
ATOM     24  O   UNL     1     139.140 168.495 174.068  1.00  0.00    -0.502 OA
ATOM     25  H   UNL     1     139.694 167.656 173.946  1.00  0.00     0.293 HD
ENDBRANCH   2  24
BRANCH   6  26
ATOM     26  O   UNL     1     135.567 167.253 177.820  1.00  0.00    -0.507 OA
ATOM     27  H   UNL     1     135.769 166.301 178.085  1.00  0.00     0.293 HD
ENDBRANCH   6  26
BRANCH   8  28
ATOM     28  O   UNL     1     136.595 170.596 181.108  1.00  0.00    -0.508 OA
ATOM     29  H   UNL     1     135.797 171.203 181.250  1.00  0.00     0.293 HD
ENDBRANCH   8  28
TORSDOF 7
ENDMDL
