MODEL 1
REMARK VINA RESULT:    -3.368      0.000      0.000
REMARK INTER + INTRA:          -5.533
REMARK INTER:                  -5.140
REMARK INTRA:                  -0.393
REMARK UNBOUND:                -0.393
REMARK SMILES CC1=CCC[C@H](C)C(=O)C[C@H](C(C)C)C(=O)C1
REMARK SMILES IDX 8 1 9 2 6 3 7 4 5 5 4 6 3 7 2 8 1 9 10 11 11 12 15 13 16 14
REMARK SMILES IDX 17 15 12 17 13 18 14 19
REMARK H PARENT
REMARK Flexibility Score: 70.00
ROOT
ATOM      1  C   UNL     1       4.114  25.942  63.744  1.00  0.00     0.136 C 
ATOM      2  O   UNL     1       5.041  26.733  63.659  1.00  0.00    -0.299 OA
ENDROOT
BRANCH   1   3
ATOM      3  C   UNL     1       3.793  25.232  65.069  1.00  0.00     0.053 C 
ATOM      4  C   UNL     1       4.976  24.377  65.536  1.00  0.00     0.016 C 
BRANCH   3   5
ATOM      5  C   UNL     1       3.256  26.144  66.247  1.00  0.00     0.015 C 
BRANCH   5   6
ATOM      6  C   UNL     1       1.755  26.590  66.409  1.00  0.00     0.028 C 
BRANCH   6   7
ATOM      7  C   UNL     1       1.236  27.697  65.488  1.00  0.00    -0.028 C 
ATOM      8  C   UNL     1       0.519  27.547  64.322  1.00  0.00    -0.070 CG0
ATOM      9  C   UNL     1       0.134  28.803  63.585  1.00  0.00     0.039 C 
ATOM     10  G   UNL     1       0.115  26.204  63.675  1.00  0.00     0.000 G0
ENDBRANCH   6   7
ENDBRANCH   5   6
ENDBRANCH   3   5
ENDBRANCH   1   3
BRANCH   1  11
ATOM     11  C   UNL     1       3.354  25.521  62.545  1.00  0.00     0.087 C 
BRANCH  11  12
ATOM     12  C   UNL     1       2.042  24.759  62.358  1.00  0.00     0.066 C 
BRANCH  12  13
ATOM     13  C   UNL     1       0.906  25.817  62.382  1.00  0.00     0.140 C 
ATOM     14  O   UNL     1       0.588  26.346  61.327  1.00  0.00    -0.299 OA
BRANCH  13  15
ATOM     15  C   UNL     1       0.112  26.212  63.654  1.00  0.00     0.106 CG0
ATOM     16  G   UNL     1       0.541  27.539  64.318  1.00  0.00     0.000 G0
ENDBRANCH  13  15
ENDBRANCH  12  13
BRANCH  12  17
ATOM     17  C   UNL     1       1.935  23.849  61.092  1.00  0.00    -0.006 C 
ATOM     18  C   UNL     1       2.911  24.222  59.966  1.00  0.00     0.008 C 
ATOM     19  C   UNL     1       2.035  22.352  61.415  1.00  0.00     0.008 C 
ENDBRANCH  12  17
ENDBRANCH  11  12
ENDBRANCH   1  11
TORSDOF 1
ENDMDL
MODEL 2
REMARK VINA RESULT:    -3.306      4.397      7.569
REMARK INTER + INTRA:          -5.439
REMARK INTER:                  -5.051
REMARK INTRA:                  -0.388
REMARK UNBOUND:                -0.393
REMARK SMILES CC1=CCC[C@H](C)C(=O)C[C@H](C(C)C)C(=O)C1
REMARK SMILES IDX 8 1 9 2 6 3 7 4 5 5 4 6 3 7 2 8 1 9 10 11 11 12 15 13 16 14
REMARK SMILES IDX 17 15 12 17 13 18 14 19
REMARK H PARENT
REMARK Flexibility Score: 70.00
ROOT
ATOM      1  C   UNL     1       0.384  27.618  69.373  1.00  0.00     0.136 C 
ATOM      2  O   UNL     1      -0.452  27.584  70.263  1.00  0.00    -0.299 OA
ENDROOT
BRANCH   1   3
ATOM      3  C   UNL     1      -0.030  27.653  67.894  1.00  0.00     0.053 C 
ATOM      4  C   UNL     1       0.177  29.050  67.296  1.00  0.00     0.016 C 
BRANCH   3   5
ATOM      5  C   UNL     1       0.599  26.540  66.958  1.00  0.00     0.015 C 
BRANCH   5   6
ATOM      6  C   UNL     1       1.743  26.808  65.909  1.00  0.00     0.028 C 
BRANCH   6   7
ATOM      7  C   UNL     1       3.123  26.209  66.191  1.00  0.00    -0.028 C 
ATOM      8  C   UNL     1       4.144  26.771  66.923  1.00  0.00    -0.070 CG0
ATOM      9  C   UNL     1       5.420  25.980  67.043  1.00  0.00     0.039 C 
ATOM     10  G   UNL     1       4.118  28.162  67.593  1.00  0.00     0.000 G0
ENDBRANCH   6   7
ENDBRANCH   5   6
ENDBRANCH   3   5
ENDBRANCH   1   3
BRANCH   1  11
ATOM     11  C   UNL     1       1.827  27.476  69.671  1.00  0.00     0.087 C 
BRANCH  11  12
ATOM     12  C   UNL     1       2.917  28.480  70.050  1.00  0.00     0.066 C 
BRANCH  12  13
ATOM     13  C   UNL     1       4.144  28.162  69.153  1.00  0.00     0.140 C 
ATOM     14  O   UNL     1       5.192  27.848  69.698  1.00  0.00    -0.299 OA
BRANCH  13  15
ATOM     15  C   UNL     1       4.113  28.171  67.602  1.00  0.00     0.106 CG0
ATOM     16  G   UNL     1       4.161  26.781  66.930  1.00  0.00     0.000 G0
ENDBRANCH  13  15
ENDBRANCH  12  13
BRANCH  12  17
ATOM     17  C   UNL     1       2.535  29.992  69.965  1.00  0.00    -0.006 C 
ATOM     18  C   UNL     1       1.519  30.445  71.023  1.00  0.00     0.008 C 
ATOM     19  C   UNL     1       3.757  30.922  69.961  1.00  0.00     0.008 C 
ENDBRANCH  12  17
ENDBRANCH  11  12
ENDBRANCH   1  11
TORSDOF 1
ENDMDL
MODEL 3
REMARK VINA RESULT:    -3.226      3.142      5.522
REMARK INTER + INTRA:          -5.317
REMARK INTER:                  -4.997
REMARK INTRA:                  -0.320
REMARK UNBOUND:                -0.393
REMARK SMILES CC1=CCC[C@H](C)C(=O)C[C@H](C(C)C)C(=O)C1
REMARK SMILES IDX 8 1 9 2 6 3 7 4 5 5 4 6 3 7 2 8 1 9 10 11 11 12 15 13 16 14
REMARK SMILES IDX 17 15 12 17 13 18 14 19
REMARK H PARENT
REMARK Flexibility Score: 70.00
ROOT
ATOM      1  C   UNL     1       2.976  26.189  64.947  1.00  0.00     0.136 C 
ATOM      2  O   UNL     1       2.863  27.099  64.139  1.00  0.00    -0.299 OA
ENDROOT
BRANCH   1   3
ATOM      3  C   UNL     1       3.853  24.964  64.648  1.00  0.00     0.053 C 
ATOM      4  C   UNL     1       4.405  25.017  63.219  1.00  0.00     0.016 C 
BRANCH   3   5
ATOM      5  C   UNL     1       5.007  24.651  65.687  1.00  0.00     0.015 C 
BRANCH   5   6
ATOM      6  C   UNL     1       5.682  25.731  66.612  1.00  0.00     0.028 C 
BRANCH   6   7
ATOM      7  C   UNL     1       5.961  27.111  66.011  1.00  0.00    -0.028 C 
ATOM      8  C   UNL     1       5.455  28.322  66.428  1.00  0.00    -0.070 CG0
ATOM      9  C   UNL     1       5.874  29.545  65.655  1.00  0.00     0.039 C 
ATOM     10  G   UNL     1       4.456  28.535  67.586  1.00  0.00     0.000 G0
ENDBRANCH   6   7
ENDBRANCH   5   6
ENDBRANCH   3   5
ENDBRANCH   1   3
BRANCH   1  11
ATOM     11  C   UNL     1       2.158  26.156  66.181  1.00  0.00     0.087 C 
BRANCH  11  12
ATOM     12  C   UNL     1       2.303  26.830  67.545  1.00  0.00     0.066 C 
BRANCH  12  13
ATOM     13  C   UNL     1       2.969  28.210  67.291  1.00  0.00     0.140 C 
ATOM     14  O   UNL     1       2.271  29.118  66.865  1.00  0.00    -0.299 OA
BRANCH  13  15
ATOM     15  C   UNL     1       4.458  28.524  67.590  1.00  0.00     0.106 CG0
ATOM     16  G   UNL     1       5.430  28.314  66.409  1.00  0.00     0.000 G0
ENDBRANCH  13  15
ENDBRANCH  12  13
BRANCH  12  17
ATOM     17  C   UNL     1       0.999  26.985  68.392  1.00  0.00    -0.006 C 
ATOM     18  C   UNL     1      -0.293  26.678  67.618  1.00  0.00     0.008 C 
ATOM     19  C   UNL     1       1.037  26.193  69.706  1.00  0.00     0.008 C 
ENDBRANCH  12  17
ENDBRANCH  11  12
ENDBRANCH   1  11
TORSDOF 1
ENDMDL
MODEL 4
REMARK VINA RESULT:    -3.209      1.772      3.939
REMARK INTER + INTRA:          -5.291
REMARK INTER:                  -4.763
REMARK INTRA:                  -0.529
REMARK UNBOUND:                -0.393
REMARK SMILES CC1=CCC[C@H](C)C(=O)C[C@H](C(C)C)C(=O)C1
REMARK SMILES IDX 8 1 9 2 6 3 7 4 5 5 4 6 3 7 2 8 1 9 10 11 11 12 15 13 16 14
REMARK SMILES IDX 17 15 12 17 13 18 14 19
REMARK H PARENT
REMARK Flexibility Score: 70.00
ROOT
ATOM      1  C   UNL     1       1.702  25.537  61.383  1.00  0.00     0.136 C 
ATOM      2  O   UNL     1       1.839  25.912  60.229  1.00  0.00    -0.299 OA
ENDROOT
BRANCH   1   3
ATOM      3  C   UNL     1       2.397  24.266  61.895  1.00  0.00     0.053 C 
ATOM      4  C   UNL     1       2.471  23.198  60.798  1.00  0.00     0.016 C 
BRANCH   3   5
ATOM      5  C   UNL     1       3.809  24.464  62.585  1.00  0.00     0.015 C 
BRANCH   5   6
ATOM      6  C   UNL     1       4.224  25.744  63.402  1.00  0.00     0.028 C 
BRANCH   6   7
ATOM      7  C   UNL     1       3.904  25.771  64.899  1.00  0.00    -0.028 C 
ATOM      8  C   UNL     1       2.877  26.444  65.522  1.00  0.00    -0.070 CG0
ATOM      9  C   UNL     1       2.784  26.320  67.020  1.00  0.00     0.039 C 
ATOM     10  G   UNL     1       1.841  27.355  64.829  1.00  0.00     0.000 G0
ENDBRANCH   6   7
ENDBRANCH   5   6
ENDBRANCH   3   5
ENDBRANCH   1   3
BRANCH   1  11
ATOM     11  C   UNL     1       0.745  26.203  62.295  1.00  0.00     0.087 C 
BRANCH  11  12
ATOM     12  C   UNL     1       0.009  25.739  63.553  1.00  0.00     0.066 C 
BRANCH  12  13
ATOM     13  C   UNL     1       0.407  26.720  64.689  1.00  0.00     0.140 C 
ATOM     14  O   UNL     1      -0.426  26.983  65.543  1.00  0.00    -0.299 OA
BRANCH  13  15
ATOM     15  C   UNL     1       1.816  27.353  64.836  1.00  0.00     0.106 CG0
ATOM     16  G   UNL     1       2.878  26.454  65.506  1.00  0.00     0.000 G0
ENDBRANCH  13  15
ENDBRANCH  12  13
BRANCH  12  17
ATOM     17  C   UNL     1      -1.545  25.606  63.446  1.00  0.00    -0.006 C 
ATOM     18  C   UNL     1      -2.208  26.672  62.561  1.00  0.00     0.008 C 
ATOM     19  C   UNL     1      -2.001  24.201  63.028  1.00  0.00     0.008 C 
ENDBRANCH  12  17
ENDBRANCH  11  12
ENDBRANCH   1  11
TORSDOF 1
ENDMDL
MODEL 5
REMARK VINA RESULT:    -3.203      1.908      4.272
REMARK INTER + INTRA:          -5.281
REMARK INTER:                  -4.923
REMARK INTRA:                  -0.358
REMARK UNBOUND:                -0.393
REMARK SMILES CC1=CCC[C@H](C)C(=O)C[C@H](C(C)C)C(=O)C1
REMARK SMILES IDX 8 1 9 2 6 3 7 4 5 5 4 6 3 7 2 8 1 9 10 11 11 12 15 13 16 14
REMARK SMILES IDX 17 15 12 17 13 18 14 19
REMARK H PARENT
REMARK Flexibility Score: 70.00
ROOT
ATOM      1  C   UNL     1       1.737  26.781  66.916  1.00  0.00     0.136 C 
ATOM      2  O   UNL     1       2.268  26.703  68.013  1.00  0.00    -0.299 OA
ENDROOT
BRANCH   1   3
ATOM      3  C   UNL     1       0.207  26.786  66.771  1.00  0.00     0.053 C 
ATOM      4  C   UNL     1      -0.351  28.211  66.868  1.00  0.00     0.016 C 
BRANCH   3   5
ATOM      5  C   UNL     1      -0.384  26.034  65.509  1.00  0.00     0.015 C 
BRANCH   5   6
ATOM      6  C   UNL     1      -0.801  26.746  64.168  1.00  0.00     0.028 C 
BRANCH   6   7
ATOM      7  C   UNL     1      -0.407  26.074  62.850  1.00  0.00    -0.028 C 
ATOM      8  C   UNL     1       0.843  26.028  62.276  1.00  0.00    -0.070 CG0
ATOM      9  C   UNL     1       0.968  25.310  60.958  1.00  0.00     0.039 C 
ATOM     10  G   UNL     1       2.120  26.690  62.836  1.00  0.00     0.000 G0
ENDBRANCH   6   7
ENDBRANCH   5   6
ENDBRANCH   3   5
ENDBRANCH   1   3
BRANCH   1  11
ATOM     11  C   UNL     1       2.537  26.722  65.672  1.00  0.00     0.087 C 
BRANCH  11  12
ATOM     12  C   UNL     1       3.373  25.618  65.022  1.00  0.00     0.066 C 
BRANCH  12  13
ATOM     13  C   UNL     1       3.155  25.740  63.490  1.00  0.00     0.140 C 
ATOM     14  O   UNL     1       3.804  25.011  62.754  1.00  0.00    -0.299 OA
BRANCH  13  15
ATOM     15  C   UNL     1       2.126  26.696  62.831  1.00  0.00     0.106 CG0
ATOM     16  G   UNL     1       0.857  26.019  62.270  1.00  0.00     0.000 G0
ENDBRANCH  13  15
ENDBRANCH  12  13
BRANCH  12  17
ATOM     17  C   UNL     1       4.896  25.594  65.372  1.00  0.00    -0.006 C 
ATOM     18  C   UNL     1       5.511  26.984  65.596  1.00  0.00     0.008 C 
ATOM     19  C   UNL     1       5.229  24.665  66.547  1.00  0.00     0.008 C 
ENDBRANCH  12  17
ENDBRANCH  11  12
ENDBRANCH   1  11
TORSDOF 1
ENDMDL
MODEL 6
REMARK VINA RESULT:    -3.190      4.682      6.422
REMARK INTER + INTRA:          -5.262
REMARK INTER:                  -5.069
REMARK INTRA:                  -0.193
REMARK UNBOUND:                -0.393
REMARK SMILES CC1=CCC[C@H](C)C(=O)C[C@H](C(C)C)C(=O)C1
REMARK SMILES IDX 8 1 9 2 6 3 7 4 5 5 4 6 3 7 2 8 1 9 10 11 11 12 15 13 16 14
REMARK SMILES IDX 17 15 12 17 13 18 14 19
REMARK H PARENT
REMARK Flexibility Score: 70.00
ROOT
ATOM      1  C   UNL     1       3.419  26.669  67.014  1.00  0.00     0.136 C 
ATOM      2  O   UNL     1       3.202  25.873  66.113  1.00  0.00    -0.299 OA
ENDROOT
BRANCH   1   3
ATOM      3  C   UNL     1       4.852  26.999  67.458  1.00  0.00     0.053 C 
ATOM      4  C   UNL     1       5.868  26.594  66.383  1.00  0.00     0.016 C 
BRANCH   3   5
ATOM      5  C   UNL     1       5.115  28.481  67.951  1.00  0.00     0.015 C 
BRANCH   5   6
ATOM      6  C   UNL     1       5.090  28.929  69.461  1.00  0.00     0.028 C 
BRANCH   6   7
ATOM      7  C   UNL     1       3.981  29.888  69.902  1.00  0.00    -0.028 C 
ATOM      8  C   UNL     1       2.784  29.563  70.500  1.00  0.00    -0.070 CG0
ATOM      9  C   UNL     1       1.849  30.697  70.827  1.00  0.00     0.039 C 
ATOM     10  G   UNL     1       2.292  28.135  70.821  1.00  0.00     0.000 G0
ENDBRANCH   6   7
ENDBRANCH   5   6
ENDBRANCH   3   5
ENDBRANCH   1   3
BRANCH   1  11
ATOM     11  C   UNL     1       2.312  27.236  67.817  1.00  0.00     0.087 C 
BRANCH  11  12
ATOM     12  C   UNL     1       1.280  26.611  68.757  1.00  0.00     0.066 C 
BRANCH  12  13
ATOM     13  C   UNL     1       1.112  27.593  69.949  1.00  0.00     0.140 C 
ATOM     14  O   UNL     1      -0.018  27.952  70.245  1.00  0.00    -0.299 OA
BRANCH  13  15
ATOM     15  C   UNL     1       2.286  28.112  70.820  1.00  0.00     0.106 CG0
ATOM     16  G   UNL     1       2.772  29.541  70.493  1.00  0.00     0.000 G0
ENDBRANCH  13  15
ENDBRANCH  12  13
BRANCH  12  17
ATOM     17  C   UNL     1      -0.104  26.244  68.133  1.00  0.00    -0.006 C 
ATOM     18  C   UNL     1      -0.124  26.251  66.598  1.00  0.00     0.008 C 
ATOM     19  C   UNL     1      -0.676  24.924  68.671  1.00  0.00     0.008 C 
ENDBRANCH  12  17
ENDBRANCH  11  12
ENDBRANCH   1  11
TORSDOF 1
ENDMDL
MODEL 7
REMARK VINA RESULT:    -3.154      3.707      5.823
REMARK INTER + INTRA:          -5.207
REMARK INTER:                  -5.167
REMARK INTRA:                  -0.040
REMARK UNBOUND:                -0.393
REMARK SMILES CC1=CCC[C@H](C)C(=O)C[C@H](C(C)C)C(=O)C1
REMARK SMILES IDX 8 1 9 2 6 3 7 4 5 5 4 6 3 7 2 8 1 9 10 11 11 12 15 13 16 14
REMARK SMILES IDX 17 15 12 17 13 18 14 19
REMARK H PARENT
REMARK Flexibility Score: 70.00
ROOT
ATOM      1  C   UNL     1       0.954  27.318  67.466  1.00  0.00     0.136 C 
ATOM      2  O   UNL     1       0.583  28.126  66.629  1.00  0.00    -0.299 OA
ENDROOT
BRANCH   1   3
ATOM      3  C   UNL     1       0.258  27.209  68.831  1.00  0.00     0.053 C 
ATOM      4  C   UNL     1       0.321  25.774  69.369  1.00  0.00     0.016 C 
BRANCH   3   5
ATOM      5  C   UNL     1       0.711  28.246  69.939  1.00  0.00     0.015 C 
BRANCH   5   6
ATOM      6  C   UNL     1       2.131  28.250  70.621  1.00  0.00     0.028 C 
BRANCH   6   7
ATOM      7  C   UNL     1       3.183  29.218  70.073  1.00  0.00    -0.028 C 
ATOM      8  C   UNL     1       4.208  28.931  69.200  1.00  0.00    -0.070 CG0
ATOM      9  C   UNL     1       5.125  30.064  68.821  1.00  0.00     0.039 C 
ATOM     10  G   UNL     1       4.535  27.540  68.614  1.00  0.00     0.000 G0
ENDBRANCH   6   7
ENDBRANCH   5   6
ENDBRANCH   3   5
ENDBRANCH   1   3
BRANCH   1  11
ATOM     11  C   UNL     1       2.181  26.513  67.262  1.00  0.00     0.087 C 
BRANCH  11  12
ATOM     12  C   UNL     1       3.362  26.640  66.299  1.00  0.00     0.066 C 
BRANCH  12  13
ATOM     13  C   UNL     1       4.468  27.427  67.053  1.00  0.00     0.140 C 
ATOM     14  O   UNL     1       5.303  28.025  66.391  1.00  0.00    -0.299 OA
BRANCH  13  15
ATOM     15  C   UNL     1       4.553  27.543  68.597  1.00  0.00     0.106 CG0
ATOM     16  G   UNL     1       4.193  28.928  69.178  1.00  0.00     0.000 G0
ENDBRANCH  13  15
ENDBRANCH  12  13
BRANCH  12  17
ATOM     17  C   UNL     1       3.926  25.310  65.704  1.00  0.00    -0.006 C 
ATOM     18  C   UNL     1       4.287  25.391  64.213  1.00  0.00     0.008 C 
ATOM     19  C   UNL     1       5.101  24.740  66.511  1.00  0.00     0.008 C 
ENDBRANCH  12  17
ENDBRANCH  11  12
ENDBRANCH   1  11
TORSDOF 1
ENDMDL
MODEL 8
REMARK VINA RESULT:    -3.117      2.395      4.415
REMARK INTER + INTRA:          -5.151
REMARK INTER:                  -4.999
REMARK INTRA:                  -0.152
REMARK UNBOUND:                -0.393
REMARK SMILES CC1=CCC[C@H](C)C(=O)C[C@H](C(C)C)C(=O)C1
REMARK SMILES IDX 8 1 9 2 6 3 7 4 5 5 4 6 3 7 2 8 1 9 10 11 11 12 15 13 16 14
REMARK SMILES IDX 17 15 12 17 13 18 14 19
REMARK H PARENT
REMARK Flexibility Score: 70.00
ROOT
ATOM      1  C   UNL     1       1.985  27.049  68.145  1.00  0.00     0.136 C 
ATOM      2  O   UNL     1       2.121  28.131  68.696  1.00  0.00    -0.299 OA
ENDROOT
BRANCH   1   3
ATOM      3  C   UNL     1       0.726  26.196  68.366  1.00  0.00     0.053 C 
ATOM      4  C   UNL     1      -0.061  26.682  69.589  1.00  0.00     0.016 C 
BRANCH   3   5
ATOM      5  C   UNL     1      -0.230  26.012  67.117  1.00  0.00     0.015 C 
BRANCH   5   6
ATOM      6  C   UNL     1      -0.317  27.021  65.912  1.00  0.00     0.028 C 
BRANCH   6   7
ATOM      7  C   UNL     1       0.105  26.518  64.529  1.00  0.00    -0.028 C 
ATOM      8  C   UNL     1       1.168  26.952  63.770  1.00  0.00    -0.070 CG0
ATOM      9  C   UNL     1       1.364  26.302  62.425  1.00  0.00     0.039 C 
ATOM     10  G   UNL     1       2.150  28.082  64.150  1.00  0.00     0.000 G0
ENDBRANCH   6   7
ENDBRANCH   5   6
ENDBRANCH   3   5
ENDBRANCH   1   3
BRANCH   1  11
ATOM     11  C   UNL     1       3.086  26.446  67.361  1.00  0.00     0.087 C 
BRANCH  11  12
ATOM     12  C   UNL     1       3.337  26.297  65.860  1.00  0.00     0.066 C 
BRANCH  12  13
ATOM     13  C   UNL     1       3.190  27.715  65.243  1.00  0.00     0.140 C 
ATOM     14  O   UNL     1       3.953  28.591  65.621  1.00  0.00    -0.299 OA
BRANCH  13  15
ATOM     15  C   UNL     1       2.164  28.079  64.138  1.00  0.00     0.106 CG0
ATOM     16  G   UNL     1       1.176  26.956  63.754  1.00  0.00     0.000 G0
ENDBRANCH  13  15
ENDBRANCH  12  13
BRANCH  12  17
ATOM     17  C   UNL     1       4.690  25.640  65.438  1.00  0.00    -0.006 C 
ATOM     18  C   UNL     1       5.455  24.979  66.595  1.00  0.00     0.008 C 
ATOM     19  C   UNL     1       4.544  24.662  64.264  1.00  0.00     0.008 C 
ENDBRANCH  12  17
ENDBRANCH  11  12
ENDBRANCH   1  11
TORSDOF 1
ENDMDL
MODEL 9
REMARK VINA RESULT:    -2.991      2.494      4.569
REMARK INTER + INTRA:          -4.958
REMARK INTER:                  -4.725
REMARK INTRA:                  -0.233
REMARK UNBOUND:                -0.393
REMARK SMILES CC1=CCC[C@H](C)C(=O)C[C@H](C(C)C)C(=O)C1
REMARK SMILES IDX 8 1 9 2 6 3 7 4 5 5 4 6 3 7 2 8 1 9 10 11 11 12 15 13 16 14
REMARK SMILES IDX 17 15 12 17 13 18 14 19
REMARK H PARENT
REMARK Flexibility Score: 70.00
ROOT
ATOM      1  C   UNL     1       3.950  26.451  67.054  1.00  0.00     0.136 C 
ATOM      2  O   UNL     1       4.399  27.032  68.030  1.00  0.00    -0.299 OA
ENDROOT
BRANCH   1   3
ATOM      3  C   UNL     1       4.878  25.865  65.979  1.00  0.00     0.053 C 
ATOM      4  C   UNL     1       4.778  24.335  65.939  1.00  0.00     0.016 C 
BRANCH   3   5
ATOM      5  C   UNL     1       4.749  26.477  64.524  1.00  0.00     0.015 C 
BRANCH   5   6
ATOM      6  C   UNL     1       3.630  26.075  63.491  1.00  0.00     0.028 C 
BRANCH   6   7
ATOM      7  C   UNL     1       2.687  27.175  62.997  1.00  0.00    -0.028 C 
ATOM      8  C   UNL     1       1.424  27.465  63.462  1.00  0.00    -0.070 CG0
ATOM      9  C   UNL     1       0.689  28.597  62.794  1.00  0.00     0.039 C 
ATOM     10  G   UNL     1       0.672  26.700  64.573  1.00  0.00     0.000 G0
ENDBRANCH   6   7
ENDBRANCH   5   6
ENDBRANCH   3   5
ENDBRANCH   1   3
BRANCH   1  11
ATOM     11  C   UNL     1       2.494  26.416  66.787  1.00  0.00     0.087 C 
BRANCH  11  12
ATOM     12  C   UNL     1       1.342  27.348  67.164  1.00  0.00     0.066 C 
BRANCH  12  13
ATOM     13  C   UNL     1       0.446  27.480  65.903  1.00  0.00     0.140 C 
ATOM     14  O   UNL     1      -0.481  28.276  65.934  1.00  0.00    -0.299 OA
BRANCH  13  15
ATOM     15  C   UNL     1       0.681  26.698  64.584  1.00  0.00     0.106 CG0
ATOM     16  G   UNL     1       1.417  27.479  63.473  1.00  0.00     0.000 G0
ENDBRANCH  13  15
ENDBRANCH  12  13
BRANCH  12  17
ATOM     17  C   UNL     1       0.496  26.947  68.414  1.00  0.00    -0.006 C 
ATOM     18  C   UNL     1      -0.117  25.541  68.333  1.00  0.00     0.008 C 
ATOM     19  C   UNL     1       1.255  27.126  69.737  1.00  0.00     0.008 C 
ENDBRANCH  12  17
ENDBRANCH  11  12
ENDBRANCH   1  11
TORSDOF 1
ENDMDL
