MODEL 1
REMARK VINA RESULT:    -3.469      0.000      0.000
REMARK INTER + INTRA:          -3.570
REMARK INTER:                  -3.570
REMARK INTRA:                   0.000
REMARK UNBOUND:                 0.000
REMARK SMILES CC1(C)[C@@H]2CC[C@@]1(C)[C@H](O)C2
REMARK SMILES IDX 1 1 2 2 4 3 5 4 6 5 7 6 9 7 11 8 8 9 3 10 10 11
REMARK H PARENT 10 12
REMARK Flexibility Score: inf
ROOT
ATOM      1  C   UNL     1     170.712 159.060 169.006  1.00  0.00     0.012 C 
ATOM      2  C   UNL     1     169.438 158.834 169.877  1.00  0.00    -0.025 C 
ATOM      3  C   UNL     1     168.250 159.724 169.477  1.00  0.00    -0.002 C 
ATOM      4  C   UNL     1     167.108 159.224 170.396  1.00  0.00     0.005 C 
ATOM      5  C   UNL     1     167.381 157.708 170.487  1.00  0.00     0.010 C 
ATOM      6  C   UNL     1     168.642 157.538 169.597  1.00  0.00    -0.001 C 
ATOM      7  C   UNL     1     168.143 157.711 168.130  1.00  0.00     0.121 C 
ATOM      8  C   UNL     1     167.898 159.237 168.048  1.00  0.00     0.036 C 
ATOM      9  C   UNL     1     169.384 156.219 169.862  1.00  0.00     0.015 C 
ATOM     10  C   UNL     1     169.901 159.026 171.356  1.00  0.00     0.012 C 
ENDROOT
BRANCH   7  11
ATOM     11  O   UNL     1     169.102 157.286 167.195  1.00  0.00    -0.393 OA
ATOM     12  H   UNL     1     169.230 156.314 167.345  1.00  0.00     0.210 HD
ENDBRANCH   7  11
TORSDOF 1
ENDMDL
MODEL 2
REMARK VINA RESULT:    -3.459     14.735     16.117
REMARK INTER + INTRA:          -3.560
REMARK INTER:                  -3.560
REMARK INTRA:                   0.000
REMARK UNBOUND:                 0.000
REMARK SMILES CC1(C)[C@@H]2CC[C@@]1(C)[C@H](O)C2
REMARK SMILES IDX 1 1 2 2 4 3 5 4 6 5 7 6 9 7 11 8 8 9 3 10 10 11
REMARK H PARENT 10 12
REMARK Flexibility Score: inf
ROOT
ATOM      1  C   UNL     1     160.494 172.047 169.047  1.00  0.00     0.012 C 
ATOM      2  C   UNL     1     161.768 172.326 169.902  1.00  0.00    -0.025 C 
ATOM      3  C   UNL     1     162.993 171.499 169.475  1.00  0.00    -0.002 C 
ATOM      4  C   UNL     1     164.122 172.045 170.383  1.00  0.00     0.005 C 
ATOM      5  C   UNL     1     163.778 173.545 170.495  1.00  0.00     0.010 C 
ATOM      6  C   UNL     1     162.496 173.662 169.624  1.00  0.00    -0.001 C 
ATOM      7  C   UNL     1     162.981 173.529 168.149  1.00  0.00     0.121 C 
ATOM      8  C   UNL     1     163.298 172.017 168.046  1.00  0.00     0.036 C 
ATOM      9  C   UNL     1     161.695 174.940 169.915  1.00  0.00     0.015 C 
ATOM     10  C   UNL     1     161.338 172.097 171.385  1.00  0.00     0.012 C 
ENDROOT
BRANCH   7  11
ATOM     11  O   UNL     1     161.989 173.916 167.232  1.00  0.00    -0.393 OA
ATOM     12  H   UNL     1     161.234 174.272 167.768  1.00  0.00     0.210 HD
ENDBRANCH   7  11
TORSDOF 1
ENDMDL
MODEL 3
REMARK VINA RESULT:    -3.315      1.480      2.428
REMARK INTER + INTRA:          -3.412
REMARK INTER:                  -3.412
REMARK INTRA:                   0.000
REMARK UNBOUND:                 0.000
REMARK SMILES CC1(C)[C@@H]2CC[C@@]1(C)[C@H](O)C2
REMARK SMILES IDX 1 1 2 2 4 3 5 4 6 5 7 6 9 7 11 8 8 9 3 10 10 11
REMARK H PARENT 10 12
REMARK Flexibility Score: inf
ROOT
ATOM      1  C   UNL     1     168.669 157.140 167.741  1.00  0.00     0.012 C 
ATOM      2  C   UNL     1     169.515 157.750 168.899  1.00  0.00    -0.025 C 
ATOM      3  C   UNL     1     169.379 159.277 169.028  1.00  0.00    -0.002 C 
ATOM      4  C   UNL     1     170.203 159.600 170.298  1.00  0.00     0.005 C 
ATOM      5  C   UNL     1     169.932 158.380 171.203  1.00  0.00     0.010 C 
ATOM      6  C   UNL     1     168.976 157.519 170.331  1.00  0.00    -0.001 C 
ATOM      7  C   UNL     1     167.610 158.270 170.346  1.00  0.00     0.121 C 
ATOM      8  C   UNL     1     167.891 159.475 169.417  1.00  0.00     0.036 C 
ATOM      9  C   UNL     1     168.901 156.057 170.796  1.00  0.00     0.015 C 
ATOM     10  C   UNL     1     170.979 157.266 168.652  1.00  0.00     0.012 C 
ENDROOT
BRANCH   7  11
ATOM     11  O   UNL     1     166.564 157.468 169.858  1.00  0.00    -0.393 OA
ATOM     12  H   UNL     1     166.659 156.583 170.297  1.00  0.00     0.210 HD
ENDBRANCH   7  11
TORSDOF 1
ENDMDL
MODEL 4
REMARK VINA RESULT:    -3.267     15.095     16.455
REMARK INTER + INTRA:          -3.362
REMARK INTER:                  -3.362
REMARK INTRA:                   0.000
REMARK UNBOUND:                 0.000
REMARK SMILES CC1(C)[C@@H]2CC[C@@]1(C)[C@H](O)C2
REMARK SMILES IDX 1 1 2 2 4 3 5 4 6 5 7 6 9 7 11 8 8 9 3 10 10 11
REMARK H PARENT 10 12
REMARK Flexibility Score: inf
ROOT
ATOM      1  C   UNL     1     162.327 174.243 167.770  1.00  0.00     0.012 C 
ATOM      2  C   UNL     1     161.604 173.488 168.927  1.00  0.00    -0.025 C 
ATOM      3  C   UNL     1     161.805 171.964 168.891  1.00  0.00    -0.002 C 
ATOM      4  C   UNL     1     161.104 171.484 170.186  1.00  0.00     0.005 C 
ATOM      5  C   UNL     1     161.407 172.622 171.182  1.00  0.00     0.010 C 
ATOM      6  C   UNL     1     162.254 173.603 170.326  1.00  0.00    -0.001 C 
ATOM      7  C   UNL     1     163.642 172.915 170.156  1.00  0.00     0.121 C 
ATOM      8  C   UNL     1     163.327 171.794 169.136  1.00  0.00     0.036 C 
ATOM      9  C   UNL     1     162.316 175.015 170.927  1.00  0.00     0.015 C 
ATOM     10  C   UNL     1     160.109 173.930 168.848  1.00  0.00     0.012 C 
ENDROOT
BRANCH   7  11
ATOM     11  O   UNL     1     164.614 173.805 169.667  1.00  0.00    -0.393 OA
ATOM     12  H   UNL     1     165.274 173.256 169.170  1.00  0.00     0.210 HD
ENDBRANCH   7  11
TORSDOF 1
ENDMDL
MODEL 5
REMARK VINA RESULT:    -3.164     16.206     17.471
REMARK INTER + INTRA:          -3.256
REMARK INTER:                  -3.256
REMARK INTRA:                   0.000
REMARK UNBOUND:                 0.000
REMARK SMILES CC1(C)[C@@H]2CC[C@@]1(C)[C@H](O)C2
REMARK SMILES IDX 1 1 2 2 4 3 5 4 6 5 7 6 9 7 11 8 8 9 3 10 10 11
REMARK H PARENT 10 12
REMARK Flexibility Score: inf
ROOT
ATOM      1  C   UNL     1     161.371 172.101 168.989  1.00  0.00     0.012 C 
ATOM      2  C   UNL     1     160.457 173.159 169.682  1.00  0.00    -0.025 C 
ATOM      3  C   UNL     1     160.064 174.331 168.767  1.00  0.00    -0.002 C 
ATOM      4  C   UNL     1     159.083 175.148 169.642  1.00  0.00     0.005 C 
ATOM      5  C   UNL     1     158.334 174.055 170.431  1.00  0.00     0.010 C 
ATOM      6  C   UNL     1     158.981 172.748 169.895  1.00  0.00    -0.001 C 
ATOM      7  C   UNL     1     158.426 172.571 168.450  1.00  0.00     0.121 C 
ATOM      8  C   UNL     1     159.203 173.657 167.667  1.00  0.00     0.036 C 
ATOM      9  C   UNL     1     158.742 171.544 170.818  1.00  0.00     0.015 C 
ATOM     10  C   UNL     1     161.222 173.594 170.972  1.00  0.00     0.012 C 
ENDROOT
BRANCH   7  11
ATOM     11  O   UNL     1     158.676 171.285 167.944  1.00  0.00    -0.393 OA
ATOM     12  H   UNL     1     157.934 170.708 168.261  1.00  0.00     0.210 HD
ENDBRANCH   7  11
TORSDOF 1
ENDMDL
MODEL 6
REMARK VINA RESULT:    -3.140      1.081      2.770
REMARK INTER + INTRA:          -3.232
REMARK INTER:                  -3.232
REMARK INTRA:                   0.000
REMARK UNBOUND:                 0.000
REMARK SMILES CC1(C)[C@@H]2CC[C@@]1(C)[C@H](O)C2
REMARK SMILES IDX 1 1 2 2 4 3 5 4 6 5 7 6 9 7 11 8 8 9 3 10 10 11
REMARK H PARENT 10 12
REMARK Flexibility Score: inf
ROOT
ATOM      1  C   UNL     1     168.847 156.600 169.810  1.00  0.00     0.012 C 
ATOM      2  C   UNL     1     168.364 158.011 170.266  1.00  0.00    -0.025 C 
ATOM      3  C   UNL     1     169.258 158.654 171.339  1.00  0.00    -0.002 C 
ATOM      4  C   UNL     1     168.639 160.062 171.519  1.00  0.00     0.005 C 
ATOM      5  C   UNL     1     168.184 160.422 170.089  1.00  0.00     0.010 C 
ATOM      6  C   UNL     1     168.614 159.171 169.274  1.00  0.00    -0.001 C 
ATOM      7  C   UNL     1     170.167 159.253 169.172  1.00  0.00     0.121 C 
ATOM      8  C   UNL     1     170.608 158.866 170.605  1.00  0.00     0.036 C 
ATOM      9  C   UNL     1     167.895 159.067 167.920  1.00  0.00     0.015 C 
ATOM     10  C   UNL     1     166.879 157.823 170.712  1.00  0.00     0.012 C 
ENDROOT
BRANCH   7  11
ATOM     11  O   UNL     1     170.679 158.365 168.212  1.00  0.00    -0.393 OA
ATOM     12  H   UNL     1     170.763 158.879 167.368  1.00  0.00     0.210 HD
ENDBRANCH   7  11
TORSDOF 1
ENDMDL
MODEL 7
REMARK VINA RESULT:    -3.120     14.440     15.708
REMARK INTER + INTRA:          -3.212
REMARK INTER:                  -3.212
REMARK INTRA:                   0.000
REMARK UNBOUND:                 0.000
REMARK SMILES CC1(C)[C@@H]2CC[C@@]1(C)[C@H](O)C2
REMARK SMILES IDX 1 1 2 2 4 3 5 4 6 5 7 6 9 7 11 8 8 9 3 10 10 11
REMARK H PARENT 10 12
REMARK Flexibility Score: inf
ROOT
ATOM      1  C   UNL     1     162.319 174.631 169.867  1.00  0.00     0.012 C 
ATOM      2  C   UNL     1     162.830 173.210 170.256  1.00  0.00    -0.025 C 
ATOM      3  C   UNL     1     161.962 172.508 171.313  1.00  0.00    -0.002 C 
ATOM      4  C   UNL     1     162.606 171.104 171.423  1.00  0.00     0.005 C 
ATOM      5  C   UNL     1     163.045 170.813 169.974  1.00  0.00     0.010 C 
ATOM      6  C   UNL     1     162.584 172.090 169.218  1.00  0.00    -0.001 C 
ATOM      7  C   UNL     1     161.031 171.987 169.135  1.00  0.00     0.121 C 
ATOM      8  C   UNL     1     160.605 172.305 170.589  1.00  0.00     0.036 C 
ATOM      9  C   UNL     1     163.281 172.262 167.861  1.00  0.00     0.015 C 
ATOM     10  C   UNL     1     164.319 173.403 170.689  1.00  0.00     0.012 C 
ENDROOT
BRANCH   7  11
ATOM     11  O   UNL     1     160.491 172.907 168.221  1.00  0.00    -0.393 OA
ATOM     12  H   UNL     1     159.809 172.415 167.695  1.00  0.00     0.210 HD
ENDBRANCH   7  11
TORSDOF 1
ENDMDL
MODEL 8
REMARK VINA RESULT:    -3.113      1.638      2.968
REMARK INTER + INTRA:          -3.204
REMARK INTER:                  -3.204
REMARK INTRA:                   0.000
REMARK UNBOUND:                 0.000
REMARK SMILES CC1(C)[C@@H]2CC[C@@]1(C)[C@H](O)C2
REMARK SMILES IDX 1 1 2 2 4 3 5 4 6 5 7 6 9 7 11 8 8 9 3 10 10 11
REMARK H PARENT 10 12
REMARK Flexibility Score: inf
ROOT
ATOM      1  C   UNL     1     168.897 160.278 170.864  1.00  0.00     0.012 C 
ATOM      2  C   UNL     1     169.434 159.035 170.091  1.00  0.00    -0.025 C 
ATOM      3  C   UNL     1     169.577 157.777 170.965  1.00  0.00    -0.002 C 
ATOM      4  C   UNL     1     169.999 156.687 169.949  1.00  0.00     0.005 C 
ATOM      5  C   UNL     1     169.212 157.076 168.681  1.00  0.00     0.010 C 
ATOM      6  C   UNL     1     168.431 158.338 169.142  1.00  0.00    -0.001 C 
ATOM      7  C   UNL     1     167.314 157.811 170.093  1.00  0.00     0.121 C 
ATOM      8  C   UNL     1     168.115 157.449 171.367  1.00  0.00     0.036 C 
ATOM      9  C   UNL     1     167.916 159.181 167.966  1.00  0.00     0.015 C 
ATOM     10  C   UNL     1     170.769 159.497 169.427  1.00  0.00     0.012 C 
ENDROOT
BRANCH   7  11
ATOM     11  O   UNL     1     166.339 158.789 170.352  1.00  0.00    -0.393 OA
ATOM     12  H   UNL     1     165.648 158.356 170.917  1.00  0.00     0.210 HD
ENDBRANCH   7  11
TORSDOF 1
ENDMDL
MODEL 9
REMARK VINA RESULT:    -3.091     15.107     16.365
REMARK INTER + INTRA:          -3.181
REMARK INTER:                  -3.181
REMARK INTRA:                   0.000
REMARK UNBOUND:                 0.000
REMARK SMILES CC1(C)[C@@H]2CC[C@@]1(C)[C@H](O)C2
REMARK SMILES IDX 1 1 2 2 4 3 5 4 6 5 7 6 9 7 11 8 8 9 3 10 10 11
REMARK H PARENT 10 12
REMARK Flexibility Score: inf
ROOT
ATOM      1  C   UNL     1     163.011 171.991 168.234  1.00  0.00     0.012 C 
ATOM      2  C   UNL     1     162.375 172.234 169.637  1.00  0.00    -0.025 C 
ATOM      3  C   UNL     1     162.864 173.520 170.324  1.00  0.00    -0.002 C 
ATOM      4  C   UNL     1     162.007 173.581 171.612  1.00  0.00     0.005 C 
ATOM      5  C   UNL     1     160.648 173.017 171.147  1.00  0.00     0.010 C 
ATOM      6  C   UNL     1     160.905 172.715 169.644  1.00  0.00    -0.001 C 
ATOM      7  C   UNL     1     160.959 174.106 168.943  1.00  0.00     0.121 C 
ATOM      8  C   UNL     1     162.336 174.647 169.399  1.00  0.00     0.036 C 
ATOM      9  C   UNL     1     159.874 171.744 169.048  1.00  0.00     0.015 C 
ATOM     10  C   UNL     1     162.656 170.935 170.456  1.00  0.00     0.012 C 
ENDROOT
BRANCH   7  11
ATOM     11  O   UNL     1     160.881 173.993 167.545  1.00  0.00    -0.393 OA
ATOM     12  H   UNL     1     160.520 174.855 167.212  1.00  0.00     0.210 HD
ENDBRANCH   7  11
TORSDOF 1
ENDMDL
