MODEL 1
REMARK VINA RESULT:    -2.659      0.000      0.000
REMARK INTER + INTRA:          -3.029
REMARK INTER:                  -2.970
REMARK INTRA:                  -0.060
REMARK UNBOUND:                -0.060
REMARK SMILES CCCC(=O)[O-]
REMARK SMILES IDX 3 1 4 2 5 3 6 4 2 5 1 6
REMARK H PARENT
REMARK Flexibility Score: inf
ROOT
ATOM      1  C   UNL     1      15.158  32.575  -8.337  1.00  0.00     0.052 C 
ENDROOT
BRANCH   1   2
ATOM      2  C   UNL     1      16.241  32.836  -9.335  1.00  0.00     0.041 C 
ATOM      3  O   UNL     1      16.635  34.012  -9.551  1.00  0.00    -0.550 OA
ATOM      4  O   UNL     1      16.850  31.775  -9.994  1.00  0.00    -0.550 OA
ENDBRANCH   1   2
BRANCH   1   5
ATOM      5  C   UNL     1      14.125  31.601  -8.911  1.00  0.00     0.003 C 
ATOM      6  C   UNL     1      13.377  32.222 -10.087  1.00  0.00     0.004 C 
ENDBRANCH   1   5
TORSDOF 2
ENDMDL
MODEL 2
REMARK VINA RESULT:    -2.653      0.075      1.323
REMARK INTER + INTRA:          -3.023
REMARK INTER:                  -2.969
REMARK INTRA:                  -0.054
REMARK UNBOUND:                -0.060
REMARK SMILES CCCC(=O)[O-]
REMARK SMILES IDX 3 1 4 2 5 3 6 4 2 5 1 6
REMARK H PARENT
REMARK Flexibility Score: inf
ROOT
ATOM      1  C   UNL     1      15.139  32.546  -8.330  1.00  0.00     0.052 C 
ENDROOT
BRANCH   1   2
ATOM      2  C   UNL     1      16.248  32.800  -9.302  1.00  0.00     0.041 C 
ATOM      3  O   UNL     1      16.804  31.839  -9.895  1.00  0.00    -0.550 OA
ATOM      4  O   UNL     1      16.635  34.103  -9.590  1.00  0.00    -0.550 OA
ENDBRANCH   1   2
BRANCH   1   5
ATOM      5  C   UNL     1      14.124  31.565  -8.922  1.00  0.00     0.003 C 
ATOM      6  C   UNL     1      13.333  32.209 -10.057  1.00  0.00     0.004 C 
ENDBRANCH   1   5
TORSDOF 2
ENDMDL
MODEL 3
REMARK VINA RESULT:    -2.583     13.856     14.691
REMARK INTER + INTRA:          -2.944
REMARK INTER:                  -2.934
REMARK INTRA:                  -0.011
REMARK UNBOUND:                -0.060
REMARK SMILES CCCC(=O)[O-]
REMARK SMILES IDX 3 1 4 2 5 3 6 4 2 5 1 6
REMARK H PARENT
REMARK Flexibility Score: inf
ROOT
ATOM      1  C   UNL     1      17.022  18.725 -10.296  1.00  0.00     0.052 C 
ENDROOT
BRANCH   1   2
ATOM      2  C   UNL     1      15.671  18.609  -9.663  1.00  0.00     0.041 C 
ATOM      3  O   UNL     1      15.423  17.666  -8.867  1.00  0.00    -0.550 OA
ATOM      4  O   UNL     1      14.700  19.570  -9.915  1.00  0.00    -0.550 OA
ENDBRANCH   1   2
BRANCH   1   5
ATOM      5  C   UNL     1      17.559  17.340 -10.668  1.00  0.00     0.003 C 
ATOM      6  C   UNL     1      19.014  17.418 -11.121  1.00  0.00     0.004 C 
ENDBRANCH   1   5
TORSDOF 2
ENDMDL
MODEL 4
REMARK VINA RESULT:    -2.576      1.716      2.221
REMARK INTER + INTRA:          -2.937
REMARK INTER:                  -2.920
REMARK INTRA:                  -0.017
REMARK UNBOUND:                -0.060
REMARK SMILES CCCC(=O)[O-]
REMARK SMILES IDX 3 1 4 2 5 3 6 4 2 5 1 6
REMARK H PARENT
REMARK Flexibility Score: inf
ROOT
ATOM      1  C   UNL     1      16.368  33.969  -9.553  1.00  0.00     0.052 C 
ENDROOT
BRANCH   1   2
ATOM      2  C   UNL     1      16.201  32.541  -9.141  1.00  0.00     0.041 C 
ATOM      3  O   UNL     1      15.436  32.241  -8.187  1.00  0.00    -0.550 OA
ATOM      4  O   UNL     1      16.853  31.535  -9.843  1.00  0.00    -0.550 OA
ENDBRANCH   1   2
BRANCH   1   5
ATOM      5  C   UNL     1      15.845  34.181 -10.976  1.00  0.00     0.003 C 
ATOM      6  C   UNL     1      14.424  33.644 -11.125  1.00  0.00     0.004 C 
ENDBRANCH   1   5
TORSDOF 2
ENDMDL
MODEL 5
REMARK VINA RESULT:    -2.542      2.057      2.859
REMARK INTER + INTRA:          -2.899
REMARK INTER:                  -2.918
REMARK INTRA:                   0.019
REMARK UNBOUND:                -0.060
REMARK SMILES CCCC(=O)[O-]
REMARK SMILES IDX 3 1 4 2 5 3 6 4 2 5 1 6
REMARK H PARENT
REMARK Flexibility Score: inf
ROOT
ATOM      1  C   UNL     1      14.861  32.348  -8.536  1.00  0.00     0.052 C 
ENDROOT
BRANCH   1   2
ATOM      2  C   UNL     1      14.010  32.013  -9.720  1.00  0.00     0.041 C 
ATOM      3  O   UNL     1      12.760  32.148  -9.661  1.00  0.00    -0.550 OA
ATOM      4  O   UNL     1      14.602  31.597 -10.906  1.00  0.00    -0.550 OA
ENDBRANCH   1   2
BRANCH   1   5
ATOM      5  C   UNL     1      16.295  32.652  -8.977  1.00  0.00     0.003 C 
ATOM      6  C   UNL     1      16.405  34.058  -9.559  1.00  0.00     0.004 C 
ENDBRANCH   1   5
TORSDOF 2
ENDMDL
MODEL 6
REMARK VINA RESULT:    -2.533     19.893     20.476
REMARK INTER + INTRA:          -2.889
REMARK INTER:                  -2.848
REMARK INTRA:                  -0.041
REMARK UNBOUND:                -0.060
REMARK SMILES CCCC(=O)[O-]
REMARK SMILES IDX 3 1 4 2 5 3 6 4 2 5 1 6
REMARK H PARENT
REMARK Flexibility Score: inf
ROOT
ATOM      1  C   UNL     1      28.981  18.657  -1.330  1.00  0.00     0.052 C 
ENDROOT
BRANCH   1   2
ATOM      2  C   UNL     1      28.283  19.256  -2.510  1.00  0.00     0.041 C 
ATOM      3  O   UNL     1      27.577  20.289  -2.373  1.00  0.00    -0.550 OA
ATOM      4  O   UNL     1      28.453  18.700  -3.772  1.00  0.00    -0.550 OA
ENDBRANCH   1   2
BRANCH   1   5
ATOM      5  C   UNL     1      28.585  17.188  -1.163  1.00  0.00     0.003 C 
ATOM      6  C   UNL     1      27.409  17.040  -0.202  1.00  0.00     0.004 C 
ENDBRANCH   1   5
TORSDOF 2
ENDMDL
MODEL 7
REMARK VINA RESULT:    -2.470     17.996     18.744
REMARK INTER + INTRA:          -2.818
REMARK INTER:                  -2.783
REMARK INTRA:                  -0.036
REMARK UNBOUND:                -0.060
REMARK SMILES CCCC(=O)[O-]
REMARK SMILES IDX 3 1 4 2 5 3 6 4 2 5 1 6
REMARK H PARENT
REMARK Flexibility Score: inf
ROOT
ATOM      1  C   UNL     1      28.788  21.007  -2.212  1.00  0.00     0.052 C 
ENDROOT
BRANCH   1   2
ATOM      2  C   UNL     1      28.090  19.723  -2.533  1.00  0.00     0.041 C 
ATOM      3  O   UNL     1      27.697  19.491  -3.706  1.00  0.00    -0.550 OA
ATOM      4  O   UNL     1      27.917  18.761  -1.546  1.00  0.00    -0.550 OA
ENDBRANCH   1   2
BRANCH   1   5
ATOM      5  C   UNL     1      28.329  22.117  -3.162  1.00  0.00     0.003 C 
ATOM      6  C   UNL     1      27.336  23.051  -2.477  1.00  0.00     0.004 C 
ENDBRANCH   1   5
TORSDOF 2
ENDMDL
MODEL 8
REMARK VINA RESULT:    -2.431     16.774     17.374
REMARK INTER + INTRA:          -2.775
REMARK INTER:                  -2.769
REMARK INTRA:                  -0.006
REMARK UNBOUND:                -0.060
REMARK SMILES CCCC(=O)[O-]
REMARK SMILES IDX 3 1 4 2 5 3 6 4 2 5 1 6
REMARK H PARENT
REMARK Flexibility Score: inf
ROOT
ATOM      1  C   UNL     1      27.306  22.999  -2.457  1.00  0.00     0.052 C 
ENDROOT
BRANCH   1   2
ATOM      2  C   UNL     1      27.681  24.204  -1.654  1.00  0.00     0.041 C 
ATOM      3  O   UNL     1      27.059  24.478  -0.594  1.00  0.00    -0.550 OA
ATOM      4  O   UNL     1      28.749  24.999  -2.051  1.00  0.00    -0.550 OA
ENDBRANCH   1   2
BRANCH   1   5
ATOM      5  C   UNL     1      28.448  21.978  -2.454  1.00  0.00     0.003 C 
ATOM      6  C   UNL     1      27.916  20.558  -2.620  1.00  0.00     0.004 C 
ENDBRANCH   1   5
TORSDOF 2
ENDMDL
MODEL 9
REMARK VINA RESULT:    -2.415     17.688     18.356
REMARK INTER + INTRA:          -2.757
REMARK INTER:                  -2.750
REMARK INTRA:                  -0.006
REMARK UNBOUND:                -0.060
REMARK SMILES CCCC(=O)[O-]
REMARK SMILES IDX 3 1 4 2 5 3 6 4 2 5 1 6
REMARK H PARENT
REMARK Flexibility Score: inf
ROOT
ATOM      1  C   UNL     1      28.773  21.060  -2.462  1.00  0.00     0.052 C 
ENDROOT
BRANCH   1   2
ATOM      2  C   UNL     1      28.204  22.301  -3.074  1.00  0.00     0.041 C 
ATOM      3  O   UNL     1      28.603  22.692  -4.202  1.00  0.00    -0.550 OA
ATOM      4  O   UNL     1      27.198  23.000  -2.419  1.00  0.00    -0.550 OA
ENDBRANCH   1   2
BRANCH   1   5
ATOM      5  C   UNL     1      27.804  19.887  -2.632  1.00  0.00     0.003 C 
ATOM      6  C   UNL     1      28.153  18.744  -1.684  1.00  0.00     0.004 C 
ENDBRANCH   1   5
TORSDOF 2
ENDMDL
