MODEL 1
REMARK VINA RESULT:    -5.061      0.000      0.000
REMARK INTER + INTRA:          -7.001
REMARK INTER:                  -6.244
REMARK INTRA:                  -0.756
REMARK UNBOUND:                -0.756
REMARK SMILES CC(C)=CCC[C@@H](C)c1ccc(C)cc1
REMARK SMILES IDX 6 1 7 2 8 3 9 4 13 5 12 6 11 7 14 8 10 9 15 10 5 11 4 12
REMARK SMILES IDX 2 13 1 14 3 15
REMARK H PARENT
REMARK Flexibility Score: inf
ROOT
ATOM      1  C   UNL     1     103.805  92.417  86.644  1.00  0.00     0.012 C 
ENDROOT
BRANCH   1   2
ATOM      2  C   UNL     1     104.657  93.700  86.516  1.00  0.00     0.016 C 
ATOM      3  C   UNL     1     103.912  94.948  87.014  1.00  0.00     0.013 C 
BRANCH   2   4
ATOM      4  C   UNL     1     105.971  93.538  87.260  1.00  0.00    -0.045 A 
ATOM      5  C   UNL     1     109.694  93.091  89.407  1.00  0.00     0.044 C 
ATOM      6  C   UNL     1     108.414  93.268  88.643  1.00  0.00    -0.051 A 
ATOM      7  C   UNL     1     108.133  92.450  87.538  1.00  0.00     0.004 A 
ATOM      8  C   UNL     1     107.460  94.203  89.068  1.00  0.00     0.004 A 
ATOM      9  C   UNL     1     106.925  92.588  86.848  1.00  0.00     0.004 A 
ATOM     10  C   UNL     1     106.252  94.342  88.379  1.00  0.00     0.004 A 
ENDBRANCH   2   4
ENDBRANCH   1   2
BRANCH   1  11
ATOM     11  C   UNL     1     102.460  92.669  87.342  1.00  0.00     0.028 C 
BRANCH  11  12
ATOM     12  C   UNL     1     102.520  92.240  88.787  1.00  0.00    -0.028 C 
ATOM     13  C   UNL     1     101.767  92.773  89.774  1.00  0.00    -0.080 C 
ATOM     14  C   UNL     1     100.809  93.915  89.522  1.00  0.00     0.039 C 
ATOM     15  C   UNL     1     101.905  92.214  91.166  1.00  0.00     0.039 C 
ENDBRANCH  11  12
ENDBRANCH   1  11
TORSDOF 4
ENDMDL
MODEL 2
REMARK VINA RESULT:    -5.048      1.803      3.497
REMARK INTER + INTRA:          -6.985
REMARK INTER:                  -6.366
REMARK INTRA:                  -0.619
REMARK UNBOUND:                -0.756
REMARK SMILES CC(C)=CCC[C@@H](C)c1ccc(C)cc1
REMARK SMILES IDX 6 1 7 2 8 3 9 4 13 5 12 6 11 7 14 8 10 9 15 10 5 11 4 12
REMARK SMILES IDX 2 13 1 14 3 15
REMARK H PARENT
REMARK Flexibility Score: inf
ROOT
ATOM      1  C   UNL     1     107.028  92.319  86.620  1.00  0.00     0.012 C 
ENDROOT
BRANCH   1   2
ATOM      2  C   UNL     1     108.038  93.483  86.500  1.00  0.00     0.016 C 
ATOM      3  C   UNL     1     107.652  94.479  85.395  1.00  0.00     0.013 C 
BRANCH   2   4
ATOM      4  C   UNL     1     108.179  94.200  87.831  1.00  0.00    -0.045 A 
ATOM      5  C   UNL     1     108.609  96.218  91.627  1.00  0.00     0.044 C 
ATOM      6  C   UNL     1     108.431  95.507  90.318  1.00  0.00    -0.051 A 
ATOM      7  C   UNL     1     107.864  96.175  89.223  1.00  0.00     0.004 A 
ATOM      8  C   UNL     1     108.894  94.192  90.158  1.00  0.00     0.004 A 
ATOM      9  C   UNL     1     107.733  95.526  87.991  1.00  0.00     0.004 A 
ATOM     10  C   UNL     1     108.762  93.543  88.928  1.00  0.00     0.004 A 
ENDBRANCH   2   4
ENDBRANCH   1   2
BRANCH   1  11
ATOM     11  C   UNL     1     105.585  92.807  86.817  1.00  0.00     0.028 C 
BRANCH  11  12
ATOM     12  C   UNL     1     104.612  91.884  86.125  1.00  0.00    -0.028 C 
ATOM     13  C   UNL     1     103.361  91.625  86.565  1.00  0.00    -0.080 C 
ATOM     14  C   UNL     1     102.829  92.208  87.854  1.00  0.00     0.039 C 
ATOM     15  C   UNL     1     102.485  90.713  85.745  1.00  0.00     0.039 C 
ENDBRANCH  11  12
ENDBRANCH   1  11
TORSDOF 4
ENDMDL
MODEL 3
REMARK VINA RESULT:    -5.039      1.915      3.280
REMARK INTER + INTRA:          -6.974
REMARK INTER:                  -6.177
REMARK INTRA:                  -0.796
REMARK UNBOUND:                -0.756
REMARK SMILES CC(C)=CCC[C@@H](C)c1ccc(C)cc1
REMARK SMILES IDX 6 1 7 2 8 3 9 4 13 5 12 6 11 7 14 8 10 9 15 10 5 11 4 12
REMARK SMILES IDX 2 13 1 14 3 15
REMARK H PARENT
REMARK Flexibility Score: inf
ROOT
ATOM      1  C   UNL     1     105.240  94.762  87.859  1.00  0.00     0.012 C 
ENDROOT
BRANCH   1   2
ATOM      2  C   UNL     1     106.412  95.436  87.110  1.00  0.00     0.016 C 
ATOM      3  C   UNL     1     107.252  96.335  88.030  1.00  0.00     0.013 C 
BRANCH   2   4
ATOM      4  C   UNL     1     107.291  94.387  86.451  1.00  0.00    -0.045 A 
ATOM      5  C   UNL     1     109.805  91.429  84.555  1.00  0.00     0.044 C 
ATOM      6  C   UNL     1     108.907  92.442  85.202  1.00  0.00    -0.051 A 
ATOM      7  C   UNL     1     108.432  92.235  86.505  1.00  0.00     0.004 A 
ATOM      8  C   UNL     1     108.591  93.635  84.535  1.00  0.00     0.004 A 
ATOM      9  C   UNL     1     107.626  93.195  87.123  1.00  0.00     0.004 A 
ATOM     10  C   UNL     1     107.784  94.595  85.152  1.00  0.00     0.004 A 
ENDBRANCH   2   4
ENDBRANCH   1   2
BRANCH   1  11
ATOM     11  C   UNL     1     104.003  94.570  86.970  1.00  0.00     0.028 C 
BRANCH  11  12
ATOM     12  C   UNL     1     103.877  93.130  86.536  1.00  0.00    -0.028 C 
ATOM     13  C   UNL     1     103.130  92.203  87.176  1.00  0.00    -0.080 C 
ATOM     14  C   UNL     1     102.377  92.520  88.448  1.00  0.00     0.039 C 
ATOM     15  C   UNL     1     103.065  90.812  86.602  1.00  0.00     0.039 C 
ENDBRANCH  11  12
ENDBRANCH   1  11
TORSDOF 4
ENDMDL
MODEL 4
REMARK VINA RESULT:    -5.027      1.679      5.489
REMARK INTER + INTRA:          -6.959
REMARK INTER:                  -6.023
REMARK INTRA:                  -0.936
REMARK UNBOUND:                -0.756
REMARK SMILES CC(C)=CCC[C@@H](C)c1ccc(C)cc1
REMARK SMILES IDX 6 1 7 2 8 3 9 4 13 5 12 6 11 7 14 8 10 9 15 10 5 11 4 12
REMARK SMILES IDX 2 13 1 14 3 15
REMARK H PARENT
REMARK Flexibility Score: inf
ROOT
ATOM      1  C   UNL     1     105.843  95.941  88.504  1.00  0.00     0.012 C 
ENDROOT
BRANCH   1   2
ATOM      2  C   UNL     1     105.258  94.793  89.358  1.00  0.00     0.016 C 
ATOM      3  C   UNL     1     104.255  95.299  90.407  1.00  0.00     0.013 C 
BRANCH   2   4
ATOM      4  C   UNL     1     104.609  93.749  88.467  1.00  0.00    -0.045 A 
ATOM      5  C   UNL     1     102.729  90.788  85.944  1.00  0.00     0.044 C 
ATOM      6  C   UNL     1     103.396  91.793  86.837  1.00  0.00    -0.051 A 
ATOM      7  C   UNL     1     104.646  92.325  86.490  1.00  0.00     0.004 A 
ATOM      8  C   UNL     1     102.743  92.260  87.987  1.00  0.00     0.004 A 
ATOM      9  C   UNL     1     105.252  93.290  87.301  1.00  0.00     0.004 A 
ATOM     10  C   UNL     1     103.348  93.224  88.799  1.00  0.00     0.004 A 
ENDBRANCH   2   4
ENDBRANCH   1   2
BRANCH   1  11
ATOM     11  C   UNL     1     107.307  96.249  88.851  1.00  0.00     0.028 C 
BRANCH  11  12
ATOM     12  C   UNL     1     108.163  95.018  88.690  1.00  0.00    -0.028 C 
ATOM     13  C   UNL     1     108.754  94.360  89.712  1.00  0.00    -0.080 C 
ATOM     14  C   UNL     1     108.653  94.843  91.140  1.00  0.00     0.039 C 
ATOM     15  C   UNL     1     109.549  93.118  89.403  1.00  0.00     0.039 C 
ENDBRANCH  11  12
ENDBRANCH   1  11
TORSDOF 4
ENDMDL
MODEL 5
REMARK VINA RESULT:    -4.998      1.255      2.416
REMARK INTER + INTRA:          -6.923
REMARK INTER:                  -5.946
REMARK INTRA:                  -0.978
REMARK UNBOUND:                -0.756
REMARK SMILES CC(C)=CCC[C@@H](C)c1ccc(C)cc1
REMARK SMILES IDX 6 1 7 2 8 3 9 4 13 5 12 6 11 7 14 8 10 9 15 10 5 11 4 12
REMARK SMILES IDX 2 13 1 14 3 15
REMARK H PARENT
REMARK Flexibility Score: inf
ROOT
ATOM      1  C   UNL     1     104.956  95.202  86.991  1.00  0.00     0.012 C 
ENDROOT
BRANCH   1   2
ATOM      2  C   UNL     1     105.523  95.493  88.399  1.00  0.00     0.016 C 
ATOM      3  C   UNL     1     104.483  95.263  89.506  1.00  0.00     0.013 C 
BRANCH   2   4
ATOM      4  C   UNL     1     106.761  94.653  88.655  1.00  0.00    -0.045 A 
ATOM      5  C   UNL     1     110.285  92.272  89.417  1.00  0.00     0.044 C 
ATOM      6  C   UNL     1     109.078  93.116  89.132  1.00  0.00    -0.051 A 
ATOM      7  C   UNL     1     108.173  92.737  88.129  1.00  0.00     0.004 A 
ATOM      8  C   UNL     1     108.808  94.251  89.910  1.00  0.00     0.004 A 
ATOM      9  C   UNL     1     107.027  93.502  87.888  1.00  0.00     0.004 A 
ATOM     10  C   UNL     1     107.664  95.016  89.669  1.00  0.00     0.004 A 
ENDBRANCH   2   4
ENDBRANCH   1   2
BRANCH   1  11
ATOM     11  C   UNL     1     103.535  94.621  87.034  1.00  0.00     0.028 C 
BRANCH  11  12
ATOM     12  C   UNL     1     103.532  93.186  86.567  1.00  0.00    -0.028 C 
ATOM     13  C   UNL     1     103.017  92.155  87.272  1.00  0.00    -0.080 C 
ATOM     14  C   UNL     1     102.432  92.343  88.653  1.00  0.00     0.039 C 
ATOM     15  C   UNL     1     103.047  90.779  86.659  1.00  0.00     0.039 C 
ENDBRANCH  11  12
ENDBRANCH   1  11
TORSDOF 4
ENDMDL
MODEL 6
REMARK VINA RESULT:    -4.972      1.351      5.496
REMARK INTER + INTRA:          -6.891
REMARK INTER:                  -5.864
REMARK INTRA:                  -1.027
REMARK UNBOUND:                -0.756
REMARK SMILES CC(C)=CCC[C@@H](C)c1ccc(C)cc1
REMARK SMILES IDX 6 1 7 2 8 3 9 4 13 5 12 6 11 7 14 8 10 9 15 10 5 11 4 12
REMARK SMILES IDX 2 13 1 14 3 15
REMARK H PARENT
REMARK Flexibility Score: inf
ROOT
ATOM      1  C   UNL     1     106.133  95.095  86.901  1.00  0.00     0.012 C 
ENDROOT
BRANCH   1   2
ATOM      2  C   UNL     1     105.490  93.726  86.581  1.00  0.00     0.016 C 
ATOM      3  C   UNL     1     106.537  92.611  86.432  1.00  0.00     0.013 C 
BRANCH   2   4
ATOM      4  C   UNL     1     104.474  93.357  87.647  1.00  0.00    -0.045 A 
ATOM      5  C   UNL     1     101.572  92.279  90.660  1.00  0.00     0.044 C 
ATOM      6  C   UNL     1     102.563  92.679  89.608  1.00  0.00    -0.051 A 
ATOM      7  C   UNL     1     103.696  93.431  89.955  1.00  0.00     0.004 A 
ATOM      8  C   UNL     1     102.403  92.247  88.284  1.00  0.00     0.004 A 
ATOM      9  C   UNL     1     104.640  93.773  88.982  1.00  0.00     0.004 A 
ATOM     10  C   UNL     1     103.346  92.589  87.311  1.00  0.00     0.004 A 
ENDBRANCH   2   4
ENDBRANCH   1   2
BRANCH   1  11
ATOM     11  C   UNL     1     107.636  94.988  87.197  1.00  0.00     0.028 C 
BRANCH  11  12
ATOM     12  C   UNL     1     107.918  95.303  88.645  1.00  0.00    -0.028 C 
ATOM     13  C   UNL     1     108.519  94.455  89.508  1.00  0.00    -0.080 C 
ATOM     14  C   UNL     1     108.926  93.056  89.104  1.00  0.00     0.039 C 
ATOM     15  C   UNL     1     108.773  94.923  90.917  1.00  0.00     0.039 C 
ENDBRANCH  11  12
ENDBRANCH   1  11
TORSDOF 4
ENDMDL
MODEL 7
REMARK VINA RESULT:    -4.969      1.752      3.162
REMARK INTER + INTRA:          -6.888
REMARK INTER:                  -5.709
REMARK INTRA:                  -1.178
REMARK UNBOUND:                -0.756
REMARK SMILES CC(C)=CCC[C@@H](C)c1ccc(C)cc1
REMARK SMILES IDX 6 1 7 2 8 3 9 4 13 5 12 6 11 7 14 8 10 9 15 10 5 11 4 12
REMARK SMILES IDX 2 13 1 14 3 15
REMARK H PARENT
REMARK Flexibility Score: inf
ROOT
ATOM      1  C   UNL     1     103.775  94.451  87.913  1.00  0.00     0.012 C 
ENDROOT
BRANCH   1   2
ATOM      2  C   UNL     1     105.158  94.976  88.361  1.00  0.00     0.016 C 
ATOM      3  C   UNL     1     105.344  94.903  89.885  1.00  0.00     0.013 C 
BRANCH   2   4
ATOM      4  C   UNL     1     106.266  94.214  87.657  1.00  0.00    -0.045 A 
ATOM      5  C   UNL     1     109.423  92.073  85.627  1.00  0.00     0.044 C 
ATOM      6  C   UNL     1     108.306  92.794  86.323  1.00  0.00    -0.051 A 
ATOM      7  C   UNL     1     108.040  92.543  87.677  1.00  0.00     0.004 A 
ATOM      8  C   UNL     1     107.566  93.774  85.646  1.00  0.00     0.004 A 
ATOM      9  C   UNL     1     107.024  93.242  88.337  1.00  0.00     0.004 A 
ATOM     10  C   UNL     1     106.551  94.472  86.305  1.00  0.00     0.004 A 
ENDBRANCH   2   4
ENDBRANCH   1   2
BRANCH   1  11
ATOM     11  C   UNL     1     103.524  92.999  88.349  1.00  0.00     0.028 C 
BRANCH  11  12
ATOM     12  C   UNL     1     102.671  92.278  87.334  1.00  0.00    -0.028 C 
ATOM     13  C   UNL     1     103.159  91.532  86.319  1.00  0.00    -0.080 C 
ATOM     14  C   UNL     1     104.644  91.394  86.069  1.00  0.00     0.039 C 
ATOM     15  C   UNL     1     102.185  90.835  85.406  1.00  0.00     0.039 C 
ENDBRANCH  11  12
ENDBRANCH   1  11
TORSDOF 4
ENDMDL
MODEL 8
REMARK VINA RESULT:    -4.912      6.559     10.063
REMARK INTER + INTRA:          -6.816
REMARK INTER:                  -5.342
REMARK INTRA:                  -1.474
REMARK UNBOUND:                -0.756
REMARK SMILES CC(C)=CCC[C@@H](C)c1ccc(C)cc1
REMARK SMILES IDX 6 1 7 2 8 3 9 4 13 5 12 6 11 7 14 8 10 9 15 10 5 11 4 12
REMARK SMILES IDX 2 13 1 14 3 15
REMARK H PARENT
REMARK Flexibility Score: inf
ROOT
ATOM      1  C   UNL     1      98.972  93.010  96.694  1.00  0.00     0.012 C 
ENDROOT
BRANCH   1   2
ATOM      2  C   UNL     1      99.349  93.634  98.057  1.00  0.00     0.016 C 
ATOM      3  C   UNL     1      98.948  92.739  99.240  1.00  0.00     0.013 C 
BRANCH   2   4
ATOM      4  C   UNL     1     100.835  93.939  98.106  1.00  0.00    -0.045 A 
ATOM      5  C   UNL     1     105.059  94.836  98.267  1.00  0.00     0.044 C 
ATOM      6  C   UNL     1     103.592  94.531  98.181  1.00  0.00    -0.051 A 
ATOM      7  C   UNL     1     103.157  93.224  97.917  1.00  0.00     0.004 A 
ATOM      8  C   UNL     1     102.645  95.535  98.431  1.00  0.00     0.004 A 
ATOM      9  C   UNL     1     101.791  92.931  97.873  1.00  0.00     0.004 A 
ATOM     10  C   UNL     1     101.279  95.243  98.387  1.00  0.00     0.004 A 
ENDBRANCH   2   4
ENDBRANCH   1   2
BRANCH   1  11
ATOM     11  C   UNL     1      99.377  93.895  95.506  1.00  0.00     0.028 C 
BRANCH  11  12
ATOM     12  C   UNL     1     100.281  93.140  94.563  1.00  0.00    -0.028 C 
ATOM     13  C   UNL     1     101.521  93.543  94.208  1.00  0.00    -0.080 C 
ATOM     14  C   UNL     1     102.108  94.848  94.694  1.00  0.00     0.039 C 
ATOM     15  C   UNL     1     102.326  92.664  93.288  1.00  0.00     0.039 C 
ENDBRANCH  11  12
ENDBRANCH   1  11
TORSDOF 4
ENDMDL
MODEL 9
REMARK VINA RESULT:    -4.812      7.044     11.368
REMARK INTER + INTRA:          -6.693
REMARK INTER:                  -5.562
REMARK INTRA:                  -1.131
REMARK UNBOUND:                -0.756
REMARK SMILES CC(C)=CCC[C@@H](C)c1ccc(C)cc1
REMARK SMILES IDX 6 1 7 2 8 3 9 4 13 5 12 6 11 7 14 8 10 9 15 10 5 11 4 12
REMARK SMILES IDX 2 13 1 14 3 15
REMARK H PARENT
REMARK Flexibility Score: inf
ROOT
ATOM      1  C   UNL     1     101.004  93.623  98.064  1.00  0.00     0.012 C 
ENDROOT
BRANCH   1   2
ATOM      2  C   UNL     1      99.737  92.772  97.819  1.00  0.00     0.016 C 
ATOM      3  C   UNL     1      99.158  92.198  99.122  1.00  0.00     0.013 C 
BRANCH   2   4
ATOM      4  C   UNL     1      98.685  93.588  97.089  1.00  0.00    -0.045 A 
ATOM      5  C   UNL     1      95.719  95.926  94.992  1.00  0.00     0.044 C 
ATOM      6  C   UNL     1      96.742  95.129  95.747  1.00  0.00    -0.051 A 
ATOM      7  C   UNL     1      96.390  93.905  96.334  1.00  0.00     0.004 A 
ATOM      8  C   UNL     1      98.072  95.568  95.812  1.00  0.00     0.004 A 
ATOM      9  C   UNL     1      97.351  93.143  97.006  1.00  0.00     0.004 A 
ATOM     10  C   UNL     1      99.033  94.807  96.483  1.00  0.00     0.004 A 
ENDBRANCH   2   4
ENDBRANCH   1   2
BRANCH   1  11
ATOM     11  C   UNL     1     102.234  93.078  97.324  1.00  0.00     0.028 C 
BRANCH  11  12
ATOM     12  C   UNL     1     102.663  94.028  96.233  1.00  0.00    -0.028 C 
ATOM     13  C   UNL     1     102.300  93.916  94.936  1.00  0.00    -0.080 C 
ATOM     14  C   UNL     1     101.454  92.767  94.439  1.00  0.00     0.039 C 
ATOM     15  C   UNL     1     102.772  94.966  93.964  1.00  0.00     0.039 C 
ENDBRANCH  11  12
ENDBRANCH   1  11
TORSDOF 4
ENDMDL
