MODEL 1
REMARK VINA RESULT:    -4.789      0.000      0.000
REMARK INTER + INTRA:          -7.295
REMARK INTER:                  -6.609
REMARK INTRA:                  -0.686
REMARK UNBOUND:                -0.686
REMARK SMILES CCCCc1cccc(O)c1CCCC
REMARK SMILES IDX 5 1 11 2 9 3 8 4 7 5 6 6 4 7 3 8 2 9 1 10 12 11 13 12 14 13
REMARK SMILES IDX 15 14 10 15
REMARK H PARENT 10 16
REMARK Flexibility Score: inf
ROOT
ATOM      1  C   UNL     1     -32.420 -21.896 -34.833  1.00  0.00    -0.041 A 
ATOM      2  C   UNL     1     -32.816 -22.560 -36.030  1.00  0.00    -0.003 A 
ATOM      3  C   UNL     1     -33.617 -21.864 -36.965  1.00  0.00     0.119 A 
ATOM      4  C   UNL     1     -34.015 -20.546 -36.716  1.00  0.00     0.046 A 
ATOM      5  C   UNL     1     -33.617 -19.900 -35.549  1.00  0.00     0.004 A 
ATOM      6  C   UNL     1     -32.821 -20.566 -34.619  1.00  0.00     0.004 A 
ENDROOT
BRANCH   1   7
ATOM      7  C   UNL     1     -31.514 -22.531 -33.798  1.00  0.00     0.036 C 
BRANCH   7   8
ATOM      8  C   UNL     1     -30.635 -21.472 -33.124  1.00  0.00     0.004 C 
BRANCH   8   9
ATOM      9  C   UNL     1     -30.397 -21.813 -31.649  1.00  0.00    -0.003 C 
ATOM     10  C   UNL     1     -30.780 -20.645 -30.744  1.00  0.00     0.004 C 
ENDBRANCH   8   9
ENDBRANCH   7   8
ENDBRANCH   1   7
BRANCH   2  11
ATOM     11  C   UNL     1     -32.424 -23.996 -36.337  1.00  0.00     0.040 C 
BRANCH  11  12
ATOM     12  C   UNL     1     -31.105 -24.088 -37.124  1.00  0.00     0.005 C 
BRANCH  12  13
ATOM     13  C   UNL     1     -31.168 -25.113 -38.264  1.00  0.00    -0.003 C 
ATOM     14  C   UNL     1     -32.313 -26.098 -38.053  1.00  0.00     0.004 C 
ENDBRANCH  12  13
ENDBRANCH  11  12
ENDBRANCH   2  11
BRANCH   3  15
ATOM     15  O   UNL     1     -34.016 -22.487 -38.149  1.00  0.00    -0.508 OA
ATOM     16  H   UNL     1     -34.837 -23.080 -38.189  1.00  0.00     0.293 HD
ENDBRANCH   3  15
TORSDOF 7
ENDMDL
MODEL 2
REMARK VINA RESULT:    -4.388      1.422      5.251
REMARK INTER + INTRA:          -6.741
REMARK INTER:                  -6.140
REMARK INTRA:                  -0.602
REMARK UNBOUND:                -0.686
REMARK SMILES CCCCc1cccc(O)c1CCCC
REMARK SMILES IDX 5 1 11 2 9 3 8 4 7 5 6 6 4 7 3 8 2 9 1 10 12 11 13 12 14 13
REMARK SMILES IDX 15 14 10 15
REMARK H PARENT 10 16
REMARK Flexibility Score: inf
ROOT
ATOM      1  C   UNL     1     -32.185 -23.180 -37.181  1.00  0.00    -0.041 A 
ATOM      2  C   UNL     1     -32.663 -22.498 -36.024  1.00  0.00    -0.003 A 
ATOM      3  C   UNL     1     -33.586 -21.439 -36.186  1.00  0.00     0.119 A 
ATOM      4  C   UNL     1     -34.020 -21.066 -37.464  1.00  0.00     0.046 A 
ATOM      5  C   UNL     1     -33.556 -21.741 -38.589  1.00  0.00     0.004 A 
ATOM      6  C   UNL     1     -32.653 -22.793 -38.450  1.00  0.00     0.004 A 
ENDROOT
BRANCH   1   7
ATOM      7  C   UNL     1     -31.244 -24.364 -37.111  1.00  0.00     0.036 C 
BRANCH   7   8
ATOM      8  C   UNL     1     -31.454 -25.295 -38.311  1.00  0.00     0.004 C 
BRANCH   8   9
ATOM      9  C   UNL     1     -32.472 -26.393 -37.983  1.00  0.00    -0.003 C 
ATOM     10  C   UNL     1     -32.140 -27.689 -38.718  1.00  0.00     0.004 C 
ENDBRANCH   8   9
ENDBRANCH   7   8
ENDBRANCH   1   7
BRANCH   2  11
ATOM     11  C   UNL     1     -32.208 -22.855 -34.618  1.00  0.00     0.040 C 
BRANCH  11  12
ATOM     12  C   UNL     1     -30.927 -22.106 -34.211  1.00  0.00     0.005 C 
BRANCH  12  13
ATOM     13  C   UNL     1     -30.894 -21.765 -32.715  1.00  0.00    -0.003 C 
ATOM     14  C   UNL     1     -29.503 -21.306 -32.288  1.00  0.00     0.004 C 
ENDBRANCH  12  13
ENDBRANCH  11  12
ENDBRANCH   2  11
BRANCH   3  15
ATOM     15  O   UNL     1     -34.076 -20.757 -35.071  1.00  0.00    -0.508 OA
ATOM     16  H   UNL     1     -34.816 -20.070 -35.150  1.00  0.00     0.293 HD
ENDBRANCH   3  15
TORSDOF 7
ENDMDL
MODEL 3
REMARK VINA RESULT:    -4.009      1.470      5.034
REMARK INTER + INTRA:          -6.218
REMARK INTER:                  -5.613
REMARK INTRA:                  -0.605
REMARK UNBOUND:                -0.686
REMARK SMILES CCCCc1cccc(O)c1CCCC
REMARK SMILES IDX 5 1 11 2 9 3 8 4 7 5 6 6 4 7 3 8 2 9 1 10 12 11 13 12 14 13
REMARK SMILES IDX 15 14 10 15
REMARK H PARENT 10 16
REMARK Flexibility Score: inf
ROOT
ATOM      1  C   UNL     1     -32.642 -22.848 -36.152  1.00  0.00    -0.041 A 
ATOM      2  C   UNL     1     -32.409 -22.009 -35.024  1.00  0.00    -0.003 A 
ATOM      3  C   UNL     1     -32.984 -20.716 -35.001  1.00  0.00     0.119 A 
ATOM      4  C   UNL     1     -33.767 -20.271 -36.071  1.00  0.00     0.046 A 
ATOM      5  C   UNL     1     -33.999 -21.099 -37.166  1.00  0.00     0.004 A 
ATOM      6  C   UNL     1     -33.448 -22.378 -37.204  1.00  0.00     0.004 A 
ENDROOT
BRANCH   1   7
ATOM      7  C   UNL     1     -32.123 -24.267 -36.246  1.00  0.00     0.036 C 
BRANCH   7   8
ATOM      8  C   UNL     1     -31.115 -24.401 -37.392  1.00  0.00     0.004 C 
BRANCH   8   9
ATOM      9  C   UNL     1     -31.692 -25.241 -38.537  1.00  0.00    -0.003 C 
ATOM     10  C   UNL     1     -32.470 -26.441 -38.003  1.00  0.00     0.004 C 
ENDBRANCH   8   9
ENDBRANCH   7   8
ENDBRANCH   1   7
BRANCH   2  11
ATOM     11  C   UNL     1     -31.550 -22.442 -33.846  1.00  0.00     0.040 C 
BRANCH  11  12
ATOM     12  C   UNL     1     -30.181 -21.740 -33.831  1.00  0.00     0.005 C 
BRANCH  12  13
ATOM     13  C   UNL     1     -29.804 -21.212 -32.441  1.00  0.00    -0.003 C 
ATOM     14  C   UNL     1     -30.397 -22.087 -31.341  1.00  0.00     0.004 C 
ENDBRANCH  12  13
ENDBRANCH  11  12
ENDBRANCH   2  11
BRANCH   3  15
ATOM     15  O   UNL     1     -32.777 -19.875 -33.907  1.00  0.00    -0.508 OA
ATOM     16  H   UNL     1     -31.862 -19.767 -33.484  1.00  0.00     0.293 HD
ENDBRANCH   3  15
TORSDOF 7
ENDMDL
MODEL 4
REMARK VINA RESULT:    -2.854      3.307      6.898
REMARK INTER + INTRA:          -4.625
REMARK INTER:                  -4.627
REMARK INTRA:                   0.002
REMARK UNBOUND:                -0.686
REMARK SMILES CCCCc1cccc(O)c1CCCC
REMARK SMILES IDX 5 1 11 2 9 3 8 4 7 5 6 6 4 7 3 8 2 9 1 10 12 11 13 12 14 13
REMARK SMILES IDX 15 14 10 15
REMARK H PARENT 10 16
REMARK Flexibility Score: inf
ROOT
ATOM      1  C   UNL     1     -30.034 -21.628 -32.837  1.00  0.00    -0.041 A 
ATOM      2  C   UNL     1     -29.709 -21.374 -31.473  1.00  0.00    -0.003 A 
ATOM      3  C   UNL     1     -28.643 -20.492 -31.176  1.00  0.00     0.119 A 
ATOM      4  C   UNL     1     -27.921 -19.881 -32.207  1.00  0.00     0.046 A 
ATOM      5  C   UNL     1     -28.250 -20.126 -33.537  1.00  0.00     0.004 A 
ATOM      6  C   UNL     1     -29.301 -20.986 -33.850  1.00  0.00     0.004 A 
ENDROOT
BRANCH   1   7
ATOM      7  C   UNL     1     -31.192 -22.507 -33.259  1.00  0.00     0.036 C 
BRANCH   7   8
ATOM      8  C   UNL     1     -31.832 -21.979 -34.549  1.00  0.00     0.004 C 
BRANCH   8   9
ATOM      9  C   UNL     1     -31.969 -23.095 -35.591  1.00  0.00    -0.003 C 
ATOM     10  C   UNL     1     -33.393 -23.170 -36.134  1.00  0.00     0.004 C 
ENDBRANCH   8   9
ENDBRANCH   7   8
ENDBRANCH   1   7
BRANCH   2  11
ATOM     11  C   UNL     1     -30.453 -22.028 -30.319  1.00  0.00     0.040 C 
BRANCH  11  12
ATOM     12  C   UNL     1     -30.856 -21.015 -29.234  1.00  0.00     0.005 C 
BRANCH  12  13
ATOM     13  C   UNL     1     -31.752 -19.893 -29.778  1.00  0.00    -0.003 C 
ATOM     14  C   UNL     1     -33.101 -19.875 -29.066  1.00  0.00     0.004 C 
ENDBRANCH  12  13
ENDBRANCH  11  12
ENDBRANCH   2  11
BRANCH   3  15
ATOM     15  O   UNL     1     -28.306 -20.221 -29.849  1.00  0.00    -0.508 OA
ATOM     16  H   UNL     1     -28.234 -19.272 -29.501  1.00  0.00     0.293 HD
ENDBRANCH   3  15
TORSDOF 7
ENDMDL
MODEL 5
REMARK VINA RESULT:    -2.214      2.230      4.587
REMARK INTER + INTRA:          -3.741
REMARK INTER:                  -3.077
REMARK INTRA:                  -0.664
REMARK UNBOUND:                -0.686
REMARK SMILES CCCCc1cccc(O)c1CCCC
REMARK SMILES IDX 5 1 11 2 9 3 8 4 7 5 6 6 4 7 3 8 2 9 1 10 12 11 13 12 14 13
REMARK SMILES IDX 15 14 10 15
REMARK H PARENT 10 16
REMARK Flexibility Score: inf
ROOT
ATOM      1  C   UNL     1     -31.173 -20.689 -33.308  1.00  0.00    -0.041 A 
ATOM      2  C   UNL     1     -31.311 -22.084 -33.051  1.00  0.00    -0.003 A 
ATOM      3  C   UNL     1     -30.779 -22.615 -31.852  1.00  0.00     0.119 A 
ATOM      4  C   UNL     1     -30.128 -21.782 -30.936  1.00  0.00     0.046 A 
ATOM      5  C   UNL     1     -30.005 -20.419 -31.189  1.00  0.00     0.004 A 
ATOM      6  C   UNL     1     -30.528 -19.875 -32.360  1.00  0.00     0.004 A 
ENDROOT
BRANCH   1   7
ATOM      7  C   UNL     1     -31.758 -20.014 -34.530  1.00  0.00     0.036 C 
BRANCH   7   8
ATOM      8  C   UNL     1     -33.279 -19.876 -34.398  1.00  0.00     0.004 C 
BRANCH   8   9
ATOM      9  C   UNL     1     -33.953 -19.876 -35.775  1.00  0.00    -0.003 C 
ATOM     10  C   UNL     1     -33.914 -21.264 -36.408  1.00  0.00     0.004 C 
ENDBRANCH   8   9
ENDBRANCH   7   8
ENDBRANCH   1   7
BRANCH   2  11
ATOM     11  C   UNL     1     -31.994 -23.031 -34.024  1.00  0.00     0.040 C 
BRANCH  11  12
ATOM     12  C   UNL     1     -31.145 -23.292 -35.280  1.00  0.00     0.005 C 
BRANCH  12  13
ATOM     13  C   UNL     1     -31.892 -24.116 -36.337  1.00  0.00    -0.003 C 
ATOM     14  C   UNL     1     -31.392 -23.790 -37.741  1.00  0.00     0.004 C 
ENDBRANCH  12  13
ENDBRANCH  11  12
ENDBRANCH   2  11
BRANCH   3  15
ATOM     15  O   UNL     1     -30.904 -23.976 -31.571  1.00  0.00    -0.508 OA
ATOM     16  H   UNL     1     -30.173 -24.491 -31.095  1.00  0.00     0.293 HD
ENDBRANCH   3  15
TORSDOF 7
ENDMDL
MODEL 6
REMARK VINA RESULT:    -1.892      2.606      5.200
REMARK INTER + INTRA:          -3.297
REMARK INTER:                  -3.486
REMARK INTRA:                   0.189
REMARK UNBOUND:                -0.686
REMARK SMILES CCCCc1cccc(O)c1CCCC
REMARK SMILES IDX 5 1 11 2 9 3 8 4 7 5 6 6 4 7 3 8 2 9 1 10 12 11 13 12 14 13
REMARK SMILES IDX 15 14 10 15
REMARK H PARENT 10 16
REMARK Flexibility Score: inf
ROOT
ATOM      1  C   UNL     1     -30.159 -20.032 -30.996  1.00  0.00    -0.041 A 
ATOM      2  C   UNL     1     -30.142 -20.216 -32.409  1.00  0.00    -0.003 A 
ATOM      3  C   UNL     1     -28.899 -20.220 -33.084  1.00  0.00     0.119 A 
ATOM      4  C   UNL     1     -27.706 -20.045 -32.373  1.00  0.00     0.046 A 
ATOM      5  C   UNL     1     -27.729 -19.875 -30.991  1.00  0.00     0.004 A 
ATOM      6  C   UNL     1     -28.943 -19.876 -30.307  1.00  0.00     0.004 A 
ENDROOT
BRANCH   1   7
ATOM      7  C   UNL     1     -31.430 -20.071 -30.174  1.00  0.00     0.036 C 
BRANCH   7   8
ATOM      8  C   UNL     1     -31.472 -21.330 -29.300  1.00  0.00     0.004 C 
BRANCH   8   9
ATOM      9  C   UNL     1     -30.300 -22.263 -29.622  1.00  0.00    -0.003 C 
ATOM     10  C   UNL     1     -30.727 -23.376 -30.575  1.00  0.00     0.004 C 
ENDBRANCH   8   9
ENDBRANCH   7   8
ENDBRANCH   1   7
BRANCH   2  11
ATOM     11  C   UNL     1     -31.412 -20.392 -33.226  1.00  0.00     0.040 C 
BRANCH  11  12
ATOM     12  C   UNL     1     -31.475 -21.762 -33.922  1.00  0.00     0.005 C 
BRANCH  12  13
ATOM     13  C   UNL     1     -32.594 -21.843 -34.968  1.00  0.00    -0.003 C 
ATOM     14  C   UNL     1     -32.570 -23.183 -35.696  1.00  0.00     0.004 C 
ENDBRANCH  12  13
ENDBRANCH  11  12
ENDBRANCH   2  11
BRANCH   3  15
ATOM     15  O   UNL     1     -28.852 -20.404 -34.466  1.00  0.00    -0.508 OA
ATOM     16  H   UNL     1     -28.734 -19.624 -35.103  1.00  0.00     0.293 HD
ENDBRANCH   3  15
TORSDOF 7
ENDMDL
