MODEL 1
REMARK VINA RESULT:    -7.412      0.000      0.000
REMARK INTER + INTRA:          -9.170
REMARK INTER:                  -9.145
REMARK INTRA:                  -0.024
REMARK UNBOUND:                -0.024
REMARK SMILES O=c1c(O)c(-c2cc(O)c(O)c(O)c2)oc2cc(O)cc(O)c12
REMARK SMILES IDX 5 1 3 2 2 3 1 4 23 5 21 6 20 7 18 8 17 9 16 10 15 11 6 12
REMARK SMILES IDX 7 13 8 14 14 15 10 16 12 17 9 18 11 20 13 22 4 24 22 26
REMARK SMILES IDX 19 28
REMARK H PARENT 9 19 11 21 13 23 4 25 22 27 19 29
REMARK Flexibility Score: inf
ROOT
ATOM      1  C   UNL     1     -14.917   7.695  -5.250  1.00  0.00     0.180 A 
ATOM      2  C   UNL     1     -15.877   8.055  -4.284  1.00  0.00     0.208 A 
ATOM      3  C   UNL     1     -16.077   9.415  -4.002  1.00  0.00     0.238 A 
ATOM      4  O   UNL     1     -16.942   9.750  -3.146  1.00  0.00    -0.285 OA
ATOM      5  C   UNL     1     -15.306  10.387  -4.670  1.00  0.00     0.111 A 
ATOM      6  C   UNL     1     -15.443  11.777  -4.439  1.00  0.00     0.134 A 
ATOM      7  C   UNL     1     -14.631  12.682  -5.139  1.00  0.00     0.093 A 
ATOM      8  C   UNL     1     -13.684  12.224  -6.062  1.00  0.00     0.123 A 
ATOM      9  C   UNL     1     -13.545  10.854  -6.292  1.00  0.00     0.094 A 
ATOM     10  C   UNL     1     -14.347   9.937  -5.607  1.00  0.00     0.146 A 
ATOM     11  O   UNL     1     -14.197   8.639  -5.850  1.00  0.00    -0.452 OA
ENDROOT
BRANCH   1  12
ATOM     12  C   UNL     1     -14.662   6.283  -5.617  1.00  0.00     0.029 A 
ATOM     13  C   UNL     1     -14.371   5.351  -4.608  1.00  0.00     0.062 A 
ATOM     14  C   UNL     1     -14.105   4.014  -4.932  1.00  0.00     0.162 A 
ATOM     15  C   UNL     1     -14.647   5.868  -6.959  1.00  0.00     0.062 A 
ATOM     16  C   UNL     1     -14.112   3.600  -6.270  1.00  0.00     0.200 A 
ATOM     17  C   UNL     1     -14.380   4.531  -7.287  1.00  0.00     0.162 A 
BRANCH  14  18
ATOM     18  O   UNL     1     -13.832   3.088  -3.926  1.00  0.00    -0.504 OA
ATOM     19  H   UNL     1     -14.456   2.313  -3.733  1.00  0.00     0.293 HD
ENDBRANCH  14  18
BRANCH  16  20
ATOM     20  O   UNL     1     -13.848   2.264  -6.571  1.00  0.00    -0.502 OA
ATOM     21  H   UNL     1     -14.009   1.878  -7.494  1.00  0.00     0.293 HD
ENDBRANCH  16  20
BRANCH  17  22
ATOM     22  O   UNL     1     -14.375   4.126  -8.622  1.00  0.00    -0.504 OA
ATOM     23  H   UNL     1     -13.565   3.682  -9.038  1.00  0.00     0.293 HD
ENDBRANCH  17  22
ENDBRANCH   1  12
BRANCH   2  24
ATOM     24  O   UNL     1     -16.594   7.070  -3.600  1.00  0.00    -0.502 OA
ATOM     25  H   UNL     1     -16.165   6.472  -2.905  1.00  0.00     0.293 HD
ENDBRANCH   2  24
BRANCH   6  26
ATOM     26  O   UNL     1     -16.377  12.265  -3.524  1.00  0.00    -0.507 OA
ATOM     27  H   UNL     1     -17.280  12.618  -3.821  1.00  0.00     0.293 HD
ENDBRANCH   6  26
BRANCH   8  28
ATOM     28  O   UNL     1     -12.876  13.121  -6.756  1.00  0.00    -0.508 OA
ATOM     29  H   UNL     1     -13.262  13.947  -7.199  1.00  0.00     0.293 HD
ENDBRANCH   8  28
TORSDOF 7
ENDMDL
MODEL 2
REMARK VINA RESULT:    -7.229      1.184      2.801
REMARK INTER + INTRA:          -8.944
REMARK INTER:                  -8.956
REMARK INTRA:                   0.011
REMARK UNBOUND:                -0.024
REMARK SMILES O=c1c(O)c(-c2cc(O)c(O)c(O)c2)oc2cc(O)cc(O)c12
REMARK SMILES IDX 5 1 3 2 2 3 1 4 23 5 21 6 20 7 18 8 17 9 16 10 15 11 6 12
REMARK SMILES IDX 7 13 8 14 14 15 10 16 12 17 9 18 11 20 13 22 4 24 22 26
REMARK SMILES IDX 19 28
REMARK H PARENT 9 19 11 21 13 23 4 25 22 27 19 29
REMARK Flexibility Score: inf
ROOT
ATOM      1  C   UNL     1     -14.575   8.050  -5.541  1.00  0.00     0.180 A 
ATOM      2  C   UNL     1     -13.764   8.977  -6.224  1.00  0.00     0.208 A 
ATOM      3  C   UNL     1     -13.887  10.341  -5.916  1.00  0.00     0.238 A 
ATOM      4  O   UNL     1     -13.158  11.180  -6.514  1.00  0.00    -0.285 OA
ATOM      5  C   UNL     1     -14.826  10.756  -4.951  1.00  0.00     0.111 A 
ATOM      6  C   UNL     1     -15.015  12.111  -4.587  1.00  0.00     0.134 A 
ATOM      7  C   UNL     1     -15.979  12.445  -3.623  1.00  0.00     0.093 A 
ATOM      8  C   UNL     1     -16.756  11.450  -3.018  1.00  0.00     0.123 A 
ATOM      9  C   UNL     1     -16.574  10.113  -3.375  1.00  0.00     0.094 A 
ATOM     10  C   UNL     1     -15.618   9.760  -4.331  1.00  0.00     0.146 A 
ATOM     11  O   UNL     1     -15.461   8.479  -4.647  1.00  0.00    -0.452 OA
ENDROOT
BRANCH   1  12
ATOM     12  C   UNL     1     -14.490   6.594  -5.796  1.00  0.00     0.029 A 
ATOM     13  C   UNL     1     -14.346   5.711  -4.713  1.00  0.00     0.062 A 
ATOM     14  C   UNL     1     -14.242   4.331  -4.930  1.00  0.00     0.162 A 
ATOM     15  C   UNL     1     -14.492   6.079  -7.103  1.00  0.00     0.062 A 
ATOM     16  C   UNL     1     -14.266   3.821  -6.234  1.00  0.00     0.200 A 
ATOM     17  C   UNL     1     -14.387   4.698  -7.325  1.00  0.00     0.162 A 
BRANCH  14  18
ATOM     18  O   UNL     1     -14.114   3.457  -3.851  1.00  0.00    -0.504 OA
ATOM     19  H   UNL     1     -13.278   2.901  -3.715  1.00  0.00     0.293 HD
ENDBRANCH  14  18
BRANCH  16  20
ATOM     20  O   UNL     1     -14.164   2.444  -6.429  1.00  0.00    -0.502 OA
ATOM     21  H   UNL     1     -13.683   2.046  -7.227  1.00  0.00     0.293 HD
ENDBRANCH  16  20
BRANCH  17  22
ATOM     22  O   UNL     1     -14.397   4.196  -8.626  1.00  0.00    -0.504 OA
ATOM     23  H   UNL     1     -14.431   4.809  -9.432  1.00  0.00     0.293 HD
ENDBRANCH  17  22
ENDBRANCH   1  12
BRANCH   2  24
ATOM     24  O   UNL     1     -12.875   8.545  -7.212  1.00  0.00    -0.502 OA
ATOM     25  H   UNL     1     -12.663   7.566  -7.359  1.00  0.00     0.293 HD
ENDBRANCH   2  24
BRANCH   6  26
ATOM     26  O   UNL     1     -14.256  13.125  -5.172  1.00  0.00    -0.507 OA
ATOM     27  H   UNL     1     -13.329  12.950  -5.544  1.00  0.00     0.293 HD
ENDBRANCH   6  26
BRANCH   8  28
ATOM     28  O   UNL     1     -17.714  11.781  -2.062  1.00  0.00    -0.508 OA
ATOM     29  H   UNL     1     -18.479  12.411  -2.274  1.00  0.00     0.293 HD
ENDBRANCH   8  28
TORSDOF 7
ENDMDL
MODEL 3
REMARK VINA RESULT:    -7.124      1.178      3.296
REMARK INTER + INTRA:          -8.814
REMARK INTER:                  -8.863
REMARK INTRA:                   0.048
REMARK UNBOUND:                -0.024
REMARK SMILES O=c1c(O)c(-c2cc(O)c(O)c(O)c2)oc2cc(O)cc(O)c12
REMARK SMILES IDX 5 1 3 2 2 3 1 4 23 5 21 6 20 7 18 8 17 9 16 10 15 11 6 12
REMARK SMILES IDX 7 13 8 14 14 15 10 16 12 17 9 18 11 20 13 22 4 24 22 26
REMARK SMILES IDX 19 28
REMARK H PARENT 9 19 11 21 13 23 4 25 22 27 19 29
REMARK Flexibility Score: inf
ROOT
ATOM      1  C   UNL     1     -14.507   8.035  -5.562  1.00  0.00     0.180 A 
ATOM      2  C   UNL     1     -13.742   8.961  -6.298  1.00  0.00     0.208 A 
ATOM      3  C   UNL     1     -13.887  10.330  -6.025  1.00  0.00     0.238 A 
ATOM      4  O   UNL     1     -13.199  11.168  -6.670  1.00  0.00    -0.285 OA
ATOM      5  C   UNL     1     -14.804  10.751  -5.040  1.00  0.00     0.111 A 
ATOM      6  C   UNL     1     -15.013  12.111  -4.708  1.00  0.00     0.134 A 
ATOM      7  C   UNL     1     -15.951  12.450  -3.722  1.00  0.00     0.093 A 
ATOM      8  C   UNL     1     -16.685  11.456  -3.063  1.00  0.00     0.123 A 
ATOM      9  C   UNL     1     -16.482  10.114  -3.388  1.00  0.00     0.094 A 
ATOM     10  C   UNL     1     -15.550   9.755  -4.366  1.00  0.00     0.146 A 
ATOM     11  O   UNL     1     -15.373   8.470  -4.651  1.00  0.00    -0.452 OA
ENDROOT
BRANCH   1  12
ATOM     12  C   UNL     1     -14.395   6.575  -5.779  1.00  0.00     0.029 A 
ATOM     13  C   UNL     1     -14.436   6.067  -7.087  1.00  0.00     0.062 A 
ATOM     14  C   UNL     1     -14.354   4.687  -7.317  1.00  0.00     0.162 A 
ATOM     15  C   UNL     1     -14.308   5.680  -4.699  1.00  0.00     0.062 A 
ATOM     16  C   UNL     1     -14.246   3.800  -6.238  1.00  0.00     0.200 A 
ATOM     17  C   UNL     1     -14.227   4.298  -4.925  1.00  0.00     0.162 A 
BRANCH  14  18
ATOM     18  O   UNL     1     -14.380   4.188  -8.619  1.00  0.00    -0.504 OA
ATOM     19  H   UNL     1     -13.760   3.442  -8.914  1.00  0.00     0.293 HD
ENDBRANCH  14  18
BRANCH  16  20
ATOM     20  O   UNL     1     -14.162   2.431  -6.488  1.00  0.00    -0.502 OA
ATOM     21  H   UNL     1     -14.436   2.027  -7.376  1.00  0.00     0.293 HD
ENDBRANCH  16  20
BRANCH  17  22
ATOM     22  O   UNL     1     -14.133   3.418  -3.847  1.00  0.00    -0.504 OA
ATOM     23  H   UNL     1     -14.008   2.422  -3.985  1.00  0.00     0.293 HD
ENDBRANCH  17  22
ENDBRANCH   1  12
BRANCH   2  24
ATOM     24  O   UNL     1     -12.876   8.521  -7.303  1.00  0.00    -0.502 OA
ATOM     25  H   UNL     1     -11.917   8.259  -7.115  1.00  0.00     0.293 HD
ENDBRANCH   2  24
BRANCH   6  26
ATOM     26  O   UNL     1     -14.298  13.125  -5.347  1.00  0.00    -0.507 OA
ATOM     27  H   UNL     1     -13.871  12.985  -6.256  1.00  0.00     0.293 HD
ENDBRANCH   6  26
BRANCH   8  28
ATOM     28  O   UNL     1     -17.617  11.792  -2.085  1.00  0.00    -0.508 OA
ATOM     29  H   UNL     1     -18.090  12.688  -2.090  1.00  0.00     0.293 HD
ENDBRANCH   8  28
TORSDOF 7
ENDMDL
MODEL 4
REMARK VINA RESULT:    -6.331      2.455      8.438
REMARK INTER + INTRA:          -7.835
REMARK INTER:                  -7.792
REMARK INTRA:                  -0.043
REMARK UNBOUND:                -0.024
REMARK SMILES O=c1c(O)c(-c2cc(O)c(O)c(O)c2)oc2cc(O)cc(O)c12
REMARK SMILES IDX 5 1 3 2 2 3 1 4 23 5 21 6 20 7 18 8 17 9 16 10 15 11 6 12
REMARK SMILES IDX 7 13 8 14 14 15 10 16 12 17 9 18 11 20 13 22 4 24 22 26
REMARK SMILES IDX 19 28
REMARK H PARENT 9 19 11 21 13 23 4 25 22 27 19 29
REMARK Flexibility Score: inf
ROOT
ATOM      1  C   UNL     1     -14.588   4.317  -5.972  1.00  0.00     0.180 A 
ATOM      2  C   UNL     1     -13.826   4.021  -7.120  1.00  0.00     0.208 A 
ATOM      3  C   UNL     1     -13.549   2.679  -7.423  1.00  0.00     0.238 A 
ATOM      4  O   UNL     1     -12.876   2.402  -8.454  1.00  0.00    -0.285 OA
ATOM      5  C   UNL     1     -14.018   1.661  -6.569  1.00  0.00     0.111 A 
ATOM      6  C   UNL     1     -13.778   0.285  -6.801  1.00  0.00     0.134 A 
ATOM      7  C   UNL     1     -14.271  -0.669  -5.898  1.00  0.00     0.093 A 
ATOM      8  C   UNL     1     -14.997  -0.274  -4.768  1.00  0.00     0.123 A 
ATOM      9  C   UNL     1     -15.236   1.082  -4.536  1.00  0.00     0.094 A 
ATOM     10  C   UNL     1     -14.754   2.048  -5.425  1.00  0.00     0.146 A 
ATOM     11  O   UNL     1     -15.001   3.330  -5.182  1.00  0.00    -0.452 OA
ENDROOT
BRANCH   1  12
ATOM     12  C   UNL     1     -14.938   5.706  -5.597  1.00  0.00     0.029 A 
ATOM     13  C   UNL     1     -15.540   6.546  -6.547  1.00  0.00     0.062 A 
ATOM     14  C   UNL     1     -15.861   7.870  -6.223  1.00  0.00     0.162 A 
ATOM     15  C   UNL     1     -14.628   6.220  -4.327  1.00  0.00     0.062 A 
ATOM     16  C   UNL     1     -15.569   8.372  -4.948  1.00  0.00     0.200 A 
ATOM     17  C   UNL     1     -14.946   7.545  -3.998  1.00  0.00     0.162 A 
BRANCH  14  18
ATOM     18  O   UNL     1     -16.472   8.697  -7.165  1.00  0.00    -0.504 OA
ATOM     19  H   UNL     1     -17.153   8.337  -7.824  1.00  0.00     0.293 HD
ENDBRANCH  14  18
BRANCH  16  20
ATOM     20  O   UNL     1     -15.899   9.692  -4.644  1.00  0.00    -0.502 OA
ATOM     21  H   UNL     1     -16.379   9.944  -3.788  1.00  0.00     0.293 HD
ENDBRANCH  16  20
BRANCH  17  22
ATOM     22  O   UNL     1     -14.641   8.045  -2.732  1.00  0.00    -0.504 OA
ATOM     23  H   UNL     1     -14.522   9.038  -2.568  1.00  0.00     0.293 HD
ENDBRANCH  17  22
ENDBRANCH   1  12
BRANCH   2  24
ATOM     24  O   UNL     1     -13.331   5.052  -7.923  1.00  0.00    -0.502 OA
ATOM     25  H   UNL     1     -12.838   4.876  -8.789  1.00  0.00     0.293 HD
ENDBRANCH   2  24
BRANCH   6  26
ATOM     26  O   UNL     1     -13.057  -0.141  -7.917  1.00  0.00    -0.507 OA
ATOM     27  H   UNL     1     -12.442  -0.946  -7.880  1.00  0.00     0.293 HD
ENDBRANCH   6  26
BRANCH   8  28
ATOM     28  O   UNL     1     -15.486  -1.220  -3.871  1.00  0.00    -0.508 OA
ATOM     29  H   UNL     1     -14.869  -1.725  -3.245  1.00  0.00     0.293 HD
ENDBRANCH   8  28
TORSDOF 7
ENDMDL
MODEL 5
REMARK VINA RESULT:    -6.296      2.433      8.132
REMARK INTER + INTRA:          -7.792
REMARK INTER:                  -7.965
REMARK INTRA:                   0.172
REMARK UNBOUND:                -0.024
REMARK SMILES O=c1c(O)c(-c2cc(O)c(O)c(O)c2)oc2cc(O)cc(O)c12
REMARK SMILES IDX 5 1 3 2 2 3 1 4 23 5 21 6 20 7 18 8 17 9 16 10 15 11 6 12
REMARK SMILES IDX 7 13 8 14 14 15 10 16 12 17 9 18 11 20 13 22 4 24 22 26
REMARK SMILES IDX 19 28
REMARK H PARENT 9 19 11 21 13 23 4 25 22 27 19 29
REMARK Flexibility Score: inf
ROOT
ATOM      1  C   UNL     1     -14.393   4.522  -6.108  1.00  0.00     0.180 A 
ATOM      2  C   UNL     1     -13.966   4.240  -7.421  1.00  0.00     0.208 A 
ATOM      3  C   UNL     1     -13.611   2.923  -7.750  1.00  0.00     0.238 A 
ATOM      4  O   UNL     1     -13.238   2.657  -8.926  1.00  0.00    -0.285 OA
ATOM      5  C   UNL     1     -13.667   1.918  -6.763  1.00  0.00     0.111 A 
ATOM      6  C   UNL     1     -13.321   0.568  -7.013  1.00  0.00     0.134 A 
ATOM      7  C   UNL     1     -13.395  -0.372  -5.974  1.00  0.00     0.093 A 
ATOM      8  C   UNL     1     -13.806   0.012  -4.692  1.00  0.00     0.123 A 
ATOM      9  C   UNL     1     -14.147   1.342  -4.442  1.00  0.00     0.094 A 
ATOM     10  C   UNL     1     -14.083   2.293  -5.464  1.00  0.00     0.146 A 
ATOM     11  O   UNL     1     -14.419   3.551  -5.199  1.00  0.00    -0.452 OA
ENDROOT
BRANCH   1  12
ATOM     12  C   UNL     1     -14.802   5.882  -5.689  1.00  0.00     0.029 A 
ATOM     13  C   UNL     1     -14.606   6.281  -4.358  1.00  0.00     0.062 A 
ATOM     14  C   UNL     1     -15.004   7.555  -3.931  1.00  0.00     0.162 A 
ATOM     15  C   UNL     1     -15.437   6.762  -6.581  1.00  0.00     0.062 A 
ATOM     16  C   UNL     1     -15.618   8.437  -4.830  1.00  0.00     0.200 A 
ATOM     17  C   UNL     1     -15.839   8.037  -6.159  1.00  0.00     0.162 A 
BRANCH  14  18
ATOM     18  O   UNL     1     -14.794   7.953  -2.612  1.00  0.00    -0.504 OA
ATOM     19  H   UNL     1     -14.619   8.922  -2.371  1.00  0.00     0.293 HD
ENDBRANCH  14  18
BRANCH  16  20
ATOM     20  O   UNL     1     -16.005   9.701  -4.388  1.00  0.00    -0.502 OA
ATOM     21  H   UNL     1     -16.013   9.949  -3.406  1.00  0.00     0.293 HD
ENDBRANCH  16  20
BRANCH  17  22
ATOM     22  O   UNL     1     -16.461   8.907  -7.054  1.00  0.00    -0.504 OA
ATOM     23  H   UNL     1     -16.754   9.836  -6.775  1.00  0.00     0.293 HD
ENDBRANCH  17  22
ENDBRANCH   1  12
BRANCH   2  24
ATOM     24  O   UNL     1     -13.872   5.264  -8.367  1.00  0.00    -0.502 OA
ATOM     25  H   UNL     1     -13.015   5.779  -8.525  1.00  0.00     0.293 HD
ENDBRANCH   2  24
BRANCH   6  26
ATOM     26  O   UNL     1     -12.907   0.155  -8.280  1.00  0.00    -0.507 OA
ATOM     27  H   UNL     1     -13.374   0.471  -9.122  1.00  0.00     0.293 HD
ENDBRANCH   6  26
BRANCH   8  28
ATOM     28  O   UNL     1     -13.878  -0.921  -3.661  1.00  0.00    -0.508 OA
ATOM     29  H   UNL     1     -13.595  -1.884  -3.797  1.00  0.00     0.293 HD
ENDBRANCH   8  28
TORSDOF 7
ENDMDL
MODEL 6
REMARK VINA RESULT:    -6.246      1.675      7.649
REMARK INTER + INTRA:          -7.731
REMARK INTER:                  -7.549
REMARK INTRA:                  -0.182
REMARK UNBOUND:                -0.024
REMARK SMILES O=c1c(O)c(-c2cc(O)c(O)c(O)c2)oc2cc(O)cc(O)c12
REMARK SMILES IDX 5 1 3 2 2 3 1 4 23 5 21 6 20 7 18 8 17 9 16 10 15 11 6 12
REMARK SMILES IDX 7 13 8 14 14 15 10 16 12 17 9 18 11 20 13 22 4 24 22 26
REMARK SMILES IDX 19 28
REMARK H PARENT 9 19 11 21 13 23 4 25 22 27 19 29
REMARK Flexibility Score: inf
ROOT
ATOM      1  C   UNL     1     -14.140   5.788  -5.393  1.00  0.00     0.180 A 
ATOM      2  C   UNL     1     -14.198   5.465  -6.763  1.00  0.00     0.208 A 
ATOM      3  C   UNL     1     -13.994   4.133  -7.156  1.00  0.00     0.238 A 
ATOM      4  O   UNL     1     -14.055   3.831  -8.380  1.00  0.00    -0.285 OA
ATOM      5  C   UNL     1     -13.718   3.154  -6.181  1.00  0.00     0.111 A 
ATOM      6  C   UNL     1     -13.496   1.791  -6.494  1.00  0.00     0.134 A 
ATOM      7  C   UNL     1     -13.217   0.877  -5.466  1.00  0.00     0.093 A 
ATOM      8  C   UNL     1     -13.154   1.301  -4.134  1.00  0.00     0.123 A 
ATOM      9  C   UNL     1     -13.372   2.643  -3.821  1.00  0.00     0.094 A 
ATOM     10  C   UNL     1     -13.654   3.569  -4.830  1.00  0.00     0.146 A 
ATOM     11  O   UNL     1     -13.862   4.839  -4.503  1.00  0.00    -0.452 OA
ENDROOT
BRANCH   1  12
ATOM     12  C   UNL     1     -14.363   7.165  -4.899  1.00  0.00     0.029 A 
ATOM     13  C   UNL     1     -15.492   7.441  -4.110  1.00  0.00     0.062 A 
ATOM     14  C   UNL     1     -15.736   8.741  -3.648  1.00  0.00     0.162 A 
ATOM     15  C   UNL     1     -13.500   8.217  -5.250  1.00  0.00     0.062 A 
ATOM     16  C   UNL     1     -14.862   9.781  -3.984  1.00  0.00     0.200 A 
ATOM     17  C   UNL     1     -13.742   9.520  -4.791  1.00  0.00     0.162 A 
BRANCH  14  18
ATOM     18  O   UNL     1     -16.851   9.007  -2.854  1.00  0.00    -0.504 OA
ATOM     19  H   UNL     1     -17.790   8.987  -3.233  1.00  0.00     0.293 HD
ENDBRANCH  14  18
BRANCH  16  20
ATOM     20  O   UNL     1     -15.121  11.068  -3.512  1.00  0.00    -0.502 OA
ATOM     21  H   UNL     1     -15.932  11.598  -3.808  1.00  0.00     0.293 HD
ENDBRANCH  16  20
BRANCH  17  22
ATOM     22  O   UNL     1     -12.875  10.556  -5.139  1.00  0.00    -0.504 OA
ATOM     23  H   UNL     1     -13.164  11.526  -5.095  1.00  0.00     0.293 HD
ENDBRANCH  17  22
ENDBRANCH   1  12
BRANCH   2  24
ATOM     24  O   UNL     1     -14.425   6.464  -7.714  1.00  0.00    -0.502 OA
ATOM     25  H   UNL     1     -14.688   6.254  -8.668  1.00  0.00     0.293 HD
ENDBRANCH   2  24
BRANCH   6  26
ATOM     26  O   UNL     1     -13.551   1.339  -7.813  1.00  0.00    -0.507 OA
ATOM     27  H   UNL     1     -12.898   0.650  -8.168  1.00  0.00     0.293 HD
ENDBRANCH   6  26
BRANCH   8  28
ATOM     28  O   UNL     1     -12.877   0.394  -3.113  1.00  0.00    -0.508 OA
ATOM     29  H   UNL     1     -13.425   0.372  -2.261  1.00  0.00     0.293 HD
ENDBRANCH   8  28
TORSDOF 7
ENDMDL
MODEL 7
REMARK VINA RESULT:    -5.857      1.848      3.842
REMARK INTER + INTRA:          -7.252
REMARK INTER:                  -7.648
REMARK INTRA:                   0.397
REMARK UNBOUND:                -0.024
REMARK SMILES O=c1c(O)c(-c2cc(O)c(O)c(O)c2)oc2cc(O)cc(O)c12
REMARK SMILES IDX 5 1 3 2 2 3 1 4 23 5 21 6 20 7 18 8 17 9 16 10 15 11 6 12
REMARK SMILES IDX 7 13 8 14 14 15 10 16 12 17 9 18 11 20 13 22 4 24 22 26
REMARK SMILES IDX 19 28
REMARK H PARENT 9 19 11 21 13 23 4 25 22 27 19 29
REMARK Flexibility Score: inf
ROOT
ATOM      1  C   UNL     1     -14.339   5.151  -5.364  1.00  0.00     0.180 A 
ATOM      2  C   UNL     1     -13.693   5.638  -6.517  1.00  0.00     0.208 A 
ATOM      3  C   UNL     1     -13.562   7.025  -6.686  1.00  0.00     0.238 A 
ATOM      4  O   UNL     1     -12.975   7.472  -7.710  1.00  0.00    -0.285 OA
ATOM      5  C   UNL     1     -14.093   7.899  -5.717  1.00  0.00     0.111 A 
ATOM      6  C   UNL     1     -14.006   9.309  -5.815  1.00  0.00     0.134 A 
ATOM      7  C   UNL     1     -14.569  10.112  -4.811  1.00  0.00     0.093 A 
ATOM      8  C   UNL     1     -15.216   9.532  -3.714  1.00  0.00     0.123 A 
ATOM      9  C   UNL     1     -15.304   8.143  -3.613  1.00  0.00     0.094 A 
ATOM     10  C   UNL     1     -14.748   7.326  -4.601  1.00  0.00     0.146 A 
ATOM     11  O   UNL     1     -14.841   6.006  -4.477  1.00  0.00    -0.452 OA
ENDROOT
BRANCH   1  12
ATOM     12  C   UNL     1     -14.499   3.702  -5.105  1.00  0.00     0.029 A 
ATOM     13  C   UNL     1     -14.833   3.266  -3.813  1.00  0.00     0.062 A 
ATOM     14  C   UNL     1     -14.969   1.899  -3.537  1.00  0.00     0.162 A 
ATOM     15  C   UNL     1     -14.268   2.749  -6.111  1.00  0.00     0.062 A 
ATOM     16  C   UNL     1     -14.758   0.954  -4.549  1.00  0.00     0.200 A 
ATOM     17  C   UNL     1     -14.402   1.380  -5.839  1.00  0.00     0.162 A 
BRANCH  14  18
ATOM     18  O   UNL     1     -15.315   1.471  -2.256  1.00  0.00    -0.504 OA
ATOM     19  H   UNL     1     -14.824   0.710  -1.800  1.00  0.00     0.293 HD
ENDBRANCH  14  18
BRANCH  16  20
ATOM     20  O   UNL     1     -14.902  -0.402  -4.255  1.00  0.00    -0.502 OA
ATOM     21  H   UNL     1     -15.659  -0.958  -4.634  1.00  0.00     0.293 HD
ENDBRANCH  16  20
BRANCH  17  22
ATOM     22  O   UNL     1     -14.178   0.442  -6.846  1.00  0.00    -0.504 OA
ATOM     23  H   UNL     1     -14.541  -0.502  -6.783  1.00  0.00     0.293 HD
ENDBRANCH  17  22
ENDBRANCH   1  12
BRANCH   2  24
ATOM     24  O   UNL     1     -13.219   4.751  -7.488  1.00  0.00    -0.502 OA
ATOM     25  H   UNL     1     -13.559   4.759  -8.441  1.00  0.00     0.293 HD
ENDBRANCH   2  24
BRANCH   6  26
ATOM     26  O   UNL     1     -13.368   9.916  -6.897  1.00  0.00    -0.507 OA
ATOM     27  H   UNL     1     -12.380  10.139  -6.876  1.00  0.00     0.293 HD
ENDBRANCH   6  26
BRANCH   8  28
ATOM     28  O   UNL     1     -15.776  10.329  -2.718  1.00  0.00    -0.508 OA
ATOM     29  H   UNL     1     -16.475   9.966  -2.079  1.00  0.00     0.293 HD
ENDBRANCH   8  28
TORSDOF 7
ENDMDL
MODEL 8
REMARK VINA RESULT:    -5.718      1.671      2.515
REMARK INTER + INTRA:          -7.080
REMARK INTER:                  -6.996
REMARK INTRA:                  -0.083
REMARK UNBOUND:                -0.024
REMARK SMILES O=c1c(O)c(-c2cc(O)c(O)c(O)c2)oc2cc(O)cc(O)c12
REMARK SMILES IDX 5 1 3 2 2 3 1 4 23 5 21 6 20 7 18 8 17 9 16 10 15 11 6 12
REMARK SMILES IDX 7 13 8 14 14 15 10 16 12 17 9 18 11 20 13 22 4 24 22 26
REMARK SMILES IDX 19 28
REMARK H PARENT 9 19 11 21 13 23 4 25 22 27 19 29
REMARK Flexibility Score: inf
ROOT
ATOM      1  C   UNL     1     -15.136   7.249  -5.762  1.00  0.00     0.180 A 
ATOM      2  C   UNL     1     -16.459   7.560  -6.134  1.00  0.00     0.208 A 
ATOM      3  C   UNL     1     -16.964   8.835  -5.836  1.00  0.00     0.238 A 
ATOM      4  O   UNL     1     -18.144   9.129  -6.174  1.00  0.00    -0.285 OA
ATOM      5  C   UNL     1     -16.153   9.766  -5.158  1.00  0.00     0.111 A 
ATOM      6  C   UNL     1     -16.588  11.069  -4.817  1.00  0.00     0.134 A 
ATOM      7  C   UNL     1     -15.722  11.936  -4.132  1.00  0.00     0.093 A 
ATOM      8  C   UNL     1     -14.431  11.523  -3.781  1.00  0.00     0.123 A 
ATOM      9  C   UNL     1     -13.998  10.239  -4.116  1.00  0.00     0.094 A 
ATOM     10  C   UNL     1     -14.845   9.362  -4.799  1.00  0.00     0.146 A 
ATOM     11  O   UNL     1     -14.404   8.148  -5.110  1.00  0.00    -0.452 OA
ENDROOT
BRANCH   1  12
ATOM     12  C   UNL     1     -14.525   5.933  -6.058  1.00  0.00     0.029 A 
ATOM     13  C   UNL     1     -14.502   5.466  -7.382  1.00  0.00     0.062 A 
ATOM     14  C   UNL     1     -13.948   4.215  -7.686  1.00  0.00     0.162 A 
ATOM     15  C   UNL     1     -14.019   5.115  -5.035  1.00  0.00     0.062 A 
ATOM     16  C   UNL     1     -13.426   3.412  -6.664  1.00  0.00     0.200 A 
ATOM     17  C   UNL     1     -13.465   3.861  -5.333  1.00  0.00     0.162 A 
BRANCH  14  18
ATOM     18  O   UNL     1     -13.915   3.762  -9.004  1.00  0.00    -0.504 OA
ATOM     19  H   UNL     1     -14.742   3.772  -9.590  1.00  0.00     0.293 HD
ENDBRANCH  14  18
BRANCH  16  20
ATOM     20  O   UNL     1     -12.877   2.171  -6.986  1.00  0.00    -0.502 OA
ATOM     21  H   UNL     1     -12.519   1.964  -7.911  1.00  0.00     0.293 HD
ENDBRANCH  16  20
BRANCH  17  22
ATOM     22  O   UNL     1     -12.958   3.059  -4.312  1.00  0.00    -0.504 OA
ATOM     23  H   UNL     1     -11.963   2.901  -4.205  1.00  0.00     0.293 HD
ENDBRANCH  17  22
ENDBRANCH   1  12
BRANCH   2  24
ATOM     24  O   UNL     1     -17.259   6.602  -6.762  1.00  0.00    -0.502 OA
ATOM     25  H   UNL     1     -17.592   5.775  -6.282  1.00  0.00     0.293 HD
ENDBRANCH   2  24
BRANCH   6  26
ATOM     26  O   UNL     1     -17.870  11.509  -5.152  1.00  0.00    -0.507 OA
ATOM     27  H   UNL     1     -18.041  12.455  -5.471  1.00  0.00     0.293 HD
ENDBRANCH   6  26
BRANCH   8  28
ATOM     28  O   UNL     1     -13.572  12.382  -3.101  1.00  0.00    -0.508 OA
ATOM     29  H   UNL     1     -12.884  12.032  -2.443  1.00  0.00     0.293 HD
ENDBRANCH   8  28
TORSDOF 7
ENDMDL
MODEL 9
REMARK VINA RESULT:    -5.336      1.641      7.725
REMARK INTER + INTRA:          -6.609
REMARK INTER:                  -6.408
REMARK INTRA:                  -0.200
REMARK UNBOUND:                -0.024
REMARK SMILES O=c1c(O)c(-c2cc(O)c(O)c(O)c2)oc2cc(O)cc(O)c12
REMARK SMILES IDX 5 1 3 2 2 3 1 4 23 5 21 6 20 7 18 8 17 9 16 10 15 11 6 12
REMARK SMILES IDX 7 13 8 14 14 15 10 16 12 17 9 18 11 20 13 22 4 24 22 26
REMARK SMILES IDX 19 28
REMARK H PARENT 9 19 11 21 13 23 4 25 22 27 19 29
REMARK Flexibility Score: inf
ROOT
ATOM      1  C   UNL     1     -14.214   5.796  -5.437  1.00  0.00     0.180 A 
ATOM      2  C   UNL     1     -14.229   5.434  -6.799  1.00  0.00     0.208 A 
ATOM      3  C   UNL     1     -13.982   4.097  -7.148  1.00  0.00     0.238 A 
ATOM      4  O   UNL     1     -14.003   3.759  -8.363  1.00  0.00    -0.285 OA
ATOM      5  C   UNL     1     -13.706   3.152  -6.139  1.00  0.00     0.111 A 
ATOM      6  C   UNL     1     -13.443   1.788  -6.407  1.00  0.00     0.134 A 
ATOM      7  C   UNL     1     -13.167   0.911  -5.347  1.00  0.00     0.093 A 
ATOM      8  C   UNL     1     -13.149   1.373  -4.025  1.00  0.00     0.123 A 
ATOM      9  C   UNL     1     -13.408   2.717  -3.757  1.00  0.00     0.094 A 
ATOM     10  C   UNL     1     -13.687   3.607  -4.799  1.00  0.00     0.146 A 
ATOM     11  O   UNL     1     -13.936   4.880  -4.513  1.00  0.00    -0.452 OA
ENDROOT
BRANCH   1  12
ATOM     12  C   UNL     1     -14.485   7.180  -4.989  1.00  0.00     0.029 A 
ATOM     13  C   UNL     1     -13.571   8.198  -5.306  1.00  0.00     0.062 A 
ATOM     14  C   UNL     1     -13.793   9.513  -4.875  1.00  0.00     0.162 A 
ATOM     15  C   UNL     1     -15.607   7.489  -4.203  1.00  0.00     0.062 A 
ATOM     16  C   UNL     1     -14.925   9.819  -4.109  1.00  0.00     0.200 A 
ATOM     17  C   UNL     1     -15.833   8.803  -3.768  1.00  0.00     0.162 A 
BRANCH  14  18
ATOM     18  O   UNL     1     -12.891  10.523  -5.205  1.00  0.00    -0.504 OA
ATOM     19  H   UNL     1     -12.476  10.584  -6.128  1.00  0.00     0.293 HD
ENDBRANCH  14  18
BRANCH  16  20
ATOM     20  O   UNL     1     -15.130  11.134  -3.692  1.00  0.00    -0.502 OA
ATOM     21  H   UNL     1     -15.962  11.416  -3.188  1.00  0.00     0.293 HD
ENDBRANCH  16  20
BRANCH  17  22
ATOM     22  O   UNL     1     -16.954   9.100  -2.994  1.00  0.00    -0.504 OA
ATOM     23  H   UNL     1     -17.847   8.651  -3.158  1.00  0.00     0.293 HD
ENDBRANCH  17  22
ENDBRANCH   1  12
BRANCH   2  24
ATOM     24  O   UNL     1     -14.456   6.399  -7.783  1.00  0.00    -0.502 OA
ATOM     25  H   UNL     1     -14.536   6.165  -8.764  1.00  0.00     0.293 HD
ENDBRANCH   2  24
BRANCH   6  26
ATOM     26  O   UNL     1     -13.452   1.297  -7.713  1.00  0.00    -0.507 OA
ATOM     27  H   UNL     1     -12.614   1.282  -8.283  1.00  0.00     0.293 HD
ENDBRANCH   6  26
BRANCH   8  28
ATOM     28  O   UNL     1     -12.875   0.503  -2.973  1.00  0.00    -0.508 OA
ATOM     29  H   UNL     1     -12.483  -0.417  -3.135  1.00  0.00     0.293 HD
ENDBRANCH   8  28
TORSDOF 7
ENDMDL
