MODEL 1
REMARK VINA RESULT:    16.409      0.000      0.000
REMARK INTER + INTRA:          28.257
REMARK INTER:                  22.165
REMARK INTRA:                   6.092
REMARK UNBOUND:                 6.092
REMARK SMILES CC[C@H](CC[C@@H](C)[C@H]1CC[C@@H]2[C@@H]3CC(=O)C4=CC(=O)CC[C@@]4(C)[C@H]3CC[C@@]21C)C(C)C
REMARK SMILES IDX 4 1 3 2 2 3 1 4 29 5 30 6 31 7 5 8 6 9 7 10 8 11 9 12 27 13
REMARK SMILES IDX 10 14 11 15 26 16 28 17 12 18 25 19 24 20 13 21 22 22 14 23
REMARK SMILES IDX 16 24 21 25 23 26 15 27 17 28 20 29 18 30 19 31
REMARK H PARENT
REMARK Flexibility Score: inf
ROOT
ATOM      1  C   UNL     1      16.568  -5.813  15.809  1.00  0.00     0.004 C 
ENDROOT
BRANCH   1   2
ATOM      2  C   UNL     1      15.709  -4.920  16.758  1.00  0.00    -0.009 C 
BRANCH   2   3
ATOM      3  C   UNL     1      14.255  -4.767  16.212  1.00  0.00     0.000 C 
ATOM      4  C   UNL     1      13.287  -4.024  17.144  1.00  0.00     0.004 C 
ENDBRANCH   2   3
BRANCH   2   5
ATOM      5  C   UNL     1      15.784  -5.397  18.252  1.00  0.00    -0.014 C 
ATOM      6  C   UNL     1      15.782  -4.200  19.229  1.00  0.00     0.007 C 
ATOM      7  C   UNL     1      14.612  -6.323  18.641  1.00  0.00     0.007 C 
ENDBRANCH   2   5
ENDBRANCH   1   2
BRANCH   1   8
ATOM      8  C   UNL     1      17.798  -5.062  15.255  1.00  0.00     0.004 C 
BRANCH   8   9
ATOM      9  C   UNL     1      17.842  -5.002  13.694  1.00  0.00    -0.011 C 
ATOM     10  C   UNL     1      19.307  -4.746  13.277  1.00  0.00     0.008 C 
BRANCH   9  11
ATOM     11  C   UNL     1      17.287  -6.314  13.023  1.00  0.00    -0.002 C 
ATOM     12  C   UNL     1      18.294  -7.007  12.103  1.00  0.00     0.005 C 
ATOM     13  C   UNL     1      16.750  -7.471  13.957  1.00  0.00    -0.026 C 
ATOM     14  C   UNL     1      17.728  -8.393  11.879  1.00  0.00     0.005 C 
ATOM     15  C   UNL     1      17.201  -8.798  13.251  1.00  0.00    -0.001 C 
ATOM     16  C   UNL     1      15.193  -7.399  14.092  1.00  0.00     0.007 C 
ATOM     17  C   UNL     1      17.382  -7.462  15.375  1.00  0.00     0.012 C 
ATOM     18  C   UNL     1      16.114  -9.908  13.245  1.00  0.00     0.004 C 
ATOM     19  C   UNL     1      14.465  -7.960  12.859  1.00  0.00     0.005 C 
ATOM     20  C   UNL     1      14.771  -9.463  12.615  1.00  0.00     0.003 C 
ATOM     21  C   UNL     1      16.591 -11.203  12.559  1.00  0.00     0.085 C 
ATOM     22  C   UNL     1      13.609 -10.469  12.993  1.00  0.00    -0.000 C 
ATOM     23  C   UNL     1      15.500 -12.239  12.549  1.00  0.00     0.159 C 
ATOM     24  C   UNL     1      14.143 -11.913  13.059  1.00  0.00     0.005 C 
ATOM     25  C   UNL     1      12.963 -10.141  14.377  1.00  0.00     0.020 C 
ATOM     26  C   UNL     1      12.533 -10.405  11.877  1.00  0.00     0.017 C 
ATOM     27  O   UNL     1      15.761 -13.400  12.133  1.00  0.00    -0.295 OA
ATOM     28  C   UNL     1      13.436 -12.874  13.680  1.00  0.00     0.055 C 
ATOM     29  C   UNL     1      11.851 -11.132  14.764  1.00  0.00     0.081 C 
ATOM     30  C   UNL     1      12.237 -12.555  14.475  1.00  0.00     0.156 C 
ATOM     31  O   UNL     1      11.527 -13.493  14.927  1.00  0.00    -0.295 OA
ENDBRANCH   9  11
ENDBRANCH   8   9
ENDBRANCH   1   8
TORSDOF 6
ENDMDL
