MODEL 1
REMARK VINA RESULT:    -4.028      0.000      0.000
REMARK INTER + INTRA:          -4.382
REMARK INTER:                  -4.382
REMARK INTRA:                   0.000
REMARK UNBOUND:                 0.000
REMARK SMILES Cc1cc(O)c2c(c1)C(=O)c1cc(O)cc(O)c1C2=O
REMARK SMILES IDX 1 1 2 2 8 3 7 4 6 5 4 6 3 7 19 8 20 9 18 10 11 11 9 12 10 13
REMARK SMILES IDX 12 14 13 15 15 16 16 17 5 18 17 20 14 22
REMARK H PARENT 5 19 17 21 14 23
REMARK Flexibility Score: inf
ROOT
ATOM      1  C   UNL     1    -132.031  38.176  19.984  1.00  0.00     0.044 C 
ATOM      2  C   UNL     1    -130.941  38.724  19.111  1.00  0.00    -0.047 A 
ATOM      3  C   UNL     1    -129.781  37.977  18.878  1.00  0.00     0.016 A 
ATOM      4  C   UNL     1    -128.774  38.463  18.027  1.00  0.00     0.038 A 
ATOM      5  C   UNL     1    -128.943  39.706  17.376  1.00  0.00     0.076 A 
ATOM      6  C   UNL     1    -130.099  40.480  17.652  1.00  0.00     0.127 A 
ATOM      7  C   UNL     1    -131.096  39.966  18.487  1.00  0.00     0.050 A 
ATOM      8  C   UNL     1    -127.927  40.115  16.372  1.00  0.00     0.201 C 
ATOM      9  O   UNL     1    -128.264  40.841  15.398  1.00  0.00    -0.288 OA
ATOM     10  C   UNL     1    -126.566  39.518  16.412  1.00  0.00     0.076 A 
ATOM     11  C   UNL     1    -126.403  38.275  17.063  1.00  0.00     0.041 A 
ATOM     12  C   UNL     1    -127.535  37.679  17.811  1.00  0.00     0.194 C 
ATOM     13  O   UNL     1    -127.435  36.513  18.284  1.00  0.00    -0.289 OA
ATOM     14  C   UNL     1    -125.165  37.613  17.004  1.00  0.00     0.059 A 
ATOM     15  C   UNL     1    -124.089  38.182  16.319  1.00  0.00     0.120 A 
ATOM     16  C   UNL     1    -124.235  39.427  15.708  1.00  0.00     0.093 A 
ATOM     17  C   UNL     1    -125.450  40.116  15.770  1.00  0.00     0.131 A 
ENDROOT
BRANCH   6  18
ATOM     18  O   UNL     1    -130.283  41.770  17.147  1.00  0.00    -0.507 OA
ATOM     19  H   UNL     1    -131.073  42.355  17.384  1.00  0.00     0.293 HD
ENDBRANCH   6  18
BRANCH  17  20
ATOM     20  O   UNL     1    -125.494  41.397  15.215  1.00  0.00    -0.507 OA
ATOM     21  H   UNL     1    -125.613  41.573  14.227  1.00  0.00     0.293 HD
ENDBRANCH  17  20
BRANCH  15  22
ATOM     22  O   UNL     1    -122.863  37.523  16.247  1.00  0.00    -0.508 OA
ATOM     23  H   UNL     1    -122.025  37.915  16.660  1.00  0.00     0.293 HD
ENDBRANCH  15  22
TORSDOF 3
ENDMDL
MODEL 2
REMARK VINA RESULT:    -3.959     12.948     15.905
REMARK INTER + INTRA:          -4.306
REMARK INTER:                  -4.306
REMARK INTRA:                   0.000
REMARK UNBOUND:                 0.000
REMARK SMILES Cc1cc(O)c2c(c1)C(=O)c1cc(O)cc(O)c1C2=O
REMARK SMILES IDX 1 1 2 2 8 3 7 4 6 5 4 6 3 7 19 8 20 9 18 10 11 11 9 12 10 13
REMARK SMILES IDX 12 14 13 15 15 16 16 17 5 18 17 20 14 22
REMARK H PARENT 5 19 17 21 14 23
REMARK Flexibility Score: inf
ROOT
ATOM      1  C   UNL     1    -118.404  38.765   0.296  1.00  0.00     0.044 C 
ATOM      2  C   UNL     1    -119.522  39.190   1.203  1.00  0.00    -0.047 A 
ATOM      3  C   UNL     1    -120.597  38.329   1.447  1.00  0.00     0.016 A 
ATOM      4  C   UNL     1    -121.627  38.701   2.328  1.00  0.00     0.038 A 
ATOM      5  C   UNL     1    -121.565  39.944   2.998  1.00  0.00     0.076 A 
ATOM      6  C   UNL     1    -120.497  40.832   2.711  1.00  0.00     0.127 A 
ATOM      7  C   UNL     1    -119.474  40.431   1.846  1.00  0.00     0.050 A 
ATOM      8  C   UNL     1    -122.593  40.236   4.031  1.00  0.00     0.201 C 
ATOM      9  O   UNL     1    -122.306  40.976   5.010  1.00  0.00    -0.288 OA
ATOM     10  C   UNL     1    -123.889  39.509   4.009  1.00  0.00     0.076 A 
ATOM     11  C   UNL     1    -123.945  38.267   3.339  1.00  0.00     0.041 A 
ATOM     12  C   UNL     1    -122.778  37.796   2.557  1.00  0.00     0.194 C 
ATOM     13  O   UNL     1    -122.775  36.634   2.065  1.00  0.00    -0.289 OA
ATOM     14  C   UNL     1    -125.111  37.486   3.412  1.00  0.00     0.059 A 
ATOM     15  C   UNL     1    -126.222  37.936   4.131  1.00  0.00     0.120 A 
ATOM     16  C   UNL     1    -126.184  39.179   4.761  1.00  0.00     0.093 A 
ATOM     17  C   UNL     1    -125.043  39.985   4.685  1.00  0.00     0.131 A 
ENDROOT
BRANCH   6  18
ATOM     18  O   UNL     1    -120.427  42.125   3.235  1.00  0.00    -0.507 OA
ATOM     19  H   UNL     1    -121.166  42.547   3.781  1.00  0.00     0.293 HD
ENDBRANCH   6  18
BRANCH  17  20
ATOM     20  O   UNL     1    -125.112  41.255   5.262  1.00  0.00    -0.507 OA
ATOM     21  H   UNL     1    -124.630  42.063   4.892  1.00  0.00     0.293 HD
ENDBRANCH  17  20
BRANCH  15  22
ATOM     22  O   UNL     1    -127.375  37.158   4.217  1.00  0.00    -0.508 OA
ATOM     23  H   UNL     1    -127.683  36.579   3.444  1.00  0.00     0.293 HD
ENDBRANCH  15  22
TORSDOF 3
ENDMDL
MODEL 3
REMARK VINA RESULT:    -3.829      1.790      3.948
REMARK INTER + INTRA:          -4.165
REMARK INTER:                  -4.165
REMARK INTRA:                   0.000
REMARK UNBOUND:                 0.000
REMARK SMILES Cc1cc(O)c2c(c1)C(=O)c1cc(O)cc(O)c1C2=O
REMARK SMILES IDX 1 1 2 2 8 3 7 4 6 5 4 6 3 7 19 8 20 9 18 10 11 11 9 12 10 13
REMARK SMILES IDX 12 14 13 15 15 16 16 17 5 18 17 20 14 22
REMARK H PARENT 5 19 17 21 14 23
REMARK Flexibility Score: inf
ROOT
ATOM      1  C   UNL     1    -134.770  41.030  18.638  1.00  0.00     0.044 C 
ATOM      2  C   UNL     1    -133.475  40.273  18.658  1.00  0.00    -0.047 A 
ATOM      3  C   UNL     1    -132.360  40.765  17.971  1.00  0.00     0.016 A 
ATOM      4  C   UNL     1    -131.131  40.086  18.018  1.00  0.00     0.038 A 
ATOM      5  C   UNL     1    -131.008  38.908  18.788  1.00  0.00     0.076 A 
ATOM      6  C   UNL     1    -132.153  38.387  19.445  1.00  0.00     0.127 A 
ATOM      7  C   UNL     1    -133.360  39.092  19.399  1.00  0.00     0.050 A 
ATOM      8  C   UNL     1    -129.658  38.302  18.933  1.00  0.00     0.201 C 
ATOM      9  O   UNL     1    -129.365  37.666  19.981  1.00  0.00    -0.288 OA
ATOM     10  C   UNL     1    -128.602  38.606  17.933  1.00  0.00     0.076 A 
ATOM     11  C   UNL     1    -128.729  39.785  17.166  1.00  0.00     0.041 A 
ATOM     12  C   UNL     1    -129.964  40.599  17.262  1.00  0.00     0.194 C 
ATOM     13  O   UNL     1    -130.030  41.716  16.679  1.00  0.00    -0.289 OA
ATOM     14  C   UNL     1    -127.686  40.178  16.311  1.00  0.00     0.059 A 
ATOM     15  C   UNL     1    -126.529  39.403  16.201  1.00  0.00     0.120 A 
ATOM     16  C   UNL     1    -126.416  38.217  16.927  1.00  0.00     0.093 A 
ATOM     17  C   UNL     1    -127.449  37.793  17.769  1.00  0.00     0.131 A 
ENDROOT
BRANCH   6  18
ATOM     18  O   UNL     1    -132.145  37.166  20.123  1.00  0.00    -0.507 OA
ATOM     19  H   UNL     1    -132.968  36.593  20.250  1.00  0.00     0.293 HD
ENDBRANCH   6  18
BRANCH  17  20
ATOM     20  O   UNL     1    -127.304  36.552  18.392  1.00  0.00    -0.507 OA
ATOM     21  H   UNL     1    -126.910  35.740  17.936  1.00  0.00     0.293 HD
ENDBRANCH  17  20
BRANCH  15  22
ATOM     22  O   UNL     1    -125.486  39.795  15.363  1.00  0.00    -0.508 OA
ATOM     23  H   UNL     1    -124.518  39.617  15.603  1.00  0.00     0.293 HD
ENDBRANCH  15  22
TORSDOF 3
ENDMDL
MODEL 4
REMARK VINA RESULT:    -3.709     14.005     17.339
REMARK INTER + INTRA:          -4.034
REMARK INTER:                  -4.034
REMARK INTRA:                   0.000
REMARK UNBOUND:                 0.000
REMARK SMILES Cc1cc(O)c2c(c1)C(=O)c1cc(O)cc(O)c1C2=O
REMARK SMILES IDX 1 1 2 2 8 3 7 4 6 5 4 6 3 7 19 8 20 9 18 10 11 11 9 12 10 13
REMARK SMILES IDX 12 14 13 15 15 16 16 17 5 18 17 20 14 22
REMARK H PARENT 5 19 17 21 14 23
REMARK Flexibility Score: inf
ROOT
ATOM      1  C   UNL     1    -116.098  41.857   1.725  1.00  0.00     0.044 C 
ATOM      2  C   UNL     1    -117.322  40.989   1.735  1.00  0.00    -0.047 A 
ATOM      3  C   UNL     1    -118.449  41.368   2.472  1.00  0.00     0.016 A 
ATOM      4  C   UNL     1    -119.615  40.584   2.453  1.00  0.00     0.038 A 
ATOM      5  C   UNL     1    -119.664  39.415   1.661  1.00  0.00     0.076 A 
ATOM      6  C   UNL     1    -118.504  39.011   0.952  1.00  0.00     0.127 A 
ATOM      7  C   UNL     1    -117.362  39.818   0.971  1.00  0.00     0.050 A 
ATOM      8  C   UNL     1    -120.960  38.696   1.550  1.00  0.00     0.201 C 
ATOM      9  O   UNL     1    -121.236  38.058   0.499  1.00  0.00    -0.288 OA
ATOM     10  C   UNL     1    -122.000  38.885   2.594  1.00  0.00     0.076 A 
ATOM     11  C   UNL     1    -121.948  40.056   3.383  1.00  0.00     0.041 A 
ATOM     12  C   UNL     1    -120.793  40.976   3.262  1.00  0.00     0.194 C 
ATOM     13  O   UNL     1    -120.803  42.084   3.868  1.00  0.00    -0.289 OA
ATOM     14  C   UNL     1    -122.988  40.338   4.285  1.00  0.00     0.059 A 
ATOM     15  C   UNL     1    -124.068  39.461   4.417  1.00  0.00     0.120 A 
ATOM     16  C   UNL     1    -124.104  38.285   3.669  1.00  0.00     0.093 A 
ATOM     17  C   UNL     1    -123.071  37.971   2.781  1.00  0.00     0.131 A 
ENDROOT
BRANCH   6  18
ATOM     18  O   UNL     1    -118.430  37.808   0.246  1.00  0.00    -0.507 OA
ATOM     19  H   UNL     1    -118.831  36.941   0.576  1.00  0.00     0.293 HD
ENDBRANCH   6  18
BRANCH  17  20
ATOM     20  O   UNL     1    -123.130  36.734   2.134  1.00  0.00    -0.507 OA
ATOM     21  H   UNL     1    -123.871  36.063   2.281  1.00  0.00     0.293 HD
ENDBRANCH  17  20
BRANCH  15  22
ATOM     22  O   UNL     1    -125.109  39.744   5.301  1.00  0.00    -0.508 OA
ATOM     23  H   UNL     1    -126.067  39.488   5.091  1.00  0.00     0.293 HD
ENDBRANCH  15  22
TORSDOF 3
ENDMDL
MODEL 5
REMARK VINA RESULT:    -3.579      3.005      5.323
REMARK INTER + INTRA:          -3.892
REMARK INTER:                  -3.892
REMARK INTRA:                   0.000
REMARK UNBOUND:                 0.000
REMARK SMILES Cc1cc(O)c2c(c1)C(=O)c1cc(O)cc(O)c1C2=O
REMARK SMILES IDX 1 1 2 2 8 3 7 4 6 5 4 6 3 7 19 8 20 9 18 10 11 11 9 12 10 13
REMARK SMILES IDX 12 14 13 15 15 16 16 17 5 18 17 20 14 22
REMARK H PARENT 5 19 17 21 14 23
REMARK Flexibility Score: inf
ROOT
ATOM      1  C   UNL     1    -123.578  36.676  19.176  1.00  0.00     0.044 C 
ATOM      2  C   UNL     1    -124.014  37.646  18.118  1.00  0.00    -0.047 A 
ATOM      3  C   UNL     1    -125.334  37.639  17.656  1.00  0.00     0.016 A 
ATOM      4  C   UNL     1    -125.763  38.572  16.696  1.00  0.00     0.038 A 
ATOM      5  C   UNL     1    -124.863  39.546  16.211  1.00  0.00     0.076 A 
ATOM      6  C   UNL     1    -123.513  39.519  16.647  1.00  0.00     0.127 A 
ATOM      7  C   UNL     1    -123.115  38.594  17.618  1.00  0.00     0.050 A 
ATOM      8  C   UNL     1    -125.391  40.604  15.311  1.00  0.00     0.201 C 
ATOM      9  O   UNL     1    -124.862  41.747  15.308  1.00  0.00    -0.288 OA
ATOM     10  C   UNL     1    -126.653  40.372  14.561  1.00  0.00     0.076 A 
ATOM     11  C   UNL     1    -127.551  39.398  15.051  1.00  0.00     0.041 A 
ATOM     12  C   UNL     1    -127.156  38.537  16.190  1.00  0.00     0.194 C 
ATOM     13  O   UNL     1    -127.998  37.755  16.713  1.00  0.00    -0.289 OA
ATOM     14  C   UNL     1    -128.812  39.246  14.451  1.00  0.00     0.059 A 
ATOM     15  C   UNL     1    -129.180  40.041  13.363  1.00  0.00     0.120 A 
ATOM     16  C   UNL     1    -128.282  40.977  12.851  1.00  0.00     0.093 A 
ATOM     17  C   UNL     1    -127.013  41.133  13.417  1.00  0.00     0.131 A 
ENDROOT
BRANCH   6  18
ATOM     18  O   UNL     1    -122.533  40.366  16.125  1.00  0.00    -0.507 OA
ATOM     19  H   UNL     1    -122.209  40.323  15.168  1.00  0.00     0.293 HD
ENDBRANCH   6  18
BRANCH  17  20
ATOM     20  O   UNL     1    -126.135  42.023  12.795  1.00  0.00    -0.507 OA
ATOM     21  H   UNL     1    -125.396  42.511  13.282  1.00  0.00     0.293 HD
ENDBRANCH  17  20
BRANCH  15  22
ATOM     22  O   UNL     1    -130.436  39.902  12.773  1.00  0.00    -0.508 OA
ATOM     23  H   UNL     1    -130.549  39.876  11.766  1.00  0.00     0.293 HD
ENDBRANCH  15  22
TORSDOF 3
ENDMDL
MODEL 6
REMARK VINA RESULT:    -3.552      1.848      5.986
REMARK INTER + INTRA:          -3.864
REMARK INTER:                  -3.864
REMARK INTRA:                   0.000
REMARK UNBOUND:                 0.000
REMARK SMILES Cc1cc(O)c2c(c1)C(=O)c1cc(O)cc(O)c1C2=O
REMARK SMILES IDX 1 1 2 2 8 3 7 4 6 5 4 6 3 7 19 8 20 9 18 10 11 11 9 12 10 13
REMARK SMILES IDX 12 14 13 15 15 16 16 17 5 18 17 20 14 22
REMARK H PARENT 5 19 17 21 14 23
REMARK Flexibility Score: inf
ROOT
ATOM      1  C   UNL     1    -125.199  36.742  17.691  1.00  0.00     0.044 C 
ATOM      2  C   UNL     1    -126.421  37.609  17.596  1.00  0.00    -0.047 A 
ATOM      3  C   UNL     1    -127.539  37.342  18.392  1.00  0.00     0.016 A 
ATOM      4  C   UNL     1    -128.671  38.173  18.342  1.00  0.00     0.038 A 
ATOM      5  C   UNL     1    -128.673  39.307  17.499  1.00  0.00     0.076 A 
ATOM      6  C   UNL     1    -127.555  39.548  16.660  1.00  0.00     0.127 A 
ATOM      7  C   UNL     1    -126.433  38.717  16.743  1.00  0.00     0.050 A 
ATOM      8  C   UNL     1    -129.825  40.242  17.584  1.00  0.00     0.201 C 
ATOM      9  O   UNL     1    -129.658  41.468  17.344  1.00  0.00    -0.288 OA
ATOM     10  C   UNL     1    -131.122  39.766  18.131  1.00  0.00     0.076 A 
ATOM     11  C   UNL     1    -131.115  38.632  18.974  1.00  0.00     0.041 A 
ATOM     12  C   UNL     1    -129.863  37.864  19.166  1.00  0.00     0.194 C 
ATOM     13  O   UNL     1    -129.819  36.930  20.014  1.00  0.00    -0.289 OA
ATOM     14  C   UNL     1    -132.297  38.235  19.620  1.00  0.00     0.059 A 
ATOM     15  C   UNL     1    -133.485  38.944  19.425  1.00  0.00     0.120 A 
ATOM     16  C   UNL     1    -133.505  40.040  18.563  1.00  0.00     0.093 A 
ATOM     17  C   UNL     1    -132.347  40.443  17.892  1.00  0.00     0.131 A 
ENDROOT
BRANCH   6  18
ATOM     18  O   UNL     1    -127.528  40.573  15.712  1.00  0.00    -0.507 OA
ATOM     19  H   UNL     1    -126.920  41.378  15.776  1.00  0.00     0.293 HD
ENDBRANCH   6  18
BRANCH  17  20
ATOM     20  O   UNL     1    -132.465  41.492  16.976  1.00  0.00    -0.507 OA
ATOM     21  H   UNL     1    -133.165  42.217  17.045  1.00  0.00     0.293 HD
ENDBRANCH  17  20
BRANCH  15  22
ATOM     22  O   UNL     1    -134.657  38.561  20.074  1.00  0.00    -0.508 OA
ATOM     23  H   UNL     1    -135.444  38.175  19.565  1.00  0.00     0.293 HD
ENDBRANCH  15  22
TORSDOF 3
ENDMDL
MODEL 7
REMARK VINA RESULT:    -3.544     12.383     14.662
REMARK INTER + INTRA:          -3.855
REMARK INTER:                  -3.855
REMARK INTRA:                   0.000
REMARK UNBOUND:                 0.000
REMARK SMILES Cc1cc(O)c2c(c1)C(=O)c1cc(O)cc(O)c1C2=O
REMARK SMILES IDX 1 1 2 2 8 3 7 4 6 5 4 6 3 7 19 8 20 9 18 10 11 11 9 12 10 13
REMARK SMILES IDX 12 14 13 15 15 16 16 17 5 18 17 20 14 22
REMARK H PARENT 5 19 17 21 14 23
REMARK Flexibility Score: inf
ROOT
ATOM      1  C   UNL     1    -125.456  41.546   7.782  1.00  0.00     0.044 C 
ATOM      2  C   UNL     1    -124.764  40.994   6.571  1.00  0.00    -0.047 A 
ATOM      3  C   UNL     1    -123.419  41.292   6.331  1.00  0.00     0.016 A 
ATOM      4  C   UNL     1    -122.750  40.745   5.223  1.00  0.00     0.038 A 
ATOM      5  C   UNL     1    -123.431  39.862   4.356  1.00  0.00     0.076 A 
ATOM      6  C   UNL     1    -124.807  39.599   4.577  1.00  0.00     0.127 A 
ATOM      7  C   UNL     1    -125.446  40.140   5.698  1.00  0.00     0.050 A 
ATOM      8  C   UNL     1    -122.651  39.189   3.284  1.00  0.00     0.201 C 
ATOM      9  O   UNL     1    -122.994  38.045   2.882  1.00  0.00    -0.288 OA
ATOM     10  C   UNL     1    -121.367  39.780   2.824  1.00  0.00     0.076 A 
ATOM     11  C   UNL     1    -120.689  40.662   3.696  1.00  0.00     0.041 A 
ATOM     12  C   UNL     1    -121.333  41.092   4.959  1.00  0.00     0.194 C 
ATOM     13  O   UNL     1    -120.683  41.774   5.798  1.00  0.00    -0.289 OA
ATOM     14  C   UNL     1    -119.409  41.132   3.356  1.00  0.00     0.059 A 
ATOM     15  C   UNL     1    -118.808  40.746   2.155  1.00  0.00     0.120 A 
ATOM     16  C   UNL     1    -119.490  39.908   1.275  1.00  0.00     0.093 A 
ATOM     17  C   UNL     1    -120.773  39.443   1.580  1.00  0.00     0.131 A 
ENDROOT
BRANCH   6  18
ATOM     18  O   UNL     1    -125.583  38.838   3.699  1.00  0.00    -0.507 OA
ATOM     19  H   UNL     1    -125.872  37.888   3.889  1.00  0.00     0.293 HD
ENDBRANCH   6  18
BRANCH  17  20
ATOM     20  O   UNL     1    -121.431  38.682   0.610  1.00  0.00    -0.507 OA
ATOM     21  H   UNL     1    -122.049  37.913   0.828  1.00  0.00     0.293 HD
ENDBRANCH  17  20
BRANCH  15  22
ATOM     22  O   UNL     1    -117.533  41.200   1.821  1.00  0.00    -0.508 OA
ATOM     23  H   UNL     1    -117.395  42.062   1.306  1.00  0.00     0.293 HD
ENDBRANCH  15  22
TORSDOF 3
ENDMDL
MODEL 8
REMARK VINA RESULT:    -3.505      1.767      6.338
REMARK INTER + INTRA:          -3.812
REMARK INTER:                  -3.812
REMARK INTRA:                   0.000
REMARK UNBOUND:                 0.000
REMARK SMILES Cc1cc(O)c2c(c1)C(=O)c1cc(O)cc(O)c1C2=O
REMARK SMILES IDX 1 1 2 2 8 3 7 4 6 5 4 6 3 7 19 8 20 9 18 10 11 11 9 12 10 13
REMARK SMILES IDX 12 14 13 15 15 16 16 17 5 18 17 20 14 22
REMARK H PARENT 5 19 17 21 14 23
REMARK Flexibility Score: inf
ROOT
ATOM      1  C   UNL     1    -124.758  41.398  12.788  1.00  0.00     0.044 C 
ATOM      2  C   UNL     1    -125.485  40.825  13.969  1.00  0.00    -0.047 A 
ATOM      3  C   UNL     1    -126.858  41.041  14.125  1.00  0.00     0.016 A 
ATOM      4  C   UNL     1    -127.556  40.473  15.204  1.00  0.00     0.038 A 
ATOM      5  C   UNL     1    -126.872  39.651  16.129  1.00  0.00     0.076 A 
ATOM      6  C   UNL     1    -125.472  39.473  15.992  1.00  0.00     0.127 A 
ATOM      7  C   UNL     1    -124.803  40.033  14.899  1.00  0.00     0.050 A 
ATOM      8  C   UNL     1    -127.671  38.950  17.168  1.00  0.00     0.201 C 
ATOM      9  O   UNL     1    -127.281  37.837  17.613  1.00  0.00    -0.288 OA
ATOM     10  C   UNL     1    -129.014  39.466  17.539  1.00  0.00     0.076 A 
ATOM     11  C   UNL     1    -129.693  40.286  16.611  1.00  0.00     0.041 A 
ATOM     12  C   UNL     1    -129.004  40.733  15.379  1.00  0.00     0.194 C 
ATOM     13  O   UNL     1    -129.645  41.358  14.488  1.00  0.00    -0.289 OA
ATOM     14  C   UNL     1    -131.018  40.680  16.866  1.00  0.00     0.059 A 
ATOM     15  C   UNL     1    -131.664  40.279  18.038  1.00  0.00     0.120 A 
ATOM     16  C   UNL     1    -130.984  39.501  18.975  1.00  0.00     0.093 A 
ATOM     17  C   UNL     1    -129.658  39.114  18.755  1.00  0.00     0.131 A 
ENDROOT
BRANCH   6  18
ATOM     18  O   UNL     1    -124.703  38.779  16.930  1.00  0.00    -0.507 OA
ATOM     19  H   UNL     1    -125.087  38.358  17.766  1.00  0.00     0.293 HD
ENDBRANCH   6  18
BRANCH  17  20
ATOM     20  O   UNL     1    -129.013  38.415  19.778  1.00  0.00    -0.507 OA
ATOM     21  H   UNL     1    -129.425  37.630  20.264  1.00  0.00     0.293 HD
ENDBRANCH  17  20
BRANCH  15  22
ATOM     22  O   UNL     1    -132.982  40.656  18.288  1.00  0.00    -0.508 OA
ATOM     23  H   UNL     1    -133.714  40.516  17.601  1.00  0.00     0.293 HD
ENDBRANCH  15  22
TORSDOF 3
ENDMDL
