MODEL 1
REMARK VINA RESULT:    -5.012      0.000      0.000
REMARK INTER + INTRA:          -5.996
REMARK INTER:                  -5.744
REMARK INTRA:                  -0.252
REMARK UNBOUND:                -0.252
REMARK SMILES COc1ccc(C(C)=O)c(O)c1
REMARK SMILES IDX 6 1 10 2 12 3 3 4 4 5 5 6 7 7 8 8 9 9 11 10 2 12 1 13
REMARK H PARENT 11 11
REMARK Flexibility Score: inf
ROOT
ATOM      1  C   UNL     1      -6.913  62.066  -9.759  1.00  0.00     0.059 A 
ATOM      2  C   UNL     1      -7.060  62.477 -11.108  1.00  0.00     0.130 A 
ATOM      3  C   UNL     1      -7.766  63.649 -11.405  1.00  0.00     0.093 A 
ATOM      4  C   UNL     1      -8.361  64.410 -10.383  1.00  0.00     0.122 A 
ATOM      5  C   UNL     1      -8.239  63.984  -9.059  1.00  0.00     0.047 A 
ATOM      6  C   UNL     1      -7.523  62.827  -8.748  1.00  0.00     0.019 A 
ENDROOT
BRANCH   1   7
ATOM      7  C   UNL     1      -6.105  60.882  -9.382  1.00  0.00     0.163 C 
ATOM      8  C   UNL     1      -5.660  60.667  -7.969  1.00  0.00     0.093 C 
ATOM      9  O   UNL     1      -5.712  60.079 -10.272  1.00  0.00    -0.294 OA
ENDBRANCH   1   7
BRANCH   2  10
ATOM     10  O   UNL     1      -6.549  61.736 -12.175  1.00  0.00    -0.507 OA
ATOM     11  H   UNL     1      -5.583  61.780 -12.471  1.00  0.00     0.293 HD
ENDBRANCH   2  10
BRANCH   4  12
ATOM     12  O   UNL     1      -9.083  65.586 -10.641  1.00  0.00    -0.497 OA
ATOM     13  C   UNL     1      -8.965  66.355 -11.833  1.00  0.00     0.278 C 
ENDBRANCH   4  12
TORSDOF 3
ENDMDL
MODEL 2
REMARK VINA RESULT:    -4.967      1.088      5.090
REMARK INTER + INTRA:          -5.946
REMARK INTER:                  -5.664
REMARK INTRA:                  -0.282
REMARK UNBOUND:                -0.252
REMARK SMILES COc1ccc(C(C)=O)c(O)c1
REMARK SMILES IDX 6 1 10 2 12 3 3 4 4 5 5 6 7 7 8 8 9 9 11 10 2 12 1 13
REMARK H PARENT 11 11
REMARK Flexibility Score: inf
ROOT
ATOM      1  C   UNL     1      -8.138  64.242 -10.337  1.00  0.00     0.059 A 
ATOM      2  C   UNL     1      -7.874  63.927  -8.981  1.00  0.00     0.130 A 
ATOM      3  C   UNL     1      -7.213  62.735  -8.659  1.00  0.00     0.093 A 
ATOM      4  C   UNL     1      -6.835  61.828  -9.665  1.00  0.00     0.122 A 
ATOM      5  C   UNL     1      -7.124  62.128 -10.997  1.00  0.00     0.047 A 
ATOM      6  C   UNL     1      -7.768  63.321 -11.332  1.00  0.00     0.019 A 
ENDROOT
BRANCH   1   7
ATOM      7  C   UNL     1      -8.758  65.527 -10.739  1.00  0.00     0.163 C 
ATOM      8  C   UNL     1      -8.587  66.068 -12.124  1.00  0.00     0.093 C 
ATOM      9  O   UNL     1      -9.373  66.223  -9.886  1.00  0.00    -0.294 OA
ENDBRANCH   1   7
BRANCH   2  10
ATOM     10  O   UNL     1      -8.278  64.752  -7.929  1.00  0.00    -0.507 OA
ATOM     11  H   UNL     1      -8.475  65.738  -8.040  1.00  0.00     0.293 HD
ENDBRANCH   2  10
BRANCH   4  12
ATOM     12  O   UNL     1      -6.177  60.620  -9.382  1.00  0.00    -0.497 OA
ATOM     13  C   UNL     1      -5.649  60.272  -8.107  1.00  0.00     0.278 C 
ENDBRANCH   4  12
TORSDOF 3
ENDMDL
MODEL 3
REMARK VINA RESULT:    -4.910      1.692      2.378
REMARK INTER + INTRA:          -5.880
REMARK INTER:                  -5.581
REMARK INTRA:                  -0.299
REMARK UNBOUND:                -0.252
REMARK SMILES COc1ccc(C(C)=O)c(O)c1
REMARK SMILES IDX 6 1 10 2 12 3 3 4 4 5 5 6 7 7 8 8 9 9 11 10 2 12 1 13
REMARK H PARENT 11 11
REMARK Flexibility Score: inf
ROOT
ATOM      1  C   UNL     1      -6.657  61.886  -9.162  1.00  0.00     0.059 A 
ATOM      2  C   UNL     1      -7.003  62.829  -8.163  1.00  0.00     0.130 A 
ATOM      3  C   UNL     1      -7.812  63.924  -8.489  1.00  0.00     0.093 A 
ATOM      4  C   UNL     1      -8.261  64.119  -9.808  1.00  0.00     0.122 A 
ATOM      5  C   UNL     1      -7.892  63.204 -10.795  1.00  0.00     0.047 A 
ATOM      6  C   UNL     1      -7.100  62.099 -10.479  1.00  0.00     0.019 A 
ENDROOT
BRANCH   1   7
ATOM      7  C   UNL     1      -5.875  60.665  -8.853  1.00  0.00     0.163 C 
ATOM      8  C   UNL     1      -5.310  59.811  -9.945  1.00  0.00     0.093 C 
ATOM      9  O   UNL     1      -5.746  60.286  -7.657  1.00  0.00    -0.294 OA
ENDBRANCH   1   7
BRANCH   2  10
ATOM     10  O   UNL     1      -6.541  62.730  -6.848  1.00  0.00    -0.507 OA
ATOM     11  H   UNL     1      -6.486  61.856  -6.342  1.00  0.00     0.293 HD
ENDBRANCH   2  10
BRANCH   4  12
ATOM     12  O   UNL     1      -9.067  65.207 -10.177  1.00  0.00    -0.497 OA
ATOM     13  C   UNL     1      -8.969  65.896 -11.418  1.00  0.00     0.278 C 
ENDBRANCH   4  12
TORSDOF 3
ENDMDL
MODEL 4
REMARK VINA RESULT:    -4.885      1.830      5.147
REMARK INTER + INTRA:          -5.851
REMARK INTER:                  -5.513
REMARK INTRA:                  -0.338
REMARK UNBOUND:                -0.252
REMARK SMILES COc1ccc(C(C)=O)c(O)c1
REMARK SMILES IDX 6 1 10 2 12 3 3 4 4 5 5 6 7 7 8 8 9 9 11 10 2 12 1 13
REMARK H PARENT 11 11
REMARK Flexibility Score: inf
ROOT
ATOM      1  C   UNL     1      -7.513  64.607 -12.412  1.00  0.00     0.059 A 
ATOM      2  C   UNL     1      -7.822  64.843 -11.049  1.00  0.00     0.130 A 
ATOM      3  C   UNL     1      -7.713  63.802 -10.119  1.00  0.00     0.093 A 
ATOM      4  C   UNL     1      -7.331  62.511 -10.527  1.00  0.00     0.122 A 
ATOM      5  C   UNL     1      -7.057  62.276 -11.876  1.00  0.00     0.047 A 
ATOM      6  C   UNL     1      -7.146  63.310 -12.809  1.00  0.00     0.019 A 
ENDROOT
BRANCH   1   7
ATOM      7  C   UNL     1      -7.530  65.693 -13.421  1.00  0.00     0.163 C 
ATOM      8  C   UNL     1      -6.421  65.841 -14.416  1.00  0.00     0.093 C 
ATOM      9  O   UNL     1      -8.446  66.558 -13.398  1.00  0.00    -0.294 OA
ENDBRANCH   1   7
BRANCH   2  10
ATOM     10  O   UNL     1      -8.268  66.084 -10.587  1.00  0.00    -0.507 OA
ATOM     11  H   UNL     1      -7.667  66.892 -10.498  1.00  0.00     0.293 HD
ENDBRANCH   2  10
BRANCH   4  12
ATOM     12  O   UNL     1      -7.217  61.439  -9.628  1.00  0.00    -0.497 OA
ATOM     13  C   UNL     1      -6.038  60.661  -9.449  1.00  0.00     0.278 C 
ENDBRANCH   4  12
TORSDOF 3
ENDMDL
MODEL 5
REMARK VINA RESULT:    -4.866      1.313      4.683
REMARK INTER + INTRA:          -5.830
REMARK INTER:                  -5.519
REMARK INTRA:                  -0.311
REMARK UNBOUND:                -0.252
REMARK SMILES COc1ccc(C(C)=O)c(O)c1
REMARK SMILES IDX 6 1 10 2 12 3 3 4 4 5 5 6 7 7 8 8 9 9 11 10 2 12 1 13
REMARK H PARENT 11 11
REMARK Flexibility Score: inf
ROOT
ATOM      1  C   UNL     1      -8.283  64.736 -10.617  1.00  0.00     0.059 A 
ATOM      2  C   UNL     1      -7.650  64.039 -11.677  1.00  0.00     0.130 A 
ATOM      3  C   UNL     1      -7.077  62.784 -11.441  1.00  0.00     0.093 A 
ATOM      4  C   UNL     1      -7.091  62.217 -10.154  1.00  0.00     0.122 A 
ATOM      5  C   UNL     1      -7.689  62.920  -9.107  1.00  0.00     0.047 A 
ATOM      6  C   UNL     1      -8.279  64.165  -9.333  1.00  0.00     0.019 A 
ENDROOT
BRANCH   1   7
ATOM      7  C   UNL     1      -8.979  66.027 -10.830  1.00  0.00     0.163 C 
ATOM      8  C   UNL     1      -9.352  66.904  -9.676  1.00  0.00     0.093 C 
ATOM      9  O   UNL     1      -9.340  66.363 -11.991  1.00  0.00    -0.294 OA
ENDBRANCH   1   7
BRANCH   2  10
ATOM     10  O   UNL     1      -7.546  64.571 -12.964  1.00  0.00    -0.507 OA
ATOM     11  H   UNL     1      -6.665  64.821 -13.393  1.00  0.00     0.293 HD
ENDBRANCH   2  10
BRANCH   4  12
ATOM     12  O   UNL     1      -6.521  60.965  -9.876  1.00  0.00    -0.497 OA
ATOM     13  C   UNL     1      -5.933  60.609  -8.629  1.00  0.00     0.278 C 
ENDBRANCH   4  12
TORSDOF 3
ENDMDL
MODEL 6
REMARK VINA RESULT:    -4.709      1.759      4.745
REMARK INTER + INTRA:          -5.650
REMARK INTER:                  -5.359
REMARK INTRA:                  -0.291
REMARK UNBOUND:                -0.252
REMARK SMILES COc1ccc(C(C)=O)c(O)c1
REMARK SMILES IDX 6 1 10 2 12 3 3 4 4 5 5 6 7 7 8 8 9 9 11 10 2 12 1 13
REMARK H PARENT 11 11
REMARK Flexibility Score: inf
ROOT
ATOM      1  C   UNL     1      -7.209  63.029  -8.714  1.00  0.00     0.059 A 
ATOM      2  C   UNL     1      -7.224  62.189  -9.856  1.00  0.00     0.130 A 
ATOM      3  C   UNL     1      -6.391  61.065  -9.904  1.00  0.00     0.093 A 
ATOM      4  C   UNL     1      -5.512  60.774  -8.844  1.00  0.00     0.122 A 
ATOM      5  C   UNL     1      -5.480  61.622  -7.735  1.00  0.00     0.047 A 
ATOM      6  C   UNL     1      -6.318  62.736  -7.668  1.00  0.00     0.019 A 
ENDROOT
BRANCH   1   7
ATOM      7  C   UNL     1      -8.131  64.182  -8.575  1.00  0.00     0.163 C 
ATOM      8  C   UNL     1      -8.512  64.709  -7.227  1.00  0.00     0.093 C 
ATOM      9  O   UNL     1      -8.671  64.682  -9.599  1.00  0.00    -0.294 OA
ENDBRANCH   1   7
BRANCH   2  10
ATOM     10  O   UNL     1      -8.025  62.453 -10.969  1.00  0.00    -0.507 OA
ATOM     11  H   UNL     1      -8.803  61.870 -11.245  1.00  0.00     0.293 HD
ENDBRANCH   2  10
BRANCH   4  12
ATOM     12  O   UNL     1      -4.657  59.662  -8.857  1.00  0.00    -0.497 OA
ATOM     13  C   UNL     1      -3.454  59.582  -9.614  1.00  0.00     0.278 C 
ENDBRANCH   4  12
TORSDOF 3
ENDMDL
MODEL 7
REMARK VINA RESULT:    -4.703      1.911      2.544
REMARK INTER + INTRA:          -5.642
REMARK INTER:                  -5.302
REMARK INTRA:                  -0.340
REMARK UNBOUND:                -0.252
REMARK SMILES COc1ccc(C(C)=O)c(O)c1
REMARK SMILES IDX 6 1 10 2 12 3 3 4 4 5 5 6 7 7 8 8 9 9 11 10 2 12 1 13
REMARK H PARENT 11 11
REMARK Flexibility Score: inf
ROOT
ATOM      1  C   UNL     1      -7.154  63.156  -9.581  1.00  0.00     0.059 A 
ATOM      2  C   UNL     1      -8.163  63.959  -8.994  1.00  0.00     0.130 A 
ATOM      3  C   UNL     1      -8.806  64.939  -9.759  1.00  0.00     0.093 A 
ATOM      4  C   UNL     1      -8.440  65.161 -11.099  1.00  0.00     0.122 A 
ATOM      5  C   UNL     1      -7.424  64.388 -11.664  1.00  0.00     0.047 A 
ATOM      6  C   UNL     1      -6.787  63.396 -10.917  1.00  0.00     0.019 A 
ENDROOT
BRANCH   1   7
ATOM      7  C   UNL     1      -6.501  62.049  -8.842  1.00  0.00     0.163 C 
ATOM      8  C   UNL     1      -6.239  60.729  -9.499  1.00  0.00     0.093 C 
ATOM      9  O   UNL     1      -6.232  62.182  -7.618  1.00  0.00    -0.294 OA
ENDBRANCH   1   7
BRANCH   2  10
ATOM     10  O   UNL     1      -8.532  63.834  -7.652  1.00  0.00    -0.507 OA
ATOM     11  H   UNL     1      -8.828  62.962  -7.235  1.00  0.00     0.293 HD
ENDBRANCH   2  10
BRANCH   4  12
ATOM     12  O   UNL     1      -9.056  66.138 -11.897  1.00  0.00    -0.497 OA
ATOM     13  C   UNL     1      -8.475  66.703 -13.067  1.00  0.00     0.278 C 
ENDBRANCH   4  12
TORSDOF 3
ENDMDL
MODEL 8
REMARK VINA RESULT:    -4.410      3.164      3.722
REMARK INTER + INTRA:          -5.306
REMARK INTER:                  -4.969
REMARK INTRA:                  -0.338
REMARK UNBOUND:                -0.252
REMARK SMILES COc1ccc(C(C)=O)c(O)c1
REMARK SMILES IDX 6 1 10 2 12 3 3 4 4 5 5 6 7 7 8 8 9 9 11 10 2 12 1 13
REMARK H PARENT 11 11
REMARK Flexibility Score: inf
ROOT
ATOM      1  C   UNL     1      -5.203  63.328  -6.842  1.00  0.00     0.059 A 
ATOM      2  C   UNL     1      -4.974  63.002  -8.202  1.00  0.00     0.130 A 
ATOM      3  C   UNL     1      -6.040  63.014  -9.110  1.00  0.00     0.093 A 
ATOM      4  C   UNL     1      -7.346  63.315  -8.682  1.00  0.00     0.122 A 
ATOM      5  C   UNL     1      -7.571  63.606  -7.336  1.00  0.00     0.047 A 
ATOM      6  C   UNL     1      -6.514  63.614  -6.424  1.00  0.00     0.019 A 
ENDROOT
BRANCH   1   7
ATOM      7  C   UNL     1      -4.098  63.413  -5.858  1.00  0.00     0.163 C 
ATOM      8  C   UNL     1      -3.962  64.594  -4.948  1.00  0.00     0.093 C 
ATOM      9  O   UNL     1      -3.208  62.521  -5.832  1.00  0.00    -0.294 OA
ENDBRANCH   1   7
BRANCH   2  10
ATOM     10  O   UNL     1      -3.715  62.633  -8.681  1.00  0.00    -0.507 OA
ATOM     11  H   UNL     1      -3.403  61.673  -8.743  1.00  0.00     0.293 HD
ENDBRANCH   2  10
BRANCH   4  12
ATOM     12  O   UNL     1      -8.441  63.331  -9.560  1.00  0.00    -0.497 OA
ATOM     13  C   UNL     1      -8.649  64.314 -10.569  1.00  0.00     0.278 C 
ENDBRANCH   4  12
TORSDOF 3
ENDMDL
MODEL 9
REMARK VINA RESULT:    -4.400      2.040      2.501
REMARK INTER + INTRA:          -5.296
REMARK INTER:                  -4.954
REMARK INTRA:                  -0.342
REMARK UNBOUND:                -0.252
REMARK SMILES COc1ccc(C(C)=O)c(O)c1
REMARK SMILES IDX 6 1 10 2 12 3 3 4 4 5 5 6 7 7 8 8 9 9 11 10 2 12 1 13
REMARK H PARENT 11 11
REMARK Flexibility Score: inf
ROOT
ATOM      1  C   UNL     1      -5.934  61.764  -8.198  1.00  0.00     0.059 A 
ATOM      2  C   UNL     1      -6.725  62.365  -9.210  1.00  0.00     0.130 A 
ATOM      3  C   UNL     1      -7.576  63.428  -8.888  1.00  0.00     0.093 A 
ATOM      4  C   UNL     1      -7.683  63.890  -7.563  1.00  0.00     0.122 A 
ATOM      5  C   UNL     1      -6.925  63.275  -6.565  1.00  0.00     0.047 A 
ATOM      6  C   UNL     1      -6.059  62.225  -6.876  1.00  0.00     0.019 A 
ENDROOT
BRANCH   1   7
ATOM      7  C   UNL     1      -4.955  60.693  -8.499  1.00  0.00     0.163 C 
ATOM      8  C   UNL     1      -3.511  60.839  -8.129  1.00  0.00     0.093 C 
ATOM      9  O   UNL     1      -5.315  59.674  -9.148  1.00  0.00    -0.294 OA
ENDBRANCH   1   7
BRANCH   2  10
ATOM     10  O   UNL     1      -6.715  61.916 -10.532  1.00  0.00    -0.507 OA
ATOM     11  H   UNL     1      -6.055  61.234 -10.883  1.00  0.00     0.293 HD
ENDBRANCH   2  10
BRANCH   4  12
ATOM     12  O   UNL     1      -8.530  64.948  -7.200  1.00  0.00    -0.497 OA
ATOM     13  C   UNL     1      -8.819  66.068  -8.029  1.00  0.00     0.278 C 
ENDBRANCH   4  12
TORSDOF 3
ENDMDL
