MODEL 1
REMARK VINA RESULT:    -4.263      0.000      0.000
REMARK INTER + INTRA:          -9.527
REMARK INTER:                  -7.752
REMARK INTRA:                  -1.775
REMARK UNBOUND:                -1.775
REMARK SMILES CCCCCCCCCCCCCCCC(=O)[O-]
REMARK SMILES IDX 9 1 10 2 11 3 12 4 13 5 14 6 15 7 16 8 17 9 18 10 8 11 7 12
REMARK SMILES IDX 6 13 5 14 4 15 3 16 2 17 1 18
REMARK H PARENT
REMARK Flexibility Score: inf
ROOT
ATOM      1  C   UNL     1     -19.369  12.766  17.613  1.00  0.00     0.000 C 
ENDROOT
BRANCH   1   2
ATOM      2  C   UNL     1     -20.764  12.176  17.351  1.00  0.00     0.000 C 
BRANCH   2   3
ATOM      3  C   UNL     1     -20.904  10.736  17.877  1.00  0.00     0.000 C 
BRANCH   3   4
ATOM      4  C   UNL     1     -19.567  10.158  18.370  1.00  0.00     0.000 C 
BRANCH   4   5
ATOM      5  C   UNL     1     -19.447   8.647  18.107  1.00  0.00     0.000 C 
BRANCH   5   6
ATOM      6  C   UNL     1     -18.195   8.021  18.746  1.00  0.00     0.006 C 
BRANCH   6   7
ATOM      7  C   UNL     1     -18.372   6.549  19.159  1.00  0.00     0.053 C 
BRANCH   7   8
ATOM      8  C   UNL     1     -17.078   5.795  19.178  1.00  0.00     0.041 C 
ATOM      9  O   UNL     1     -16.506   5.492  18.098  1.00  0.00    -0.550 OA
ATOM     10  O   UNL     1     -16.481   5.460  20.387  1.00  0.00    -0.550 OA
ENDBRANCH   7   8
ENDBRANCH   6   7
ENDBRANCH   5   6
ENDBRANCH   4   5
ENDBRANCH   3   4
ENDBRANCH   2   3
ENDBRANCH   1   2
BRANCH   1  11
ATOM     11  C   UNL     1     -18.722  13.346  16.347  1.00  0.00     0.000 C 
BRANCH  11  12
ATOM     12  C   UNL     1     -19.703  13.324  15.169  1.00  0.00    -0.000 C 
BRANCH  12  13
ATOM     13  C   UNL     1     -19.136  12.512  13.995  1.00  0.00    -0.000 C 
BRANCH  13  14
ATOM     14  C   UNL     1     -18.290  11.314  14.457  1.00  0.00    -0.000 C 
BRANCH  14  15
ATOM     15  C   UNL     1     -19.123  10.031  14.619  1.00  0.00    -0.000 C 
BRANCH  15  16
ATOM     16  C   UNL     1     -20.406  10.049  13.772  1.00  0.00    -0.000 C 
BRANCH  16  17
ATOM     17  C   UNL     1     -20.298   9.166  12.520  1.00  0.00    -0.003 C 
ATOM     18  C   UNL     1     -20.097  10.013  11.267  1.00  0.00     0.004 C 
ENDBRANCH  16  17
ENDBRANCH  15  16
ENDBRANCH  14  15
ENDBRANCH  13  14
ENDBRANCH  12  13
ENDBRANCH  11  12
ENDBRANCH   1  11
TORSDOF 14
ENDMDL
MODEL 2
REMARK VINA RESULT:    -4.244      1.515      3.119
REMARK INTER + INTRA:          -9.492
REMARK INTER:                  -7.944
REMARK INTRA:                  -1.547
REMARK UNBOUND:                -1.775
REMARK SMILES CCCCCCCCCCCCCCCC(=O)[O-]
REMARK SMILES IDX 9 1 10 2 11 3 12 4 13 5 14 6 15 7 16 8 17 9 18 10 8 11 7 12
REMARK SMILES IDX 6 13 5 14 4 15 3 16 2 17 1 18
REMARK H PARENT
REMARK Flexibility Score: inf
ROOT
ATOM      1  C   UNL     1     -21.841  10.225  17.716  1.00  0.00     0.000 C 
ENDROOT
BRANCH   1   2
ATOM      2  C   UNL     1     -22.608   9.088  18.409  1.00  0.00     0.000 C 
BRANCH   2   3
ATOM      3  C   UNL     1     -22.515   7.758  17.640  1.00  0.00     0.000 C 
BRANCH   3   4
ATOM      4  C   UNL     1     -21.461   6.809  18.235  1.00  0.00     0.000 C 
BRANCH   4   5
ATOM      5  C   UNL     1     -20.076   6.990  17.591  1.00  0.00     0.000 C 
BRANCH   5   6
ATOM      6  C   UNL     1     -19.007   7.476  18.586  1.00  0.00     0.006 C 
BRANCH   6   7
ATOM      7  C   UNL     1     -18.625   6.435  19.652  1.00  0.00     0.053 C 
BRANCH   7   8
ATOM      8  C   UNL     1     -17.282   5.819  19.401  1.00  0.00     0.041 C 
ATOM      9  O   UNL     1     -16.866   5.665  18.223  1.00  0.00    -0.550 OA
ATOM     10  O   UNL     1     -16.471   5.449  20.467  1.00  0.00    -0.550 OA
ENDBRANCH   7   8
ENDBRANCH   6   7
ENDBRANCH   5   6
ENDBRANCH   4   5
ENDBRANCH   3   4
ENDBRANCH   2   3
ENDBRANCH   1   2
BRANCH   1  11
ATOM     11  C   UNL     1     -20.968  11.032  18.688  1.00  0.00     0.000 C 
BRANCH  11  12
ATOM     12  C   UNL     1     -19.520  11.111  18.188  1.00  0.00    -0.000 C 
BRANCH  12  13
ATOM     13  C   UNL     1     -18.932  12.511  18.424  1.00  0.00    -0.000 C 
BRANCH  13  14
ATOM     14  C   UNL     1     -19.212  13.474  17.259  1.00  0.00    -0.000 C 
BRANCH  14  15
ATOM     15  C   UNL     1     -19.283  12.754  15.902  1.00  0.00    -0.000 C 
BRANCH  15  16
ATOM     16  C   UNL     1     -17.972  12.862  15.107  1.00  0.00    -0.000 C 
BRANCH  16  17
ATOM     17  C   UNL     1     -17.699  11.620  14.248  1.00  0.00    -0.003 C 
ATOM     18  C   UNL     1     -18.619  10.468  14.640  1.00  0.00     0.004 C 
ENDBRANCH  16  17
ENDBRANCH  15  16
ENDBRANCH  14  15
ENDBRANCH  13  14
ENDBRANCH  12  13
ENDBRANCH  11  12
ENDBRANCH   1  11
TORSDOF 14
ENDMDL
MODEL 3
REMARK VINA RESULT:    -4.198      1.188      1.778
REMARK INTER + INTRA:          -9.409
REMARK INTER:                  -7.911
REMARK INTRA:                  -1.497
REMARK UNBOUND:                -1.775
REMARK SMILES CCCCCCCCCCCCCCCC(=O)[O-]
REMARK SMILES IDX 9 1 10 2 11 3 12 4 13 5 14 6 15 7 16 8 17 9 18 10 8 11 7 12
REMARK SMILES IDX 6 13 5 14 4 15 3 16 2 17 1 18
REMARK H PARENT
REMARK Flexibility Score: inf
ROOT
ATOM      1  C   UNL     1     -19.378  11.851  18.591  1.00  0.00     0.000 C 
ENDROOT
BRANCH   1   2
ATOM      2  C   UNL     1     -20.815  11.494  18.181  1.00  0.00     0.000 C 
BRANCH   2   3
ATOM      3  C   UNL     1     -20.962  10.019  17.768  1.00  0.00     0.000 C 
BRANCH   3   4
ATOM      4  C   UNL     1     -19.828   9.554  16.839  1.00  0.00     0.000 C 
BRANCH   4   5
ATOM      5  C   UNL     1     -19.299   8.158  17.211  1.00  0.00     0.000 C 
BRANCH   5   6
ATOM      6  C   UNL     1     -18.757   8.082  18.650  1.00  0.00     0.006 C 
BRANCH   6   7
ATOM      7  C   UNL     1     -17.293   7.617  18.743  1.00  0.00     0.053 C 
BRANCH   7   8
ATOM      8  C   UNL     1     -17.171   6.146  19.000  1.00  0.00     0.041 C 
ATOM      9  O   UNL     1     -17.538   5.317  18.127  1.00  0.00    -0.550 OA
ATOM     10  O   UNL     1     -16.618   5.687  20.190  1.00  0.00    -0.550 OA
ENDBRANCH   7   8
ENDBRANCH   6   7
ENDBRANCH   5   6
ENDBRANCH   4   5
ENDBRANCH   3   4
ENDBRANCH   2   3
ENDBRANCH   1   2
BRANCH   1  11
ATOM     11  C   UNL     1     -18.880  13.151  17.942  1.00  0.00     0.000 C 
BRANCH  11  12
ATOM     12  C   UNL     1     -19.913  13.700  16.950  1.00  0.00    -0.000 C 
BRANCH  12  13
ATOM     13  C   UNL     1     -19.231  14.513  15.839  1.00  0.00    -0.000 C 
BRANCH  13  14
ATOM     14  C   UNL     1     -18.155  13.709  15.092  1.00  0.00    -0.000 C 
BRANCH  14  15
ATOM     15  C   UNL     1     -18.746  12.544  14.279  1.00  0.00    -0.000 C 
BRANCH  15  16
ATOM     16  C   UNL     1     -17.831  11.309  14.267  1.00  0.00    -0.000 C 
BRANCH  16  17
ATOM     17  C   UNL     1     -17.771  10.633  12.890  1.00  0.00    -0.003 C 
ATOM     18  C   UNL     1     -19.172  10.389  12.337  1.00  0.00     0.004 C 
ENDBRANCH  16  17
ENDBRANCH  15  16
ENDBRANCH  14  15
ENDBRANCH  13  14
ENDBRANCH  12  13
ENDBRANCH  11  12
ENDBRANCH   1  11
TORSDOF 14
ENDMDL
MODEL 4
REMARK VINA RESULT:    -4.196      0.963      1.974
REMARK INTER + INTRA:          -9.405
REMARK INTER:                  -7.840
REMARK INTRA:                  -1.565
REMARK UNBOUND:                -1.775
REMARK SMILES CCCCCCCCCCCCCCCC(=O)[O-]
REMARK SMILES IDX 9 1 10 2 11 3 12 4 13 5 14 6 15 7 16 8 17 9 18 10 8 11 7 12
REMARK SMILES IDX 6 13 5 14 4 15 3 16 2 17 1 18
REMARK H PARENT
REMARK Flexibility Score: inf
ROOT
ATOM      1  C   UNL     1     -21.241  11.575  17.630  1.00  0.00     0.000 C 
ENDROOT
BRANCH   1   2
ATOM      2  C   UNL     1     -20.197  10.730  18.377  1.00  0.00     0.000 C 
BRANCH   2   3
ATOM      3  C   UNL     1     -20.143   9.277  17.872  1.00  0.00     0.000 C 
BRANCH   3   4
ATOM      4  C   UNL     1     -18.757   8.639  18.068  1.00  0.00     0.000 C 
BRANCH   4   5
ATOM      5  C   UNL     1     -18.838   7.237  18.695  1.00  0.00     0.000 C 
BRANCH   5   6
ATOM      6  C   UNL     1     -17.480   6.726  19.210  1.00  0.00     0.006 C 
BRANCH   6   7
ATOM      7  C   UNL     1     -17.453   5.218  19.512  1.00  0.00     0.053 C 
BRANCH   7   8
ATOM      8  C   UNL     1     -16.101   4.742  19.950  1.00  0.00     0.041 C 
ATOM      9  O   UNL     1     -15.709   4.948  21.128  1.00  0.00    -0.550 OA
ATOM     10  O   UNL     1     -15.289   4.038  19.070  1.00  0.00    -0.550 OA
ENDBRANCH   7   8
ENDBRANCH   6   7
ENDBRANCH   5   6
ENDBRANCH   4   5
ENDBRANCH   3   4
ENDBRANCH   2   3
ENDBRANCH   1   2
BRANCH   1  11
ATOM     11  C   UNL     1     -20.640  12.835  16.992  1.00  0.00     0.000 C 
BRANCH  11  12
ATOM     12  C   UNL     1     -19.145  12.954  17.313  1.00  0.00    -0.000 C 
BRANCH  12  13
ATOM     13  C   UNL     1     -18.345  13.365  16.068  1.00  0.00    -0.000 C 
BRANCH  13  14
ATOM     14  C   UNL     1     -18.874  12.711  14.782  1.00  0.00    -0.000 C 
BRANCH  14  15
ATOM     15  C   UNL     1     -17.994  11.541  14.309  1.00  0.00    -0.000 C 
BRANCH  15  16
ATOM     16  C   UNL     1     -18.605  10.170  14.643  1.00  0.00    -0.000 C 
BRANCH  16  17
ATOM     17  C   UNL     1     -20.034  10.015  14.105  1.00  0.00    -0.003 C 
ATOM     18  C   UNL     1     -20.037   9.874  12.586  1.00  0.00     0.004 C 
ENDBRANCH  16  17
ENDBRANCH  15  16
ENDBRANCH  14  15
ENDBRANCH  13  14
ENDBRANCH  12  13
ENDBRANCH  11  12
ENDBRANCH   1  11
TORSDOF 14
ENDMDL
MODEL 5
REMARK VINA RESULT:    -4.194      3.600      6.165
REMARK INTER + INTRA:          -9.401
REMARK INTER:                  -6.889
REMARK INTRA:                  -2.512
REMARK UNBOUND:                -1.775
REMARK SMILES CCCCCCCCCCCCCCCC(=O)[O-]
REMARK SMILES IDX 9 1 10 2 11 3 12 4 13 5 14 6 15 7 16 8 17 9 18 10 8 11 7 12
REMARK SMILES IDX 6 13 5 14 4 15 3 16 2 17 1 18
REMARK H PARENT
REMARK Flexibility Score: inf
ROOT
ATOM      1  C   UNL     1     -21.363  11.113  18.323  1.00  0.00     0.000 C 
ENDROOT
BRANCH   1   2
ATOM      2  C   UNL     1     -19.835  10.947  18.358  1.00  0.00     0.000 C 
BRANCH   2   3
ATOM      3  C   UNL     1     -19.104  12.268  18.652  1.00  0.00     0.000 C 
BRANCH   3   4
ATOM      4  C   UNL     1     -19.285  13.302  17.528  1.00  0.00     0.000 C 
BRANCH   4   5
ATOM      5  C   UNL     1     -18.325  13.065  16.350  1.00  0.00     0.000 C 
BRANCH   5   6
ATOM      6  C   UNL     1     -19.050  12.910  15.001  1.00  0.00     0.006 C 
BRANCH   6   7
ATOM      7  C   UNL     1     -19.194  11.452  14.532  1.00  0.00     0.053 C 
BRANCH   7   8
ATOM      8  C   UNL     1     -18.199  11.087  13.472  1.00  0.00     0.041 C 
ATOM      9  O   UNL     1     -16.966  11.128  13.720  1.00  0.00    -0.550 OA
ATOM     10  O   UNL     1     -18.633  10.665  12.221  1.00  0.00    -0.550 OA
ENDBRANCH   7   8
ENDBRANCH   6   7
ENDBRANCH   5   6
ENDBRANCH   4   5
ENDBRANCH   3   4
ENDBRANCH   2   3
ENDBRANCH   1   2
BRANCH   1  11
ATOM     11  C   UNL     1     -21.967  10.770  16.954  1.00  0.00     0.000 C 
BRANCH  11  12
ATOM     12  C   UNL     1     -22.575  12.014  16.295  1.00  0.00    -0.000 C 
BRANCH  12  13
ATOM     13  C   UNL     1     -23.237  12.923  17.341  1.00  0.00    -0.000 C 
BRANCH  13  14
ATOM     14  C   UNL     1     -23.039  14.417  17.037  1.00  0.00    -0.000 C 
BRANCH  14  15
ATOM     15  C   UNL     1     -22.145  14.656  15.809  1.00  0.00    -0.000 C 
BRANCH  15  16
ATOM     16  C   UNL     1     -21.334  15.959  15.914  1.00  0.00    -0.000 C 
BRANCH  16  17
ATOM     17  C   UNL     1     -21.333  16.539  17.335  1.00  0.00    -0.003 C 
ATOM     18  C   UNL     1     -19.921  16.920  17.771  1.00  0.00     0.004 C 
ENDBRANCH  16  17
ENDBRANCH  15  16
ENDBRANCH  14  15
ENDBRANCH  13  14
ENDBRANCH  12  13
ENDBRANCH  11  12
ENDBRANCH   1  11
TORSDOF 14
ENDMDL
MODEL 6
REMARK VINA RESULT:    -4.191      3.656      6.028
REMARK INTER + INTRA:          -9.397
REMARK INTER:                  -6.660
REMARK INTRA:                  -2.737
REMARK UNBOUND:                -1.775
REMARK SMILES CCCCCCCCCCCCCCCC(=O)[O-]
REMARK SMILES IDX 9 1 10 2 11 3 12 4 13 5 14 6 15 7 16 8 17 9 18 10 8 11 7 12
REMARK SMILES IDX 6 13 5 14 4 15 3 16 2 17 1 18
REMARK H PARENT
REMARK Flexibility Score: inf
ROOT
ATOM      1  C   UNL     1     -19.943   8.705  17.992  1.00  0.00     0.000 C 
ENDROOT
BRANCH   1   2
ATOM      2  C   UNL     1     -19.110   9.990  17.871  1.00  0.00     0.000 C 
BRANCH   2   3
ATOM      3  C   UNL     1     -19.772  11.192  18.567  1.00  0.00     0.000 C 
BRANCH   3   4
ATOM      4  C   UNL     1     -19.001  12.503  18.334  1.00  0.00     0.000 C 
BRANCH   4   5
ATOM      5  C   UNL     1     -19.510  13.273  17.104  1.00  0.00     0.000 C 
BRANCH   5   6
ATOM      6  C   UNL     1     -18.433  13.457  16.020  1.00  0.00     0.006 C 
BRANCH   6   7
ATOM      7  C   UNL     1     -18.329  12.280  15.035  1.00  0.00     0.053 C 
BRANCH   7   8
ATOM      8  C   UNL     1     -19.045  12.542  13.745  1.00  0.00     0.041 C 
ATOM      9  O   UNL     1     -19.360  11.586  12.990  1.00  0.00    -0.550 OA
ATOM     10  O   UNL     1     -19.400  13.839  13.393  1.00  0.00    -0.550 OA
ENDBRANCH   7   8
ENDBRANCH   6   7
ENDBRANCH   5   6
ENDBRANCH   4   5
ENDBRANCH   3   4
ENDBRANCH   2   3
ENDBRANCH   1   2
BRANCH   1  11
ATOM     11  C   UNL     1     -20.290   8.090  16.629  1.00  0.00     0.000 C 
BRANCH  11  12
ATOM     12  C   UNL     1     -20.189   9.137  15.512  1.00  0.00    -0.000 C 
BRANCH  12  13
ATOM     13  C   UNL     1     -21.583   9.607  15.071  1.00  0.00    -0.000 C 
BRANCH  13  14
ATOM     14  C   UNL     1     -21.892  11.046  15.517  1.00  0.00    -0.000 C 
BRANCH  14  15
ATOM     15  C   UNL     1     -23.023  11.112  16.557  1.00  0.00    -0.000 C 
BRANCH  15  16
ATOM     16  C   UNL     1     -23.632   9.732  16.855  1.00  0.00    -0.000 C 
BRANCH  16  17
ATOM     17  C   UNL     1     -23.503   9.337  18.333  1.00  0.00    -0.003 C 
ATOM     18  C   UNL     1     -23.129  10.541  19.192  1.00  0.00     0.004 C 
ENDBRANCH  16  17
ENDBRANCH  15  16
ENDBRANCH  14  15
ENDBRANCH  13  14
ENDBRANCH  12  13
ENDBRANCH  11  12
ENDBRANCH   1  11
TORSDOF 14
ENDMDL
MODEL 7
REMARK VINA RESULT:    -4.109      2.879      5.297
REMARK INTER + INTRA:          -9.247
REMARK INTER:                  -7.250
REMARK INTRA:                  -1.998
REMARK UNBOUND:                -1.775
REMARK SMILES CCCCCCCCCCCCCCCC(=O)[O-]
REMARK SMILES IDX 9 1 10 2 11 3 12 4 13 5 14 6 15 7 16 8 17 9 18 10 8 11 7 12
REMARK SMILES IDX 6 13 5 14 4 15 3 16 2 17 1 18
REMARK H PARENT
REMARK Flexibility Score: inf
ROOT
ATOM      1  C   UNL     1     -22.895   7.152  17.535  1.00  0.00     0.000 C 
ENDROOT
BRANCH   1   2
ATOM      2  C   UNL     1     -23.253   6.405  18.829  1.00  0.00     0.000 C 
BRANCH   2   3
ATOM      3  C   UNL     1     -22.657   4.987  18.877  1.00  0.00     0.000 C 
BRANCH   3   4
ATOM      4  C   UNL     1     -21.987   4.677  20.226  1.00  0.00     0.000 C 
BRANCH   4   5
ATOM      5  C   UNL     1     -20.609   4.013  20.059  1.00  0.00     0.000 C 
BRANCH   5   6
ATOM      6  C   UNL     1     -19.442   5.012  20.153  1.00  0.00     0.006 C 
BRANCH   6   7
ATOM      7  C   UNL     1     -18.302   4.738  19.157  1.00  0.00     0.053 C 
BRANCH   7   8
ATOM      8  C   UNL     1     -17.094   5.586  19.416  1.00  0.00     0.041 C 
ATOM      9  O   UNL     1     -16.442   5.450  20.483  1.00  0.00    -0.550 OA
ATOM     10  O   UNL     1     -16.665   6.502  18.463  1.00  0.00    -0.550 OA
ENDBRANCH   7   8
ENDBRANCH   6   7
ENDBRANCH   5   6
ENDBRANCH   4   5
ENDBRANCH   3   4
ENDBRANCH   2   3
ENDBRANCH   1   2
BRANCH   1  11
ATOM     11  C   UNL     1     -21.691   6.537  16.806  1.00  0.00     0.000 C 
BRANCH  11  12
ATOM     12  C   UNL     1     -20.562   7.563  16.646  1.00  0.00    -0.000 C 
BRANCH  12  13
ATOM     13  C   UNL     1     -19.972   7.950  18.011  1.00  0.00    -0.000 C 
BRANCH  13  14
ATOM     14  C   UNL     1     -18.947   9.091  17.911  1.00  0.00    -0.000 C 
BRANCH  14  15
ATOM     15  C   UNL     1     -19.597  10.439  17.553  1.00  0.00    -0.000 C 
BRANCH  15  16
ATOM     16  C   UNL     1     -20.570  10.931  18.637  1.00  0.00    -0.000 C 
BRANCH  16  17
ATOM     17  C   UNL     1     -22.021  10.997  18.141  1.00  0.00    -0.003 C 
ATOM     18  C   UNL     1     -22.992  10.529  19.221  1.00  0.00     0.004 C 
ENDBRANCH  16  17
ENDBRANCH  15  16
ENDBRANCH  14  15
ENDBRANCH  13  14
ENDBRANCH  12  13
ENDBRANCH  11  12
ENDBRANCH   1  11
TORSDOF 14
ENDMDL
MODEL 8
REMARK VINA RESULT:    -4.088      2.389      3.372
REMARK INTER + INTRA:          -9.208
REMARK INTER:                  -7.337
REMARK INTRA:                  -1.871
REMARK UNBOUND:                -1.775
REMARK SMILES CCCCCCCCCCCCCCCC(=O)[O-]
REMARK SMILES IDX 9 1 10 2 11 3 12 4 13 5 14 6 15 7 16 8 17 9 18 10 8 11 7 12
REMARK SMILES IDX 6 13 5 14 4 15 3 16 2 17 1 18
REMARK H PARENT
REMARK Flexibility Score: inf
ROOT
ATOM      1  C   UNL     1     -18.758  12.669  16.699  1.00  0.00     0.000 C 
ENDROOT
BRANCH   1   2
ATOM      2  C   UNL     1     -19.132  12.541  18.184  1.00  0.00     0.000 C 
BRANCH   2   3
ATOM      3  C   UNL     1     -19.625  11.130  18.551  1.00  0.00     0.000 C 
BRANCH   3   4
ATOM      4  C   UNL     1     -19.399  10.116  17.416  1.00  0.00     0.000 C 
BRANCH   4   5
ATOM      5  C   UNL     1     -19.461   8.660  17.907  1.00  0.00     0.000 C 
BRANCH   5   6
ATOM      6  C   UNL     1     -18.113   8.146  18.443  1.00  0.00     0.006 C 
BRANCH   6   7
ATOM      7  C   UNL     1     -18.239   6.974  19.432  1.00  0.00     0.053 C 
BRANCH   7   8
ATOM      8  C   UNL     1     -17.112   5.993  19.310  1.00  0.00     0.041 C 
ATOM      9  O   UNL     1     -16.554   5.538  20.342  1.00  0.00    -0.550 OA
ATOM     10  O   UNL     1     -16.701   5.553  18.058  1.00  0.00    -0.550 OA
ENDBRANCH   7   8
ENDBRANCH   6   7
ENDBRANCH   5   6
ENDBRANCH   4   5
ENDBRANCH   3   4
ENDBRANCH   2   3
ENDBRANCH   1   2
BRANCH   1  11
ATOM     11  C   UNL     1     -19.190  14.011  16.091  1.00  0.00     0.000 C 
BRANCH  11  12
ATOM     12  C   UNL     1     -20.046  14.813  17.080  1.00  0.00    -0.000 C 
BRANCH  12  13
ATOM     13  C   UNL     1     -21.341  15.303  16.416  1.00  0.00    -0.000 C 
BRANCH  13  14
ATOM     14  C   UNL     1     -22.162  14.158  15.802  1.00  0.00    -0.000 C 
BRANCH  14  15
ATOM     15  C   UNL     1     -22.526  13.074  16.832  1.00  0.00    -0.000 C 
BRANCH  15  16
ATOM     16  C   UNL     1     -22.529  11.661  16.225  1.00  0.00    -0.000 C 
BRANCH  16  17
ATOM     17  C   UNL     1     -23.129  10.614  17.174  1.00  0.00    -0.003 C 
ATOM     18  C   UNL     1     -23.285  11.175  18.584  1.00  0.00     0.004 C 
ENDBRANCH  16  17
ENDBRANCH  15  16
ENDBRANCH  14  15
ENDBRANCH  13  14
ENDBRANCH  12  13
ENDBRANCH  11  12
ENDBRANCH   1  11
TORSDOF 14
ENDMDL
MODEL 9
REMARK VINA RESULT:    -4.084      3.486      5.773
REMARK INTER + INTRA:          -9.202
REMARK INTER:                  -7.085
REMARK INTRA:                  -2.117
REMARK UNBOUND:                -1.775
REMARK SMILES CCCCCCCCCCCCCCCC(=O)[O-]
REMARK SMILES IDX 9 1 10 2 11 3 12 4 13 5 14 6 15 7 16 8 17 9 18 10 8 11 7 12
REMARK SMILES IDX 6 13 5 14 4 15 3 16 2 17 1 18
REMARK H PARENT
REMARK Flexibility Score: inf
ROOT
ATOM      1  C   UNL     1     -20.570  12.751  17.190  1.00  0.00     0.000 C 
ENDROOT
BRANCH   1   2
ATOM      2  C   UNL     1     -20.844  11.396  17.861  1.00  0.00     0.000 C 
BRANCH   2   3
ATOM      3  C   UNL     1     -19.584  10.785  18.498  1.00  0.00     0.000 C 
BRANCH   3   4
ATOM      4  C   UNL     1     -19.153   9.478  17.811  1.00  0.00     0.000 C 
BRANCH   4   5
ATOM      5  C   UNL     1     -19.885   9.245  16.478  1.00  0.00     0.000 C 
BRANCH   5   6
ATOM      6  C   UNL     1     -19.128   9.817  15.266  1.00  0.00     0.006 C 
BRANCH   6   7
ATOM      7  C   UNL     1     -20.012  10.046  14.028  1.00  0.00     0.053 C 
BRANCH   7   8
ATOM      8  C   UNL     1     -19.414  11.030  13.068  1.00  0.00     0.041 C 
ATOM      9  O   UNL     1     -20.157  11.813  12.420  1.00  0.00    -0.550 OA
ATOM     10  O   UNL     1     -18.035  11.108  12.914  1.00  0.00    -0.550 OA
ENDBRANCH   7   8
ENDBRANCH   6   7
ENDBRANCH   5   6
ENDBRANCH   4   5
ENDBRANCH   3   4
ENDBRANCH   2   3
ENDBRANCH   1   2
BRANCH   1  11
ATOM     11  C   UNL     1     -19.112  13.207  17.346  1.00  0.00     0.000 C 
BRANCH  11  12
ATOM     12  C   UNL     1     -18.422  13.320  15.980  1.00  0.00    -0.000 C 
BRANCH  12  13
ATOM     13  C   UNL     1     -19.271  14.144  15.001  1.00  0.00    -0.000 C 
BRANCH  13  14
ATOM     14  C   UNL     1     -18.705  15.554  14.769  1.00  0.00    -0.000 C 
BRANCH  14  15
ATOM     15  C   UNL     1     -19.716  16.661  15.114  1.00  0.00    -0.000 C 
BRANCH  15  16
ATOM     16  C   UNL     1     -20.911  16.136  15.927  1.00  0.00    -0.000 C 
BRANCH  16  17
ATOM     17  C   UNL     1     -21.050  16.834  17.288  1.00  0.00    -0.003 C 
ATOM     18  C   UNL     1     -19.691  17.007  17.958  1.00  0.00     0.004 C 
ENDBRANCH  16  17
ENDBRANCH  15  16
ENDBRANCH  14  15
ENDBRANCH  13  14
ENDBRANCH  12  13
ENDBRANCH  11  12
ENDBRANCH   1  11
TORSDOF 14
ENDMDL
