MODEL 1
REMARK VINA RESULT:    -3.680      0.000      0.000
REMARK INTER + INTRA:          -5.513
REMARK INTER:                  -4.971
REMARK INTRA:                  -0.542
REMARK UNBOUND:                -0.542
REMARK SMILES O=C[C@H](O)[C@@H](O)[C@H](O)CO
REMARK SMILES IDX 7 1 9 2 10 3 5 5 3 6 2 7 1 8 4 9 6 11 8 13
REMARK H PARENT 10 4 4 10 6 12 8 14
REMARK Flexibility Score: inf
ROOT
ATOM      1  C   UNL     1      -5.612  12.035 -17.898  1.00  0.00     0.171 C 
ENDROOT
BRANCH   1   2
ATOM      2  C   UNL     1      -6.861  11.576 -17.124  1.00  0.00     0.190 C 
BRANCH   2   3
ATOM      3  O   UNL     1      -8.012  12.187 -17.641  1.00  0.00    -0.394 OA
ATOM      4  H   UNL     1      -8.249  12.922 -17.017  1.00  0.00     0.210 HD
ENDBRANCH   2   3
ENDBRANCH   1   2
BRANCH   1   5
ATOM      5  C   UNL     1      -4.922  13.226 -17.190  1.00  0.00     0.181 C 
BRANCH   5   6
ATOM      6  C   UNL     1      -3.768  13.807 -18.042  1.00  0.00     0.209 C 
BRANCH   6   7
ATOM      7  C   UNL     1      -4.206  15.036 -18.797  1.00  0.00     0.258 C 
ATOM      8  O   UNL     1      -4.306  16.109 -18.223  1.00  0.00    -0.300 OA
ENDBRANCH   6   7
BRANCH   6   9
ATOM      9  O   UNL     1      -3.244  12.849 -18.930  1.00  0.00    -0.383 OA
ATOM     10  H   UNL     1      -2.358  12.563 -18.582  1.00  0.00     0.211 HD
ENDBRANCH   6   9
ENDBRANCH   5   6
BRANCH   5  11
ATOM     11  O   UNL     1      -5.861  14.236 -16.906  1.00  0.00    -0.387 OA
ATOM     12  H   UNL     1      -6.194  14.581 -17.775  1.00  0.00     0.211 HD
ENDBRANCH   5  11
ENDBRANCH   1   5
BRANCH   1  13
ATOM     13  O   UNL     1      -5.975  12.402 -19.205  1.00  0.00    -0.388 OA
ATOM     14  H   UNL     1      -6.740  11.826 -19.466  1.00  0.00     0.211 HD
ENDBRANCH   1  13
TORSDOF 8
ENDMDL
MODEL 2
REMARK VINA RESULT:    -3.583      1.264      1.663
REMARK INTER + INTRA:          -5.382
REMARK INTER:                  -4.454
REMARK INTRA:                  -0.928
REMARK UNBOUND:                -0.542
REMARK SMILES O=C[C@H](O)[C@@H](O)[C@H](O)CO
REMARK SMILES IDX 7 1 9 2 10 3 5 5 3 6 2 7 1 8 4 9 6 11 8 13
REMARK H PARENT 10 4 4 10 6 12 8 14
REMARK Flexibility Score: inf
ROOT
ATOM      1  C   UNL     1      -6.545  11.086 -17.289  1.00  0.00     0.171 C 
ENDROOT
BRANCH   1   2
ATOM      2  C   UNL     1      -8.029  11.492 -17.245  1.00  0.00     0.190 C 
BRANCH   2   3
ATOM      3  O   UNL     1      -8.434  12.008 -18.484  1.00  0.00    -0.394 OA
ATOM      4  H   UNL     1      -8.656  12.964 -18.335  1.00  0.00     0.210 HD
ENDBRANCH   2   3
ENDBRANCH   1   2
BRANCH   1   5
ATOM      5  C   UNL     1      -5.624  12.327 -17.200  1.00  0.00     0.181 C 
BRANCH   5   6
ATOM      6  C   UNL     1      -4.852  12.562 -18.521  1.00  0.00     0.209 C 
BRANCH   6   7
ATOM      7  C   UNL     1      -3.897  13.723 -18.402  1.00  0.00     0.258 C 
ATOM      8  O   UNL     1      -3.665  14.220 -17.311  1.00  0.00    -0.300 OA
ENDBRANCH   6   7
BRANCH   6   9
ATOM      9  O   UNL     1      -5.727  12.759 -19.606  1.00  0.00    -0.383 OA
ATOM     10  H   UNL     1      -5.973  13.722 -19.629  1.00  0.00     0.211 HD
ENDBRANCH   6   9
ENDBRANCH   5   6
BRANCH   5  11
ATOM     11  O   UNL     1      -6.376  13.472 -16.875  1.00  0.00    -0.387 OA
ATOM     12  H   UNL     1      -6.597  13.930 -17.727  1.00  0.00     0.211 HD
ENDBRANCH   5  11
ENDBRANCH   1   5
BRANCH   1  13
ATOM     13  O   UNL     1      -6.283  10.383 -18.477  1.00  0.00    -0.388 OA
ATOM     14  H   UNL     1      -6.537   9.437 -18.316  1.00  0.00     0.211 HD
ENDBRANCH   1  13
TORSDOF 8
ENDMDL
MODEL 3
REMARK VINA RESULT:    -3.537     17.900     19.038
REMARK INTER + INTRA:          -5.319
REMARK INTER:                  -4.343
REMARK INTRA:                  -0.976
REMARK UNBOUND:                -0.542
REMARK SMILES O=C[C@H](O)[C@@H](O)[C@H](O)CO
REMARK SMILES IDX 7 1 9 2 10 3 5 5 3 6 2 7 1 8 4 9 6 11 8 13
REMARK H PARENT 10 4 4 10 6 12 8 14
REMARK Flexibility Score: inf
ROOT
ATOM      1  C   UNL     1       1.387  11.677 -34.718  1.00  0.00     0.171 C 
ENDROOT
BRANCH   1   2
ATOM      2  C   UNL     1       2.513  11.149 -35.624  1.00  0.00     0.190 C 
BRANCH   2   3
ATOM      3  O   UNL     1       3.208  12.213 -36.215  1.00  0.00    -0.394 OA
ATOM      4  H   UNL     1       2.547  12.939 -36.361  1.00  0.00     0.210 HD
ENDBRANCH   2   3
ENDBRANCH   1   2
BRANCH   1   5
ATOM      5  C   UNL     1       0.183  12.172 -35.554  1.00  0.00     0.181 C 
BRANCH   5   6
ATOM      6  C   UNL     1      -0.003  13.705 -35.435  1.00  0.00     0.209 C 
BRANCH   6   7
ATOM      7  C   UNL     1      -1.349  14.138 -35.959  1.00  0.00     0.258 C 
ATOM      8  O   UNL     1      -1.652  13.933 -37.124  1.00  0.00    -0.300 OA
ENDBRANCH   6   7
BRANCH   6   9
ATOM      9  O   UNL     1       1.025  14.405 -36.091  1.00  0.00    -0.383 OA
ATOM     10  H   UNL     1       0.608  15.136 -36.620  1.00  0.00     0.211 HD
ENDBRANCH   6   9
ENDBRANCH   5   6
BRANCH   5  11
ATOM     11  O   UNL     1       0.345  11.814 -36.905  1.00  0.00    -0.387 OA
ATOM     12  H   UNL     1       0.948  11.026 -36.930  1.00  0.00     0.211 HD
ENDBRANCH   5  11
ENDBRANCH   1   5
BRANCH   1  13
ATOM     13  O   UNL     1       1.877  12.724 -33.919  1.00  0.00    -0.388 OA
ATOM     14  H   UNL     1       2.667  12.373 -33.433  1.00  0.00     0.211 HD
ENDBRANCH   1  13
TORSDOF 8
ENDMDL
MODEL 4
REMARK VINA RESULT:    -3.501      3.644      5.869
REMARK INTER + INTRA:          -5.271
REMARK INTER:                  -4.322
REMARK INTRA:                  -0.949
REMARK UNBOUND:                -0.542
REMARK SMILES O=C[C@H](O)[C@@H](O)[C@H](O)CO
REMARK SMILES IDX 7 1 9 2 10 3 5 5 3 6 2 7 1 8 4 9 6 11 8 13
REMARK H PARENT 10 4 4 10 6 12 8 14
REMARK Flexibility Score: inf
ROOT
ATOM      1  C   UNL     1      -7.334  10.041 -17.252  1.00  0.00     0.171 C 
ENDROOT
BRANCH   1   2
ATOM      2  C   UNL     1      -7.277  11.578 -17.293  1.00  0.00     0.190 C 
BRANCH   2   3
ATOM      3  O   UNL     1      -8.350  12.091 -18.035  1.00  0.00    -0.394 OA
ATOM      4  H   UNL     1      -9.179  11.828 -17.556  1.00  0.00     0.210 HD
ENDBRANCH   2   3
ENDBRANCH   1   2
BRANCH   1   5
ATOM      5  C   UNL     1      -6.968   9.432 -18.627  1.00  0.00     0.181 C 
BRANCH   5   6
ATOM      6  C   UNL     1      -6.656   7.919 -18.517  1.00  0.00     0.209 C 
BRANCH   6   7
ATOM      7  C   UNL     1      -7.766   7.085 -19.103  1.00  0.00     0.258 C 
ATOM      8  O   UNL     1      -8.869   7.070 -18.580  1.00  0.00    -0.300 OA
ENDBRANCH   6   7
BRANCH   6   9
ATOM      9  O   UNL     1      -6.406   7.535 -17.187  1.00  0.00    -0.383 OA
ATOM     10  H   UNL     1      -6.276   8.361 -16.650  1.00  0.00     0.211 HD
ENDBRANCH   6   9
ENDBRANCH   5   6
BRANCH   5  11
ATOM     11  O   UNL     1      -8.013   9.639 -19.548  1.00  0.00    -0.387 OA
ATOM     12  H   UNL     1      -8.558   8.809 -19.566  1.00  0.00     0.211 HD
ENDBRANCH   5  11
ENDBRANCH   1   5
BRANCH   1  13
ATOM     13  O   UNL     1      -8.623   9.627 -16.875  1.00  0.00    -0.388 OA
ATOM     14  H   UNL     1      -8.924   8.965 -17.550  1.00  0.00     0.211 HD
ENDBRANCH   1  13
TORSDOF 8
ENDMDL
MODEL 5
REMARK VINA RESULT:    -3.495      2.030      3.759
REMARK INTER + INTRA:          -5.263
REMARK INTER:                  -4.591
REMARK INTRA:                  -0.672
REMARK UNBOUND:                -0.542
REMARK SMILES O=C[C@H](O)[C@@H](O)[C@H](O)CO
REMARK SMILES IDX 7 1 9 2 10 3 5 5 3 6 2 7 1 8 4 9 6 11 8 13
REMARK H PARENT 10 4 4 10 6 12 8 14
REMARK Flexibility Score: inf
ROOT
ATOM      1  C   UNL     1      -3.384  14.591 -18.856  1.00  0.00     0.171 C 
ENDROOT
BRANCH   1   2
ATOM      2  C   UNL     1      -4.165  15.858 -18.467  1.00  0.00     0.190 C 
BRANCH   2   3
ATOM      3  O   UNL     1      -5.102  15.570 -17.466  1.00  0.00    -0.394 OA
ATOM      4  H   UNL     1      -5.951  16.009 -17.736  1.00  0.00     0.210 HD
ENDBRANCH   2   3
ENDBRANCH   1   2
BRANCH   1   5
ATOM      5  C   UNL     1      -4.320  13.361 -18.940  1.00  0.00     0.181 C 
BRANCH   5   6
ATOM      6  C   UNL     1      -3.828  12.339 -19.994  1.00  0.00     0.209 C 
BRANCH   6   7
ATOM      7  C   UNL     1      -4.572  11.033 -19.883  1.00  0.00     0.258 C 
ATOM      8  O   UNL     1      -5.670  10.992 -19.350  1.00  0.00    -0.300 OA
ENDBRANCH   6   7
BRANCH   6   9
ATOM      9  O   UNL     1      -2.441  12.121 -19.899  1.00  0.00    -0.383 OA
ATOM     10  H   UNL     1      -2.098  12.663 -19.140  1.00  0.00     0.211 HD
ENDBRANCH   6   9
ENDBRANCH   5   6
BRANCH   5  11
ATOM     11  O   UNL     1      -4.422  12.738 -17.682  1.00  0.00    -0.387 OA
ATOM     12  H   UNL     1      -5.280  12.240 -17.669  1.00  0.00     0.211 HD
ENDBRANCH   5  11
ENDBRANCH   1   5
BRANCH   1  13
ATOM     13  O   UNL     1      -2.369  14.355 -17.913  1.00  0.00    -0.388 OA
ATOM     14  H   UNL     1      -1.644  13.867 -18.383  1.00  0.00     0.211 HD
ENDBRANCH   1  13
TORSDOF 8
ENDMDL
MODEL 6
REMARK VINA RESULT:    -3.494     19.374     20.466
REMARK INTER + INTRA:          -5.261
REMARK INTER:                  -4.373
REMARK INTRA:                  -0.888
REMARK UNBOUND:                -0.542
REMARK SMILES O=C[C@H](O)[C@@H](O)[C@H](O)CO
REMARK SMILES IDX 7 1 9 2 10 3 5 5 3 6 2 7 1 8 4 9 6 11 8 13
REMARK H PARENT 10 4 4 10 6 12 8 14
REMARK Flexibility Score: inf
ROOT
ATOM      1  C   UNL     1      -6.437   4.381 -34.848  1.00  0.00     0.171 C 
ENDROOT
BRANCH   1   2
ATOM      2  C   UNL     1      -7.827   4.849 -34.383  1.00  0.00     0.190 C 
BRANCH   2   3
ATOM      3  O   UNL     1      -8.655   3.748 -34.121  1.00  0.00    -0.394 OA
ATOM      4  H   UNL     1      -8.718   3.669 -33.134  1.00  0.00     0.210 HD
ENDBRANCH   2   3
ENDBRANCH   1   2
BRANCH   1   5
ATOM      5  C   UNL     1      -6.413   4.132 -36.375  1.00  0.00     0.181 C 
BRANCH   5   6
ATOM      6  C   UNL     1      -5.040   3.590 -36.845  1.00  0.00     0.209 C 
BRANCH   6   7
ATOM      7  C   UNL     1      -5.099   2.110 -37.125  1.00  0.00     0.258 C 
ATOM      8  O   UNL     1      -5.234   1.314 -36.209  1.00  0.00    -0.300 OA
ENDBRANCH   6   7
BRANCH   6   9
ATOM      9  O   UNL     1      -4.024   3.871 -35.913  1.00  0.00    -0.383 OA
ATOM     10  H   UNL     1      -4.457   4.188 -35.076  1.00  0.00     0.211 HD
ENDBRANCH   6   9
ENDBRANCH   5   6
BRANCH   5  11
ATOM     11  O   UNL     1      -7.432   3.231 -36.740  1.00  0.00    -0.387 OA
ATOM     12  H   UNL     1      -7.188   2.854 -37.625  1.00  0.00     0.211 HD
ENDBRANCH   5  11
ENDBRANCH   1   5
BRANCH   1  13
ATOM     13  O   UNL     1      -6.084   3.203 -34.167  1.00  0.00    -0.388 OA
ATOM     14  H   UNL     1      -6.912   2.849 -33.752  1.00  0.00     0.211 HD
ENDBRANCH   1  13
TORSDOF 8
ENDMDL
MODEL 7
REMARK VINA RESULT:    -3.479      3.901      5.149
REMARK INTER + INTRA:          -5.241
REMARK INTER:                  -4.296
REMARK INTRA:                  -0.945
REMARK UNBOUND:                -0.542
REMARK SMILES O=C[C@H](O)[C@@H](O)[C@H](O)CO
REMARK SMILES IDX 7 1 9 2 10 3 5 5 3 6 2 7 1 8 4 9 6 11 8 13
REMARK H PARENT 10 4 4 10 6 12 8 14
REMARK Flexibility Score: inf
ROOT
ATOM      1  C   UNL     1      -6.928   9.741 -18.333  1.00  0.00     0.171 C 
ENDROOT
BRANCH   1   2
ATOM      2  C   UNL     1      -6.328   8.330 -18.473  1.00  0.00     0.190 C 
BRANCH   2   3
ATOM      3  O   UNL     1      -6.441   7.626 -17.266  1.00  0.00    -0.394 OA
ATOM      4  H   UNL     1      -5.598   7.782 -16.766  1.00  0.00     0.210 HD
ENDBRANCH   2   3
ENDBRANCH   1   2
BRANCH   1   5
ATOM      5  C   UNL     1      -8.034   9.773 -17.251  1.00  0.00     0.181 C 
BRANCH   5   6
ATOM      6  C   UNL     1      -8.531  11.215 -16.985  1.00  0.00     0.209 C 
BRANCH   6   7
ATOM      7  C   UNL     1      -9.919  11.428 -17.535  1.00  0.00     0.258 C 
ATOM      8  O   UNL     1     -10.091  11.574 -18.735  1.00  0.00    -0.300 OA
ENDBRANCH   6   7
BRANCH   6   9
ATOM      9  O   UNL     1      -7.646  12.175 -17.507  1.00  0.00    -0.383 OA
ATOM     10  H   UNL     1      -6.755  11.746 -17.607  1.00  0.00     0.211 HD
ENDBRANCH   6   9
ENDBRANCH   5   6
BRANCH   5  11
ATOM     11  O   UNL     1      -9.115   8.957 -17.633  1.00  0.00    -0.387 OA
ATOM     12  H   UNL     1      -9.183   9.002 -18.622  1.00  0.00     0.211 HD
ENDBRANCH   5  11
ENDBRANCH   1   5
BRANCH   1  13
ATOM     13  O   UNL     1      -7.457  10.152 -19.568  1.00  0.00    -0.388 OA
ATOM     14  H   UNL     1      -8.134   9.478 -19.833  1.00  0.00     0.211 HD
ENDBRANCH   1  13
TORSDOF 8
ENDMDL
