MODEL 1
REMARK VINA RESULT:    -5.382      0.000      0.000
REMARK INTER + INTRA:         -11.789
REMARK INTER:                 -10.416
REMARK INTRA:                  -1.373
REMARK UNBOUND:                -1.373
REMARK SMILES CCCCCCCCCCCCCCCCCC(=O)[O-]
REMARK SMILES IDX 10 1 11 2 12 3 13 4 14 5 15 6 16 7 17 8 18 9 19 10 20 11
REMARK SMILES IDX 9 12 8 13 7 14 6 15 5 16 4 17 3 18 2 19 1 20
REMARK H PARENT
REMARK Flexibility Score: inf
ROOT
ATOM      1  C   UNL     1     -23.256 -28.213   3.127  1.00  0.00     0.000 C 
ENDROOT
BRANCH   1   2
ATOM      2  C   UNL     1     -23.451 -26.889   3.876  1.00  0.00     0.000 C 
BRANCH   2   3
ATOM      3  C   UNL     1     -22.814 -25.722   3.106  1.00  0.00     0.000 C 
BRANCH   3   4
ATOM      4  C   UNL     1     -22.496 -26.083   1.645  1.00  0.00     0.000 C 
BRANCH   4   5
ATOM      5  C   UNL     1     -21.373 -25.212   1.057  1.00  0.00     0.000 C 
BRANCH   5   6
ATOM      6  C   UNL     1     -20.081 -26.002   0.800  1.00  0.00     0.000 C 
BRANCH   6   7
ATOM      7  C   UNL     1     -20.191 -27.476   1.221  1.00  0.00     0.006 C 
BRANCH   7   8
ATOM      8  C   UNL     1     -19.123 -27.831   2.261  1.00  0.00     0.053 C 
BRANCH   8   9
ATOM      9  C   UNL     1     -17.765 -27.442   1.769  1.00  0.00     0.041 C 
ATOM     10  O   UNL     1     -17.274 -28.001   0.752  1.00  0.00    -0.550 OA
ATOM     11  O   UNL     1     -17.018 -26.499   2.463  1.00  0.00    -0.550 OA
ENDBRANCH   8   9
ENDBRANCH   7   8
ENDBRANCH   6   7
ENDBRANCH   5   6
ENDBRANCH   4   5
ENDBRANCH   3   4
ENDBRANCH   2   3
ENDBRANCH   1   2
BRANCH   1  12
ATOM     12  C   UNL     1     -24.177 -29.306   3.691  1.00  0.00     0.000 C 
BRANCH  12  13
ATOM     13  C   UNL     1     -23.707 -29.826   5.058  1.00  0.00    -0.000 C 
BRANCH  13  14
ATOM     14  C   UNL     1     -24.741 -29.587   6.172  1.00  0.00    -0.000 C 
BRANCH  14  15
ATOM     15  C   UNL     1     -26.002 -28.860   5.674  1.00  0.00    -0.000 C 
BRANCH  15  16
ATOM     16  C   UNL     1     -27.286 -29.182   6.460  1.00  0.00    -0.000 C 
BRANCH  16  17
ATOM     17  C   UNL     1     -27.085 -29.124   7.984  1.00  0.00    -0.000 C 
BRANCH  17  18
ATOM     18  C   UNL     1     -27.778 -27.910   8.624  1.00  0.00    -0.000 C 
BRANCH  18  19
ATOM     19  C   UNL     1     -26.936 -27.273   9.740  1.00  0.00    -0.003 C 
ATOM     20  C   UNL     1     -26.522 -25.851   9.374  1.00  0.00     0.004 C 
ENDBRANCH  18  19
ENDBRANCH  17  18
ENDBRANCH  16  17
ENDBRANCH  15  16
ENDBRANCH  14  15
ENDBRANCH  13  14
ENDBRANCH  12  13
ENDBRANCH   1  12
TORSDOF 16
ENDMDL
MODEL 2
REMARK VINA RESULT:    -5.287      5.658      7.669
REMARK INTER + INTRA:         -11.605
REMARK INTER:                 -10.368
REMARK INTRA:                  -1.237
REMARK UNBOUND:                -1.373
REMARK SMILES CCCCCCCCCCCCCCCCCC(=O)[O-]
REMARK SMILES IDX 10 1 11 2 12 3 13 4 14 5 15 6 16 7 17 8 18 9 19 10 20 11
REMARK SMILES IDX 9 12 8 13 7 14 6 15 5 16 4 17 3 18 2 19 1 20
REMARK H PARENT
REMARK Flexibility Score: inf
ROOT
ATOM      1  C   UNL     1     -24.039 -24.923   8.197  1.00  0.00     0.000 C 
ENDROOT
BRANCH   1   2
ATOM      2  C   UNL     1     -24.498 -23.715   9.024  1.00  0.00     0.000 C 
BRANCH   2   3
ATOM      3  C   UNL     1     -24.461 -22.429   8.185  1.00  0.00     0.000 C 
BRANCH   3   4
ATOM      4  C   UNL     1     -23.196 -22.327   7.315  1.00  0.00     0.000 C 
BRANCH   4   5
ATOM      5  C   UNL     1     -22.196 -21.292   7.856  1.00  0.00     0.000 C 
BRANCH   5   6
ATOM      6  C   UNL     1     -21.201 -21.895   8.860  1.00  0.00     0.000 C 
BRANCH   6   7
ATOM      7  C   UNL     1     -20.242 -20.848   9.449  1.00  0.00     0.006 C 
BRANCH   7   8
ATOM      8  C   UNL     1     -19.179 -21.513  10.330  1.00  0.00     0.053 C 
BRANCH   8   9
ATOM      9  C   UNL     1     -19.488 -21.295  11.777  1.00  0.00     0.041 C 
ATOM     10  O   UNL     1     -19.561 -20.126  12.241  1.00  0.00    -0.550 OA
ATOM     11  O   UNL     1     -19.645 -22.383  12.625  1.00  0.00    -0.550 OA
ENDBRANCH   8   9
ENDBRANCH   7   8
ENDBRANCH   6   7
ENDBRANCH   5   6
ENDBRANCH   4   5
ENDBRANCH   3   4
ENDBRANCH   2   3
ENDBRANCH   1   2
BRANCH   1  12
ATOM     12  C   UNL     1     -24.955 -26.133   8.434  1.00  0.00     0.000 C 
BRANCH  12  13
ATOM     13  C   UNL     1     -26.009 -25.871   9.521  1.00  0.00    -0.000 C 
BRANCH  13  14
ATOM     14  C   UNL     1     -26.994 -27.040   9.688  1.00  0.00    -0.000 C 
BRANCH  14  15
ATOM     15  C   UNL     1     -26.661 -28.239   8.783  1.00  0.00    -0.000 C 
BRANCH  15  16
ATOM     16  C   UNL     1     -27.822 -28.721   7.895  1.00  0.00    -0.000 C 
BRANCH  16  17
ATOM     17  C   UNL     1     -27.348 -29.541   6.682  1.00  0.00    -0.000 C 
BRANCH  17  18
ATOM     18  C   UNL     1     -25.847 -29.362   6.400  1.00  0.00    -0.000 C 
BRANCH  18  19
ATOM     19  C   UNL     1     -25.579 -28.401   5.231  1.00  0.00    -0.003 C 
ATOM     20  C   UNL     1     -24.427 -28.899   4.363  1.00  0.00     0.004 C 
ENDBRANCH  18  19
ENDBRANCH  17  18
ENDBRANCH  16  17
ENDBRANCH  15  16
ENDBRANCH  14  15
ENDBRANCH  13  14
ENDBRANCH  12  13
ENDBRANCH   1  12
TORSDOF 16
ENDMDL
MODEL 3
REMARK VINA RESULT:    -5.199      4.826      6.818
REMARK INTER + INTRA:         -11.435
REMARK INTER:                  -9.788
REMARK INTRA:                  -1.646
REMARK UNBOUND:                -1.373
REMARK SMILES CCCCCCCCCCCCCCCCCC(=O)[O-]
REMARK SMILES IDX 10 1 11 2 12 3 13 4 14 5 15 6 16 7 17 8 18 9 19 10 20 11
REMARK SMILES IDX 9 12 8 13 7 14 6 15 5 16 4 17 3 18 2 19 1 20
REMARK H PARENT
REMARK Flexibility Score: inf
ROOT
ATOM      1  C   UNL     1     -22.219 -28.681   4.109  1.00  0.00     0.000 C 
ENDROOT
BRANCH   1   2
ATOM      2  C   UNL     1     -21.875 -30.172   3.996  1.00  0.00     0.000 C 
BRANCH   2   3
ATOM      3  C   UNL     1     -21.119 -30.656   5.243  1.00  0.00     0.000 C 
BRANCH   3   4
ATOM      4  C   UNL     1     -22.012 -30.705   6.494  1.00  0.00     0.000 C 
BRANCH   4   5
ATOM      5  C   UNL     1     -22.944 -31.928   6.501  1.00  0.00     0.000 C 
BRANCH   5   6
ATOM      6  C   UNL     1     -22.661 -32.884   7.670  1.00  0.00     0.000 C 
BRANCH   6   7
ATOM      7  C   UNL     1     -21.855 -32.222   8.799  1.00  0.00     0.006 C 
BRANCH   7   8
ATOM      8  C   UNL     1     -21.763 -33.142  10.020  1.00  0.00     0.053 C 
BRANCH   8   9
ATOM      9  C   UNL     1     -22.876 -32.853  10.977  1.00  0.00     0.041 C 
ATOM     10  O   UNL     1     -23.787 -33.704  11.165  1.00  0.00    -0.550 OA
ATOM     11  O   UNL     1     -22.938 -31.625  11.622  1.00  0.00    -0.550 OA
ENDBRANCH   8   9
ENDBRANCH   7   8
ENDBRANCH   6   7
ENDBRANCH   5   6
ENDBRANCH   4   5
ENDBRANCH   3   4
ENDBRANCH   2   3
ENDBRANCH   1   2
BRANCH   1  12
ATOM     12  C   UNL     1     -23.571 -28.377   3.445  1.00  0.00     0.000 C 
BRANCH  12  13
ATOM     13  C   UNL     1     -24.729 -29.163   4.077  1.00  0.00    -0.000 C 
BRANCH  13  14
ATOM     14  C   UNL     1     -25.273 -28.497   5.353  1.00  0.00    -0.000 C 
BRANCH  14  15
ATOM     15  C   UNL     1     -25.717 -29.515   6.418  1.00  0.00    -0.000 C 
BRANCH  15  16
ATOM     16  C   UNL     1     -27.231 -29.537   6.697  1.00  0.00    -0.000 C 
BRANCH  16  17
ATOM     17  C   UNL     1     -27.627 -28.688   7.918  1.00  0.00    -0.000 C 
BRANCH  17  18
ATOM     18  C   UNL     1     -26.442 -28.423   8.862  1.00  0.00    -0.000 C 
BRANCH  18  19
ATOM     19  C   UNL     1     -26.185 -26.924   9.078  1.00  0.00    -0.003 C 
ATOM     20  C   UNL     1     -27.380 -26.252   9.747  1.00  0.00     0.004 C 
ENDBRANCH  18  19
ENDBRANCH  17  18
ENDBRANCH  16  17
ENDBRANCH  15  16
ENDBRANCH  14  15
ENDBRANCH  13  14
ENDBRANCH  12  13
ENDBRANCH   1  12
TORSDOF 16
ENDMDL
MODEL 4
REMARK VINA RESULT:    -5.192      8.545     10.736
REMARK INTER + INTRA:         -11.421
REMARK INTER:                  -9.199
REMARK INTRA:                  -2.223
REMARK UNBOUND:                -1.373
REMARK SMILES CCCCCCCCCCCCCCCCCC(=O)[O-]
REMARK SMILES IDX 10 1 11 2 12 3 13 4 14 5 15 6 16 7 17 8 18 9 19 10 20 11
REMARK SMILES IDX 9 12 8 13 7 14 6 15 5 16 4 17 3 18 2 19 1 20
REMARK H PARENT
REMARK Flexibility Score: inf
ROOT
ATOM      1  C   UNL     1     -20.497 -24.228  13.875  1.00  0.00     0.000 C 
ENDROOT
BRANCH   1   2
ATOM      2  C   UNL     1     -20.307 -24.088  12.359  1.00  0.00     0.000 C 
BRANCH   2   3
ATOM      3  C   UNL     1     -19.080 -23.221  12.037  1.00  0.00     0.000 C 
BRANCH   3   4
ATOM      4  C   UNL     1     -19.429 -21.730  11.902  1.00  0.00     0.000 C 
BRANCH   4   5
ATOM      5  C   UNL     1     -19.216 -21.205  10.472  1.00  0.00     0.000 C 
BRANCH   5   6
ATOM      6  C   UNL     1     -19.690 -22.197   9.398  1.00  0.00     0.000 C 
BRANCH   6   7
ATOM      7  C   UNL     1     -20.819 -21.632   8.523  1.00  0.00     0.006 C 
BRANCH   7   8
ATOM      8  C   UNL     1     -22.134 -22.376   8.775  1.00  0.00     0.053 C 
BRANCH   8   9
ATOM      9  C   UNL     1     -23.289 -21.598   8.228  1.00  0.00     0.041 C 
ATOM     10  O   UNL     1     -24.407 -22.155   8.060  1.00  0.00    -0.550 OA
ATOM     11  O   UNL     1     -23.118 -20.272   7.853  1.00  0.00    -0.550 OA
ENDBRANCH   8   9
ENDBRANCH   7   8
ENDBRANCH   6   7
ENDBRANCH   5   6
ENDBRANCH   4   5
ENDBRANCH   3   4
ENDBRANCH   2   3
ENDBRANCH   1   2
BRANCH   1  12
ATOM     12  C   UNL     1     -19.142 -24.315  14.594  1.00  0.00     0.000 C 
BRANCH  12  13
ATOM     13  C   UNL     1     -18.763 -25.757  14.965  1.00  0.00    -0.000 C 
BRANCH  13  14
ATOM     14  C   UNL     1     -17.907 -26.443  13.887  1.00  0.00    -0.000 C 
BRANCH  14  15
ATOM     15  C   UNL     1     -16.582 -25.710  13.617  1.00  0.00    -0.000 C 
BRANCH  15  16
ATOM     16  C   UNL     1     -16.192 -25.607  12.132  1.00  0.00    -0.000 C 
BRANCH  16  17
ATOM     17  C   UNL     1     -17.093 -26.455  11.217  1.00  0.00    -0.000 C 
BRANCH  17  18
ATOM     18  C   UNL     1     -16.883 -26.141   9.727  1.00  0.00    -0.000 C 
BRANCH  18  19
ATOM     19  C   UNL     1     -18.146 -25.571   9.063  1.00  0.00    -0.003 C 
ATOM     20  C   UNL     1     -19.404 -26.251   9.597  1.00  0.00     0.004 C 
ENDBRANCH  18  19
ENDBRANCH  17  18
ENDBRANCH  16  17
ENDBRANCH  15  16
ENDBRANCH  14  15
ENDBRANCH  13  14
ENDBRANCH  12  13
ENDBRANCH   1  12
TORSDOF 16
ENDMDL
MODEL 5
REMARK VINA RESULT:    -5.176      4.231      6.071
REMARK INTER + INTRA:         -11.389
REMARK INTER:                  -9.048
REMARK INTRA:                  -2.342
REMARK UNBOUND:                -1.373
REMARK SMILES CCCCCCCCCCCCCCCCCC(=O)[O-]
REMARK SMILES IDX 10 1 11 2 12 3 13 4 14 5 15 6 16 7 17 8 18 9 19 10 20 11
REMARK SMILES IDX 9 12 8 13 7 14 6 15 5 16 4 17 3 18 2 19 1 20
REMARK H PARENT
REMARK Flexibility Score: inf
ROOT
ATOM      1  C   UNL     1     -24.648 -28.991   4.804  1.00  0.00     0.000 C 
ENDROOT
BRANCH   1   2
ATOM      2  C   UNL     1     -24.178 -29.282   3.374  1.00  0.00     0.000 C 
BRANCH   2   3
ATOM      3  C   UNL     1     -22.815 -29.991   3.377  1.00  0.00     0.000 C 
BRANCH   3   4
ATOM      4  C   UNL     1     -22.406 -30.479   4.777  1.00  0.00     0.000 C 
BRANCH   4   5
ATOM      5  C   UNL     1     -22.778 -31.952   5.015  1.00  0.00     0.000 C 
BRANCH   5   6
ATOM      6  C   UNL     1     -22.912 -32.298   6.506  1.00  0.00     0.000 C 
BRANCH   6   7
ATOM      7  C   UNL     1     -22.308 -31.223   7.423  1.00  0.00     0.006 C 
BRANCH   7   8
ATOM      8  C   UNL     1     -22.683 -31.475   8.887  1.00  0.00     0.053 C 
BRANCH   8   9
ATOM      9  C   UNL     1     -21.555 -32.140   9.609  1.00  0.00     0.041 C 
ATOM     10  O   UNL     1     -21.783 -32.864  10.615  1.00  0.00    -0.550 OA
ATOM     11  O   UNL     1     -20.245 -31.921   9.204  1.00  0.00    -0.550 OA
ENDBRANCH   8   9
ENDBRANCH   7   8
ENDBRANCH   6   7
ENDBRANCH   5   6
ENDBRANCH   4   5
ENDBRANCH   3   4
ENDBRANCH   2   3
ENDBRANCH   1   2
BRANCH   1  12
ATOM     12  C   UNL     1     -24.822 -27.482   5.031  1.00  0.00     0.000 C 
BRANCH  12  13
ATOM     13  C   UNL     1     -23.646 -26.862   5.800  1.00  0.00    -0.000 C 
BRANCH  13  14
ATOM     14  C   UNL     1     -23.308 -27.630   7.090  1.00  0.00    -0.000 C 
BRANCH  14  15
ATOM     15  C   UNL     1     -24.297 -27.346   8.234  1.00  0.00    -0.000 C 
BRANCH  15  16
ATOM     16  C   UNL     1     -25.209 -28.528   8.607  1.00  0.00    -0.000 C 
BRANCH  16  17
ATOM     17  C   UNL     1     -26.560 -28.080   9.192  1.00  0.00    -0.000 C 
BRANCH  17  18
ATOM     18  C   UNL     1     -27.743 -28.415   8.269  1.00  0.00    -0.000 C 
BRANCH  18  19
ATOM     19  C   UNL     1     -27.360 -29.405   7.158  1.00  0.00    -0.003 C 
ATOM     20  C   UNL     1     -28.199 -29.177   5.904  1.00  0.00     0.004 C 
ENDBRANCH  18  19
ENDBRANCH  17  18
ENDBRANCH  16  17
ENDBRANCH  15  16
ENDBRANCH  14  15
ENDBRANCH  13  14
ENDBRANCH  12  13
ENDBRANCH   1  12
TORSDOF 16
ENDMDL
MODEL 6
REMARK VINA RESULT:    -5.165     10.668     13.926
REMARK INTER + INTRA:         -11.369
REMARK INTER:                  -9.784
REMARK INTRA:                  -1.586
REMARK UNBOUND:                -1.373
REMARK SMILES CCCCCCCCCCCCCCCCCC(=O)[O-]
REMARK SMILES IDX 10 1 11 2 12 3 13 4 14 5 15 6 16 7 17 8 18 9 19 10 20 11
REMARK SMILES IDX 9 12 8 13 7 14 6 15 5 16 4 17 3 18 2 19 1 20
REMARK H PARENT
REMARK Flexibility Score: inf
ROOT
ATOM      1  C   UNL     1     -20.501 -27.972  16.228  1.00  0.00     0.000 C 
ENDROOT
BRANCH   1   2
ATOM      2  C   UNL     1     -21.367 -28.877  17.114  1.00  0.00     0.000 C 
BRANCH   2   3
ATOM      3  C   UNL     1     -22.835 -28.423  17.094  1.00  0.00     0.000 C 
BRANCH   3   4
ATOM      4  C   UNL     1     -23.215 -27.600  18.336  1.00  0.00     0.000 C 
BRANCH   4   5
ATOM      5  C   UNL     1     -24.312 -26.564  18.038  1.00  0.00     0.000 C 
BRANCH   5   6
ATOM      6  C   UNL     1     -23.828 -25.434  17.116  1.00  0.00     0.000 C 
BRANCH   6   7
ATOM      7  C   UNL     1     -24.608 -25.370  15.793  1.00  0.00     0.006 C 
BRANCH   7   8
ATOM      8  C   UNL     1     -25.536 -24.151  15.762  1.00  0.00     0.053 C 
BRANCH   8   9
ATOM      9  C   UNL     1     -26.968 -24.582  15.807  1.00  0.00     0.041 C 
ATOM     10  O   UNL     1     -27.271 -25.736  16.213  1.00  0.00    -0.550 OA
ATOM     11  O   UNL     1     -27.965 -23.730  15.351  1.00  0.00    -0.550 OA
ENDBRANCH   8   9
ENDBRANCH   7   8
ENDBRANCH   6   7
ENDBRANCH   5   6
ENDBRANCH   4   5
ENDBRANCH   3   4
ENDBRANCH   2   3
ENDBRANCH   1   2
BRANCH   1  12
ATOM     12  C   UNL     1     -21.238 -27.603  14.932  1.00  0.00     0.000 C 
BRANCH  12  13
ATOM     13  C   UNL     1     -21.214 -26.094  14.649  1.00  0.00    -0.000 C 
BRANCH  13  14
ATOM     14  C   UNL     1     -20.144 -25.352  15.468  1.00  0.00    -0.000 C 
BRANCH  14  15
ATOM     15  C   UNL     1     -19.455 -24.227  14.676  1.00  0.00    -0.000 C 
BRANCH  15  16
ATOM     16  C   UNL     1     -20.368 -23.484  13.684  1.00  0.00    -0.000 C 
BRANCH  16  17
ATOM     17  C   UNL     1     -19.640 -23.078  12.391  1.00  0.00    -0.000 C 
BRANCH  17  18
ATOM     18  C   UNL     1     -19.607 -21.554  12.186  1.00  0.00    -0.000 C 
BRANCH  18  19
ATOM     19  C   UNL     1     -18.974 -21.155  10.843  1.00  0.00    -0.003 C 
ATOM     20  C   UNL     1     -20.009 -21.171   9.722  1.00  0.00     0.004 C 
ENDBRANCH  18  19
ENDBRANCH  17  18
ENDBRANCH  16  17
ENDBRANCH  15  16
ENDBRANCH  14  15
ENDBRANCH  13  14
ENDBRANCH  12  13
ENDBRANCH   1  12
TORSDOF 16
ENDMDL
MODEL 7
REMARK VINA RESULT:    -5.128      2.745      5.010
REMARK INTER + INTRA:         -11.296
REMARK INTER:                  -8.875
REMARK INTRA:                  -2.422
REMARK UNBOUND:                -1.373
REMARK SMILES CCCCCCCCCCCCCCCCCC(=O)[O-]
REMARK SMILES IDX 10 1 11 2 12 3 13 4 14 5 15 6 16 7 17 8 18 9 19 10 20 11
REMARK SMILES IDX 9 12 8 13 7 14 6 15 5 16 4 17 3 18 2 19 1 20
REMARK H PARENT
REMARK Flexibility Score: inf
ROOT
ATOM      1  C   UNL     1     -23.394 -27.404   4.268  1.00  0.00     0.000 C 
ENDROOT
BRANCH   1   2
ATOM      2  C   UNL     1     -23.668 -28.493   3.223  1.00  0.00     0.000 C 
BRANCH   2   3
ATOM      3  C   UNL     1     -22.486 -28.633   2.252  1.00  0.00     0.000 C 
BRANCH   3   4
ATOM      4  C   UNL     1     -21.160 -28.149   2.862  1.00  0.00     0.000 C 
BRANCH   4   5
ATOM      5  C   UNL     1     -20.014 -28.134   1.837  1.00  0.00     0.000 C 
BRANCH   5   6
ATOM      6  C   UNL     1     -19.365 -26.748   1.692  1.00  0.00     0.000 C 
BRANCH   6   7
ATOM      7  C   UNL     1     -19.594 -26.127   0.305  1.00  0.00     0.006 C 
BRANCH   7   8
ATOM      8  C   UNL     1     -21.076 -26.172  -0.079  1.00  0.00     0.053 C 
BRANCH   8   9
ATOM      9  C   UNL     1     -21.818 -25.046   0.568  1.00  0.00     0.041 C 
ATOM     10  O   UNL     1     -22.862 -25.275   1.236  1.00  0.00    -0.550 OA
ATOM     11  O   UNL     1     -21.388 -23.738   0.391  1.00  0.00    -0.550 OA
ENDBRANCH   8   9
ENDBRANCH   7   8
ENDBRANCH   6   7
ENDBRANCH   5   6
ENDBRANCH   4   5
ENDBRANCH   3   4
ENDBRANCH   2   3
ENDBRANCH   1   2
BRANCH   1  12
ATOM     12  C   UNL     1     -24.562 -27.286   5.259  1.00  0.00     0.000 C 
BRANCH  12  13
ATOM     13  C   UNL     1     -25.457 -28.534   5.267  1.00  0.00    -0.000 C 
BRANCH  13  14
ATOM     14  C   UNL     1     -25.151 -29.478   6.443  1.00  0.00    -0.000 C 
BRANCH  14  15
ATOM     15  C   UNL     1     -24.259 -30.666   6.042  1.00  0.00    -0.000 C 
BRANCH  15  16
ATOM     16  C   UNL     1     -22.774 -30.513   6.415  1.00  0.00    -0.000 C 
BRANCH  16  17
ATOM     17  C   UNL     1     -21.825 -30.941   5.282  1.00  0.00    -0.000 C 
BRANCH  17  18
ATOM     18  C   UNL     1     -22.453 -31.992   4.352  1.00  0.00    -0.000 C 
BRANCH  18  19
ATOM     19  C   UNL     1     -21.731 -32.085   2.998  1.00  0.00    -0.003 C 
ATOM     20  C   UNL     1     -22.489 -32.990   2.032  1.00  0.00     0.004 C 
ENDBRANCH  18  19
ENDBRANCH  17  18
ENDBRANCH  16  17
ENDBRANCH  15  16
ENDBRANCH  14  15
ENDBRANCH  13  14
ENDBRANCH  12  13
ENDBRANCH   1  12
TORSDOF 16
ENDMDL
MODEL 8
REMARK VINA RESULT:    -5.116      9.273     11.366
REMARK INTER + INTRA:         -11.273
REMARK INTER:                  -8.465
REMARK INTRA:                  -2.809
REMARK UNBOUND:                -1.373
REMARK SMILES CCCCCCCCCCCCCCCCCC(=O)[O-]
REMARK SMILES IDX 10 1 11 2 12 3 13 4 14 5 15 6 16 7 17 8 18 9 19 10 20 11
REMARK SMILES IDX 9 12 8 13 7 14 6 15 5 16 4 17 3 18 2 19 1 20
REMARK H PARENT
REMARK Flexibility Score: inf
ROOT
ATOM      1  C   UNL     1     -17.396 -25.709  15.115  1.00  0.00     0.000 C 
ENDROOT
BRANCH   1   2
ATOM      2  C   UNL     1     -18.361 -26.866  15.407  1.00  0.00     0.000 C 
BRANCH   2   3
ATOM      3  C   UNL     1     -19.808 -26.361  15.510  1.00  0.00     0.000 C 
BRANCH   3   4
ATOM      4  C   UNL     1     -19.965 -24.912  15.022  1.00  0.00     0.000 C 
BRANCH   4   5
ATOM      5  C   UNL     1     -21.182 -24.732  14.099  1.00  0.00     0.000 C 
BRANCH   5   6
ATOM      6  C   UNL     1     -20.979 -23.622  13.057  1.00  0.00     0.000 C 
BRANCH   6   7
ATOM      7  C   UNL     1     -19.544 -23.073  13.044  1.00  0.00     0.006 C 
BRANCH   7   8
ATOM      8  C   UNL     1     -19.062 -22.831  11.610  1.00  0.00     0.053 C 
BRANCH   8   9
ATOM      9  C   UNL     1     -19.448 -21.461  11.152  1.00  0.00     0.041 C 
ATOM     10  O   UNL     1     -19.132 -20.450  11.836  1.00  0.00    -0.550 OA
ATOM     11  O   UNL     1     -20.202 -21.300   9.997  1.00  0.00    -0.550 OA
ENDBRANCH   8   9
ENDBRANCH   7   8
ENDBRANCH   6   7
ENDBRANCH   5   6
ENDBRANCH   4   5
ENDBRANCH   3   4
ENDBRANCH   2   3
ENDBRANCH   1   2
BRANCH   1  12
ATOM     12  C   UNL     1     -16.426 -26.074  13.982  1.00  0.00     0.000 C 
BRANCH  12  13
ATOM     13  C   UNL     1     -16.578 -25.159  12.757  1.00  0.00    -0.000 C 
BRANCH  13  14
ATOM     14  C   UNL     1     -16.898 -25.938  11.469  1.00  0.00    -0.000 C 
BRANCH  14  15
ATOM     15  C   UNL     1     -17.725 -27.209  11.728  1.00  0.00    -0.000 C 
BRANCH  15  16
ATOM     16  C   UNL     1     -19.242 -26.980  11.845  1.00  0.00    -0.000 C 
BRANCH  16  17
ATOM     17  C   UNL     1     -20.055 -28.280  11.726  1.00  0.00    -0.000 C 
BRANCH  17  18
ATOM     18  C   UNL     1     -19.782 -29.256  12.883  1.00  0.00    -0.000 C 
BRANCH  18  19
ATOM     19  C   UNL     1     -20.997 -29.424  13.809  1.00  0.00    -0.003 C 
ATOM     20  C   UNL     1     -21.677 -30.771  13.585  1.00  0.00     0.004 C 
ENDBRANCH  18  19
ENDBRANCH  17  18
ENDBRANCH  16  17
ENDBRANCH  15  16
ENDBRANCH  14  15
ENDBRANCH  13  14
ENDBRANCH  12  13
ENDBRANCH   1  12
TORSDOF 16
ENDMDL
MODEL 9
REMARK VINA RESULT:    -5.115     10.013     13.350
REMARK INTER + INTRA:         -11.272
REMARK INTER:                  -9.180
REMARK INTRA:                  -2.091
REMARK UNBOUND:                -1.373
REMARK SMILES CCCCCCCCCCCCCCCCCC(=O)[O-]
REMARK SMILES IDX 10 1 11 2 12 3 13 4 14 5 15 6 16 7 17 8 18 9 19 10 20 11
REMARK SMILES IDX 9 12 8 13 7 14 6 15 5 16 4 17 3 18 2 19 1 20
REMARK H PARENT
REMARK Flexibility Score: inf
ROOT
ATOM      1  C   UNL     1     -19.795 -23.958  14.644  1.00  0.00     0.000 C 
ENDROOT
BRANCH   1   2
ATOM      2  C   UNL     1     -20.366 -25.250  15.243  1.00  0.00     0.000 C 
BRANCH   2   3
ATOM      3  C   UNL     1     -21.732 -25.585  14.625  1.00  0.00     0.000 C 
BRANCH   3   4
ATOM      4  C   UNL     1     -22.839 -25.733  15.682  1.00  0.00     0.000 C 
BRANCH   4   5
ATOM      5  C   UNL     1     -22.312 -26.313  17.004  1.00  0.00     0.000 C 
BRANCH   5   6
ATOM      6  C   UNL     1     -23.340 -27.213  17.710  1.00  0.00     0.000 C 
BRANCH   6   7
ATOM      7  C   UNL     1     -22.946 -28.698  17.684  1.00  0.00     0.006 C 
BRANCH   7   8
ATOM      8  C   UNL     1     -21.594 -28.896  16.992  1.00  0.00     0.053 C 
BRANCH   8   9
ATOM      9  C   UNL     1     -21.739 -29.802  15.810  1.00  0.00     0.041 C 
ATOM     10  O   UNL     1     -22.208 -30.963  15.954  1.00  0.00    -0.550 OA
ATOM     11  O   UNL     1     -21.309 -29.385  14.558  1.00  0.00    -0.550 OA
ENDBRANCH   8   9
ENDBRANCH   7   8
ENDBRANCH   6   7
ENDBRANCH   5   6
ENDBRANCH   4   5
ENDBRANCH   3   4
ENDBRANCH   2   3
ENDBRANCH   1   2
BRANCH   1  12
ATOM     12  C   UNL     1     -20.463 -23.632  13.300  1.00  0.00     0.000 C 
BRANCH  12  13
ATOM     13  C   UNL     1     -19.488 -23.733  12.117  1.00  0.00    -0.000 C 
BRANCH  13  14
ATOM     14  C   UNL     1     -19.396 -25.158  11.543  1.00  0.00    -0.000 C 
BRANCH  14  15
ATOM     15  C   UNL     1     -17.961 -25.713  11.543  1.00  0.00    -0.000 C 
BRANCH  15  16
ATOM     16  C   UNL     1     -16.963 -24.921  12.407  1.00  0.00    -0.000 C 
BRANCH  16  17
ATOM     17  C   UNL     1     -16.130 -25.822  13.336  1.00  0.00    -0.000 C 
BRANCH  17  18
ATOM     18  C   UNL     1     -16.985 -26.510  14.413  1.00  0.00    -0.000 C 
BRANCH  18  19
ATOM     19  C   UNL     1     -16.780 -25.896  15.807  1.00  0.00    -0.003 C 
ATOM     20  C   UNL     1     -15.300 -25.851  16.176  1.00  0.00     0.004 C 
ENDBRANCH  18  19
ENDBRANCH  17  18
ENDBRANCH  16  17
ENDBRANCH  15  16
ENDBRANCH  14  15
ENDBRANCH  13  14
ENDBRANCH  12  13
ENDBRANCH   1  12
TORSDOF 16
ENDMDL
