MODEL 1
REMARK VINA RESULT:    -5.296      0.000      0.000
REMARK INTER + INTRA:          -5.296
REMARK INTER:                  -5.296
REMARK INTRA:                   0.000
REMARK UNBOUND:                 0.000
REMARK SMILES C=C1CCC[C@@]2(C)CC(=O)C(=C(C)C)C[C@H]12
REMARK SMILES IDX 13 1 12 2 11 3 15 4 16 5 2 6 1 7 3 8 4 9 5 10 6 11 8 12 9 13
REMARK SMILES IDX 10 14 7 15 14 16
REMARK H PARENT
REMARK Flexibility Score: inf
ROOT
ATOM      1  C   UNL     1       5.001  20.671   0.965  1.00  0.00     0.039 C 
ATOM      2  C   UNL     1       4.021  21.478   1.784  1.00  0.00    -0.070 C 
ATOM      3  C   UNL     1       3.982  21.395   3.148  1.00  0.00    -0.006 C 
ATOM      4  C   UNL     1       2.948  22.170   3.954  1.00  0.00     0.047 C 
ATOM      5  C   UNL     1       2.550  21.451   5.268  1.00  0.00     0.025 C 
ATOM      6  C   UNL     1       1.544  22.202   6.140  1.00  0.00    -0.073 C 
ATOM      7  C   UNL     1       1.028  23.406   5.830  1.00  0.00     0.008 C 
ATOM      8  C   UNL     1       1.093  21.497   7.398  1.00  0.00     0.031 C 
ATOM      9  C   UNL     1       2.304  21.061   8.228  1.00  0.00     0.005 C 
ATOM     10  C   UNL     1       3.314  20.264   7.385  1.00  0.00     0.008 C 
ATOM     11  C   UNL     1       3.792  21.032   6.116  1.00  0.00    -0.018 C 
ATOM     12  C   UNL     1       4.665  20.072   5.272  1.00  0.00     0.088 C 
ATOM     13  C   UNL     1       5.011  20.650   3.930  1.00  0.00     0.159 C 
ATOM     14  O   UNL     1       6.184  20.504   3.494  1.00  0.00    -0.295 OA
ATOM     15  C   UNL     1       4.642  22.261   6.540  1.00  0.00     0.012 C 
ATOM     16  C   UNL     1       3.056  22.359   1.024  1.00  0.00     0.039 C 
ENDROOT
TORSDOF 0
ENDMDL
MODEL 2
REMARK VINA RESULT:    -4.862      1.745      3.043
REMARK INTER + INTRA:          -4.862
REMARK INTER:                  -4.862
REMARK INTRA:                   0.000
REMARK UNBOUND:                 0.000
REMARK SMILES C=C1CCC[C@@]2(C)CC(=O)C(=C(C)C)C[C@H]12
REMARK SMILES IDX 13 1 12 2 11 3 15 4 16 5 2 6 1 7 3 8 4 9 5 10 6 11 8 12 9 13
REMARK SMILES IDX 10 14 7 15 14 16
REMARK H PARENT
REMARK Flexibility Score: inf
ROOT
ATOM      1  C   UNL     1       4.976  21.884  -0.125  1.00  0.00     0.039 C 
ATOM      2  C   UNL     1       4.774  21.024   1.100  1.00  0.00    -0.070 C 
ATOM      3  C   UNL     1       4.109  21.484   2.202  1.00  0.00    -0.006 C 
ATOM      4  C   UNL     1       3.966  20.625   3.452  1.00  0.00     0.047 C 
ATOM      5  C   UNL     1       3.895  21.464   4.752  1.00  0.00     0.025 C 
ATOM      6  C   UNL     1       3.711  20.657   6.037  1.00  0.00    -0.073 C 
ATOM      7  C   UNL     1       3.603  19.316   6.076  1.00  0.00     0.008 C 
ATOM      8  C   UNL     1       3.698  21.446   7.325  1.00  0.00     0.031 C 
ATOM      9  C   UNL     1       2.665  22.575   7.248  1.00  0.00     0.005 C 
ATOM     10  C   UNL     1       2.855  23.432   5.985  1.00  0.00     0.008 C 
ATOM     11  C   UNL     1       2.824  22.598   4.669  1.00  0.00    -0.018 C 
ATOM     12  C   UNL     1       3.189  23.537   3.494  1.00  0.00     0.088 C 
ATOM     13  C   UNL     1       3.383  22.787   2.208  1.00  0.00     0.159 C 
ATOM     14  O   UNL     1       2.910  23.276   1.147  1.00  0.00    -0.295 OA
ATOM     15  C   UNL     1       1.396  22.028   4.447  1.00  0.00     0.012 C 
ATOM     16  C   UNL     1       5.375  19.637   1.069  1.00  0.00     0.039 C 
ENDROOT
TORSDOF 0
ENDMDL
MODEL 3
REMARK VINA RESULT:    -4.817      2.441      4.594
REMARK INTER + INTRA:          -4.817
REMARK INTER:                  -4.817
REMARK INTRA:                   0.000
REMARK UNBOUND:                 0.000
REMARK SMILES C=C1CCC[C@@]2(C)CC(=O)C(=C(C)C)C[C@H]12
REMARK SMILES IDX 13 1 12 2 11 3 15 4 16 5 2 6 1 7 3 8 4 9 5 10 6 11 8 12 9 13
REMARK SMILES IDX 10 14 7 15 14 16
REMARK H PARENT
REMARK Flexibility Score: inf
ROOT
ATOM      1  C   UNL     1       2.431  25.592   7.034  1.00  0.00     0.039 C 
ATOM      2  C   UNL     1       3.132  24.750   5.995  1.00  0.00    -0.070 C 
ATOM      3  C   UNL     1       3.142  23.385   6.061  1.00  0.00    -0.006 C 
ATOM      4  C   UNL     1       3.905  22.552   5.039  1.00  0.00     0.047 C 
ATOM      5  C   UNL     1       4.428  21.216   5.624  1.00  0.00     0.025 C 
ATOM      6  C   UNL     1       5.169  20.319   4.632  1.00  0.00    -0.073 C 
ATOM      7  C   UNL     1       5.361  20.626   3.336  1.00  0.00     0.008 C 
ATOM      8  C   UNL     1       5.742  19.037   5.191  1.00  0.00     0.031 C 
ATOM      9  C   UNL     1       4.657  18.244   5.927  1.00  0.00     0.005 C 
ATOM     10  C   UNL     1       3.924  19.112   6.964  1.00  0.00     0.008 C 
ATOM     11  C   UNL     1       3.309  20.407   6.352  1.00  0.00    -0.018 C 
ATOM     12  C   UNL     1       2.750  21.269   7.511  1.00  0.00     0.088 C 
ATOM     13  C   UNL     1       2.316  22.630   7.047  1.00  0.00     0.159 C 
ATOM     14  O   UNL     1       1.239  23.105   7.498  1.00  0.00    -0.295 OA
ATOM     15  C   UNL     1       2.150  20.029   5.389  1.00  0.00     0.012 C 
ATOM     16  C   UNL     1       3.860  25.487   4.894  1.00  0.00     0.039 C 
ENDROOT
TORSDOF 0
ENDMDL
MODEL 4
REMARK VINA RESULT:    -4.644      1.471      5.023
REMARK INTER + INTRA:          -4.644
REMARK INTER:                  -4.644
REMARK INTRA:                   0.000
REMARK UNBOUND:                 0.000
REMARK SMILES C=C1CCC[C@@]2(C)CC(=O)C(=C(C)C)C[C@H]12
REMARK SMILES IDX 13 1 12 2 11 3 15 4 16 5 2 6 1 7 3 8 4 9 5 10 6 11 8 12 9 13
REMARK SMILES IDX 10 14 7 15 14 16
REMARK H PARENT
REMARK Flexibility Score: inf
ROOT
ATOM      1  C   UNL     1       3.860  21.398   7.551  1.00  0.00     0.039 C 
ATOM      2  C   UNL     1       3.210  22.165   6.423  1.00  0.00    -0.070 C 
ATOM      3  C   UNL     1       3.490  21.895   5.113  1.00  0.00    -0.006 C 
ATOM      4  C   UNL     1       2.872  22.718   3.990  1.00  0.00     0.047 C 
ATOM      5  C   UNL     1       3.784  22.810   2.742  1.00  0.00     0.025 C 
ATOM      6  C   UNL     1       3.199  23.590   1.565  1.00  0.00    -0.073 C 
ATOM      7  C   UNL     1       1.979  24.161   1.571  1.00  0.00     0.008 C 
ATOM      8  C   UNL     1       4.092  23.746   0.357  1.00  0.00     0.031 C 
ATOM      9  C   UNL     1       4.604  22.379  -0.108  1.00  0.00     0.005 C 
ATOM     10  C   UNL     1       5.239  21.588   1.048  1.00  0.00     0.008 C 
ATOM     11  C   UNL     1       4.282  21.408   2.265  1.00  0.00    -0.018 C 
ATOM     12  C   UNL     1       5.082  20.751   3.415  1.00  0.00     0.088 C 
ATOM     13  C   UNL     1       4.306  20.717   4.700  1.00  0.00     0.159 C 
ATOM     14  O   UNL     1       4.351  19.674   5.405  1.00  0.00    -0.295 OA
ATOM     15  C   UNL     1       3.101  20.481   1.866  1.00  0.00     0.012 C 
ATOM     16  C   UNL     1       2.259  23.276   6.810  1.00  0.00     0.039 C 
ENDROOT
TORSDOF 0
ENDMDL
MODEL 5
REMARK VINA RESULT:    -4.587      2.357      2.880
REMARK INTER + INTRA:          -4.587
REMARK INTER:                  -4.587
REMARK INTRA:                   0.000
REMARK UNBOUND:                 0.000
REMARK SMILES C=C1CCC[C@@]2(C)CC(=O)C(=C(C)C)C[C@H]12
REMARK SMILES IDX 13 1 12 2 11 3 15 4 16 5 2 6 1 7 3 8 4 9 5 10 6 11 8 12 9 13
REMARK SMILES IDX 10 14 7 15 14 16
REMARK H PARENT
REMARK Flexibility Score: inf
ROOT
ATOM      1  C   UNL     1       6.510  18.412   3.903  1.00  0.00     0.039 C 
ATOM      2  C   UNL     1       6.201  19.810   4.385  1.00  0.00    -0.070 C 
ATOM      3  C   UNL     1       5.159  20.067   5.230  1.00  0.00    -0.006 C 
ATOM      4  C   UNL     1       4.824  21.490   5.659  1.00  0.00     0.047 C 
ATOM      5  C   UNL     1       3.315  21.691   5.943  1.00  0.00     0.025 C 
ATOM      6  C   UNL     1       2.924  23.092   6.417  1.00  0.00    -0.073 C 
ATOM      7  C   UNL     1       3.800  24.099   6.596  1.00  0.00     0.008 C 
ATOM      8  C   UNL     1       1.451  23.333   6.644  1.00  0.00     0.031 C 
ATOM      9  C   UNL     1       0.875  22.269   7.584  1.00  0.00     0.005 C 
ATOM     10  C   UNL     1       1.215  20.847   7.107  1.00  0.00     0.008 C 
ATOM     11  C   UNL     1       2.745  20.614   6.920  1.00  0.00    -0.018 C 
ATOM     12  C   UNL     1       2.946  19.217   6.284  1.00  0.00     0.088 C 
ATOM     13  C   UNL     1       4.371  18.978   5.877  1.00  0.00     0.159 C 
ATOM     14  O   UNL     1       4.883  17.849   6.108  1.00  0.00    -0.295 OA
ATOM     15  C   UNL     1       3.452  20.656   8.302  1.00  0.00     0.012 C 
ATOM     16  C   UNL     1       7.077  20.924   3.859  1.00  0.00     0.039 C 
ENDROOT
TORSDOF 0
ENDMDL
MODEL 6
REMARK VINA RESULT:    -4.587      1.877      5.473
REMARK INTER + INTRA:          -4.587
REMARK INTER:                  -4.587
REMARK INTRA:                   0.000
REMARK UNBOUND:                 0.000
REMARK SMILES C=C1CCC[C@@]2(C)CC(=O)C(=C(C)C)C[C@H]12
REMARK SMILES IDX 13 1 12 2 11 3 15 4 16 5 2 6 1 7 3 8 4 9 5 10 6 11 8 12 9 13
REMARK SMILES IDX 10 14 7 15 14 16
REMARK H PARENT
REMARK Flexibility Score: inf
ROOT
ATOM      1  C   UNL     1       1.099  21.367   7.761  1.00  0.00     0.039 C 
ATOM      2  C   UNL     1       2.429  21.123   7.088  1.00  0.00    -0.070 C 
ATOM      3  C   UNL     1       2.649  21.464   5.783  1.00  0.00    -0.006 C 
ATOM      4  C   UNL     1       3.976  21.157   5.101  1.00  0.00     0.047 C 
ATOM      5  C   UNL     1       3.824  20.906   3.580  1.00  0.00     0.025 C 
ATOM      6  C   UNL     1       5.130  20.631   2.834  1.00  0.00    -0.073 C 
ATOM      7  C   UNL     1       6.343  20.612   3.418  1.00  0.00     0.008 C 
ATOM      8  C   UNL     1       5.005  20.324   1.360  1.00  0.00     0.031 C 
ATOM      9  C   UNL     1       4.204  21.421   0.653  1.00  0.00     0.005 C 
ATOM     10  C   UNL     1       2.863  21.688   1.357  1.00  0.00     0.008 C 
ATOM     11  C   UNL     1       3.024  22.041   2.867  1.00  0.00    -0.018 C 
ATOM     12  C   UNL     1       1.613  22.122   3.497  1.00  0.00     0.088 C 
ATOM     13  C   UNL     1       1.665  22.259   4.991  1.00  0.00     0.159 C 
ATOM     14  O   UNL     1       0.875  23.066   5.551  1.00  0.00    -0.295 OA
ATOM     15  C   UNL     1       3.729  23.419   3.006  1.00  0.00     0.012 C 
ATOM     16  C   UNL     1       3.500  20.447   7.913  1.00  0.00     0.039 C 
ENDROOT
TORSDOF 0
ENDMDL
MODEL 7
REMARK VINA RESULT:    -4.527      2.604      3.416
REMARK INTER + INTRA:          -4.527
REMARK INTER:                  -4.527
REMARK INTRA:                   0.000
REMARK UNBOUND:                 0.000
REMARK SMILES C=C1CCC[C@@]2(C)CC(=O)C(=C(C)C)C[C@H]12
REMARK SMILES IDX 13 1 12 2 11 3 15 4 16 5 2 6 1 7 3 8 4 9 5 10 6 11 8 12 9 13
REMARK SMILES IDX 10 14 7 15 14 16
REMARK H PARENT
REMARK Flexibility Score: inf
ROOT
ATOM      1  C   UNL     1       3.689  26.154   3.338  1.00  0.00     0.039 C 
ATOM      2  C   UNL     1       2.990  24.816   3.296  1.00  0.00    -0.070 C 
ATOM      3  C   UNL     1       2.976  23.976   4.374  1.00  0.00    -0.006 C 
ATOM      4  C   UNL     1       2.318  22.605   4.295  1.00  0.00     0.047 C 
ATOM      5  C   UNL     1       2.992  21.562   5.223  1.00  0.00     0.025 C 
ATOM      6  C   UNL     1       2.348  20.175   5.217  1.00  0.00    -0.073 C 
ATOM      7  C   UNL     1       1.269  19.848   4.482  1.00  0.00     0.008 C 
ATOM      8  C   UNL     1       3.021  19.123   6.067  1.00  0.00     0.031 C 
ATOM      9  C   UNL     1       3.194  19.628   7.502  1.00  0.00     0.005 C 
ATOM     10  C   UNL     1       3.880  21.004   7.542  1.00  0.00     0.008 C 
ATOM     11  C   UNL     1       3.142  22.080   6.688  1.00  0.00    -0.018 C 
ATOM     12  C   UNL     1       4.010  23.362   6.672  1.00  0.00     0.088 C 
ATOM     13  C   UNL     1       3.486  24.391   5.713  1.00  0.00     0.159 C 
ATOM     14  O   UNL     1       3.475  25.599   6.071  1.00  0.00    -0.295 OA
ATOM     15  C   UNL     1       1.765  22.401   7.332  1.00  0.00     0.012 C 
ATOM     16  C   UNL     1       2.334  24.427   1.990  1.00  0.00     0.039 C 
ENDROOT
TORSDOF 0
ENDMDL
MODEL 8
REMARK VINA RESULT:    -4.322      1.892      3.279
REMARK INTER + INTRA:          -4.322
REMARK INTER:                  -4.322
REMARK INTRA:                   0.000
REMARK UNBOUND:                 0.000
REMARK SMILES C=C1CCC[C@@]2(C)CC(=O)C(=C(C)C)C[C@H]12
REMARK SMILES IDX 13 1 12 2 11 3 15 4 16 5 2 6 1 7 3 8 4 9 5 10 6 11 8 12 9 13
REMARK SMILES IDX 10 14 7 15 14 16
REMARK H PARENT
REMARK Flexibility Score: inf
ROOT
ATOM      1  C   UNL     1       4.995  19.939   1.019  1.00  0.00     0.039 C 
ATOM      2  C   UNL     1       5.174  20.340   2.464  1.00  0.00    -0.070 C 
ATOM      3  C   UNL     1       4.216  21.042   3.141  1.00  0.00    -0.006 C 
ATOM      4  C   UNL     1       4.437  21.490   4.579  1.00  0.00     0.047 C 
ATOM      5  C   UNL     1       3.692  22.806   4.919  1.00  0.00     0.025 C 
ATOM      6  C   UNL     1       3.844  23.285   6.363  1.00  0.00    -0.073 C 
ATOM      7  C   UNL     1       4.556  22.633   7.302  1.00  0.00     0.008 C 
ATOM      8  C   UNL     1       3.177  24.596   6.705  1.00  0.00     0.031 C 
ATOM      9  C   UNL     1       1.699  24.563   6.304  1.00  0.00     0.005 C 
ATOM     10  C   UNL     1       1.518  24.126   4.840  1.00  0.00     0.008 C 
ATOM     11  C   UNL     1       2.182  22.752   4.525  1.00  0.00    -0.018 C 
ATOM     12  C   UNL     1       2.077  22.503   3.001  1.00  0.00     0.088 C 
ATOM     13  C   UNL     1       2.864  21.301   2.566  1.00  0.00     0.159 C 
ATOM     14  O   UNL     1       2.351  20.517   1.723  1.00  0.00    -0.295 OA
ATOM     15  C   UNL     1       1.428  21.624   5.282  1.00  0.00     0.012 C 
ATOM     16  C   UNL     1       6.481  19.962   3.123  1.00  0.00     0.039 C 
ENDROOT
TORSDOF 0
ENDMDL
MODEL 9
REMARK VINA RESULT:    -4.075      2.681      4.809
REMARK INTER + INTRA:          -4.075
REMARK INTER:                  -4.075
REMARK INTRA:                   0.000
REMARK UNBOUND:                 0.000
REMARK SMILES C=C1CCC[C@@]2(C)CC(=O)C(=C(C)C)C[C@H]12
REMARK SMILES IDX 13 1 12 2 11 3 15 4 16 5 2 6 1 7 3 8 4 9 5 10 6 11 8 12 9 13
REMARK SMILES IDX 10 14 7 15 14 16
REMARK H PARENT
REMARK Flexibility Score: inf
ROOT
ATOM      1  C   UNL     1       4.257  20.281   5.520  1.00  0.00     0.039 C 
ATOM      2  C   UNL     1       3.426  21.184   6.401  1.00  0.00    -0.070 C 
ATOM      3  C   UNL     1       3.092  22.453   6.020  1.00  0.00    -0.006 C 
ATOM      4  C   UNL     1       2.304  23.371   6.945  1.00  0.00     0.047 C 
ATOM      5  C   UNL     1       2.644  24.869   6.735  1.00  0.00     0.025 C 
ATOM      6  C   UNL     1       1.853  25.843   7.610  1.00  0.00    -0.073 C 
ATOM      7  C   UNL     1       0.916  25.466   8.500  1.00  0.00     0.008 C 
ATOM      8  C   UNL     1       2.207  27.304   7.468  1.00  0.00     0.031 C 
ATOM      9  C   UNL     1       2.142  27.729   5.998  1.00  0.00     0.005 C 
ATOM     10  C   UNL     1       2.965  26.791   5.099  1.00  0.00     0.008 C 
ATOM     11  C   UNL     1       2.552  25.294   5.236  1.00  0.00    -0.018 C 
ATOM     12  C   UNL     1       3.552  24.441   4.418  1.00  0.00     0.088 C 
ATOM     13  C   UNL     1       3.363  22.970   4.647  1.00  0.00     0.159 C 
ATOM     14  O   UNL     1       3.423  22.193   3.656  1.00  0.00    -0.295 OA
ATOM     15  C   UNL     1       1.121  25.095   4.665  1.00  0.00     0.012 C 
ATOM     16  C   UNL     1       3.009  20.633   7.746  1.00  0.00     0.039 C 
ENDROOT
TORSDOF 0
ENDMDL
