MODEL 1
REMARK VINA RESULT:    -5.880      0.000      0.000
REMARK INTER + INTRA:          -6.702
REMARK INTER:                  -6.395
REMARK INTRA:                  -0.307
REMARK UNBOUND:                -0.307
REMARK SMILES C=C1C[C@]2(O)O[C@]3(C[C@H]2C(C)C)[C@@H](C)CC[C@@H]13
REMARK SMILES IDX 14 1 13 2 15 3 16 4 17 5 7 6 8 7 9 8 4 9 6 10 3 11 2 12 1 13
REMARK SMILES IDX 10 14 11 15 12 16 5 17
REMARK H PARENT 5 18
REMARK Flexibility Score: inf
ROOT
ATOM      1  C   UNL     1       2.531   4.860  -2.108  1.00  0.00     0.011 C 
ATOM      2  C   UNL     1       1.011   4.887  -2.320  1.00  0.00     0.019 C 
ATOM      3  C   UNL     1       0.546   6.004  -3.283  1.00  0.00     0.007 C 
ATOM      4  C   UNL     1      -0.720   5.479  -3.993  1.00  0.00     0.011 C 
ATOM      5  C   UNL     1      -1.018   4.164  -3.283  1.00  0.00     0.047 C 
ATOM      6  C   UNL     1       0.363   3.615  -2.898  1.00  0.00     0.081 C 
ATOM      7  C   UNL     1       1.138   2.972  -4.074  1.00  0.00     0.046 C 
ATOM      8  C   UNL     1       0.711   1.500  -4.044  1.00  0.00     0.054 C 
ATOM      9  C   UNL     1      -0.241   1.487  -2.809  1.00  0.00     0.173 C 
ATOM     10  O   UNL     1       0.155   2.575  -1.980  1.00  0.00    -0.342 OA
ATOM     11  C   UNL     1      -1.711   1.707  -3.304  1.00  0.00     0.096 C 
ATOM     12  C   UNL     1      -1.842   3.083  -3.937  1.00  0.00    -0.066 C 
ATOM     13  C   UNL     1      -2.783   3.345  -4.854  1.00  0.00     0.008 C 
ENDROOT
BRANCH   8  14
ATOM     14  C   UNL     1       1.891   0.467  -3.991  1.00  0.00    -0.009 C 
ATOM     15  C   UNL     1       2.191  -0.093  -5.398  1.00  0.00     0.008 C 
ATOM     16  C   UNL     1       3.201   1.083  -3.451  1.00  0.00     0.008 C 
ENDBRANCH   8  14
BRANCH   9  17
ATOM     17  O   UNL     1      -0.159   0.292  -2.078  1.00  0.00    -0.365 OA
ATOM     18  H   UNL     1      -0.141  -0.452  -2.735  1.00  0.00     0.214 HD
ENDBRANCH   9  17
TORSDOF 2
ENDMDL
MODEL 2
REMARK VINA RESULT:    -5.865      1.689      2.549
REMARK INTER + INTRA:          -6.686
REMARK INTER:                  -6.379
REMARK INTRA:                  -0.307
REMARK UNBOUND:                -0.307
REMARK SMILES C=C1C[C@]2(O)O[C@]3(C[C@H]2C(C)C)[C@@H](C)CC[C@@H]13
REMARK SMILES IDX 14 1 13 2 15 3 16 4 17 5 7 6 8 7 9 8 4 9 6 10 3 11 2 12 1 13
REMARK SMILES IDX 10 14 11 15 12 16 5 17
REMARK H PARENT 5 18
REMARK Flexibility Score: inf
ROOT
ATOM      1  C   UNL     1       0.121   4.317  -3.763  1.00  0.00     0.011 C 
ATOM      2  C   UNL     1      -1.372   3.964  -3.826  1.00  0.00     0.019 C 
ATOM      3  C   UNL     1      -2.084   4.534  -5.075  1.00  0.00     0.007 C 
ATOM      4  C   UNL     1      -3.216   3.546  -5.429  1.00  0.00     0.011 C 
ATOM      5  C   UNL     1      -3.210   2.554  -4.273  1.00  0.00     0.047 C 
ATOM      6  C   UNL     1      -1.736   2.468  -3.850  1.00  0.00     0.081 C 
ATOM      7  C   UNL     1      -0.858   1.604  -4.789  1.00  0.00     0.046 C 
ATOM      8  C   UNL     1      -0.954   0.193  -4.196  1.00  0.00     0.054 C 
ATOM      9  C   UNL     1      -1.861   0.448  -2.954  1.00  0.00     0.173 C 
ATOM     10  O   UNL     1      -1.697   1.819  -2.607  1.00  0.00    -0.342 OA
ATOM     11  C   UNL     1      -3.350   0.176  -3.354  1.00  0.00     0.096 C 
ATOM     12  C   UNL     1      -3.788   1.168  -4.419  1.00  0.00    -0.066 C 
ATOM     13  C   UNL     1      -4.778   0.884  -5.276  1.00  0.00     0.008 C 
ENDROOT
BRANCH   8  14
ATOM     14  C   UNL     1       0.424  -0.494  -3.892  1.00  0.00    -0.009 C 
ATOM     15  C   UNL     1       0.920  -1.292  -5.117  1.00  0.00     0.008 C 
ATOM     16  C   UNL     1       1.530   0.520  -3.524  1.00  0.00     0.008 C 
ENDBRANCH   8  14
BRANCH   9  17
ATOM     17  O   UNL     1      -1.509  -0.354  -1.857  1.00  0.00    -0.365 OA
ATOM     18  H   UNL     1      -0.886  -1.051  -2.192  1.00  0.00     0.214 HD
ENDBRANCH   9  17
TORSDOF 2
ENDMDL
MODEL 3
REMARK VINA RESULT:    -5.818      2.610      3.594
REMARK INTER + INTRA:          -6.635
REMARK INTER:                  -6.388
REMARK INTRA:                  -0.247
REMARK UNBOUND:                -0.307
REMARK SMILES C=C1C[C@]2(O)O[C@]3(C[C@H]2C(C)C)[C@@H](C)CC[C@@H]13
REMARK SMILES IDX 14 1 13 2 15 3 16 4 17 5 7 6 8 7 9 8 4 9 6 10 3 11 2 12 1 13
REMARK SMILES IDX 10 14 11 15 12 16 5 17
REMARK H PARENT 5 18
REMARK Flexibility Score: inf
ROOT
ATOM      1  C   UNL     1       1.979   0.712  -3.290  1.00  0.00     0.011 C 
ATOM      2  C   UNL     1       0.662   1.492  -3.182  1.00  0.00     0.019 C 
ATOM      3  C   UNL     1       0.509   2.589  -4.260  1.00  0.00     0.007 C 
ATOM      4  C   UNL     1      -1.002   2.719  -4.549  1.00  0.00     0.011 C 
ATOM      5  C   UNL     1      -1.653   1.818  -3.507  1.00  0.00     0.047 C 
ATOM      6  C   UNL     1      -0.642   0.681  -3.301  1.00  0.00     0.081 C 
ATOM      7  C   UNL     1      -0.644  -0.379  -4.430  1.00  0.00     0.046 C 
ATOM      8  C   UNL     1      -1.676  -1.415  -3.970  1.00  0.00     0.054 C 
ATOM      9  C   UNL     1      -2.110  -0.819  -2.596  1.00  0.00     0.173 C 
ATOM     10  O   UNL     1      -1.027  -0.013  -2.143  1.00  0.00    -0.342 OA
ATOM     11  C   UNL     1      -3.380   0.071  -2.812  1.00  0.00     0.096 C 
ATOM     12  C   UNL     1      -3.036   1.251  -3.706  1.00  0.00    -0.066 C 
ATOM     13  C   UNL     1      -3.971   1.867  -4.442  1.00  0.00     0.008 C 
ENDROOT
BRANCH   8  14
ATOM     14  C   UNL     1      -1.156  -2.896  -3.925  1.00  0.00    -0.009 C 
ATOM     15  C   UNL     1      -2.178  -3.853  -4.575  1.00  0.00     0.008 C 
ATOM     16  C   UNL     1       0.186  -3.081  -4.666  1.00  0.00     0.008 C 
ENDBRANCH   8  14
BRANCH   9  17
ATOM     17  O   UNL     1      -2.381  -1.811  -1.641  1.00  0.00    -0.365 OA
ATOM     18  H   UNL     1      -2.407  -2.680  -2.120  1.00  0.00     0.214 HD
ENDBRANCH   9  17
TORSDOF 2
ENDMDL
MODEL 4
REMARK VINA RESULT:    -5.790      6.176      8.936
REMARK INTER + INTRA:          -6.605
REMARK INTER:                  -6.302
REMARK INTRA:                  -0.304
REMARK UNBOUND:                -0.307
REMARK SMILES C=C1C[C@]2(O)O[C@]3(C[C@H]2C(C)C)[C@@H](C)CC[C@@H]13
REMARK SMILES IDX 14 1 13 2 15 3 16 4 17 5 7 6 8 7 9 8 4 9 6 10 3 11 2 12 1 13
REMARK SMILES IDX 10 14 11 15 12 16 5 17
REMARK H PARENT 5 18
REMARK Flexibility Score: inf
ROOT
ATOM      1  C   UNL     1      -6.092  -4.230   0.943  1.00  0.00     0.011 C 
ATOM      2  C   UNL     1      -4.695  -3.908   0.396  1.00  0.00     0.019 C 
ATOM      3  C   UNL     1      -3.919  -5.159  -0.078  1.00  0.00     0.007 C 
ATOM      4  C   UNL     1      -3.002  -4.701  -1.232  1.00  0.00     0.011 C 
ATOM      5  C   UNL     1      -3.167  -3.186  -1.251  1.00  0.00     0.047 C 
ATOM      6  C   UNL     1      -4.619  -2.954  -0.811  1.00  0.00     0.081 C 
ATOM      7  C   UNL     1      -5.667  -3.228  -1.917  1.00  0.00     0.046 C 
ATOM      8  C   UNL     1      -5.825  -1.878  -2.626  1.00  0.00     0.054 C 
ATOM      9  C   UNL     1      -4.856  -0.984  -1.792  1.00  0.00     0.173 C 
ATOM     10  O   UNL     1      -4.749  -1.590  -0.508  1.00  0.00    -0.342 OA
ATOM     11  C   UNL     1      -3.454  -0.974  -2.491  1.00  0.00     0.096 C 
ATOM     12  C   UNL     1      -2.864  -2.374  -2.485  1.00  0.00    -0.066 C 
ATOM     13  C   UNL     1      -1.967  -2.759  -3.403  1.00  0.00     0.008 C 
ENDROOT
BRANCH   8  14
ATOM     14  C   UNL     1      -7.299  -1.351  -2.731  1.00  0.00    -0.009 C 
ATOM     15  C   UNL     1      -7.979  -1.880  -4.012  1.00  0.00     0.008 C 
ATOM     16  C   UNL     1      -8.175  -1.781  -1.533  1.00  0.00     0.008 C 
ENDBRANCH   8  14
BRANCH   9  17
ATOM     17  O   UNL     1      -5.326   0.330  -1.649  1.00  0.00    -0.365 OA
ATOM     18  H   UNL     1      -5.593   0.444  -0.699  1.00  0.00     0.214 HD
ENDBRANCH   9  17
TORSDOF 2
ENDMDL
MODEL 5
REMARK VINA RESULT:    -5.652      7.571     10.125
REMARK INTER + INTRA:          -6.455
REMARK INTER:                  -6.198
REMARK INTRA:                  -0.257
REMARK UNBOUND:                -0.307
REMARK SMILES C=C1C[C@]2(O)O[C@]3(C[C@H]2C(C)C)[C@@H](C)CC[C@@H]13
REMARK SMILES IDX 14 1 13 2 15 3 16 4 17 5 7 6 8 7 9 8 4 9 6 10 3 11 2 12 1 13
REMARK SMILES IDX 10 14 11 15 12 16 5 17
REMARK H PARENT 5 18
REMARK Flexibility Score: inf
ROOT
ATOM      1  C   UNL     1      -8.483  -2.233   2.423  1.00  0.00     0.011 C 
ATOM      2  C   UNL     1      -6.991  -2.544   2.243  1.00  0.00     0.019 C 
ATOM      3  C   UNL     1      -6.607  -3.977   2.680  1.00  0.00     0.007 C 
ATOM      4  C   UNL     1      -5.425  -4.410   1.787  1.00  0.00     0.011 C 
ATOM      5  C   UNL     1      -5.077  -3.151   1.003  1.00  0.00     0.047 C 
ATOM      6  C   UNL     1      -6.422  -2.434   0.816  1.00  0.00     0.081 C 
ATOM      7  C   UNL     1      -7.318  -3.048  -0.287  1.00  0.00     0.046 C 
ATOM      8  C   UNL     1      -6.912  -2.298  -1.561  1.00  0.00     0.054 C 
ATOM      9  C   UNL     1      -5.844  -1.309  -1.001  1.00  0.00     0.173 C 
ATOM     10  O   UNL     1      -6.141  -1.130   0.380  1.00  0.00    -0.342 OA
ATOM     11  C   UNL     1      -4.427  -1.958  -1.158  1.00  0.00     0.096 C 
ATOM     12  C   UNL     1      -4.338  -3.216  -0.310  1.00  0.00    -0.066 C 
ATOM     13  C   UNL     1      -3.488  -4.206  -0.613  1.00  0.00     0.008 C 
ENDROOT
BRANCH   8  14
ATOM     14  C   UNL     1      -8.097  -1.631  -2.345  1.00  0.00    -0.009 C 
ATOM     15  C   UNL     1      -8.040  -2.005  -3.842  1.00  0.00     0.008 C 
ATOM     16  C   UNL     1      -9.482  -2.061  -1.814  1.00  0.00     0.008 C 
ENDBRANCH   8  14
BRANCH   9  17
ATOM     17  O   UNL     1      -5.871  -0.064  -1.648  1.00  0.00    -0.365 OA
ATOM     18  H   UNL     1      -5.416  -0.179  -2.523  1.00  0.00     0.214 HD
ENDBRANCH   9  17
TORSDOF 2
ENDMDL
MODEL 6
REMARK VINA RESULT:    -5.560      1.270      4.790
REMARK INTER + INTRA:          -6.355
REMARK INTER:                  -6.047
REMARK INTRA:                  -0.308
REMARK UNBOUND:                -0.307
REMARK SMILES C=C1C[C@]2(O)O[C@]3(C[C@H]2C(C)C)[C@@H](C)CC[C@@H]13
REMARK SMILES IDX 14 1 13 2 15 3 16 4 17 5 7 6 8 7 9 8 4 9 6 10 3 11 2 12 1 13
REMARK SMILES IDX 10 14 11 15 12 16 5 17
REMARK H PARENT 5 18
REMARK Flexibility Score: inf
ROOT
ATOM      1  C   UNL     1      -2.163   1.923  -3.558  1.00  0.00     0.011 C 
ATOM      2  C   UNL     1      -0.858   1.184  -3.228  1.00  0.00     0.019 C 
ATOM      3  C   UNL     1      -0.425   0.186  -4.327  1.00  0.00     0.007 C 
ATOM      4  C   UNL     1       1.118   0.135  -4.295  1.00  0.00     0.011 C 
ATOM      5  C   UNL     1       1.486   0.968  -3.073  1.00  0.00     0.047 C 
ATOM      6  C   UNL     1       0.397   2.048  -3.005  1.00  0.00     0.081 C 
ATOM      7  C   UNL     1       0.581   3.198  -4.025  1.00  0.00     0.046 C 
ATOM      8  C   UNL     1       1.437   4.227  -3.280  1.00  0.00     0.054 C 
ATOM      9  C   UNL     1       1.603   3.534  -1.892  1.00  0.00     0.173 C 
ATOM     10  O   UNL     1       0.493   2.655  -1.743  1.00  0.00    -0.342 OA
ATOM     11  C   UNL     1       2.934   2.711  -1.897  1.00  0.00     0.096 C 
ATOM     12  C   UNL     1       2.849   1.598  -2.929  1.00  0.00    -0.066 C 
ATOM     13  C   UNL     1       3.949   1.079  -3.492  1.00  0.00     0.008 C 
ENDROOT
BRANCH   8  14
ATOM     14  C   UNL     1       0.843   5.679  -3.238  1.00  0.00    -0.009 C 
ATOM     15  C   UNL     1       1.359   6.516  -4.428  1.00  0.00     0.008 C 
ATOM     16  C   UNL     1      -0.700   5.696  -3.297  1.00  0.00     0.008 C 
ENDBRANCH   8  14
BRANCH   9  17
ATOM     17  O   UNL     1       1.615   4.452  -0.831  1.00  0.00    -0.365 OA
ATOM     18  H   UNL     1       2.042   5.283  -1.167  1.00  0.00     0.214 HD
ENDBRANCH   9  17
TORSDOF 2
ENDMDL
MODEL 7
REMARK VINA RESULT:    -5.489      6.236      8.803
REMARK INTER + INTRA:          -6.278
REMARK INTER:                  -6.031
REMARK INTRA:                  -0.247
REMARK UNBOUND:                -0.307
REMARK SMILES C=C1C[C@]2(O)O[C@]3(C[C@H]2C(C)C)[C@@H](C)CC[C@@H]13
REMARK SMILES IDX 14 1 13 2 15 3 16 4 17 5 7 6 8 7 9 8 4 9 6 10 3 11 2 12 1 13
REMARK SMILES IDX 10 14 11 15 12 16 5 17
REMARK H PARENT 5 18
REMARK Flexibility Score: inf
ROOT
ATOM      1  C   UNL     1      -8.491  -1.501  -0.064  1.00  0.00     0.011 C 
ATOM      2  C   UNL     1      -7.026  -1.837   0.243  1.00  0.00     0.019 C 
ATOM      3  C   UNL     1      -6.819  -3.291   0.726  1.00  0.00     0.007 C 
ATOM      4  C   UNL     1      -5.412  -3.718   0.255  1.00  0.00     0.011 C 
ATOM      5  C   UNL     1      -4.816  -2.440  -0.322  1.00  0.00     0.047 C 
ATOM      6  C   UNL     1      -6.018  -1.690  -0.912  1.00  0.00     0.081 C 
ATOM      7  C   UNL     1      -6.506  -2.248  -2.271  1.00  0.00     0.046 C 
ATOM      8  C   UNL     1      -5.697  -1.463  -3.310  1.00  0.00     0.054 C 
ATOM      9  C   UNL     1      -4.864  -0.517  -2.393  1.00  0.00     0.173 C 
ATOM     10  O   UNL     1      -5.598  -0.378  -1.181  1.00  0.00    -0.342 OA
ATOM     11  C   UNL     1      -3.480  -1.189  -2.101  1.00  0.00     0.096 C 
ATOM     12  C   UNL     1      -3.686  -2.477  -1.321  1.00  0.00    -0.066 C 
ATOM     13  C   UNL     1      -2.792  -3.473  -1.366  1.00  0.00     0.008 C 
ENDROOT
BRANCH   8  14
ATOM     14  C   UNL     1      -6.552  -0.746  -4.414  1.00  0.00    -0.009 C 
ATOM     15  C   UNL     1      -5.953  -0.991  -5.815  1.00  0.00     0.008 C 
ATOM     16  C   UNL     1      -8.018  -1.234  -4.447  1.00  0.00     0.008 C 
ENDBRANCH   8  14
BRANCH   9  17
ATOM     17  O   UNL     1      -4.667   0.750  -2.964  1.00  0.00    -0.365 OA
ATOM     18  H   UNL     1      -5.410   1.331  -2.653  1.00  0.00     0.214 HD
ENDBRANCH   9  17
TORSDOF 2
ENDMDL
MODEL 8
REMARK VINA RESULT:    -5.450      1.807      5.194
REMARK INTER + INTRA:          -6.235
REMARK INTER:                  -5.929
REMARK INTRA:                  -0.306
REMARK UNBOUND:                -0.307
REMARK SMILES C=C1C[C@]2(O)O[C@]3(C[C@H]2C(C)C)[C@@H](C)CC[C@@H]13
REMARK SMILES IDX 14 1 13 2 15 3 16 4 17 5 7 6 8 7 9 8 4 9 6 10 3 11 2 12 1 13
REMARK SMILES IDX 10 14 11 15 12 16 5 17
REMARK H PARENT 5 18
REMARK Flexibility Score: inf
ROOT
ATOM      1  C   UNL     1      -2.374  -1.554  -4.354  1.00  0.00     0.011 C 
ATOM      2  C   UNL     1      -0.949  -1.247  -3.873  1.00  0.00     0.019 C 
ATOM      3  C   UNL     1       0.146  -1.863  -4.775  1.00  0.00     0.007 C 
ATOM      4  C   UNL     1       1.364  -0.917  -4.701  1.00  0.00     0.011 C 
ATOM      5  C   UNL     1       0.974   0.099  -3.634  1.00  0.00     0.047 C 
ATOM      6  C   UNL     1      -0.548   0.236  -3.775  1.00  0.00     0.081 C 
ATOM      7  C   UNL     1      -0.996   1.108  -4.975  1.00  0.00     0.046 C 
ATOM      8  C   UNL     1      -1.072   2.526  -4.400  1.00  0.00     0.054 C 
ATOM      9  C   UNL     1      -0.687   2.270  -2.910  1.00  0.00     0.173 C 
ATOM     10  O   UNL     1      -1.013   0.911  -2.636  1.00  0.00    -0.342 OA
ATOM     11  C   UNL     1       0.855   2.488  -2.744  1.00  0.00     0.096 C 
ATOM     12  C   UNL     1       1.614   1.463  -3.571  1.00  0.00    -0.066 C 
ATOM     13  C   UNL     1       2.857   1.700  -4.012  1.00  0.00     0.008 C 
ENDROOT
BRANCH   8  14
ATOM     14  C   UNL     1      -2.441   3.260  -4.621  1.00  0.00    -0.009 C 
ATOM     15  C   UNL     1      -2.436   4.036  -5.956  1.00  0.00     0.008 C 
ATOM     16  C   UNL     1      -3.642   2.289  -4.657  1.00  0.00     0.008 C 
ENDBRANCH   8  14
BRANCH   9  17
ATOM     17  O   UNL     1      -1.384   3.103  -2.023  1.00  0.00    -0.365 OA
ATOM     18  H   UNL     1      -0.968   2.991  -1.128  1.00  0.00     0.214 HD
ENDBRANCH   9  17
TORSDOF 2
ENDMDL
MODEL 9
REMARK VINA RESULT:    -5.365      1.859      5.415
REMARK INTER + INTRA:          -6.143
REMARK INTER:                  -5.839
REMARK INTRA:                  -0.304
REMARK UNBOUND:                -0.307
REMARK SMILES C=C1C[C@]2(O)O[C@]3(C[C@H]2C(C)C)[C@@H](C)CC[C@@H]13
REMARK SMILES IDX 14 1 13 2 15 3 16 4 17 5 7 6 8 7 9 8 4 9 6 10 3 11 2 12 1 13
REMARK SMILES IDX 10 14 11 15 12 16 5 17
REMARK H PARENT 5 18
REMARK Flexibility Score: inf
ROOT
ATOM      1  C   UNL     1      -2.382  -1.467  -4.305  1.00  0.00     0.011 C 
ATOM      2  C   UNL     1      -0.868  -1.673  -4.156  1.00  0.00     0.019 C 
ATOM      3  C   UNL     1      -0.232  -2.425  -5.348  1.00  0.00     0.007 C 
ATOM      4  C   UNL     1       1.214  -1.901  -5.481  1.00  0.00     0.011 C 
ATOM      5  C   UNL     1       1.393  -1.006  -4.261  1.00  0.00     0.047 C 
ATOM      6  C   UNL     1      -0.000  -0.409  -4.018  1.00  0.00     0.081 C 
ATOM      7  C   UNL     1      -0.373   0.740  -4.987  1.00  0.00     0.046 C 
ATOM      8  C   UNL     1       0.127   2.005  -4.279  1.00  0.00     0.054 C 
ATOM      9  C   UNL     1       0.698   1.405  -2.957  1.00  0.00     0.173 C 
ATOM     10  O   UNL     1       0.014   0.175  -2.742  1.00  0.00    -0.342 OA
ATOM     11  C   UNL     1       2.228   1.134  -3.148  1.00  0.00     0.096 C 
ATOM     12  C   UNL     1       2.436   0.082  -4.225  1.00  0.00    -0.066 C 
ATOM     13  C   UNL     1       3.575   0.016  -4.928  1.00  0.00     0.008 C 
ENDROOT
BRANCH   8  14
ATOM     14  C   UNL     1      -0.949   3.132  -4.094  1.00  0.00    -0.009 C 
ATOM     15  C   UNL     1      -0.746   4.257  -5.132  1.00  0.00     0.008 C 
ATOM     16  C   UNL     1      -2.394   2.612  -4.254  1.00  0.00     0.008 C 
ENDBRANCH   8  14
BRANCH   9  17
ATOM     17  O   UNL     1       0.498   2.248  -1.853  1.00  0.00    -0.365 OA
ATOM     18  H   UNL     1      -0.316   1.927  -1.384  1.00  0.00     0.214 HD
ENDBRANCH   9  17
TORSDOF 2
ENDMDL
