MODEL 1
REMARK VINA RESULT:    -4.571      0.000      0.000
REMARK INTER + INTRA:          -7.077
REMARK INTER:                  -6.708
REMARK INTRA:                  -0.369
REMARK UNBOUND:                -0.369
REMARK SMILES O=C([O-])CCCCCCCC(=O)[O-]
REMARK SMILES IDX 7 1 6 2 5 3 4 4 2 5 1 6 3 7 8 8 9 9 10 10 11 11 12 12 13 13
REMARK H PARENT
REMARK Flexibility Score: inf
ROOT
ATOM      1  C   UNL     1     158.401 145.822 152.291  1.00  0.00     0.000 C 
ENDROOT
BRANCH   1   2
ATOM      2  C   UNL     1     159.721 145.461 152.981  1.00  0.00     0.000 C 
BRANCH   2   3
ATOM      3  C   UNL     1     159.676 145.814 154.475  1.00  0.00     0.006 C 
BRANCH   3   4
ATOM      4  C   UNL     1     160.937 146.559 154.935  1.00  0.00     0.053 C 
BRANCH   4   5
ATOM      5  C   UNL     1     160.661 148.006 155.205  1.00  0.00     0.041 C 
ATOM      6  O   UNL     1     161.371 148.644 156.025  1.00  0.00    -0.550 OA
ATOM      7  O   UNL     1     159.640 148.659 154.526  1.00  0.00    -0.550 OA
ENDBRANCH   4   5
ENDBRANCH   3   4
ENDBRANCH   2   3
ENDBRANCH   1   2
BRANCH   1   8
ATOM      8  C   UNL     1     157.903 144.662 151.416  1.00  0.00     0.000 C 
BRANCH   8   9
ATOM      9  C   UNL     1     157.649 145.082 149.957  1.00  0.00     0.006 C 
BRANCH   9  10
ATOM     10  C   UNL     1     158.395 144.233 148.916  1.00  0.00     0.053 C 
BRANCH  10  11
ATOM     11  C   UNL     1     159.795 144.717 148.696  1.00  0.00     0.041 C 
ATOM     12  O   UNL     1     160.600 144.038 148.006  1.00  0.00    -0.550 OA
ATOM     13  O   UNL     1     160.200 145.936 149.226  1.00  0.00    -0.550 OA
ENDBRANCH  10  11
ENDBRANCH   9  10
ENDBRANCH   8   9
ENDBRANCH   1   8
TORSDOF 8
ENDMDL
MODEL 2
REMARK VINA RESULT:    -4.537      0.812      6.579
REMARK INTER + INTRA:          -7.028
REMARK INTER:                  -6.771
REMARK INTRA:                  -0.256
REMARK UNBOUND:                -0.369
REMARK SMILES O=C([O-])CCCCCCCC(=O)[O-]
REMARK SMILES IDX 7 1 6 2 5 3 4 4 2 5 1 6 3 7 8 8 9 9 10 10 11 11 12 12 13 13
REMARK H PARENT
REMARK Flexibility Score: inf
ROOT
ATOM      1  C   UNL     1     158.332 145.850 152.083  1.00  0.00     0.000 C 
ENDROOT
BRANCH   1   2
ATOM      2  C   UNL     1     158.099 144.659 151.147  1.00  0.00     0.000 C 
BRANCH   2   3
ATOM      3  C   UNL     1     158.007 145.117 149.684  1.00  0.00     0.006 C 
BRANCH   3   4
ATOM      4  C   UNL     1     158.164 143.950 148.698  1.00  0.00     0.053 C 
BRANCH   4   5
ATOM      5  C   UNL     1     159.502 143.965 148.027  1.00  0.00     0.041 C 
ATOM      6  O   UNL     1     160.555 144.029 148.714  1.00  0.00    -0.550 OA
ATOM      7  O   UNL     1     159.588 143.875 146.643  1.00  0.00    -0.550 OA
ENDBRANCH   4   5
ENDBRANCH   3   4
ENDBRANCH   2   3
ENDBRANCH   1   2
BRANCH   1   8
ATOM      8  C   UNL     1     158.755 145.377 153.481  1.00  0.00     0.000 C 
BRANCH   8   9
ATOM      9  C   UNL     1     160.182 145.820 153.855  1.00  0.00     0.006 C 
BRANCH   9  10
ATOM     10  C   UNL     1     160.303 146.448 155.253  1.00  0.00     0.053 C 
BRANCH  10  11
ATOM     11  C   UNL     1     160.487 147.933 155.186  1.00  0.00     0.041 C 
ATOM     12  O   UNL     1     159.646 148.649 154.583  1.00  0.00    -0.550 OA
ATOM     13  O   UNL     1     161.572 148.527 155.818  1.00  0.00    -0.550 OA
ENDBRANCH  10  11
ENDBRANCH   9  10
ENDBRANCH   8   9
ENDBRANCH   1   8
TORSDOF 8
ENDMDL
MODEL 3
REMARK VINA RESULT:    -3.902      1.542      2.071
REMARK INTER + INTRA:          -6.096
REMARK INTER:                  -5.743
REMARK INTRA:                  -0.353
REMARK UNBOUND:                -0.369
REMARK SMILES O=C([O-])CCCCCCCC(=O)[O-]
REMARK SMILES IDX 7 1 6 2 5 3 4 4 2 5 1 6 3 7 8 8 9 9 10 10 11 11 12 12 13 13
REMARK H PARENT
REMARK Flexibility Score: inf
ROOT
ATOM      1  C   UNL     1     159.909 145.500 152.179  1.00  0.00     0.000 C 
ENDROOT
BRANCH   1   2
ATOM      2  C   UNL     1     159.021 145.217 153.397  1.00  0.00     0.000 C 
BRANCH   2   3
ATOM      3  C   UNL     1     159.712 145.655 154.697  1.00  0.00     0.006 C 
BRANCH   3   4
ATOM      4  C   UNL     1     160.913 146.575 154.435  1.00  0.00     0.053 C 
BRANCH   4   5
ATOM      5  C   UNL     1     160.707 147.939 155.018  1.00  0.00     0.041 C 
ATOM      6  O   UNL     1     161.520 148.397 155.862  1.00  0.00    -0.550 OA
ATOM      7  O   UNL     1     159.634 148.718 154.604  1.00  0.00    -0.550 OA
ENDBRANCH   4   5
ENDBRANCH   3   4
ENDBRANCH   2   3
ENDBRANCH   1   2
BRANCH   1   8
ATOM      8  C   UNL     1     160.496 144.199 151.612  1.00  0.00     0.000 C 
BRANCH   8   9
ATOM      9  C   UNL     1     160.130 143.974 150.134  1.00  0.00     0.006 C 
BRANCH   9  10
ATOM     10  C   UNL     1     159.407 145.159 149.474  1.00  0.00     0.053 C 
BRANCH  10  11
ATOM     11  C   UNL     1     157.921 144.973 149.461  1.00  0.00     0.041 C 
ATOM     12  O   UNL     1     157.171 145.824 150.006  1.00  0.00    -0.550 OA
ATOM     13  O   UNL     1     157.364 143.875 148.818  1.00  0.00    -0.550 OA
ENDBRANCH  10  11
ENDBRANCH   9  10
ENDBRANCH   8   9
ENDBRANCH   1   8
TORSDOF 8
ENDMDL
MODEL 4
REMARK VINA RESULT:    -3.154      1.547      6.794
REMARK INTER + INTRA:          -4.998
REMARK INTER:                  -4.759
REMARK INTRA:                  -0.239
REMARK UNBOUND:                -0.369
REMARK SMILES O=C([O-])CCCCCCCC(=O)[O-]
REMARK SMILES IDX 7 1 6 2 5 3 4 4 2 5 1 6 3 7 8 8 9 9 10 10 11 11 12 12 13 13
REMARK H PARENT
REMARK Flexibility Score: inf
ROOT
ATOM      1  C   UNL     1     158.093 145.972 150.675  1.00  0.00     0.000 C 
ENDROOT
BRANCH   1   2
ATOM      2  C   UNL     1     159.156 145.725 149.598  1.00  0.00     0.000 C 
BRANCH   2   3
ATOM      3  C   UNL     1     159.314 144.224 149.314  1.00  0.00     0.006 C 
BRANCH   3   4
ATOM      4  C   UNL     1     160.454 143.936 148.326  1.00  0.00     0.053 C 
BRANCH   4   5
ATOM      5  C   UNL     1     159.971 143.926 146.908  1.00  0.00     0.041 C 
ATOM      6  O   UNL     1     160.797 143.890 145.959  1.00  0.00    -0.550 OA
ATOM      7  O   UNL     1     158.609 143.923 146.636  1.00  0.00    -0.550 OA
ENDBRANCH   4   5
ENDBRANCH   3   4
ENDBRANCH   2   3
ENDBRANCH   1   2
BRANCH   1   8
ATOM      8  C   UNL     1     158.586 145.502 152.052  1.00  0.00     0.000 C 
BRANCH   8   9
ATOM      9  C   UNL     1     159.050 146.665 152.948  1.00  0.00     0.006 C 
BRANCH   9  10
ATOM     10  C   UNL     1     159.525 146.236 154.345  1.00  0.00     0.053 C 
BRANCH  10  11
ATOM     11  C   UNL     1     160.354 147.295 155.005  1.00  0.00     0.041 C 
ATOM     12  O   UNL     1     159.829 148.089 155.829  1.00  0.00    -0.550 OA
ATOM     13  O   UNL     1     161.713 147.382 154.734  1.00  0.00    -0.550 OA
ENDBRANCH  10  11
ENDBRANCH   9  10
ENDBRANCH   8   9
ENDBRANCH   1   8
TORSDOF 8
ENDMDL
MODEL 5
REMARK VINA RESULT:    -2.705     14.743     15.830
REMARK INTER + INTRA:          -4.339
REMARK INTER:                  -4.040
REMARK INTRA:                  -0.298
REMARK UNBOUND:                -0.369
REMARK SMILES O=C([O-])CCCCCCCC(=O)[O-]
REMARK SMILES IDX 7 1 6 2 5 3 4 4 2 5 1 6 3 7 8 8 9 9 10 10 11 11 12 12 13 13
REMARK H PARENT
REMARK Flexibility Score: inf
ROOT
ATOM      1  C   UNL     1     144.275 150.757 145.252  1.00  0.00     0.000 C 
ENDROOT
BRANCH   1   2
ATOM      2  C   UNL     1     144.235 150.491 146.762  1.00  0.00     0.000 C 
BRANCH   2   3
ATOM      3  C   UNL     1     144.843 151.665 147.545  1.00  0.00     0.006 C 
BRANCH   3   4
ATOM      4  C   UNL     1     146.120 151.263 148.296  1.00  0.00     0.053 C 
BRANCH   4   5
ATOM      5  C   UNL     1     145.810 150.591 149.599  1.00  0.00     0.041 C 
ATOM      6  O   UNL     1     146.175 149.404 149.800  1.00  0.00    -0.550 OA
ATOM      7  O   UNL     1     145.148 151.287 150.602  1.00  0.00    -0.550 OA
ENDBRANCH   4   5
ENDBRANCH   3   4
ENDBRANCH   2   3
ENDBRANCH   1   2
BRANCH   1   8
ATOM      8  C   UNL     1     144.829 149.542 144.495  1.00  0.00     0.000 C 
BRANCH   8   9
ATOM      9  C   UNL     1     145.351 149.902 143.091  1.00  0.00     0.006 C 
BRANCH   9  10
ATOM     10  C   UNL     1     146.850 149.633 142.886  1.00  0.00     0.053 C 
BRANCH  10  11
ATOM     11  C   UNL     1     147.107 148.248 142.376  1.00  0.00     0.041 C 
ATOM     12  O   UNL     1     147.521 147.352 143.156  1.00  0.00    -0.550 OA
ATOM     13  O   UNL     1     146.856 147.941 141.044  1.00  0.00    -0.550 OA
ENDBRANCH  10  11
ENDBRANCH   9  10
ENDBRANCH   8   9
ENDBRANCH   1   8
TORSDOF 8
ENDMDL
MODEL 6
REMARK VINA RESULT:    -2.704     14.791     16.974
REMARK INTER + INTRA:          -4.337
REMARK INTER:                  -3.885
REMARK INTRA:                  -0.453
REMARK UNBOUND:                -0.369
REMARK SMILES O=C([O-])CCCCCCCC(=O)[O-]
REMARK SMILES IDX 7 1 6 2 5 3 4 4 2 5 1 6 3 7 8 8 9 9 10 10 11 11 12 12 13 13
REMARK H PARENT
REMARK Flexibility Score: inf
ROOT
ATOM      1  C   UNL     1     143.723 149.682 145.911  1.00  0.00     0.000 C 
ENDROOT
BRANCH   1   2
ATOM      2  C   UNL     1     144.346 150.698 144.945  1.00  0.00     0.000 C 
BRANCH   2   3
ATOM      3  C   UNL     1     144.572 150.075 143.560  1.00  0.00     0.006 C 
BRANCH   3   4
ATOM      4  C   UNL     1     145.444 148.814 143.625  1.00  0.00     0.053 C 
BRANCH   4   5
ATOM      5  C   UNL     1     146.751 149.003 142.918  1.00  0.00     0.041 C 
ATOM      6  O   UNL     1     147.591 148.066 142.878  1.00  0.00    -0.550 OA
ATOM      7  O   UNL     1     147.027 150.203 142.275  1.00  0.00    -0.550 OA
ENDBRANCH   4   5
ENDBRANCH   3   4
ENDBRANCH   2   3
ENDBRANCH   1   2
BRANCH   1   8
ATOM      8  C   UNL     1     143.912 150.122 147.370  1.00  0.00     0.000 C 
BRANCH   8   9
ATOM      9  C   UNL     1     144.748 151.409 147.501  1.00  0.00     0.006 C 
BRANCH   9  10
ATOM     10  C   UNL     1     146.054 151.236 148.293  1.00  0.00     0.053 C 
BRANCH  10  11
ATOM     11  C   UNL     1     145.821 150.589 149.624  1.00  0.00     0.041 C 
ATOM     12  O   UNL     1     145.221 151.215 150.536  1.00  0.00    -0.550 OA
ATOM     13  O   UNL     1     146.240 149.283 149.844  1.00  0.00    -0.550 OA
ENDBRANCH  10  11
ENDBRANCH   9  10
ENDBRANCH   8   9
ENDBRANCH   1   8
TORSDOF 8
ENDMDL
MODEL 7
REMARK VINA RESULT:    -2.702     16.495     18.623
REMARK INTER + INTRA:          -4.334
REMARK INTER:                  -3.839
REMARK INTRA:                  -0.495
REMARK UNBOUND:                -0.369
REMARK SMILES O=C([O-])CCCCCCCC(=O)[O-]
REMARK SMILES IDX 7 1 6 2 5 3 4 4 2 5 1 6 3 7 8 8 9 9 10 10 11 11 12 12 13 13
REMARK H PARENT
REMARK Flexibility Score: inf
ROOT
ATOM      1  C   UNL     1     144.492 149.268 142.549  1.00  0.00     0.000 C 
ENDROOT
BRANCH   1   2
ATOM      2  C   UNL     1     145.640 149.831 143.395  1.00  0.00     0.000 C 
BRANCH   2   3
ATOM      3  C   UNL     1     147.002 149.402 142.831  1.00  0.00     0.006 C 
BRANCH   3   4
ATOM      4  C   UNL     1     146.917 148.088 142.042  1.00  0.00     0.053 C 
BRANCH   4   5
ATOM      5  C   UNL     1     147.306 146.909 142.880  1.00  0.00     0.041 C 
ATOM      6  O   UNL     1     148.483 146.467 142.842  1.00  0.00    -0.550 OA
ATOM      7  O   UNL     1     146.376 146.320 143.727  1.00  0.00    -0.550 OA
ENDBRANCH   4   5
ENDBRANCH   3   4
ENDBRANCH   2   3
ENDBRANCH   1   2
BRANCH   1   8
ATOM      8  C   UNL     1     143.726 150.396 141.842  1.00  0.00     0.000 C 
BRANCH   8   9
ATOM      9  C   UNL     1     144.244 150.667 140.417  1.00  0.00     0.006 C 
BRANCH   9  10
ATOM     10  C   UNL     1     143.503 149.891 139.317  1.00  0.00     0.053 C 
BRANCH  10  11
ATOM     11  C   UNL     1     143.771 150.456 137.956  1.00  0.00     0.041 C 
ATOM     12  O   UNL     1     143.622 151.687 137.740  1.00  0.00    -0.550 OA
ATOM     13  O   UNL     1     144.215 149.626 136.934  1.00  0.00    -0.550 OA
ENDBRANCH  10  11
ENDBRANCH   9  10
ENDBRANCH   8   9
ENDBRANCH   1   8
TORSDOF 8
ENDMDL
MODEL 8
REMARK VINA RESULT:    -2.660     16.127     18.049
REMARK INTER + INTRA:          -4.273
REMARK INTER:                  -3.518
REMARK INTRA:                  -0.755
REMARK UNBOUND:                -0.369
REMARK SMILES O=C([O-])CCCCCCCC(=O)[O-]
REMARK SMILES IDX 7 1 6 2 5 3 4 4 2 5 1 6 3 7 8 8 9 9 10 10 11 11 12 12 13 13
REMARK H PARENT
REMARK Flexibility Score: inf
ROOT
ATOM      1  C   UNL     1     146.848 147.523 143.005  1.00  0.00     0.000 C 
ENDROOT
BRANCH   1   2
ATOM      2  C   UNL     1     148.014 146.535 142.884  1.00  0.00     0.000 C 
BRANCH   2   3
ATOM      3  C   UNL     1     147.703 145.438 141.856  1.00  0.00     0.006 C 
BRANCH   3   4
ATOM      4  C   UNL     1     146.510 145.801 140.961  1.00  0.00     0.053 C 
BRANCH   4   5
ATOM      5  C   UNL     1     146.948 146.221 139.592  1.00  0.00     0.041 C 
ATOM      6  O   UNL     1     147.043 145.371 138.669  1.00  0.00    -0.550 OA
ATOM      7  O   UNL     1     147.221 147.557 139.327  1.00  0.00    -0.550 OA
ENDBRANCH   4   5
ENDBRANCH   3   4
ENDBRANCH   2   3
ENDBRANCH   1   2
BRANCH   1   8
ATOM      8  C   UNL     1     147.338 148.972 142.870  1.00  0.00     0.000 C 
BRANCH   8   9
ATOM      9  C   UNL     1     146.379 149.852 142.047  1.00  0.00     0.006 C 
BRANCH   9  10
ATOM     10  C   UNL     1     145.075 149.151 141.635  1.00  0.00     0.053 C 
BRANCH  10  11
ATOM     11  C   UNL     1     144.491 149.743 140.388  1.00  0.00     0.041 C 
ATOM     12  O   UNL     1     144.112 148.995 139.449  1.00  0.00    -0.550 OA
ATOM     13  O   UNL     1     144.336 151.119 140.279  1.00  0.00    -0.550 OA
ENDBRANCH  10  11
ENDBRANCH   9  10
ENDBRANCH   8   9
ENDBRANCH   1   8
TORSDOF 8
ENDMDL
MODEL 9
REMARK VINA RESULT:    -2.639     16.077     17.229
REMARK INTER + INTRA:          -4.242
REMARK INTER:                  -3.424
REMARK INTRA:                  -0.818
REMARK UNBOUND:                -0.369
REMARK SMILES O=C([O-])CCCCCCCC(=O)[O-]
REMARK SMILES IDX 7 1 6 2 5 3 4 4 2 5 1 6 3 7 8 8 9 9 10 10 11 11 12 12 13 13
REMARK H PARENT
REMARK Flexibility Score: inf
ROOT
ATOM      1  C   UNL     1     147.706 145.672 141.780  1.00  0.00     0.000 C 
ENDROOT
BRANCH   1   2
ATOM      2  C   UNL     1     146.852 145.709 143.053  1.00  0.00     0.000 C 
BRANCH   2   3
ATOM      3  C   UNL     1     146.367 147.136 143.351  1.00  0.00     0.006 C 
BRANCH   3   4
ATOM      4  C   UNL     1     147.390 148.198 142.926  1.00  0.00     0.053 C 
BRANCH   4   5
ATOM      5  C   UNL     1     146.759 149.547 142.767  1.00  0.00     0.041 C 
ATOM      6  O   UNL     1     147.141 150.321 141.852  1.00  0.00    -0.550 OA
ATOM      7  O   UNL     1     145.725 149.936 143.610  1.00  0.00    -0.550 OA
ENDBRANCH   4   5
ENDBRANCH   3   4
ENDBRANCH   2   3
ENDBRANCH   1   2
BRANCH   1   8
ATOM      8  C   UNL     1     147.008 144.870 140.672  1.00  0.00     0.000 C 
BRANCH   8   9
ATOM      9  C   UNL     1     146.947 145.630 139.334  1.00  0.00     0.006 C 
BRANCH   9  10
ATOM     10  C   UNL     1     146.936 147.160 139.476  1.00  0.00     0.053 C 
BRANCH  10  11
ATOM     11  C   UNL     1     145.550 147.721 139.385  1.00  0.00     0.041 C 
ATOM     12  O   UNL     1     144.783 147.680 140.382  1.00  0.00    -0.550 OA
ATOM     13  O   UNL     1     145.119 148.320 138.208  1.00  0.00    -0.550 OA
ENDBRANCH  10  11
ENDBRANCH   9  10
ENDBRANCH   8   9
ENDBRANCH   1   8
TORSDOF 8
ENDMDL
