MODEL 1
REMARK VINA RESULT:     2.833      0.000      0.000
REMARK INTER + INTRA:           2.833
REMARK INTER:                   2.833
REMARK INTRA:                   0.000
REMARK UNBOUND:                 0.000
REMARK SMILES CC1(C)O[C@]2(C)CC[C@H]1CC2
REMARK SMILES IDX 1 1 2 2 9 3 8 4 7 5 5 6 4 7 11 8 10 9 6 10 3 11
REMARK H PARENT
REMARK Flexibility Score: inf
ROOT
ATOM      1  C   UNL     1       1.099  17.905 -27.118  1.00  0.00     0.042 C 
ATOM      2  C   UNL     1       0.872  16.851 -26.014  1.00  0.00     0.066 C 
ATOM      3  C   UNL     1      -0.548  17.037 -25.349  1.00  0.00     0.021 C 
ATOM      4  C   UNL     1      -0.741  15.926 -24.289  1.00  0.00     0.009 C 
ATOM      5  C   UNL     1      -0.446  14.551 -24.935  1.00  0.00     0.035 C 
ATOM      6  C   UNL     1      -0.145  14.733 -26.451  1.00  0.00     0.066 C 
ATOM      7  O   UNL     1       1.017  15.550 -26.602  1.00  0.00    -0.369 OA
ATOM      8  C   UNL     1      -1.356  15.438 -27.125  1.00  0.00     0.035 C 
ATOM      9  C   UNL     1      -1.630  16.794 -26.428  1.00  0.00     0.009 C 
ATOM     10  C   UNL     1       0.116  13.375 -27.109  1.00  0.00     0.042 C 
ATOM     11  C   UNL     1       1.993  17.033 -24.967  1.00  0.00     0.042 C 
ENDROOT
TORSDOF 0
ENDMDL
MODEL 2
REMARK VINA RESULT:     5.476     11.382     12.642
REMARK INTER + INTRA:           5.476
REMARK INTER:                   5.476
REMARK INTRA:                   0.000
REMARK UNBOUND:                 0.000
REMARK SMILES CC1(C)O[C@]2(C)CC[C@H]1CC2
REMARK SMILES IDX 1 1 2 2 9 3 8 4 7 5 5 6 4 7 11 8 10 9 6 10 3 11
REMARK H PARENT
REMARK Flexibility Score: inf
ROOT
ATOM      1  C   UNL     1      -9.256  26.076 -20.632  1.00  0.00     0.042 C 
ATOM      2  C   UNL     1      -7.800  25.563 -20.649  1.00  0.00     0.066 C 
ATOM      3  C   UNL     1      -7.765  23.985 -20.663  1.00  0.00     0.021 C 
ATOM      4  C   UNL     1      -6.287  23.529 -20.732  1.00  0.00     0.009 C 
ATOM      5  C   UNL     1      -5.586  24.254 -21.905  1.00  0.00     0.035 C 
ATOM      6  C   UNL     1      -6.617  25.126 -22.679  1.00  0.00     0.066 C 
ATOM      7  O   UNL     1      -7.144  26.119 -21.798  1.00  0.00    -0.369 OA
ATOM      8  C   UNL     1      -7.777  24.216 -23.175  1.00  0.00     0.035 C 
ATOM      9  C   UNL     1      -8.428  23.492 -21.971  1.00  0.00     0.009 C 
ATOM     10  C   UNL     1      -5.942  25.823 -23.864  1.00  0.00     0.042 C 
ATOM     11  C   UNL     1      -7.103  26.113 -19.385  1.00  0.00     0.042 C 
ENDROOT
TORSDOF 0
ENDMDL
