MODEL 1
REMARK VINA RESULT:    -5.866      0.000      0.000
REMARK INTER + INTRA:         -17.658
REMARK INTER:                 -13.410
REMARK INTRA:                  -4.248
REMARK UNBOUND:                -4.248
REMARK SMILES CCCCCCCCCCCCCCCCCCCCCCCC(=O)[O-]
REMARK SMILES IDX 13 1 14 2 15 3 16 4 17 5 18 6 19 7 20 8 21 9 22 10 23 11
REMARK SMILES IDX 24 12 25 13 26 14 12 15 11 16 10 17 9 18 8 19 7 20 6 21 5 22
REMARK SMILES IDX 4 23 3 24 2 25 1 26
REMARK H PARENT
REMARK Flexibility Score: inf
ROOT
ATOM      1  C   UNL     1      -9.609  -1.387  12.733  1.00  0.00     0.000 C 
ENDROOT
BRANCH   1   2
ATOM      2  C   UNL     1      -8.821  -1.702  14.015  1.00  0.00     0.000 C 
BRANCH   2   3
ATOM      3  C   UNL     1      -7.303  -1.753  13.782  1.00  0.00     0.000 C 
BRANCH   3   4
ATOM      4  C   UNL     1      -6.588  -2.397  14.978  1.00  0.00     0.000 C 
BRANCH   4   5
ATOM      5  C   UNL     1      -7.493  -3.358  15.769  1.00  0.00     0.000 C 
BRANCH   5   6
ATOM      6  C   UNL     1      -7.675  -3.007  17.260  1.00  0.00     0.000 C 
BRANCH   6   7
ATOM      7  C   UNL     1      -8.996  -3.486  17.890  1.00  0.00     0.000 C 
BRANCH   7   8
ATOM      8  C   UNL     1     -10.135  -2.462  17.738  1.00  0.00     0.000 C 
BRANCH   8   9
ATOM      9  C   UNL     1     -11.388  -3.067  17.084  1.00  0.00     0.000 C 
BRANCH   9  10
ATOM     10  C   UNL     1     -11.055  -3.934  15.856  1.00  0.00     0.006 C 
BRANCH  10  11
ATOM     11  C   UNL     1     -11.854  -5.244  15.840  1.00  0.00     0.053 C 
BRANCH  11  12
ATOM     12  C   UNL     1     -10.959  -6.441  15.738  1.00  0.00     0.041 C 
ATOM     13  O   UNL     1      -9.708  -6.300  15.751  1.00  0.00    -0.550 OA
ATOM     14  O   UNL     1     -11.507  -7.710  15.602  1.00  0.00    -0.550 OA
ENDBRANCH  11  12
ENDBRANCH  10  11
ENDBRANCH   9  10
ENDBRANCH   8   9
ENDBRANCH   7   8
ENDBRANCH   6   7
ENDBRANCH   5   6
ENDBRANCH   4   5
ENDBRANCH   3   4
ENDBRANCH   2   3
ENDBRANCH   1   2
BRANCH   1  15
ATOM     15  C   UNL     1     -11.017  -2.008  12.737  1.00  0.00     0.000 C 
BRANCH  15  16
ATOM     16  C   UNL     1     -12.065  -1.092  12.085  1.00  0.00     0.000 C 
BRANCH  16  17
ATOM     17  C   UNL     1     -13.497  -1.396  12.562  1.00  0.00     0.000 C 
BRANCH  17  18
ATOM     18  C   UNL     1     -13.530  -2.149  13.903  1.00  0.00    -0.000 C 
BRANCH  18  19
ATOM     19  C   UNL     1     -14.539  -3.312  13.972  1.00  0.00    -0.000 C 
BRANCH  19  20
ATOM     20  C   UNL     1     -14.579  -4.217  12.724  1.00  0.00    -0.000 C 
BRANCH  20  21
ATOM     21  C   UNL     1     -13.241  -4.898  12.375  1.00  0.00    -0.000 C 
BRANCH  21  22
ATOM     22  C   UNL     1     -12.825  -4.797  10.894  1.00  0.00    -0.000 C 
BRANCH  22  23
ATOM     23  C   UNL     1     -11.374  -5.218  10.596  1.00  0.00    -0.000 C 
BRANCH  23  24
ATOM     24  C   UNL     1     -10.600  -5.631  11.856  1.00  0.00    -0.000 C 
BRANCH  24  25
ATOM     25  C   UNL     1      -9.126  -5.894  11.532  1.00  0.00    -0.003 C 
ATOM     26  C   UNL     1      -8.207  -5.090  12.447  1.00  0.00     0.004 C 
ENDBRANCH  24  25
ENDBRANCH  23  24
ENDBRANCH  22  23
ENDBRANCH  21  22
ENDBRANCH  20  21
ENDBRANCH  19  20
ENDBRANCH  18  19
ENDBRANCH  17  18
ENDBRANCH  16  17
ENDBRANCH  15  16
ENDBRANCH   1  15
TORSDOF 22
ENDMDL
MODEL 2
REMARK VINA RESULT:    -5.810      2.210      6.143
REMARK INTER + INTRA:         -17.529
REMARK INTER:                 -13.415
REMARK INTRA:                  -4.114
REMARK UNBOUND:                -4.248
REMARK SMILES CCCCCCCCCCCCCCCCCCCCCCCC(=O)[O-]
REMARK SMILES IDX 13 1 14 2 15 3 16 4 17 5 18 6 19 7 20 8 21 9 22 10 23 11
REMARK SMILES IDX 24 12 25 13 26 14 12 15 11 16 10 17 9 18 8 19 7 20 6 21 5 22
REMARK SMILES IDX 4 23 3 24 2 25 1 26
REMARK H PARENT
REMARK Flexibility Score: inf
ROOT
ATOM      1  C   UNL     1      -8.760  -6.048  11.445  1.00  0.00     0.000 C 
ENDROOT
BRANCH   1   2
ATOM      2  C   UNL     1     -10.104  -5.393  11.083  1.00  0.00     0.000 C 
BRANCH   2   3
ATOM      3  C   UNL     1     -10.474  -5.577   9.603  1.00  0.00     0.000 C 
BRANCH   3   4
ATOM      4  C   UNL     1     -11.997  -5.662   9.428  1.00  0.00     0.000 C 
BRANCH   4   5
ATOM      5  C   UNL     1     -12.770  -5.126  10.647  1.00  0.00     0.000 C 
BRANCH   5   6
ATOM      6  C   UNL     1     -14.062  -4.352  10.314  1.00  0.00     0.000 C 
BRANCH   6   7
ATOM      7  C   UNL     1     -14.777  -3.718  11.521  1.00  0.00     0.000 C 
BRANCH   7   8
ATOM      8  C   UNL     1     -14.229  -4.217  12.869  1.00  0.00     0.000 C 
BRANCH   8   9
ATOM      9  C   UNL     1     -14.237  -3.124  13.950  1.00  0.00     0.000 C 
BRANCH   9  10
ATOM     10  C   UNL     1     -13.460  -1.865  13.524  1.00  0.00     0.006 C 
BRANCH  10  11
ATOM     11  C   UNL     1     -12.031  -2.192  13.072  1.00  0.00     0.053 C 
BRANCH  11  12
ATOM     12  C   UNL     1     -11.378  -1.024  12.399  1.00  0.00     0.041 C 
ATOM     13  O   UNL     1     -10.151  -0.798  12.570  1.00  0.00    -0.550 OA
ATOM     14  O   UNL     1     -12.132  -0.169  11.605  1.00  0.00    -0.550 OA
ENDBRANCH  11  12
ENDBRANCH  10  11
ENDBRANCH   9  10
ENDBRANCH   8   9
ENDBRANCH   7   8
ENDBRANCH   6   7
ENDBRANCH   5   6
ENDBRANCH   4   5
ENDBRANCH   3   4
ENDBRANCH   2   3
ENDBRANCH   1   2
BRANCH   1  15
ATOM     15  C   UNL     1      -7.976  -5.244  12.497  1.00  0.00     0.000 C 
BRANCH  15  16
ATOM     16  C   UNL     1      -8.654  -3.908  12.841  1.00  0.00     0.000 C 
BRANCH  16  17
ATOM     17  C   UNL     1      -7.910  -3.131  13.942  1.00  0.00     0.000 C 
BRANCH  17  18
ATOM     18  C   UNL     1      -7.712  -3.959  15.224  1.00  0.00    -0.000 C 
BRANCH  18  19
ATOM     19  C   UNL     1      -7.933  -3.185  16.538  1.00  0.00    -0.000 C 
BRANCH  19  20
ATOM     20  C   UNL     1      -9.313  -3.393  17.194  1.00  0.00    -0.000 C 
BRANCH  20  21
ATOM     21  C   UNL     1     -10.497  -2.787  16.417  1.00  0.00    -0.000 C 
BRANCH  21  22
ATOM     22  C   UNL     1     -11.846  -3.507  16.617  1.00  0.00    -0.000 C 
BRANCH  22  23
ATOM     23  C   UNL     1     -11.837  -5.010  16.282  1.00  0.00    -0.000 C 
BRANCH  23  24
ATOM     24  C   UNL     1     -11.165  -5.319  14.937  1.00  0.00    -0.000 C 
BRANCH  24  25
ATOM     25  C   UNL     1     -10.236  -6.532  15.054  1.00  0.00    -0.003 C 
ATOM     26  C   UNL     1     -10.718  -7.684  14.178  1.00  0.00     0.004 C 
ENDBRANCH  24  25
ENDBRANCH  23  24
ENDBRANCH  22  23
ENDBRANCH  21  22
ENDBRANCH  20  21
ENDBRANCH  19  20
ENDBRANCH  18  19
ENDBRANCH  17  18
ENDBRANCH  16  17
ENDBRANCH  15  16
ENDBRANCH   1  15
TORSDOF 22
ENDMDL
MODEL 3
REMARK VINA RESULT:    -5.805      1.988      5.981
REMARK INTER + INTRA:         -17.517
REMARK INTER:                 -13.104
REMARK INTRA:                  -4.413
REMARK UNBOUND:                -4.248
REMARK SMILES CCCCCCCCCCCCCCCCCCCCCCCC(=O)[O-]
REMARK SMILES IDX 13 1 14 2 15 3 16 4 17 5 18 6 19 7 20 8 21 9 22 10 23 11
REMARK SMILES IDX 24 12 25 13 26 14 12 15 11 16 10 17 9 18 8 19 7 20 6 21 5 22
REMARK SMILES IDX 4 23 3 24 2 25 1 26
REMARK H PARENT
REMARK Flexibility Score: inf
ROOT
ATOM      1  C   UNL     1     -11.486  -5.171  14.653  1.00  0.00     0.000 C 
ENDROOT
BRANCH   1   2
ATOM      2  C   UNL     1     -11.789  -6.518  13.977  1.00  0.00     0.000 C 
BRANCH   2   3
ATOM      3  C   UNL     1     -10.569  -7.108  13.253  1.00  0.00     0.000 C 
BRANCH   3   4
ATOM      4  C   UNL     1      -9.604  -5.997  12.815  1.00  0.00     0.000 C 
BRANCH   4   5
ATOM      5  C   UNL     1      -9.347  -5.993  11.297  1.00  0.00     0.000 C 
BRANCH   5   6
ATOM      6  C   UNL     1     -10.269  -5.066  10.479  1.00  0.00     0.000 C 
BRANCH   6   7
ATOM      7  C   UNL     1     -11.415  -5.772   9.732  1.00  0.00     0.000 C 
BRANCH   7   8
ATOM      8  C   UNL     1     -12.804  -5.263  10.153  1.00  0.00     0.000 C 
BRANCH   8   9
ATOM      9  C   UNL     1     -12.733  -4.215  11.274  1.00  0.00     0.000 C 
BRANCH   9  10
ATOM     10  C   UNL     1     -14.100  -3.572  11.572  1.00  0.00     0.006 C 
BRANCH  10  11
ATOM     11  C   UNL     1     -14.695  -4.066  12.897  1.00  0.00     0.053 C 
BRANCH  11  12
ATOM     12  C   UNL     1     -14.545  -3.048  13.987  1.00  0.00     0.041 C 
ATOM     13  O   UNL     1     -15.097  -3.231  15.105  1.00  0.00    -0.550 OA
ATOM     14  O   UNL     1     -13.819  -1.887  13.760  1.00  0.00    -0.550 OA
ENDBRANCH  11  12
ENDBRANCH  10  11
ENDBRANCH   9  10
ENDBRANCH   8   9
ENDBRANCH   7   8
ENDBRANCH   6   7
ENDBRANCH   5   6
ENDBRANCH   4   5
ENDBRANCH   3   4
ENDBRANCH   2   3
ENDBRANCH   1   2
BRANCH   1  15
ATOM     15  C   UNL     1     -11.966  -5.122  16.114  1.00  0.00     0.000 C 
BRANCH  15  16
ATOM     16  C   UNL     1     -12.154  -3.683  16.622  1.00  0.00     0.000 C 
BRANCH  16  17
ATOM     17  C   UNL     1     -10.886  -2.826  16.459  1.00  0.00     0.000 C 
BRANCH  17  18
ATOM     18  C   UNL     1     -10.120  -2.641  17.781  1.00  0.00    -0.000 C 
BRANCH  18  19
ATOM     19  C   UNL     1      -8.640  -3.070  17.740  1.00  0.00    -0.000 C 
BRANCH  19  20
ATOM     20  C   UNL     1      -8.202  -3.784  16.446  1.00  0.00    -0.000 C 
BRANCH  20  21
ATOM     21  C   UNL     1      -7.362  -2.922  15.484  1.00  0.00    -0.000 C 
BRANCH  21  22
ATOM     22  C   UNL     1      -7.068  -3.569  14.115  1.00  0.00    -0.000 C 
BRANCH  22  23
ATOM     23  C   UNL     1      -7.772  -2.905  12.917  1.00  0.00    -0.000 C 
BRANCH  23  24
ATOM     24  C   UNL     1      -8.770  -1.817  13.338  1.00  0.00    -0.000 C 
BRANCH  24  25
ATOM     25  C   UNL     1     -10.200  -2.202  12.940  1.00  0.00    -0.003 C 
ATOM     26  C   UNL     1     -10.867  -1.091  12.136  1.00  0.00     0.004 C 
ENDBRANCH  24  25
ENDBRANCH  23  24
ENDBRANCH  22  23
ENDBRANCH  21  22
ENDBRANCH  20  21
ENDBRANCH  19  20
ENDBRANCH  18  19
ENDBRANCH  17  18
ENDBRANCH  16  17
ENDBRANCH  15  16
ENDBRANCH   1  15
TORSDOF 22
ENDMDL
MODEL 4
REMARK VINA RESULT:    -5.775      1.786      4.583
REMARK INTER + INTRA:         -17.450
REMARK INTER:                 -13.471
REMARK INTRA:                  -3.979
REMARK UNBOUND:                -4.248
REMARK SMILES CCCCCCCCCCCCCCCCCCCCCCCC(=O)[O-]
REMARK SMILES IDX 13 1 14 2 15 3 16 4 17 5 18 6 19 7 20 8 21 9 22 10 23 11
REMARK SMILES IDX 24 12 25 13 26 14 12 15 11 16 10 17 9 18 8 19 7 20 6 21 5 22
REMARK SMILES IDX 4 23 3 24 2 25 1 26
REMARK H PARENT
REMARK Flexibility Score: inf
ROOT
ATOM      1  C   UNL     1     -10.943  -6.992  13.347  1.00  0.00     0.000 C 
ENDROOT
BRANCH   1   2
ATOM      2  C   UNL     1     -10.646  -7.511  14.764  1.00  0.00     0.000 C 
BRANCH   2   3
ATOM      3  C   UNL     1     -11.345  -6.687  15.856  1.00  0.00     0.000 C 
BRANCH   3   4
ATOM      4  C   UNL     1     -11.400  -5.202  15.469  1.00  0.00     0.000 C 
BRANCH   4   5
ATOM      5  C   UNL     1     -12.502  -4.429  16.215  1.00  0.00     0.000 C 
BRANCH   5   6
ATOM      6  C   UNL     1     -12.017  -3.200  17.010  1.00  0.00     0.000 C 
BRANCH   6   7
ATOM      7  C   UNL     1     -10.642  -2.648  16.591  1.00  0.00     0.000 C 
BRANCH   7   8
ATOM      8  C   UNL     1      -9.617  -2.666  17.738  1.00  0.00     0.000 C 
BRANCH   8   9
ATOM      9  C   UNL     1      -8.334  -3.427  17.369  1.00  0.00     0.000 C 
BRANCH   9  10
ATOM     10  C   UNL     1      -7.819  -3.074  15.962  1.00  0.00     0.006 C 
BRANCH  10  11
ATOM     11  C   UNL     1      -8.115  -4.183  14.943  1.00  0.00     0.053 C 
BRANCH  11  12
ATOM     12  C   UNL     1      -6.890  -4.571  14.172  1.00  0.00     0.041 C 
ATOM     13  O   UNL     1      -5.920  -5.120  14.758  1.00  0.00    -0.550 OA
ATOM     14  O   UNL     1      -6.811  -4.303  12.812  1.00  0.00    -0.550 OA
ENDBRANCH  11  12
ENDBRANCH  10  11
ENDBRANCH   9  10
ENDBRANCH   8   9
ENDBRANCH   7   8
ENDBRANCH   6   7
ENDBRANCH   5   6
ENDBRANCH   4   5
ENDBRANCH   3   4
ENDBRANCH   2   3
ENDBRANCH   1   2
BRANCH   1  15
ATOM     15  C   UNL     1      -9.666  -6.603  12.582  1.00  0.00     0.000 C 
BRANCH  15  16
ATOM     16  C   UNL     1      -9.868  -5.365  11.693  1.00  0.00     0.000 C 
BRANCH  16  17
ATOM     17  C   UNL     1      -9.914  -5.712  10.194  1.00  0.00     0.000 C 
BRANCH  17  18
ATOM     18  C   UNL     1     -11.219  -5.257   9.518  1.00  0.00    -0.000 C 
BRANCH  18  19
ATOM     19  C   UNL     1     -12.509  -5.659  10.258  1.00  0.00    -0.000 C 
BRANCH  19  20
ATOM     20  C   UNL     1     -13.302  -4.488  10.872  1.00  0.00    -0.000 C 
BRANCH  20  21
ATOM     21  C   UNL     1     -13.394  -4.503  12.410  1.00  0.00    -0.000 C 
BRANCH  21  22
ATOM     22  C   UNL     1     -14.063  -3.263  13.037  1.00  0.00    -0.000 C 
BRANCH  22  23
ATOM     23  C   UNL     1     -13.139  -2.044  13.213  1.00  0.00    -0.000 C 
BRANCH  23  24
ATOM     24  C   UNL     1     -11.650  -2.399  13.090  1.00  0.00    -0.000 C 
BRANCH  24  25
ATOM     25  C   UNL     1     -10.849  -1.218  12.531  1.00  0.00    -0.003 C 
ATOM     26  C   UNL     1      -9.416  -1.226  13.054  1.00  0.00     0.004 C 
ENDBRANCH  24  25
ENDBRANCH  23  24
ENDBRANCH  22  23
ENDBRANCH  21  22
ENDBRANCH  20  21
ENDBRANCH  19  20
ENDBRANCH  18  19
ENDBRANCH  17  18
ENDBRANCH  16  17
ENDBRANCH  15  16
ENDBRANCH   1  15
TORSDOF 22
ENDMDL
MODEL 5
REMARK VINA RESULT:    -5.766      2.091      5.816
REMARK INTER + INTRA:         -17.430
REMARK INTER:                 -13.270
REMARK INTRA:                  -4.160
REMARK UNBOUND:                -4.248
REMARK SMILES CCCCCCCCCCCCCCCCCCCCCCCC(=O)[O-]
REMARK SMILES IDX 13 1 14 2 15 3 16 4 17 5 18 6 19 7 20 8 21 9 22 10 23 11
REMARK SMILES IDX 24 12 25 13 26 14 12 15 11 16 10 17 9 18 8 19 7 20 6 21 5 22
REMARK SMILES IDX 4 23 3 24 2 25 1 26
REMARK H PARENT
REMARK Flexibility Score: inf
ROOT
ATOM      1  C   UNL     1      -9.125  -2.643  18.080  1.00  0.00     0.000 C 
ENDROOT
BRANCH   1   2
ATOM      2  C   UNL     1     -10.611  -2.322  17.851  1.00  0.00     0.000 C 
BRANCH   2   3
ATOM      3  C   UNL     1     -11.113  -2.783  16.474  1.00  0.00     0.000 C 
BRANCH   3   4
ATOM      4  C   UNL     1     -12.285  -3.764  16.620  1.00  0.00     0.000 C 
BRANCH   4   5
ATOM      5  C   UNL     1     -12.072  -5.072  15.836  1.00  0.00     0.000 C 
BRANCH   5   6
ATOM      6  C   UNL     1     -11.039  -4.989  14.693  1.00  0.00     0.000 C 
BRANCH   6   7
ATOM      7  C   UNL     1     -11.340  -5.876  13.471  1.00  0.00     0.000 C 
BRANCH   7   8
ATOM      8  C   UNL     1     -10.147  -6.760  13.068  1.00  0.00     0.000 C 
BRANCH   8   9
ATOM      9  C   UNL     1      -9.421  -6.236  11.819  1.00  0.00     0.000 C 
BRANCH   9  10
ATOM     10  C   UNL     1     -10.186  -5.095  11.124  1.00  0.00     0.006 C 
BRANCH  10  11
ATOM     11  C   UNL     1     -10.638  -5.480   9.709  1.00  0.00     0.053 C 
BRANCH  11  12
ATOM     12  C   UNL     1     -12.131  -5.514   9.591  1.00  0.00     0.041 C 
ATOM     13  O   UNL     1     -12.843  -4.801  10.347  1.00  0.00    -0.550 OA
ATOM     14  O   UNL     1     -12.738  -6.352   8.665  1.00  0.00    -0.550 OA
ENDBRANCH  11  12
ENDBRANCH  10  11
ENDBRANCH   9  10
ENDBRANCH   8   9
ENDBRANCH   7   8
ENDBRANCH   6   7
ENDBRANCH   5   6
ENDBRANCH   4   5
ENDBRANCH   3   4
ENDBRANCH   2   3
ENDBRANCH   1   2
BRANCH   1  15
ATOM     15  C   UNL     1      -8.566  -3.629  17.040  1.00  0.00     0.000 C 
BRANCH  15  16
ATOM     16  C   UNL     1      -7.322  -3.083  16.321  1.00  0.00     0.000 C 
BRANCH  16  17
ATOM     17  C   UNL     1      -7.036  -3.810  14.995  1.00  0.00     0.000 C 
BRANCH  17  18
ATOM     18  C   UNL     1      -7.837  -3.231  13.815  1.00  0.00    -0.000 C 
BRANCH  18  19
ATOM     19  C   UNL     1      -7.743  -1.701  13.654  1.00  0.00    -0.000 C 
BRANCH  19  20
ATOM     20  C   UNL     1      -9.060  -1.003  13.260  1.00  0.00    -0.000 C 
BRANCH  20  21
ATOM     21  C   UNL     1     -10.226  -1.957  12.935  1.00  0.00    -0.000 C 
BRANCH  21  22
ATOM     22  C   UNL     1     -11.557  -1.264  12.579  1.00  0.00    -0.000 C 
BRANCH  22  23
ATOM     23  C   UNL     1     -12.794  -2.180  12.603  1.00  0.00    -0.000 C 
BRANCH  23  24
ATOM     24  C   UNL     1     -13.812  -1.782  13.681  1.00  0.00    -0.000 C 
BRANCH  24  25
ATOM     25  C   UNL     1     -14.568  -3.009  14.202  1.00  0.00    -0.003 C 
ATOM     26  C   UNL     1     -14.708  -4.073  13.117  1.00  0.00     0.004 C 
ENDBRANCH  24  25
ENDBRANCH  23  24
ENDBRANCH  22  23
ENDBRANCH  21  22
ENDBRANCH  20  21
ENDBRANCH  19  20
ENDBRANCH  18  19
ENDBRANCH  17  18
ENDBRANCH  16  17
ENDBRANCH  15  16
ENDBRANCH   1  15
TORSDOF 22
ENDMDL
MODEL 6
REMARK VINA RESULT:    -5.760      2.071      5.647
REMARK INTER + INTRA:         -17.415
REMARK INTER:                 -13.043
REMARK INTRA:                  -4.373
REMARK UNBOUND:                -4.248
REMARK SMILES CCCCCCCCCCCCCCCCCCCCCCCC(=O)[O-]
REMARK SMILES IDX 13 1 14 2 15 3 16 4 17 5 18 6 19 7 20 8 21 9 22 10 23 11
REMARK SMILES IDX 24 12 25 13 26 14 12 15 11 16 10 17 9 18 8 19 7 20 6 21 5 22
REMARK SMILES IDX 4 23 3 24 2 25 1 26
REMARK H PARENT
REMARK Flexibility Score: inf
ROOT
ATOM      1  C   UNL     1     -13.643  -2.763  12.109  1.00  0.00     0.000 C 
ENDROOT
BRANCH   1   2
ATOM      2  C   UNL     1     -13.866  -3.735  13.279  1.00  0.00     0.000 C 
BRANCH   2   3
ATOM      3  C   UNL     1     -14.255  -3.018  14.581  1.00  0.00     0.000 C 
BRANCH   3   4
ATOM      4  C   UNL     1     -13.314  -3.418  15.727  1.00  0.00     0.000 C 
BRANCH   4   5
ATOM      5  C   UNL     1     -12.149  -4.309  15.261  1.00  0.00     0.000 C 
BRANCH   5   6
ATOM      6  C   UNL     1     -12.053  -5.681  15.960  1.00  0.00     0.000 C 
BRANCH   6   7
ATOM      7  C   UNL     1     -11.195  -6.730  15.231  1.00  0.00     0.000 C 
BRANCH   7   8
ATOM      8  C   UNL     1     -11.201  -6.549  13.703  1.00  0.00     0.000 C 
BRANCH   8   9
ATOM      9  C   UNL     1      -9.860  -6.936  13.058  1.00  0.00     0.000 C 
BRANCH   9  10
ATOM     10  C   UNL     1      -9.558  -6.122  11.787  1.00  0.00     0.006 C 
BRANCH  10  11
ATOM     11  C   UNL     1     -10.613  -5.038  11.531  1.00  0.00     0.053 C 
BRANCH  11  12
ATOM     12  C   UNL     1     -11.399  -5.309  10.284  1.00  0.00     0.041 C 
ATOM     13  O   UNL     1     -10.882  -5.108   9.153  1.00  0.00    -0.550 OA
ATOM     14  O   UNL     1     -12.711  -5.757  10.372  1.00  0.00    -0.550 OA
ENDBRANCH  11  12
ENDBRANCH  10  11
ENDBRANCH   9  10
ENDBRANCH   8   9
ENDBRANCH   7   8
ENDBRANCH   6   7
ENDBRANCH   5   6
ENDBRANCH   4   5
ENDBRANCH   3   4
ENDBRANCH   2   3
ENDBRANCH   1   2
BRANCH   1  15
ATOM     15  C   UNL     1     -12.940  -1.466  12.544  1.00  0.00     0.000 C 
BRANCH  15  16
ATOM     16  C   UNL     1     -11.471  -1.414  12.094  1.00  0.00     0.000 C 
BRANCH  16  17
ATOM     17  C   UNL     1     -10.489  -1.732  13.236  1.00  0.00     0.000 C 
BRANCH  17  18
ATOM     18  C   UNL     1      -9.271  -0.792  13.251  1.00  0.00    -0.000 C 
BRANCH  18  19
ATOM     19  C   UNL     1      -7.911  -1.493  13.448  1.00  0.00    -0.000 C 
BRANCH  19  20
ATOM     20  C   UNL     1      -7.919  -3.015  13.204  1.00  0.00    -0.000 C 
BRANCH  20  21
ATOM     21  C   UNL     1      -7.048  -3.831  14.179  1.00  0.00    -0.000 C 
BRANCH  21  22
ATOM     22  C   UNL     1      -7.826  -4.769  15.123  1.00  0.00    -0.000 C 
BRANCH  22  23
ATOM     23  C   UNL     1      -8.779  -4.061  16.103  1.00  0.00    -0.000 C 
BRANCH  23  24
ATOM     24  C   UNL     1      -8.051  -3.112  17.065  1.00  0.00    -0.000 C 
BRANCH  24  25
ATOM     25  C   UNL     1      -8.918  -2.802  18.291  1.00  0.00    -0.003 C 
ATOM     26  C   UNL     1     -10.357  -2.501  17.887  1.00  0.00     0.004 C 
ENDBRANCH  24  25
ENDBRANCH  23  24
ENDBRANCH  22  23
ENDBRANCH  21  22
ENDBRANCH  20  21
ENDBRANCH  19  20
ENDBRANCH  18  19
ENDBRANCH  17  18
ENDBRANCH  16  17
ENDBRANCH  15  16
ENDBRANCH   1  15
TORSDOF 22
ENDMDL
MODEL 7
REMARK VINA RESULT:    -5.753      2.208      6.103
REMARK INTER + INTRA:         -17.401
REMARK INTER:                 -13.324
REMARK INTRA:                  -4.077
REMARK UNBOUND:                -4.248
REMARK SMILES CCCCCCCCCCCCCCCCCCCCCCCC(=O)[O-]
REMARK SMILES IDX 13 1 14 2 15 3 16 4 17 5 18 6 19 7 20 8 21 9 22 10 23 11
REMARK SMILES IDX 24 12 25 13 26 14 12 15 11 16 10 17 9 18 8 19 7 20 6 21 5 22
REMARK SMILES IDX 4 23 3 24 2 25 1 26
REMARK H PARENT
REMARK Flexibility Score: inf
ROOT
ATOM      1  C   UNL     1      -9.837  -6.520  12.959  1.00  0.00     0.000 C 
ENDROOT
BRANCH   1   2
ATOM      2  C   UNL     1     -10.374  -5.363  12.101  1.00  0.00     0.000 C 
BRANCH   2   3
ATOM      3  C   UNL     1     -10.207  -5.613  10.594  1.00  0.00     0.000 C 
BRANCH   3   4
ATOM      4  C   UNL     1     -11.487  -5.238   9.833  1.00  0.00     0.000 C 
BRANCH   4   5
ATOM      5  C   UNL     1     -12.751  -5.327  10.707  1.00  0.00     0.000 C 
BRANCH   5   6
ATOM      6  C   UNL     1     -13.926  -4.439  10.251  1.00  0.00     0.000 C 
BRANCH   6   7
ATOM      7  C   UNL     1     -14.605  -3.623  11.366  1.00  0.00     0.000 C 
BRANCH   7   8
ATOM      8  C   UNL     1     -14.291  -4.161  12.773  1.00  0.00     0.000 C 
BRANCH   8   9
ATOM      9  C   UNL     1     -14.255  -3.049  13.834  1.00  0.00     0.000 C 
BRANCH   9  10
ATOM     10  C   UNL     1     -13.461  -1.814  13.371  1.00  0.00     0.006 C 
BRANCH  10  11
ATOM     11  C   UNL     1     -12.013  -2.163  13.003  1.00  0.00     0.053 C 
BRANCH  11  12
ATOM     12  C   UNL     1     -11.302  -1.002  12.376  1.00  0.00     0.041 C 
ATOM     13  O   UNL     1     -10.094  -0.775  12.650  1.00  0.00    -0.550 OA
ATOM     14  O   UNL     1     -11.983  -0.156  11.510  1.00  0.00    -0.550 OA
ENDBRANCH  11  12
ENDBRANCH  10  11
ENDBRANCH   9  10
ENDBRANCH   8   9
ENDBRANCH   7   8
ENDBRANCH   6   7
ENDBRANCH   5   6
ENDBRANCH   4   5
ENDBRANCH   3   4
ENDBRANCH   2   3
ENDBRANCH   1   2
BRANCH   1  15
ATOM     15  C   UNL     1     -10.422  -6.521  14.382  1.00  0.00     0.000 C 
BRANCH  15  16
ATOM     16  C   UNL     1     -10.663  -5.101  14.919  1.00  0.00     0.000 C 
BRANCH  16  17
ATOM     17  C   UNL     1     -11.899  -5.014  15.833  1.00  0.00     0.000 C 
BRANCH  17  18
ATOM     18  C   UNL     1     -11.994  -3.671  16.577  1.00  0.00    -0.000 C 
BRANCH  18  19
ATOM     19  C   UNL     1     -10.783  -2.736  16.389  1.00  0.00    -0.000 C 
BRANCH  19  20
ATOM     20  C   UNL     1      -9.890  -2.565  17.634  1.00  0.00    -0.000 C 
BRANCH  20  21
ATOM     21  C   UNL     1      -8.658  -3.491  17.680  1.00  0.00    -0.000 C 
BRANCH  21  22
ATOM     22  C   UNL     1      -7.443  -3.000  16.868  1.00  0.00    -0.000 C 
BRANCH  22  23
ATOM     23  C   UNL     1      -7.313  -3.608  15.459  1.00  0.00    -0.000 C 
BRANCH  23  24
ATOM     24  C   UNL     1      -7.763  -2.647  14.349  1.00  0.00    -0.000 C 
BRANCH  24  25
ATOM     25  C   UNL     1      -7.515  -3.254  12.964  1.00  0.00    -0.003 C 
ATOM     26  C   UNL     1      -6.792  -4.593  13.070  1.00  0.00     0.004 C 
ENDBRANCH  24  25
ENDBRANCH  23  24
ENDBRANCH  22  23
ENDBRANCH  21  22
ENDBRANCH  20  21
ENDBRANCH  19  20
ENDBRANCH  18  19
ENDBRANCH  17  18
ENDBRANCH  16  17
ENDBRANCH  15  16
ENDBRANCH   1  15
TORSDOF 22
ENDMDL
MODEL 8
REMARK VINA RESULT:    -5.723      0.723      3.108
REMARK INTER + INTRA:         -17.331
REMARK INTER:                 -13.439
REMARK INTRA:                  -3.892
REMARK UNBOUND:                -4.248
REMARK SMILES CCCCCCCCCCCCCCCCCCCCCCCC(=O)[O-]
REMARK SMILES IDX 13 1 14 2 15 3 16 4 17 5 18 6 19 7 20 8 21 9 22 10 23 11
REMARK SMILES IDX 24 12 25 13 26 14 12 15 11 16 10 17 9 18 8 19 7 20 6 21 5 22
REMARK SMILES IDX 4 23 3 24 2 25 1 26
REMARK H PARENT
REMARK Flexibility Score: inf
ROOT
ATOM      1  C   UNL     1      -8.105  -6.075  11.809  1.00  0.00     0.000 C 
ENDROOT
BRANCH   1   2
ATOM      2  C   UNL     1      -7.308  -4.946  12.485  1.00  0.00     0.000 C 
BRANCH   2   3
ATOM      3  C   UNL     1      -8.172  -4.089  13.423  1.00  0.00     0.000 C 
BRANCH   3   4
ATOM      4  C   UNL     1      -7.301  -3.121  14.236  1.00  0.00     0.000 C 
BRANCH   4   5
ATOM      5  C   UNL     1      -6.859  -3.706  15.589  1.00  0.00     0.000 C 
BRANCH   5   6
ATOM      6  C   UNL     1      -7.400  -2.967  16.830  1.00  0.00     0.000 C 
BRANCH   6   7
ATOM      7  C   UNL     1      -8.737  -3.497  17.379  1.00  0.00     0.000 C 
BRANCH   7   8
ATOM      8  C   UNL     1      -9.851  -2.437  17.360  1.00  0.00     0.000 C 
BRANCH   8   9
ATOM      9  C   UNL     1     -11.205  -3.013  16.914  1.00  0.00     0.000 C 
BRANCH   9  10
ATOM     10  C   UNL     1     -11.092  -3.877  15.645  1.00  0.00     0.006 C 
BRANCH  10  11
ATOM     11  C   UNL     1     -11.716  -5.266  15.835  1.00  0.00     0.053 C 
BRANCH  11  12
ATOM     12  C   UNL     1     -10.770  -6.360  15.442  1.00  0.00     0.041 C 
ATOM     13  O   UNL     1      -9.559  -6.304  15.784  1.00  0.00    -0.550 OA
ATOM     14  O   UNL     1     -11.220  -7.427  14.675  1.00  0.00    -0.550 OA
ENDBRANCH  11  12
ENDBRANCH  10  11
ENDBRANCH   9  10
ENDBRANCH   8   9
ENDBRANCH   7   8
ENDBRANCH   6   7
ENDBRANCH   5   6
ENDBRANCH   4   5
ENDBRANCH   3   4
ENDBRANCH   2   3
ENDBRANCH   1   2
BRANCH   1  15
ATOM     15  C   UNL     1      -9.626  -5.858  11.896  1.00  0.00     0.000 C 
BRANCH  15  16
ATOM     16  C   UNL     1     -10.265  -5.622  10.518  1.00  0.00     0.000 C 
BRANCH  16  17
ATOM     17  C   UNL     1     -11.531  -4.749  10.593  1.00  0.00     0.000 C 
BRANCH  17  18
ATOM     18  C   UNL     1     -12.761  -5.527  11.091  1.00  0.00    -0.000 C 
BRANCH  18  19
ATOM     19  C   UNL     1     -13.207  -5.188  12.527  1.00  0.00    -0.000 C 
BRANCH  19  20
ATOM     20  C   UNL     1     -14.353  -4.161  12.631  1.00  0.00    -0.000 C 
BRANCH  20  21
ATOM     21  C   UNL     1     -14.284  -3.237  13.862  1.00  0.00    -0.000 C 
BRANCH  21  22
ATOM     22  C   UNL     1     -13.647  -1.856  13.607  1.00  0.00    -0.000 C 
BRANCH  22  23
ATOM     23  C   UNL     1     -13.215  -1.598  12.152  1.00  0.00    -0.000 C 
BRANCH  23  24
ATOM     24  C   UNL     1     -11.922  -0.776  12.049  1.00  0.00    -0.000 C 
BRANCH  24  25
ATOM     25  C   UNL     1     -10.710  -1.604  12.489  1.00  0.00    -0.003 C 
ATOM     26  C   UNL     1      -9.618  -0.716  13.077  1.00  0.00     0.004 C 
ENDBRANCH  24  25
ENDBRANCH  23  24
ENDBRANCH  22  23
ENDBRANCH  21  22
ENDBRANCH  20  21
ENDBRANCH  19  20
ENDBRANCH  18  19
ENDBRANCH  17  18
ENDBRANCH  16  17
ENDBRANCH  15  16
ENDBRANCH   1  15
TORSDOF 22
ENDMDL
MODEL 9
REMARK VINA RESULT:    -5.695      1.147      6.029
REMARK INTER + INTRA:         -17.267
REMARK INTER:                 -13.325
REMARK INTRA:                  -3.943
REMARK UNBOUND:                -4.248
REMARK SMILES CCCCCCCCCCCCCCCCCCCCCCCC(=O)[O-]
REMARK SMILES IDX 13 1 14 2 15 3 16 4 17 5 18 6 19 7 20 8 21 9 22 10 23 11
REMARK SMILES IDX 24 12 25 13 26 14 12 15 11 16 10 17 9 18 8 19 7 20 6 21 5 22
REMARK SMILES IDX 4 23 3 24 2 25 1 26
REMARK H PARENT
REMARK Flexibility Score: inf
ROOT
ATOM      1  C   UNL     1     -13.020  -3.900  15.782  1.00  0.00     0.000 C 
ENDROOT
BRANCH   1   2
ATOM      2  C   UNL     1     -12.937  -3.037  14.512  1.00  0.00     0.000 C 
BRANCH   2   3
ATOM      3  C   UNL     1     -14.283  -2.928  13.779  1.00  0.00     0.000 C 
BRANCH   3   4
ATOM      4  C   UNL     1     -14.405  -4.009  12.696  1.00  0.00     0.000 C 
BRANCH   4   5
ATOM      5  C   UNL     1     -13.734  -3.607  11.371  1.00  0.00     0.000 C 
BRANCH   5   6
ATOM      6  C   UNL     1     -13.676  -4.718  10.303  1.00  0.00     0.000 C 
BRANCH   6   7
ATOM      7  C   UNL     1     -12.285  -5.338  10.076  1.00  0.00     0.000 C 
BRANCH   7   8
ATOM      8  C   UNL     1     -11.234  -4.828  11.077  1.00  0.00     0.000 C 
BRANCH   8   9
ATOM      9  C   UNL     1      -9.906  -5.597  10.981  1.00  0.00     0.000 C 
BRANCH   9  10
ATOM     10  C   UNL     1      -9.471  -6.198  12.330  1.00  0.00     0.006 C 
BRANCH  10  11
ATOM     11  C   UNL     1     -10.393  -5.766  13.479  1.00  0.00     0.053 C 
BRANCH  11  12
ATOM     12  C   UNL     1     -10.596  -6.868  14.473  1.00  0.00     0.041 C 
ATOM     13  O   UNL     1     -10.628  -8.068  14.092  1.00  0.00    -0.550 OA
ATOM     14  O   UNL     1     -10.775  -6.568  15.818  1.00  0.00    -0.550 OA
ENDBRANCH  11  12
ENDBRANCH  10  11
ENDBRANCH   9  10
ENDBRANCH   8   9
ENDBRANCH   7   8
ENDBRANCH   6   7
ENDBRANCH   5   6
ENDBRANCH   4   5
ENDBRANCH   3   4
ENDBRANCH   2   3
ENDBRANCH   1   2
BRANCH   1  15
ATOM     15  C   UNL     1     -12.123  -3.371  16.915  1.00  0.00     0.000 C 
BRANCH  15  16
ATOM     16  C   UNL     1     -10.718  -2.988  16.421  1.00  0.00     0.000 C 
BRANCH  16  17
ATOM     17  C   UNL     1      -9.771  -2.599  17.571  1.00  0.00     0.000 C 
BRANCH  17  18
ATOM     18  C   UNL     1      -8.365  -3.206  17.413  1.00  0.00    -0.000 C 
BRANCH  18  19
ATOM     19  C   UNL     1      -8.181  -4.109  16.178  1.00  0.00    -0.000 C 
BRANCH  19  20
ATOM     20  C   UNL     1      -6.939  -3.799  15.320  1.00  0.00    -0.000 C 
BRANCH  20  21
ATOM     21  C   UNL     1      -7.083  -4.139  13.824  1.00  0.00    -0.000 C 
BRANCH  21  22
ATOM     22  C   UNL     1      -7.399  -2.938  12.909  1.00  0.00    -0.000 C 
BRANCH  22  23
ATOM     23  C   UNL     1      -7.552  -1.589  13.636  1.00  0.00    -0.000 C 
BRANCH  23  24
ATOM     24  C   UNL     1      -8.782  -0.796  13.171  1.00  0.00    -0.000 C 
BRANCH  24  25
ATOM     25  C   UNL     1     -10.004  -1.711  13.031  1.00  0.00    -0.003 C 
ATOM     26  C   UNL     1     -10.977  -1.176  11.986  1.00  0.00     0.004 C 
ENDBRANCH  24  25
ENDBRANCH  23  24
ENDBRANCH  22  23
ENDBRANCH  21  22
ENDBRANCH  20  21
ENDBRANCH  19  20
ENDBRANCH  18  19
ENDBRANCH  17  18
ENDBRANCH  16  17
ENDBRANCH  15  16
ENDBRANCH   1  15
TORSDOF 22
ENDMDL
