MODEL 1
REMARK VINA RESULT:    -3.360      0.000      0.000
REMARK INTER + INTRA:          -5.721
REMARK INTER:                  -5.128
REMARK INTRA:                  -0.593
REMARK UNBOUND:                -0.593
REMARK SMILES CC1=CCC[C@H](C)C(=O)C[C@H](C(C)C)C(=O)C1
REMARK SMILES IDX 8 1 9 2 6 3 7 4 5 5 4 6 3 7 2 8 1 9 10 11 11 12 15 13 16 14
REMARK SMILES IDX 17 15 12 17 13 18 14 19
REMARK H PARENT
REMARK Flexibility Score: 70.00
ROOT
ATOM      1  C   UNL     1      -3.802 -38.735 215.520  1.00  0.00     0.136 C 
ATOM      2  O   UNL     1      -3.345 -37.602 215.581  1.00  0.00    -0.299 OA
ENDROOT
BRANCH   1   3
ATOM      3  C   UNL     1      -2.877 -39.876 215.132  1.00  0.00     0.053 C 
ATOM      4  C   UNL     1      -2.100 -39.526 213.858  1.00  0.00     0.016 C 
BRANCH   3   5
ATOM      5  C   UNL     1      -1.917 -40.264 216.274  1.00  0.00     0.015 C 
BRANCH   5   6
ATOM      6  C   UNL     1      -2.431 -41.482 217.063  1.00  0.00     0.028 C 
BRANCH   6   7
ATOM      7  C   UNL     1      -3.210 -41.106 218.297  1.00  0.00    -0.028 C 
ATOM      8  C   UNL     1      -4.502 -41.435 218.557  1.00  0.00    -0.070 CG0
ATOM      9  C   UNL     1      -5.046 -41.067 219.916  1.00  0.00     0.039 C 
ATOM     10  G   UNL     1      -5.451 -42.075 217.547  1.00  0.00     0.000 G0
ENDBRANCH   6   7
ENDBRANCH   5   6
ENDBRANCH   3   5
ENDBRANCH   1   3
BRANCH   1  11
ATOM     11  C   UNL     1      -5.252 -38.958 215.887  1.00  0.00     0.087 C 
BRANCH  11  12
ATOM     12  C   UNL     1      -5.757 -40.385 215.534  1.00  0.00     0.066 C 
BRANCH  12  13
ATOM     13  C   UNL     1      -6.317 -41.098 216.761  1.00  0.00     0.140 C 
ATOM     14  O   UNL     1      -7.421 -40.778 217.179  1.00  0.00    -0.299 OA
BRANCH  13  15
ATOM     15  C   UNL     1      -5.476 -42.067 217.559  1.00  0.00     0.106 CG0
ATOM     16  G   UNL     1      -4.508 -41.420 218.545  1.00  0.00     0.000 G0
ENDBRANCH  13  15
ENDBRANCH  12  13
BRANCH  12  17
ATOM     17  C   UNL     1      -6.809 -40.380 214.377  1.00  0.00    -0.006 C 
ATOM     18  C   UNL     1      -7.254 -38.957 213.992  1.00  0.00     0.008 C 
ATOM     19  C   UNL     1      -6.257 -41.080 213.120  1.00  0.00     0.008 C 
ENDBRANCH  12  17
ENDBRANCH  11  12
ENDBRANCH   1  11
TORSDOF 1
ENDMDL
MODEL 2
REMARK VINA RESULT:    -3.165     12.796     14.864
REMARK INTER + INTRA:          -5.422
REMARK INTER:                  -5.375
REMARK INTRA:                  -0.047
REMARK UNBOUND:                -0.593
REMARK SMILES CC1=CCC[C@H](C)C(=O)C[C@H](C(C)C)C(=O)C1
REMARK SMILES IDX 8 1 9 2 6 3 7 4 5 5 4 6 3 7 2 8 1 9 10 11 11 12 15 13 16 14
REMARK SMILES IDX 17 15 12 17 13 18 14 19
REMARK H PARENT
REMARK Flexibility Score: 70.00
ROOT
ATOM      1  C   UNL     1     -16.288 -37.974 210.525  1.00  0.00     0.136 C 
ATOM      2  O   UNL     1     -15.225 -38.344 210.047  1.00  0.00    -0.299 OA
ENDROOT
BRANCH   1   3
ATOM      3  C   UNL     1     -16.478 -38.052 212.031  1.00  0.00     0.053 C 
ATOM      4  C   UNL     1     -17.862 -37.520 212.424  1.00  0.00     0.016 C 
BRANCH   3   5
ATOM      5  C   UNL     1     -16.261 -39.478 212.574  1.00  0.00     0.015 C 
BRANCH   5   6
ATOM      6  C   UNL     1     -17.418 -40.419 212.190  1.00  0.00     0.028 C 
BRANCH   6   7
ATOM      7  C   UNL     1     -17.117 -41.267 210.981  1.00  0.00    -0.028 C 
ATOM      8  C   UNL     1     -17.831 -41.295 209.826  1.00  0.00    -0.070 CG0
ATOM      9  C   UNL     1     -17.275 -42.121 208.692  1.00  0.00     0.039 C 
ATOM     10  G   UNL     1     -19.184 -40.615 209.631  1.00  0.00     0.000 G0
ENDBRANCH   6   7
ENDBRANCH   5   6
ENDBRANCH   3   5
ENDBRANCH   1   3
BRANCH   1  11
ATOM     11  C   UNL     1     -17.342 -37.401 209.605  1.00  0.00     0.087 C 
BRANCH  11  12
ATOM     12  C   UNL     1     -17.999 -38.474 208.691  1.00  0.00     0.066 C 
BRANCH  12  13
ATOM     13  C   UNL     1     -19.187 -39.140 209.376  1.00  0.00     0.140 C 
ATOM     14  O   UNL     1     -20.077 -38.437 209.835  1.00  0.00    -0.299 OA
BRANCH  13  15
ATOM     15  C   UNL     1     -19.207 -40.627 209.644  1.00  0.00     0.106 CG0
ATOM     16  G   UNL     1     -17.833 -41.273 209.798  1.00  0.00     0.000 G0
ENDBRANCH  13  15
ENDBRANCH  12  13
BRANCH  12  17
ATOM     17  C   UNL     1     -18.423 -37.897 207.300  1.00  0.00    -0.006 C 
ATOM     18  C   UNL     1     -18.715 -36.386 207.353  1.00  0.00     0.008 C 
ATOM     19  C   UNL     1     -17.338 -38.152 206.237  1.00  0.00     0.008 C 
ENDBRANCH  12  17
ENDBRANCH  11  12
ENDBRANCH   1  11
TORSDOF 1
ENDMDL
MODEL 3
REMARK VINA RESULT:    -3.152     11.977     14.133
REMARK INTER + INTRA:          -5.403
REMARK INTER:                  -5.598
REMARK INTRA:                   0.194
REMARK UNBOUND:                -0.593
REMARK SMILES CC1=CCC[C@H](C)C(=O)C[C@H](C(C)C)C(=O)C1
REMARK SMILES IDX 8 1 9 2 6 3 7 4 5 5 4 6 3 7 2 8 1 9 10 11 11 12 15 13 16 14
REMARK SMILES IDX 17 15 12 17 13 18 14 19
REMARK H PARENT
REMARK Flexibility Score: 70.00
ROOT
ATOM      1  C   UNL     1     -17.177 -39.217 211.954  1.00  0.00     0.136 C 
ATOM      2  O   UNL     1     -16.924 -38.454 212.875  1.00  0.00    -0.299 OA
ENDROOT
BRANCH   1   3
ATOM      3  C   UNL     1     -16.425 -40.535 211.869  1.00  0.00     0.053 C 
ATOM      4  C   UNL     1     -16.007 -41.004 213.267  1.00  0.00     0.016 C 
BRANCH   3   5
ATOM      5  C   UNL     1     -17.237 -41.625 211.142  1.00  0.00     0.015 C 
BRANCH   5   6
ATOM      6  C   UNL     1     -16.999 -41.596 209.621  1.00  0.00     0.028 C 
BRANCH   6   7
ATOM      7  C   UNL     1     -15.561 -41.341 209.249  1.00  0.00    -0.028 C 
ATOM      8  C   UNL     1     -15.046 -40.163 208.809  1.00  0.00    -0.070 CG0
ATOM      9  C   UNL     1     -13.550 -40.094 208.621  1.00  0.00     0.039 C 
ATOM     10  G   UNL     1     -15.882 -38.946 208.423  1.00  0.00     0.000 G0
ENDBRANCH   6   7
ENDBRANCH   5   6
ENDBRANCH   3   5
ENDBRANCH   1   3
BRANCH   1  11
ATOM     11  C   UNL     1     -18.265 -38.841 210.973  1.00  0.00     0.087 C 
BRANCH  11  12
ATOM     12  C   UNL     1     -17.783 -37.845 209.881  1.00  0.00     0.066 C 
BRANCH  12  13
ATOM     13  C   UNL     1     -16.307 -38.047 209.554  1.00  0.00     0.140 C 
ATOM     14  O   UNL     1     -15.472 -37.372 210.140  1.00  0.00    -0.299 OA
BRANCH  13  15
ATOM     15  C   UNL     1     -15.869 -38.939 208.414  1.00  0.00     0.106 CG0
ATOM     16  G   UNL     1     -15.055 -40.161 208.828  1.00  0.00     0.000 G0
ENDBRANCH  13  15
ENDBRANCH  12  13
BRANCH  12  17
ATOM     17  C   UNL     1     -18.647 -37.919 208.579  1.00  0.00    -0.006 C 
ATOM     18  C   UNL     1     -20.120 -38.264 208.868  1.00  0.00     0.008 C 
ATOM     19  C   UNL     1     -18.595 -36.591 207.801  1.00  0.00     0.008 C 
ENDBRANCH  12  17
ENDBRANCH  11  12
ENDBRANCH   1  11
TORSDOF 1
ENDMDL
MODEL 4
REMARK VINA RESULT:    -3.132      1.826      3.529
REMARK INTER + INTRA:          -5.373
REMARK INTER:                  -5.047
REMARK INTRA:                  -0.326
REMARK UNBOUND:                -0.593
REMARK SMILES CC1=CCC[C@H](C)C(=O)C[C@H](C(C)C)C(=O)C1
REMARK SMILES IDX 8 1 9 2 6 3 7 4 5 5 4 6 3 7 2 8 1 9 10 11 11 12 15 13 16 14
REMARK SMILES IDX 17 15 12 17 13 18 14 19
REMARK H PARENT
REMARK Flexibility Score: 70.00
ROOT
ATOM      1  C   UNL     1      -5.997 -39.894 218.317  1.00  0.00     0.136 C 
ATOM      2  O   UNL     1      -6.983 -39.912 219.040  1.00  0.00    -0.299 OA
ENDROOT
BRANCH   1   3
ATOM      3  C   UNL     1      -4.812 -39.032 218.718  1.00  0.00     0.053 C 
ATOM      4  C   UNL     1      -5.292 -37.683 219.265  1.00  0.00     0.016 C 
BRANCH   3   5
ATOM      5  C   UNL     1      -3.890 -39.740 219.729  1.00  0.00     0.015 C 
BRANCH   5   6
ATOM      6  C   UNL     1      -3.311 -41.047 219.157  1.00  0.00     0.028 C 
BRANCH   6   7
ATOM      7  C   UNL     1      -2.164 -40.824 218.205  1.00  0.00    -0.028 C 
ATOM      8  C   UNL     1      -2.213 -40.943 216.853  1.00  0.00    -0.070 CG0
ATOM      9  C   UNL     1      -0.980 -40.542 216.082  1.00  0.00     0.039 C 
ATOM     10  G   UNL     1      -3.394 -41.523 216.079  1.00  0.00     0.000 G0
ENDBRANCH   6   7
ENDBRANCH   5   6
ENDBRANCH   3   5
ENDBRANCH   1   3
BRANCH   1  11
ATOM     11  C   UNL     1      -5.979 -40.774 217.087  1.00  0.00     0.087 C 
BRANCH  11  12
ATOM     12  C   UNL     1      -5.548 -40.014 215.801  1.00  0.00     0.066 C 
BRANCH  12  13
ATOM     13  C   UNL     1      -4.204 -40.514 215.281  1.00  0.00     0.140 C 
ATOM     14  O   UNL     1      -3.846 -40.190 214.158  1.00  0.00    -0.299 OA
BRANCH  13  15
ATOM     15  C   UNL     1      -3.388 -41.524 216.055  1.00  0.00     0.106 CG0
ATOM     16  G   UNL     1      -2.234 -40.938 216.863  1.00  0.00     0.000 G0
ENDBRANCH  13  15
ENDBRANCH  12  13
BRANCH  12  17
ATOM     17  C   UNL     1      -6.630 -40.082 214.673  1.00  0.00    -0.006 C 
ATOM     18  C   UNL     1      -7.915 -40.796 215.132  1.00  0.00     0.008 C 
ATOM     19  C   UNL     1      -7.001 -38.674 214.172  1.00  0.00     0.008 C 
ENDBRANCH  12  17
ENDBRANCH  11  12
ENDBRANCH   1  11
TORSDOF 1
ENDMDL
MODEL 5
REMARK VINA RESULT:    -3.126     12.938     15.218
REMARK INTER + INTRA:          -5.363
REMARK INTER:                  -4.888
REMARK INTRA:                  -0.475
REMARK UNBOUND:                -0.593
REMARK SMILES CC1=CCC[C@H](C)C(=O)C[C@H](C(C)C)C(=O)C1
REMARK SMILES IDX 8 1 9 2 6 3 7 4 5 5 4 6 3 7 2 8 1 9 10 11 11 12 15 13 16 14
REMARK SMILES IDX 17 15 12 17 13 18 14 19
REMARK H PARENT
REMARK Flexibility Score: 70.00
ROOT
ATOM      1  C   UNL     1     -15.267 -40.078 209.205  1.00  0.00     0.136 C 
ATOM      2  O   UNL     1     -14.311 -39.500 209.703  1.00  0.00    -0.299 OA
ENDROOT
BRANCH   1   3
ATOM      3  C   UNL     1     -15.234 -40.401 207.720  1.00  0.00     0.053 C 
ATOM      4  C   UNL     1     -16.080 -41.644 207.424  1.00  0.00     0.016 C 
BRANCH   3   5
ATOM      5  C   UNL     1     -15.682 -39.209 206.853  1.00  0.00     0.015 C 
BRANCH   5   6
ATOM      6  C   UNL     1     -17.005 -39.501 206.120  1.00  0.00     0.028 C 
BRANCH   6   7
ATOM      7  C   UNL     1     -18.102 -38.526 206.464  1.00  0.00    -0.028 C 
ATOM      8  C   UNL     1     -18.901 -38.576 207.561  1.00  0.00    -0.070 CG0
ATOM      9  C   UNL     1     -19.848 -37.421 207.776  1.00  0.00     0.039 C 
ATOM     10  G   UNL     1     -18.957 -39.749 208.536  1.00  0.00     0.000 G0
ENDBRANCH   6   7
ENDBRANCH   5   6
ENDBRANCH   3   5
ENDBRANCH   1   3
BRANCH   1  11
ATOM     11  C   UNL     1     -16.413 -40.495 210.098  1.00  0.00     0.087 C 
BRANCH  11  12
ATOM     12  C   UNL     1     -17.305 -39.302 210.543  1.00  0.00     0.066 C 
BRANCH  12  13
ATOM     13  C   UNL     1     -18.719 -39.423 209.986  1.00  0.00     0.140 C 
ATOM     14  O   UNL     1     -19.666 -39.380 210.758  1.00  0.00    -0.299 OA
BRANCH  13  15
ATOM     15  C   UNL     1     -18.965 -39.757 208.532  1.00  0.00     0.106 CG0
ATOM     16  G   UNL     1     -18.888 -38.571 207.576  1.00  0.00     0.000 G0
ENDBRANCH  13  15
ENDBRANCH  12  13
BRANCH  12  17
ATOM     17  C   UNL     1     -17.342 -39.129 212.097  1.00  0.00    -0.006 C 
ATOM     18  C   UNL     1     -16.363 -40.072 212.819  1.00  0.00     0.008 C 
ATOM     19  C   UNL     1     -17.020 -37.678 212.504  1.00  0.00     0.008 C 
ENDBRANCH  12  17
ENDBRANCH  11  12
ENDBRANCH   1  11
TORSDOF 1
ENDMDL
MODEL 6
REMARK VINA RESULT:    -3.046      2.267      5.013
REMARK INTER + INTRA:          -5.241
REMARK INTER:                  -4.795
REMARK INTRA:                  -0.446
REMARK UNBOUND:                -0.593
REMARK SMILES CC1=CCC[C@H](C)C(=O)C[C@H](C(C)C)C(=O)C1
REMARK SMILES IDX 8 1 9 2 6 3 7 4 5 5 4 6 3 7 2 8 1 9 10 11 11 12 15 13 16 14
REMARK SMILES IDX 17 15 12 17 13 18 14 19
REMARK H PARENT
REMARK Flexibility Score: 70.00
ROOT
ATOM      1  C   UNL     1      -6.763 -39.447 214.567  1.00  0.00     0.136 C 
ATOM      2  O   UNL     1      -7.712 -38.820 214.118  1.00  0.00    -0.299 OA
ENDROOT
BRANCH   1   3
ATOM      3  C   UNL     1      -6.752 -40.960 214.421  1.00  0.00     0.053 C 
ATOM      4  C   UNL     1      -8.140 -41.537 214.725  1.00  0.00     0.016 C 
BRANCH   3   5
ATOM      5  C   UNL     1      -6.261 -41.410 213.032  1.00  0.00     0.015 C 
BRANCH   5   6
ATOM      6  C   UNL     1      -4.899 -42.125 213.111  1.00  0.00     0.028 C 
BRANCH   6   7
ATOM      7  C   UNL     1      -3.799 -41.389 212.389  1.00  0.00    -0.028 C 
ATOM      8  C   UNL     1      -2.709 -40.819 212.964  1.00  0.00    -0.070 CG0
ATOM      9  C   UNL     1      -1.662 -40.248 212.039  1.00  0.00     0.039 C 
ATOM     10  G   UNL     1      -2.514 -40.650 214.469  1.00  0.00     0.000 G0
ENDBRANCH   6   7
ENDBRANCH   5   6
ENDBRANCH   3   5
ENDBRANCH   1   3
BRANCH   1  11
ATOM     11  C   UNL     1      -5.617 -38.687 215.195  1.00  0.00     0.087 C 
BRANCH  11  12
ATOM     12  C   UNL     1      -4.539 -39.617 215.821  1.00  0.00     0.066 C 
BRANCH  12  13
ATOM     13  C   UNL     1      -3.197 -39.472 215.112  1.00  0.00     0.140 C 
ATOM     14  O   UNL     1      -2.736 -38.352 214.940  1.00  0.00    -0.299 OA
BRANCH  13  15
ATOM     15  C   UNL     1      -2.510 -40.660 214.479  1.00  0.00     0.106 CG0
ATOM     16  G   UNL     1      -2.709 -40.792 212.972  1.00  0.00     0.000 G0
ENDBRANCH  13  15
ENDBRANCH  12  13
BRANCH  12  17
ATOM     17  C   UNL     1      -4.373 -39.391 217.360  1.00  0.00    -0.006 C 
ATOM     18  C   UNL     1      -5.072 -38.107 217.845  1.00  0.00     0.008 C 
ATOM     19  C   UNL     1      -4.925 -40.586 218.161  1.00  0.00     0.008 C 
ENDBRANCH  12  17
ENDBRANCH  11  12
ENDBRANCH   1  11
TORSDOF 1
ENDMDL
MODEL 7
REMARK VINA RESULT:    -2.948     12.718     15.333
REMARK INTER + INTRA:          -5.092
REMARK INTER:                  -5.135
REMARK INTRA:                   0.043
REMARK UNBOUND:                -0.593
REMARK SMILES CC1=CCC[C@H](C)C(=O)C[C@H](C(C)C)C(=O)C1
REMARK SMILES IDX 8 1 9 2 6 3 7 4 5 5 4 6 3 7 2 8 1 9 10 11 11 12 15 13 16 14
REMARK SMILES IDX 17 15 12 17 13 18 14 19
REMARK H PARENT
REMARK Flexibility Score: 70.00
ROOT
ATOM      1  C   UNL     1     -19.379 -38.743 209.833  1.00  0.00     0.136 C 
ATOM      2  O   UNL     1     -20.054 -39.267 210.708  1.00  0.00    -0.299 OA
ENDROOT
BRANCH   1   3
ATOM      3  C   UNL     1     -19.911 -38.725 208.410  1.00  0.00     0.053 C 
ATOM      4  C   UNL     1     -19.230 -37.619 207.597  1.00  0.00     0.016 C 
BRANCH   3   5
ATOM      5  C   UNL     1     -19.764 -40.093 207.714  1.00  0.00     0.015 C 
BRANCH   5   6
ATOM      6  C   UNL     1     -18.552 -40.878 208.248  1.00  0.00     0.028 C 
BRANCH   6   7
ATOM      7  C   UNL     1     -17.412 -40.952 207.265  1.00  0.00    -0.028 C 
ATOM      8  C   UNL     1     -16.317 -40.148 207.249  1.00  0.00    -0.070 CG0
ATOM      9  C   UNL     1     -15.231 -40.483 206.256  1.00  0.00     0.039 C 
ATOM     10  G   UNL     1     -16.152 -38.897 208.107  1.00  0.00     0.000 G0
ENDBRANCH   6   7
ENDBRANCH   5   6
ENDBRANCH   3   5
ENDBRANCH   1   3
BRANCH   1  11
ATOM     11  C   UNL     1     -18.072 -38.085 210.216  1.00  0.00     0.087 C 
BRANCH  11  12
ATOM     12  C   UNL     1     -16.976 -39.105 210.634  1.00  0.00     0.066 C 
BRANCH  12  13
ATOM     13  C   UNL     1     -15.867 -39.192 209.590  1.00  0.00     0.140 C 
ATOM     14  O   UNL     1     -14.716 -39.369 209.963  1.00  0.00    -0.299 OA
BRANCH  13  15
ATOM     15  C   UNL     1     -16.137 -38.903 208.131  1.00  0.00     0.106 CG0
ATOM     16  G   UNL     1     -16.310 -40.138 207.251  1.00  0.00     0.000 G0
ENDBRANCH  13  15
ENDBRANCH  12  13
BRANCH  12  17
ATOM     17  C   UNL     1     -16.376 -38.795 212.045  1.00  0.00    -0.006 C 
ATOM     18  C   UNL     1     -17.151 -37.689 212.785  1.00  0.00     0.008 C 
ATOM     19  C   UNL     1     -16.352 -40.057 212.929  1.00  0.00     0.008 C 
ENDBRANCH  12  17
ENDBRANCH  11  12
ENDBRANCH   1  11
TORSDOF 1
ENDMDL
MODEL 8
REMARK VINA RESULT:    -2.914     12.430     14.674
REMARK INTER + INTRA:          -5.040
REMARK INTER:                  -5.801
REMARK INTRA:                   0.761
REMARK UNBOUND:                -0.593
REMARK SMILES CC1=CCC[C@H](C)C(=O)C[C@H](C(C)C)C(=O)C1
REMARK SMILES IDX 8 1 9 2 6 3 7 4 5 5 4 6 3 7 2 8 1 9 10 11 11 12 15 13 16 14
REMARK SMILES IDX 17 15 12 17 13 18 14 19
REMARK H PARENT
REMARK Flexibility Score: 70.00
ROOT
ATOM      1  C   UNL     1     -16.729 -38.181 211.694  1.00  0.00     0.136 C 
ATOM      2  O   UNL     1     -16.073 -38.074 212.721  1.00  0.00    -0.299 OA
ENDROOT
BRANCH   1   3
ATOM      3  C   UNL     1     -16.172 -37.596 210.407  1.00  0.00     0.053 C 
ATOM      4  C   UNL     1     -15.029 -38.468 209.874  1.00  0.00     0.016 C 
BRANCH   3   5
ATOM      5  C   UNL     1     -17.261 -37.398 209.336  1.00  0.00     0.015 C 
BRANCH   5   6
ATOM      6  C   UNL     1     -17.053 -38.331 208.129  1.00  0.00     0.028 C 
BRANCH   6   7
ATOM      7  C   UNL     1     -18.288 -39.114 207.763  1.00  0.00    -0.028 C 
ATOM      8  C   UNL     1     -18.698 -40.274 208.338  1.00  0.00    -0.070 CG0
ATOM      9  C   UNL     1     -20.038 -40.820 207.907  1.00  0.00     0.039 C 
ATOM     10  G   UNL     1     -17.866 -41.091 209.322  1.00  0.00     0.000 G0
ENDBRANCH   6   7
ENDBRANCH   5   6
ENDBRANCH   3   5
ENDBRANCH   1   3
BRANCH   1  11
ATOM     11  C   UNL     1     -18.036 -38.940 211.739  1.00  0.00     0.087 C 
BRANCH  11  12
ATOM     12  C   UNL     1     -17.845 -40.475 211.893  1.00  0.00     0.066 C 
BRANCH  12  13
ATOM     13  C   UNL     1     -18.442 -41.233 210.711  1.00  0.00     0.140 C 
ATOM     14  O   UNL     1     -19.320 -42.058 210.920  1.00  0.00    -0.299 OA
BRANCH  13  15
ATOM     15  C   UNL     1     -17.861 -41.106 209.321  1.00  0.00     0.106 CG0
ATOM     16  G   UNL     1     -18.693 -40.276 208.348  1.00  0.00     0.000 G0
ENDBRANCH  13  15
ENDBRANCH  12  13
BRANCH  12  17
ATOM     17  C   UNL     1     -16.347 -40.874 212.098  1.00  0.00    -0.006 C 
ATOM     18  C   UNL     1     -16.081 -41.471 213.492  1.00  0.00     0.008 C 
ATOM     19  C   UNL     1     -15.890 -41.889 211.032  1.00  0.00     0.008 C 
ENDBRANCH  12  17
ENDBRANCH  11  12
ENDBRANCH   1  11
TORSDOF 1
ENDMDL
MODEL 9
REMARK VINA RESULT:    -2.843     12.533     14.825
REMARK INTER + INTRA:          -4.931
REMARK INTER:                  -4.434
REMARK INTRA:                  -0.497
REMARK UNBOUND:                -0.593
REMARK SMILES CC1=CCC[C@H](C)C(=O)C[C@H](C(C)C)C(=O)C1
REMARK SMILES IDX 8 1 9 2 6 3 7 4 5 5 4 6 3 7 2 8 1 9 10 11 11 12 15 13 16 14
REMARK SMILES IDX 17 15 12 17 13 18 14 19
REMARK H PARENT
REMARK Flexibility Score: 70.00
ROOT
ATOM      1  C   UNL     1     -15.721 -40.782 210.957  1.00  0.00     0.136 C 
ATOM      2  O   UNL     1     -15.096 -41.831 211.033  1.00  0.00    -0.299 OA
ENDROOT
BRANCH   1   3
ATOM      3  C   UNL     1     -16.856 -40.534 211.937  1.00  0.00     0.053 C 
ATOM      4  C   UNL     1     -16.766 -39.116 212.512  1.00  0.00     0.016 C 
BRANCH   3   5
ATOM      5  C   UNL     1     -18.239 -40.787 211.306  1.00  0.00     0.015 C 
BRANCH   5   6
ATOM      6  C   UNL     1     -19.000 -39.473 211.052  1.00  0.00     0.028 C 
BRANCH   6   7
ATOM      7  C   UNL     1     -19.595 -39.388 209.670  1.00  0.00    -0.028 C 
ATOM      8  C   UNL     1     -18.986 -38.879 208.568  1.00  0.00    -0.070 CG0
ATOM      9  C   UNL     1     -19.715 -39.015 207.254  1.00  0.00     0.039 C 
ATOM     10  G   UNL     1     -17.663 -38.119 208.586  1.00  0.00     0.000 G0
ENDBRANCH   6   7
ENDBRANCH   5   6
ENDBRANCH   3   5
ENDBRANCH   1   3
BRANCH   1  11
ATOM     11  C   UNL     1     -15.300 -39.755 209.930  1.00  0.00     0.087 C 
BRANCH  11  12
ATOM     12  C   UNL     1     -15.835 -40.066 208.503  1.00  0.00     0.066 C 
BRANCH  12  13
ATOM     13  C   UNL     1     -16.502 -38.845 207.879  1.00  0.00     0.140 C 
ATOM     14  O   UNL     1     -16.023 -38.363 206.862  1.00  0.00    -0.299 OA
BRANCH  13  15
ATOM     15  C   UNL     1     -17.636 -38.128 208.574  1.00  0.00     0.106 CG0
ATOM     16  G   UNL     1     -18.968 -38.873 208.574  1.00  0.00     0.000 G0
ENDBRANCH  13  15
ENDBRANCH  12  13
BRANCH  12  17
ATOM     17  C   UNL     1     -14.724 -40.627 207.556  1.00  0.00    -0.006 C 
ATOM     18  C   UNL     1     -13.316 -40.516 208.169  1.00  0.00     0.008 C 
ATOM     19  C   UNL     1     -14.990 -42.101 207.196  1.00  0.00     0.008 C 
ENDBRANCH  12  17
ENDBRANCH  11  12
ENDBRANCH   1  11
TORSDOF 1
ENDMDL
