MODEL 1
REMARK VINA RESULT:    -5.258      0.000      0.000
REMARK INTER + INTRA:          -6.745
REMARK INTER:                  -6.487
REMARK INTRA:                  -0.258
REMARK UNBOUND:                -0.258
REMARK SMILES CCCCC=CC(C)=O
REMARK SMILES IDX 4 1 3 2 2 3 1 4 5 5 6 6 7 7 9 8 8 9
REMARK H PARENT
REMARK Flexibility Score: inf
ROOT
ATOM      1  C   UNL     1      83.707   5.577  27.302  1.00  0.00     0.027 C 
ENDROOT
BRANCH   1   2
ATOM      2  C   UNL     1      84.219   4.180  26.913  1.00  0.00     0.004 C 
BRANCH   2   3
ATOM      3  C   UNL     1      84.462   3.293  28.143  1.00  0.00    -0.003 C 
ATOM      4  C   UNL     1      85.954   3.069  28.372  1.00  0.00     0.004 C 
ENDBRANCH   2   3
ENDBRANCH   1   2
BRANCH   1   5
ATOM      5  C   UNL     1      82.674   5.525  28.398  1.00  0.00    -0.023 C 
ATOM      6  C   UNL     1      81.351   5.694  28.245  1.00  0.00     0.042 C 
BRANCH   6   7
ATOM      7  C   UNL     1      80.644   6.014  26.982  1.00  0.00     0.152 C 
ATOM      8  O   UNL     1      80.627   5.212  26.012  1.00  0.00    -0.295 OA
ATOM      9  C   UNL     1      79.998   7.353  26.827  1.00  0.00     0.093 C 
ENDBRANCH   6   7
ENDBRANCH   1   5
TORSDOF 4
ENDMDL
MODEL 2
REMARK VINA RESULT:    -5.003      2.006      3.986
REMARK INTER + INTRA:          -6.432
REMARK INTER:                  -6.134
REMARK INTRA:                  -0.298
REMARK UNBOUND:                -0.258
REMARK SMILES CCCCC=CC(C)=O
REMARK SMILES IDX 4 1 3 2 2 3 1 4 5 5 6 6 7 7 9 8 8 9
REMARK H PARENT
REMARK Flexibility Score: inf
ROOT
ATOM      1  C   UNL     1      83.201   5.554  26.715  1.00  0.00     0.027 C 
ENDROOT
BRANCH   1   2
ATOM      2  C   UNL     1      82.121   5.265  25.660  1.00  0.00     0.004 C 
BRANCH   2   3
ATOM      3  C   UNL     1      80.704   5.443  26.224  1.00  0.00    -0.003 C 
ATOM      4  C   UNL     1      80.559   6.785  26.935  1.00  0.00     0.004 C 
ENDBRANCH   2   3
ENDBRANCH   1   2
BRANCH   1   5
ATOM      5  C   UNL     1      83.773   4.294  27.311  1.00  0.00    -0.023 C 
ATOM      6  C   UNL     1      83.337   3.677  28.422  1.00  0.00     0.042 C 
BRANCH   6   7
ATOM      7  C   UNL     1      82.245   4.134  29.312  1.00  0.00     0.152 C 
ATOM      8  O   UNL     1      82.134   5.340  29.658  1.00  0.00    -0.295 OA
ATOM      9  C   UNL     1      81.291   3.129  29.873  1.00  0.00     0.093 C 
ENDBRANCH   6   7
ENDBRANCH   1   5
TORSDOF 4
ENDMDL
MODEL 3
REMARK VINA RESULT:    -4.995      1.489      1.834
REMARK INTER + INTRA:          -6.421
REMARK INTER:                  -6.263
REMARK INTRA:                  -0.157
REMARK UNBOUND:                -0.258
REMARK SMILES CCCCC=CC(C)=O
REMARK SMILES IDX 4 1 3 2 2 3 1 4 5 5 6 6 7 7 9 8 8 9
REMARK H PARENT
REMARK Flexibility Score: inf
ROOT
ATOM      1  C   UNL     1      82.434   3.279  27.033  1.00  0.00     0.027 C 
ENDROOT
BRANCH   1   2
ATOM      2  C   UNL     1      83.445   3.256  28.191  1.00  0.00     0.004 C 
BRANCH   2   3
ATOM      3  C   UNL     1      84.807   3.831  27.778  1.00  0.00    -0.003 C 
ATOM      4  C   UNL     1      85.952   3.043  28.408  1.00  0.00     0.004 C 
ENDBRANCH   2   3
ENDBRANCH   1   2
BRANCH   1   5
ATOM      5  C   UNL     1      82.678   4.421  26.081  1.00  0.00    -0.023 C 
ATOM      6  C   UNL     1      82.160   5.656  26.179  1.00  0.00     0.042 C 
BRANCH   6   7
ATOM      7  C   UNL     1      81.207   6.132  27.209  1.00  0.00     0.152 C 
ATOM      8  O   UNL     1      81.464   6.043  28.439  1.00  0.00    -0.295 OA
ATOM      9  C   UNL     1      79.877   6.664  26.783  1.00  0.00     0.093 C 
ENDBRANCH   6   7
ENDBRANCH   1   5
TORSDOF 4
ENDMDL
MODEL 4
REMARK VINA RESULT:    -4.843      1.650      4.609
REMARK INTER + INTRA:          -6.233
REMARK INTER:                  -6.060
REMARK INTRA:                  -0.173
REMARK UNBOUND:                -0.258
REMARK SMILES CCCCC=CC(C)=O
REMARK SMILES IDX 4 1 3 2 2 3 1 4 5 5 6 6 7 7 9 8 8 9
REMARK H PARENT
REMARK Flexibility Score: inf
ROOT
ATOM      1  C   UNL     1      82.411   4.868  25.724  1.00  0.00     0.027 C 
ENDROOT
BRANCH   1   2
ATOM      2  C   UNL     1      80.950   5.125  26.130  1.00  0.00     0.004 C 
BRANCH   2   3
ATOM      3  C   UNL     1      80.845   6.095  27.315  1.00  0.00    -0.003 C 
ATOM      4  C   UNL     1      80.025   7.328  26.946  1.00  0.00     0.004 C 
ENDBRANCH   2   3
ENDBRANCH   1   2
BRANCH   1   5
ATOM      5  C   UNL     1      83.384   5.681  26.536  1.00  0.00    -0.023 C 
ATOM      6  C   UNL     1      84.165   5.220  27.528  1.00  0.00     0.042 C 
BRANCH   6   7
ATOM      7  C   UNL     1      84.190   3.836  28.057  1.00  0.00     0.152 C 
ATOM      8  O   UNL     1      83.151   3.279  28.501  1.00  0.00    -0.295 OA
ATOM      9  C   UNL     1      85.492   3.107  28.133  1.00  0.00     0.093 C 
ENDBRANCH   6   7
ENDBRANCH   1   5
TORSDOF 4
ENDMDL
MODEL 5
REMARK VINA RESULT:    -4.660      1.773      4.426
REMARK INTER + INTRA:          -6.008
REMARK INTER:                  -5.811
REMARK INTRA:                  -0.197
REMARK UNBOUND:                -0.258
REMARK SMILES CCCCC=CC(C)=O
REMARK SMILES IDX 4 1 3 2 2 3 1 4 5 5 6 6 7 7 9 8 8 9
REMARK H PARENT
REMARK Flexibility Score: inf
ROOT
ATOM      1  C   UNL     1      82.019   5.245  29.352  1.00  0.00     0.027 C 
ENDROOT
BRANCH   1   2
ATOM      2  C   UNL     1      81.457   6.203  28.289  1.00  0.00     0.004 C 
BRANCH   2   3
ATOM      3  C   UNL     1      80.716   5.453  27.172  1.00  0.00    -0.003 C 
ATOM      4  C   UNL     1      81.355   5.719  25.812  1.00  0.00     0.004 C 
ENDBRANCH   2   3
ENDBRANCH   1   2
BRANCH   1   5
ATOM      5  C   UNL     1      82.040   3.814  28.881  1.00  0.00    -0.023 C 
ATOM      6  C   UNL     1      83.074   3.192  28.290  1.00  0.00     0.042 C 
BRANCH   6   7
ATOM      7  C   UNL     1      84.379   3.797  27.934  1.00  0.00     0.152 C 
ATOM      8  O   UNL     1      84.454   4.865  27.271  1.00  0.00    -0.295 OA
ATOM      9  C   UNL     1      85.639   3.086  28.308  1.00  0.00     0.093 C 
ENDBRANCH   6   7
ENDBRANCH   1   5
TORSDOF 4
ENDMDL
MODEL 6
REMARK VINA RESULT:    -4.532      2.206      3.454
REMARK INTER + INTRA:          -5.851
REMARK INTER:                  -5.693
REMARK INTRA:                  -0.158
REMARK UNBOUND:                -0.258
REMARK SMILES CCCCC=CC(C)=O
REMARK SMILES IDX 4 1 3 2 2 3 1 4 5 5 6 6 7 7 9 8 8 9
REMARK H PARENT
REMARK Flexibility Score: inf
ROOT
ATOM      1  C   UNL     1      80.677   5.777  27.391  1.00  0.00     0.027 C 
ENDROOT
BRANCH   1   2
ATOM      2  C   UNL     1      81.387   5.307  26.111  1.00  0.00     0.004 C 
BRANCH   2   3
ATOM      3  C   UNL     1      82.890   5.621  26.138  1.00  0.00    -0.003 C 
ATOM      4  C   UNL     1      83.711   4.423  25.672  1.00  0.00     0.004 C 
ENDBRANCH   2   3
ENDBRANCH   1   2
BRANCH   1   5
ATOM      5  C   UNL     1      81.633   5.976  28.538  1.00  0.00    -0.023 C 
ATOM      6  C   UNL     1      82.121   5.011  29.336  1.00  0.00     0.042 C 
BRANCH   6   7
ATOM      7  C   UNL     1      81.782   3.570  29.284  1.00  0.00     0.152 C 
ATOM      8  O   UNL     1      82.065   2.859  28.283  1.00  0.00    -0.295 OA
ATOM      9  C   UNL     1      81.020   2.958  30.415  1.00  0.00     0.093 C 
ENDBRANCH   6   7
ENDBRANCH   1   5
TORSDOF 4
ENDMDL
MODEL 7
REMARK VINA RESULT:    -4.493      2.270      3.446
REMARK INTER + INTRA:          -5.802
REMARK INTER:                  -5.495
REMARK INTRA:                  -0.308
REMARK UNBOUND:                -0.258
REMARK SMILES CCCCC=CC(C)=O
REMARK SMILES IDX 4 1 3 2 2 3 1 4 5 5 6 6 7 7 9 8 8 9
REMARK H PARENT
REMARK Flexibility Score: inf
ROOT
ATOM      1  C   UNL     1      82.318   5.865  28.696  1.00  0.00     0.027 C 
ENDROOT
BRANCH   1   2
ATOM      2  C   UNL     1      81.736   5.101  29.897  1.00  0.00     0.004 C 
BRANCH   2   3
ATOM      3  C   UNL     1      81.861   3.580  29.727  1.00  0.00    -0.003 C 
ATOM      4  C   UNL     1      80.836   2.845  30.585  1.00  0.00     0.004 C 
ENDBRANCH   2   3
ENDBRANCH   1   2
BRANCH   1   5
ATOM      5  C   UNL     1      81.374   5.895  27.522  1.00  0.00    -0.023 C 
ATOM      6  C   UNL     1      81.455   5.127  26.423  1.00  0.00     0.042 C 
BRANCH   6   7
ATOM      7  C   UNL     1      82.513   4.135  26.118  1.00  0.00     0.152 C 
ATOM      8  O   UNL     1      82.439   2.943  26.520  1.00  0.00    -0.295 OA
ATOM      9  C   UNL     1      83.735   4.575  25.378  1.00  0.00     0.093 C 
ENDBRANCH   6   7
ENDBRANCH   1   5
TORSDOF 4
ENDMDL
MODEL 8
REMARK VINA RESULT:    -4.030      2.724      3.580
REMARK INTER + INTRA:          -5.230
REMARK INTER:                  -4.914
REMARK INTRA:                  -0.316
REMARK UNBOUND:                -0.258
REMARK SMILES CCCCC=CC(C)=O
REMARK SMILES IDX 4 1 3 2 2 3 1 4 5 5 6 6 7 7 9 8 8 9
REMARK H PARENT
REMARK Flexibility Score: inf
ROOT
ATOM      1  C   UNL     1      82.782   3.761  29.062  1.00  0.00     0.027 C 
ENDROOT
BRANCH   1   2
ATOM      2  C   UNL     1      81.572   3.911  29.999  1.00  0.00     0.004 C 
BRANCH   2   3
ATOM      3  C   UNL     1      80.927   2.557  30.328  1.00  0.00    -0.003 C 
ATOM      4  C   UNL     1      80.119   2.633  31.621  1.00  0.00     0.004 C 
ENDBRANCH   2   3
ENDBRANCH   1   2
BRANCH   1   5
ATOM      5  C   UNL     1      82.415   3.121  27.749  1.00  0.00    -0.023 C 
ATOM      6  C   UNL     1      82.248   3.759  26.578  1.00  0.00     0.042 C 
BRANCH   6   7
ATOM      7  C   UNL     1      82.340   5.220  26.352  1.00  0.00     0.152 C 
ATOM      8  O   UNL     1      83.447   5.794  26.172  1.00  0.00    -0.295 OA
ATOM      9  C   UNL     1      81.096   6.047  26.410  1.00  0.00     0.093 C 
ENDBRANCH   6   7
ENDBRANCH   1   5
TORSDOF 4
ENDMDL
MODEL 9
REMARK VINA RESULT:    -3.972     18.980     19.752
REMARK INTER + INTRA:          -5.159
REMARK INTER:                  -4.678
REMARK INTRA:                  -0.480
REMARK UNBOUND:                -0.258
REMARK SMILES CCCCC=CC(C)=O
REMARK SMILES IDX 4 1 3 2 2 3 1 4 5 5 6 6 7 7 9 8 8 9
REMARK H PARENT
REMARK Flexibility Score: inf
ROOT
ATOM      1  C   UNL     1      77.866  -6.728  14.498  1.00  0.00     0.027 C 
ENDROOT
BRANCH   1   2
ATOM      2  C   UNL     1      79.062  -7.366  15.222  1.00  0.00     0.004 C 
BRANCH   2   3
ATOM      3  C   UNL     1      80.398  -6.998  14.560  1.00  0.00    -0.003 C 
ATOM      4  C   UNL     1      81.208  -8.246  14.223  1.00  0.00     0.004 C 
ENDBRANCH   2   3
ENDBRANCH   1   2
BRANCH   1   5
ATOM      5  C   UNL     1      78.177  -6.388  13.064  1.00  0.00    -0.023 C 
ATOM      6  C   UNL     1      78.031  -7.206  12.008  1.00  0.00     0.042 C 
BRANCH   6   7
ATOM      7  C   UNL     1      77.587  -8.620  12.045  1.00  0.00     0.152 C 
ATOM      8  O   UNL     1      76.376  -8.929  12.200  1.00  0.00    -0.295 OA
ATOM      9  C   UNL     1      78.609  -9.708  11.969  1.00  0.00     0.093 C 
ENDBRANCH   6   7
ENDBRANCH   1   5
TORSDOF 4
ENDMDL
