MODEL 1
REMARK VINA RESULT:    -3.887      0.000      0.000
REMARK INTER + INTRA:          -5.007
REMARK INTER:                  -4.795
REMARK INTRA:                  -0.212
REMARK UNBOUND:                -0.212
REMARK SMILES CCCCCC(=O)[O-]
REMARK SMILES IDX 4 1 5 2 6 3 7 4 8 5 3 6 2 7 1 8
REMARK H PARENT
REMARK Flexibility Score: inf
ROOT
ATOM      1  C   UNL     1      48.418  31.681  17.614  1.00  0.00     0.006 C 
ENDROOT
BRANCH   1   2
ATOM      2  C   UNL     1      48.883  30.556  16.683  1.00  0.00     0.053 C 
BRANCH   2   3
ATOM      3  C   UNL     1      48.100  30.574  15.408  1.00  0.00     0.041 C 
ATOM      4  O   UNL     1      48.431  31.348  14.473  1.00  0.00    -0.550 OA
ATOM      5  O   UNL     1      46.974  29.772  15.273  1.00  0.00    -0.550 OA
ENDBRANCH   2   3
ENDBRANCH   1   2
BRANCH   1   6
ATOM      6  C   UNL     1      49.476  32.786  17.710  1.00  0.00     0.000 C 
BRANCH   6   7
ATOM      7  C   UNL     1      48.869  34.157  17.390  1.00  0.00    -0.003 C 
ATOM      8  C   UNL     1      47.511  34.012  16.706  1.00  0.00     0.004 C 
ENDBRANCH   6   7
ENDBRANCH   1   6
TORSDOF 4
ENDMDL
MODEL 2
REMARK VINA RESULT:    -3.759      1.160      1.427
REMARK INTER + INTRA:          -4.850
REMARK INTER:                  -4.749
REMARK INTRA:                  -0.101
REMARK UNBOUND:                -0.212
REMARK SMILES CCCCCC(=O)[O-]
REMARK SMILES IDX 4 1 5 2 6 3 7 4 8 5 3 6 2 7 1 8
REMARK H PARENT
REMARK Flexibility Score: inf
ROOT
ATOM      1  C   UNL     1      48.833  31.455  16.678  1.00  0.00     0.006 C 
ENDROOT
BRANCH   1   2
ATOM      2  C   UNL     1      48.052  30.311  17.332  1.00  0.00     0.053 C 
BRANCH   2   3
ATOM      3  C   UNL     1      47.556  29.354  16.294  1.00  0.00     0.041 C 
ATOM      4  O   UNL     1      46.859  29.769  15.332  1.00  0.00    -0.550 OA
ATOM      5  O   UNL     1      47.823  27.996  16.417  1.00  0.00    -0.550 OA
ENDBRANCH   2   3
ENDBRANCH   1   2
BRANCH   1   6
ATOM      6  C   UNL     1      49.298  32.472  17.727  1.00  0.00     0.000 C 
BRANCH   6   7
ATOM      7  C   UNL     1      48.855  33.891  17.350  1.00  0.00    -0.003 C 
ATOM      8  C   UNL     1      47.828  33.866  16.220  1.00  0.00     0.004 C 
ENDBRANCH   6   7
ENDBRANCH   1   6
TORSDOF 4
ENDMDL
MODEL 3
REMARK VINA RESULT:    -3.746      3.794      4.765
REMARK INTER + INTRA:          -4.834
REMARK INTER:                  -4.780
REMARK INTRA:                  -0.055
REMARK UNBOUND:                -0.212
REMARK SMILES CCCCCC(=O)[O-]
REMARK SMILES IDX 4 1 5 2 6 3 7 4 8 5 3 6 2 7 1 8
REMARK H PARENT
REMARK Flexibility Score: inf
ROOT
ATOM      1  C   UNL     1      48.245  33.840  14.020  1.00  0.00     0.006 C 
ENDROOT
BRANCH   1   2
ATOM      2  C   UNL     1      48.110  33.043  15.321  1.00  0.00     0.053 C 
BRANCH   2   3
ATOM      3  C   UNL     1      47.819  33.957  16.469  1.00  0.00     0.041 C 
ATOM      4  O   UNL     1      46.661  34.425  16.627  1.00  0.00    -0.550 OA
ATOM      5  O   UNL     1      48.838  34.333  17.334  1.00  0.00    -0.550 OA
ENDBRANCH   2   3
ENDBRANCH   1   2
BRANCH   1   6
ATOM      6  C   UNL     1      48.514  32.910  12.831  1.00  0.00     0.000 C 
BRANCH   6   7
ATOM      7  C   UNL     1      48.803  33.715  11.559  1.00  0.00    -0.003 C 
ATOM      8  C   UNL     1      50.289  33.675  11.208  1.00  0.00     0.004 C 
ENDBRANCH   6   7
ENDBRANCH   1   6
TORSDOF 4
ENDMDL
MODEL 4
REMARK VINA RESULT:    -3.716      1.717      3.372
REMARK INTER + INTRA:          -4.797
REMARK INTER:                  -4.558
REMARK INTRA:                  -0.239
REMARK UNBOUND:                -0.212
REMARK SMILES CCCCCC(=O)[O-]
REMARK SMILES IDX 4 1 5 2 6 3 7 4 8 5 3 6 2 7 1 8
REMARK H PARENT
REMARK Flexibility Score: inf
ROOT
ATOM      1  C   UNL     1      49.272  32.423  17.630  1.00  0.00     0.006 C 
ENDROOT
BRANCH   1   2
ATOM      2  C   UNL     1      48.798  33.853  17.356  1.00  0.00     0.053 C 
BRANCH   2   3
ATOM      3  C   UNL     1      47.797  33.870  16.244  1.00  0.00     0.041 C 
ATOM      4  O   UNL     1      46.650  34.352  16.431  1.00  0.00    -0.550 OA
ATOM      5  O   UNL     1      48.116  33.307  15.015  1.00  0.00    -0.550 OA
ENDBRANCH   2   3
ENDBRANCH   1   2
BRANCH   1   6
ATOM      6  C   UNL     1      48.095  31.516  18.007  1.00  0.00     0.000 C 
BRANCH   6   7
ATOM      7  C   UNL     1      48.249  30.126  17.377  1.00  0.00    -0.003 C 
ATOM      8  C   UNL     1      47.380  29.987  16.130  1.00  0.00     0.004 C 
ENDBRANCH   6   7
ENDBRANCH   1   6
TORSDOF 4
ENDMDL
MODEL 5
REMARK VINA RESULT:    -3.696      1.367      1.794
REMARK INTER + INTRA:          -4.772
REMARK INTER:                  -4.636
REMARK INTRA:                  -0.136
REMARK UNBOUND:                -0.212
REMARK SMILES CCCCCC(=O)[O-]
REMARK SMILES IDX 4 1 5 2 6 3 7 4 8 5 3 6 2 7 1 8
REMARK H PARENT
REMARK Flexibility Score: inf
ROOT
ATOM      1  C   UNL     1      49.330  32.506  17.746  1.00  0.00     0.006 C 
ENDROOT
BRANCH   1   2
ATOM      2  C   UNL     1      48.145  31.541  17.861  1.00  0.00     0.053 C 
BRANCH   2   3
ATOM      3  C   UNL     1      48.406  30.296  17.074  1.00  0.00     0.041 C 
ATOM      4  O   UNL     1      49.586  29.955  16.800  1.00  0.00    -0.550 OA
ATOM      5  O   UNL     1      47.342  29.537  16.602  1.00  0.00    -0.550 OA
ENDBRANCH   2   3
ENDBRANCH   1   2
BRANCH   1   6
ATOM      6  C   UNL     1      48.857  33.911  17.354  1.00  0.00     0.000 C 
BRANCH   6   7
ATOM      7  C   UNL     1      47.641  33.843  16.423  1.00  0.00    -0.003 C 
ATOM      8  C   UNL     1      48.071  33.765  14.960  1.00  0.00     0.004 C 
ENDBRANCH   6   7
ENDBRANCH   1   6
TORSDOF 4
ENDMDL
MODEL 6
REMARK VINA RESULT:    -3.644      2.758      3.495
REMARK INTER + INTRA:          -4.708
REMARK INTER:                  -4.588
REMARK INTRA:                  -0.120
REMARK UNBOUND:                -0.212
REMARK SMILES CCCCCC(=O)[O-]
REMARK SMILES IDX 4 1 5 2 6 3 7 4 8 5 3 6 2 7 1 8
REMARK H PARENT
REMARK Flexibility Score: inf
ROOT
ATOM      1  C   UNL     1      47.559  33.827  15.933  1.00  0.00     0.006 C 
ENDROOT
BRANCH   1   2
ATOM      2  C   UNL     1      48.577  33.906  17.075  1.00  0.00     0.053 C 
BRANCH   2   3
ATOM      3  C   UNL     1      48.859  32.542  17.621  1.00  0.00     0.041 C 
ATOM      4  O   UNL     1      50.045  32.177  17.832  1.00  0.00    -0.550 OA
ATOM      5  O   UNL     1      47.814  31.656  17.851  1.00  0.00    -0.550 OA
ENDBRANCH   2   3
ENDBRANCH   1   2
BRANCH   1   6
ATOM      6  C   UNL     1      48.200  33.252  14.665  1.00  0.00     0.000 C 
BRANCH   6   7
ATOM      7  C   UNL     1      48.613  34.372  13.702  1.00  0.00    -0.003 C 
ATOM      8  C   UNL     1      47.769  34.343  12.430  1.00  0.00     0.004 C 
ENDBRANCH   6   7
ENDBRANCH   1   6
TORSDOF 4
ENDMDL
MODEL 7
REMARK VINA RESULT:    -3.569      3.186      4.049
REMARK INTER + INTRA:          -4.616
REMARK INTER:                  -4.498
REMARK INTRA:                  -0.118
REMARK UNBOUND:                -0.212
REMARK SMILES CCCCCC(=O)[O-]
REMARK SMILES IDX 4 1 5 2 6 3 7 4 8 5 3 6 2 7 1 8
REMARK H PARENT
REMARK Flexibility Score: inf
ROOT
ATOM      1  C   UNL     1      48.449  32.298  13.850  1.00  0.00     0.006 C 
ENDROOT
BRANCH   1   2
ATOM      2  C   UNL     1      48.410  33.710  13.258  1.00  0.00     0.053 C 
BRANCH   2   3
ATOM      3  C   UNL     1      48.843  33.691  11.826  1.00  0.00     0.041 C 
ATOM      4  O   UNL     1      48.023  33.390  10.921  1.00  0.00    -0.550 OA
ATOM      5  O   UNL     1      50.167  33.957  11.497  1.00  0.00    -0.550 OA
ENDBRANCH   2   3
ENDBRANCH   1   2
BRANCH   1   6
ATOM      6  C   UNL     1      48.127  32.321  15.349  1.00  0.00     0.000 C 
BRANCH   6   7
ATOM      7  C   UNL     1      47.818  33.747  15.822  1.00  0.00    -0.003 C 
ATOM      8  C   UNL     1      48.595  34.086  17.092  1.00  0.00     0.004 C 
ENDBRANCH   6   7
ENDBRANCH   1   6
TORSDOF 4
ENDMDL
MODEL 8
REMARK VINA RESULT:    -3.541     12.570     13.170
REMARK INTER + INTRA:          -4.581
REMARK INTER:                  -4.515
REMARK INTRA:                  -0.066
REMARK UNBOUND:                -0.212
REMARK SMILES CCCCCC(=O)[O-]
REMARK SMILES IDX 4 1 5 2 6 3 7 4 8 5 3 6 2 7 1 8
REMARK H PARENT
REMARK Flexibility Score: inf
ROOT
ATOM      1  C   UNL     1      44.382  34.900  29.750  1.00  0.00     0.006 C 
ENDROOT
BRANCH   1   2
ATOM      2  C   UNL     1      45.224  33.628  29.618  1.00  0.00     0.053 C 
BRANCH   2   3
ATOM      3  C   UNL     1      45.157  33.097  28.221  1.00  0.00     0.041 C 
ATOM      4  O   UNL     1      44.163  32.423  27.847  1.00  0.00    -0.550 OA
ATOM      5  O   UNL     1      46.217  33.304  27.347  1.00  0.00    -0.550 OA
ENDBRANCH   2   3
ENDBRANCH   1   2
BRANCH   1   6
ATOM      6  C   UNL     1      45.019  36.063  28.980  1.00  0.00     0.000 C 
BRANCH   6   7
ATOM      7  C   UNL     1      44.211  37.353  29.166  1.00  0.00    -0.003 C 
ATOM      8  C   UNL     1      44.642  38.423  28.165  1.00  0.00     0.004 C 
ENDBRANCH   6   7
ENDBRANCH   1   6
TORSDOF 4
ENDMDL
MODEL 9
REMARK VINA RESULT:    -3.419     11.481     12.442
REMARK INTER + INTRA:          -4.430
REMARK INTER:                  -4.249
REMARK INTRA:                  -0.181
REMARK UNBOUND:                -0.212
REMARK SMILES CCCCCC(=O)[O-]
REMARK SMILES IDX 4 1 5 2 6 3 7 4 8 5 3 6 2 7 1 8
REMARK H PARENT
REMARK Flexibility Score: inf
ROOT
ATOM      1  C   UNL     1      41.210  37.586  24.099  1.00  0.00     0.006 C 
ENDROOT
BRANCH   1   2
ATOM      2  C   UNL     1      40.082  36.552  24.162  1.00  0.00     0.053 C 
BRANCH   2   3
ATOM      3  C   UNL     1      38.748  37.227  24.100  1.00  0.00     0.041 C 
ATOM      4  O   UNL     1      38.629  38.428  24.453  1.00  0.00    -0.550 OA
ATOM      5  O   UNL     1      37.626  36.512  23.699  1.00  0.00    -0.550 OA
ENDBRANCH   2   3
ENDBRANCH   1   2
BRANCH   1   6
ATOM      6  C   UNL     1      42.192  37.260  22.967  1.00  0.00     0.000 C 
BRANCH   6   7
ATOM      7  C   UNL     1      42.166  38.348  21.888  1.00  0.00    -0.003 C 
ATOM      8  C   UNL     1      41.554  39.641  22.422  1.00  0.00     0.004 C 
ENDBRANCH   6   7
ENDBRANCH   1   6
TORSDOF 4
ENDMDL
