MODEL 1
REMARK VINA RESULT:    -5.369      0.000      0.000
REMARK INTER + INTRA:          -6.592
REMARK INTER:                  -6.311
REMARK INTRA:                  -0.281
REMARK UNBOUND:                -0.281
REMARK SMILES O=c1c(O)c(-c2ccc(O)c(O)c2)oc2cc(O)ccc12
REMARK SMILES IDX 5 1 3 2 2 3 1 4 21 5 15 6 14 7 16 8 17 9 19 10 20 11 6 12
REMARK SMILES IDX 7 13 8 14 9 15 13 16 11 17 10 18 12 20 4 22 18 24
REMARK H PARENT 10 19 12 21 4 23 18 25
REMARK Flexibility Score: inf
ROOT
ATOM      1  C   UNL     1      16.906  -6.185  27.516  1.00  0.00     0.180 A 
ATOM      2  C   UNL     1      15.859  -5.568  28.232  1.00  0.00     0.208 A 
ATOM      3  C   UNL     1      16.135  -4.402  28.964  1.00  0.00     0.235 A 
ATOM      4  O   UNL     1      15.218  -3.838  29.621  1.00  0.00    -0.285 OA
ATOM      5  C   UNL     1      17.434  -3.869  28.950  1.00  0.00     0.069 A 
ATOM      6  C   UNL     1      18.421  -4.533  28.189  1.00  0.00     0.142 A 
ATOM      7  O   UNL     1      18.121  -5.639  27.518  1.00  0.00    -0.452 OA
ATOM      8  C   UNL     1      19.724  -4.027  28.141  1.00  0.00     0.094 A 
ATOM      9  C   UNL     1      20.057  -2.866  28.847  1.00  0.00     0.119 A 
ATOM     10  C   UNL     1      19.080  -2.205  29.604  1.00  0.00     0.047 A 
ATOM     11  C   UNL     1      17.774  -2.702  29.657  1.00  0.00     0.020 A 
ENDROOT
BRANCH   1  12
ATOM     12  C   UNL     1      16.700  -7.427  26.736  1.00  0.00     0.025 A 
ATOM     13  C   UNL     1      17.122  -8.674  27.222  1.00  0.00     0.016 A 
ATOM     14  C   UNL     1      16.938  -9.827  26.457  1.00  0.00     0.051 A 
ATOM     15  C   UNL     1      16.344  -9.759  25.192  1.00  0.00     0.157 A 
ATOM     16  C   UNL     1      16.124  -7.352  25.458  1.00  0.00     0.062 A 
ATOM     17  C   UNL     1      15.935  -8.504  24.684  1.00  0.00     0.158 A 
BRANCH  15  18
ATOM     18  O   UNL     1      16.186 -10.950  24.481  1.00  0.00    -0.504 OA
ATOM     19  H   UNL     1      16.940 -11.592  24.281  1.00  0.00     0.293 HD
ENDBRANCH  15  18
BRANCH  17  20
ATOM     20  O   UNL     1      15.344  -8.355  23.428  1.00  0.00    -0.504 OA
ATOM     21  H   UNL     1      14.486  -8.811  23.150  1.00  0.00     0.293 HD
ENDBRANCH  17  20
ENDBRANCH   1  12
BRANCH   2  22
ATOM     22  O   UNL     1      14.566  -6.094  28.187  1.00  0.00    -0.502 OA
ATOM     23  H   UNL     1      14.384  -7.064  27.956  1.00  0.00     0.293 HD
ENDBRANCH   2  22
BRANCH   9  24
ATOM     24  O   UNL     1      21.360  -2.377  28.789  1.00  0.00    -0.508 OA
ATOM     25  H   UNL     1      21.818  -1.993  29.606  1.00  0.00     0.293 HD
ENDBRANCH   9  24
TORSDOF 5
ENDMDL
MODEL 2
REMARK VINA RESULT:    -5.152      9.400     12.764
REMARK INTER + INTRA:          -6.337
REMARK INTER:                  -6.242
REMARK INTRA:                  -0.095
REMARK UNBOUND:                -0.281
REMARK SMILES O=c1c(O)c(-c2ccc(O)c(O)c2)oc2cc(O)ccc12
REMARK SMILES IDX 5 1 3 2 2 3 1 4 21 5 15 6 14 7 16 8 17 9 19 10 20 11 6 12
REMARK SMILES IDX 7 13 8 14 9 15 13 16 11 17 10 18 12 20 4 22 18 24
REMARK H PARENT 10 19 12 21 4 23 18 25
REMARK Flexibility Score: inf
ROOT
ATOM      1  C   UNL     1      23.685   4.009  25.738  1.00  0.00     0.180 A 
ATOM      2  C   UNL     1      22.496   4.593  26.222  1.00  0.00     0.208 A 
ATOM      3  C   UNL     1      21.795   3.946  27.251  1.00  0.00     0.235 A 
ATOM      4  O   UNL     1      20.724   4.443  27.694  1.00  0.00    -0.285 OA
ATOM      5  C   UNL     1      22.300   2.750  27.785  1.00  0.00     0.069 A 
ATOM      6  C   UNL     1      23.510   2.242  27.262  1.00  0.00     0.142 A 
ATOM      7  O   UNL     1      24.138   2.881  26.281  1.00  0.00    -0.452 OA
ATOM      8  C   UNL     1      24.051   1.059  27.775  1.00  0.00     0.094 A 
ATOM      9  C   UNL     1      23.398   0.372  28.804  1.00  0.00     0.119 A 
ATOM     10  C   UNL     1      22.197   0.872  29.325  1.00  0.00     0.047 A 
ATOM     11  C   UNL     1      21.649   2.056  28.820  1.00  0.00     0.020 A 
ENDROOT
BRANCH   1  12
ATOM     12  C   UNL     1      24.472   4.620  24.642  1.00  0.00     0.025 A 
ATOM     13  C   UNL     1      24.994   5.919  24.752  1.00  0.00     0.016 A 
ATOM     14  C   UNL     1      25.712   6.482  23.696  1.00  0.00     0.051 A 
ATOM     15  C   UNL     1      25.912   5.771  22.508  1.00  0.00     0.157 A 
ATOM     16  C   UNL     1      24.652   3.912  23.443  1.00  0.00     0.062 A 
ATOM     17  C   UNL     1      25.371   4.470  22.378  1.00  0.00     0.158 A 
BRANCH  15  18
ATOM     18  O   UNL     1      26.642   6.390  21.492  1.00  0.00    -0.504 OA
ATOM     19  H   UNL     1      26.853   5.957  20.604  1.00  0.00     0.293 HD
ENDBRANCH  15  18
BRANCH  17  20
ATOM     20  O   UNL     1      25.521   3.703  21.222  1.00  0.00    -0.504 OA
ATOM     21  H   UNL     1      24.802   3.591  20.520  1.00  0.00     0.293 HD
ENDBRANCH  17  20
ENDBRANCH   1  12
BRANCH   2  22
ATOM     22  O   UNL     1      22.044   5.810  25.705  1.00  0.00    -0.502 OA
ATOM     23  H   UNL     1      22.325   6.147  24.791  1.00  0.00     0.293 HD
ENDBRANCH   2  22
BRANCH   9  24
ATOM     24  O   UNL     1      23.951  -0.805  29.302  1.00  0.00    -0.508 OA
ATOM     25  H   UNL     1      24.577  -1.374  28.744  1.00  0.00     0.293 HD
ENDBRANCH   9  24
TORSDOF 5
ENDMDL
MODEL 3
REMARK VINA RESULT:    -5.090      7.155      9.943
REMARK INTER + INTRA:          -6.264
REMARK INTER:                  -5.976
REMARK INTRA:                  -0.288
REMARK UNBOUND:                -0.281
REMARK SMILES O=c1c(O)c(-c2ccc(O)c(O)c2)oc2cc(O)ccc12
REMARK SMILES IDX 5 1 3 2 2 3 1 4 21 5 15 6 14 7 16 8 17 9 19 10 20 11 6 12
REMARK SMILES IDX 7 13 8 14 9 15 13 16 11 17 10 18 12 20 4 22 18 24
REMARK H PARENT 10 19 12 21 4 23 18 25
REMARK Flexibility Score: inf
ROOT
ATOM      1  C   UNL     1      22.183   1.588  28.572  1.00  0.00     0.180 A 
ATOM      2  C   UNL     1      21.339   2.645  28.971  1.00  0.00     0.208 A 
ATOM      3  C   UNL     1      21.234   3.776  28.148  1.00  0.00     0.235 A 
ATOM      4  O   UNL     1      20.494   4.739  28.489  1.00  0.00    -0.285 OA
ATOM      5  C   UNL     1      21.953   3.822  26.943  1.00  0.00     0.069 A 
ATOM      6  C   UNL     1      22.759   2.713  26.602  1.00  0.00     0.142 A 
ATOM      7  O   UNL     1      22.837   1.665  27.414  1.00  0.00    -0.452 OA
ATOM      8  C   UNL     1      23.483   2.716  25.405  1.00  0.00     0.094 A 
ATOM      9  C   UNL     1      23.414   3.815  24.542  1.00  0.00     0.119 A 
ATOM     10  C   UNL     1      22.617   4.918  24.877  1.00  0.00     0.047 A 
ATOM     11  C   UNL     1      21.889   4.924  26.071  1.00  0.00     0.020 A 
ENDROOT
BRANCH   1  12
ATOM     12  C   UNL     1      22.361   0.370  29.394  1.00  0.00     0.025 A 
ATOM     13  C   UNL     1      23.182   0.368  30.533  1.00  0.00     0.016 A 
ATOM     14  C   UNL     1      23.352  -0.799  31.278  1.00  0.00     0.051 A 
ATOM     15  C   UNL     1      22.721  -1.989  30.898  1.00  0.00     0.157 A 
ATOM     16  C   UNL     1      21.744  -0.828  28.997  1.00  0.00     0.062 A 
ATOM     17  C   UNL     1      21.909  -2.004  29.739  1.00  0.00     0.158 A 
BRANCH  15  18
ATOM     18  O   UNL     1      22.931  -3.120  31.689  1.00  0.00    -0.504 OA
ATOM     19  H   UNL     1      23.609  -3.168  32.436  1.00  0.00     0.293 HD
ENDBRANCH  15  18
BRANCH  17  20
ATOM     20  O   UNL     1      21.256  -3.153  29.292  1.00  0.00    -0.504 OA
ATOM     21  H   UNL     1      21.031  -3.335  28.323  1.00  0.00     0.293 HD
ENDBRANCH  17  20
ENDBRANCH   1  12
BRANCH   2  22
ATOM     22  O   UNL     1      20.597   2.549  30.152  1.00  0.00    -0.502 OA
ATOM     23  H   UNL     1      21.015   2.685  31.065  1.00  0.00     0.293 HD
ENDBRANCH   2  22
BRANCH   9  24
ATOM     24  O   UNL     1      24.142   3.801  23.355  1.00  0.00    -0.508 OA
ATOM     25  H   UNL     1      23.747   4.143  22.487  1.00  0.00     0.293 HD
ENDBRANCH   9  24
TORSDOF 5
ENDMDL
MODEL 4
REMARK VINA RESULT:    -5.007      1.600      6.916
REMARK INTER + INTRA:          -6.166
REMARK INTER:                  -5.909
REMARK INTRA:                  -0.257
REMARK UNBOUND:                -0.281
REMARK SMILES O=c1c(O)c(-c2ccc(O)c(O)c2)oc2cc(O)ccc12
REMARK SMILES IDX 5 1 3 2 2 3 1 4 21 5 15 6 14 7 16 8 17 9 19 10 20 11 6 12
REMARK SMILES IDX 7 13 8 14 9 15 13 16 11 17 10 18 12 20 4 22 18 24
REMARK H PARENT 10 19 12 21 4 23 18 25
REMARK Flexibility Score: inf
ROOT
ATOM      1  C   UNL     1      17.654  -6.611  27.822  1.00  0.00     0.180 A 
ATOM      2  C   UNL     1      17.878  -7.802  28.542  1.00  0.00     0.208 A 
ATOM      3  C   UNL     1      17.431  -9.016  27.997  1.00  0.00     0.235 A 
ATOM      4  O   UNL     1      17.610 -10.094  28.627  1.00  0.00    -0.285 OA
ATOM      5  C   UNL     1      16.793  -9.018  26.747  1.00  0.00     0.069 A 
ATOM      6  C   UNL     1      16.628  -7.786  26.078  1.00  0.00     0.142 A 
ATOM      7  O   UNL     1      17.057  -6.658  26.632  1.00  0.00    -0.452 OA
ATOM      8  C   UNL     1      16.007  -7.748  24.825  1.00  0.00     0.094 A 
ATOM      9  C   UNL     1      15.545  -8.927  24.231  1.00  0.00     0.119 A 
ATOM     10  C   UNL     1      15.706 -10.152  24.893  1.00  0.00     0.047 A 
ATOM     11  C   UNL     1      16.327 -10.201  26.144  1.00  0.00     0.020 A 
ENDROOT
BRANCH   1  12
ATOM     12  C   UNL     1      18.079  -5.289  28.337  1.00  0.00     0.025 A 
ATOM     13  C   UNL     1      17.148  -4.366  28.840  1.00  0.00     0.016 A 
ATOM     14  C   UNL     1      17.570  -3.117  29.299  1.00  0.00     0.051 A 
ATOM     15  C   UNL     1      18.922  -2.758  29.253  1.00  0.00     0.157 A 
ATOM     16  C   UNL     1      19.433  -4.923  28.269  1.00  0.00     0.062 A 
ATOM     17  C   UNL     1      19.866  -3.672  28.727  1.00  0.00     0.158 A 
BRANCH  15  18
ATOM     18  O   UNL     1      19.278  -1.496  29.730  1.00  0.00    -0.504 OA
ATOM     19  H   UNL     1      20.135  -1.302  30.228  1.00  0.00     0.293 HD
ENDBRANCH  15  18
BRANCH  17  20
ATOM     20  O   UNL     1      21.228  -3.383  28.641  1.00  0.00    -0.504 OA
ATOM     21  H   UNL     1      21.599  -2.505  28.304  1.00  0.00     0.293 HD
ENDBRANCH  17  20
ENDBRANCH   1  12
BRANCH   2  22
ATOM     22  O   UNL     1      18.560  -7.774  29.761  1.00  0.00    -0.502 OA
ATOM     23  H   UNL     1      18.852  -6.908  30.198  1.00  0.00     0.293 HD
ENDBRANCH   2  22
BRANCH   9  24
ATOM     24  O   UNL     1      14.927  -8.870  22.983  1.00  0.00    -0.508 OA
ATOM     25  H   UNL     1      15.463  -8.909  22.125  1.00  0.00     0.293 HD
ENDBRANCH   9  24
TORSDOF 5
ENDMDL
MODEL 5
REMARK VINA RESULT:    -4.823      8.674     11.400
REMARK INTER + INTRA:          -5.950
REMARK INTER:                  -5.637
REMARK INTRA:                  -0.313
REMARK UNBOUND:                -0.281
REMARK SMILES O=c1c(O)c(-c2ccc(O)c(O)c2)oc2cc(O)ccc12
REMARK SMILES IDX 5 1 3 2 2 3 1 4 21 5 15 6 14 7 16 8 17 9 19 10 20 11 6 12
REMARK SMILES IDX 7 13 8 14 9 15 13 16 11 17 10 18 12 20 4 22 18 24
REMARK H PARENT 10 19 12 21 4 23 18 25
REMARK Flexibility Score: inf
ROOT
ATOM      1  C   UNL     1      23.327   1.711  28.054  1.00  0.00     0.180 A 
ATOM      2  C   UNL     1      23.911   0.450  28.298  1.00  0.00     0.208 A 
ATOM      3  C   UNL     1      23.398  -0.343  29.336  1.00  0.00     0.235 A 
ATOM      4  O   UNL     1      23.910  -1.469  29.581  1.00  0.00    -0.285 OA
ATOM      5  C   UNL     1      22.310   0.124  30.089  1.00  0.00     0.069 A 
ATOM      6  C   UNL     1      21.766   1.388  29.767  1.00  0.00     0.142 A 
ATOM      7  O   UNL     1      22.287   2.111  28.783  1.00  0.00    -0.452 OA
ATOM      8  C   UNL     1      20.675   1.884  30.488  1.00  0.00     0.094 A 
ATOM      9  C   UNL     1      20.119   1.135  31.531  1.00  0.00     0.119 A 
ATOM     10  C   UNL     1      20.657  -0.118  31.855  1.00  0.00     0.047 A 
ATOM     11  C   UNL     1      21.746  -0.624  31.139  1.00  0.00     0.020 A 
ENDROOT
BRANCH   1  12
ATOM     12  C   UNL     1      23.823   2.614  26.990  1.00  0.00     0.025 A 
ATOM     13  C   UNL     1      23.282   2.585  25.695  1.00  0.00     0.016 A 
ATOM     14  C   UNL     1      23.782   3.430  24.703  1.00  0.00     0.051 A 
ATOM     15  C   UNL     1      24.837   4.308  24.976  1.00  0.00     0.157 A 
ATOM     16  C   UNL     1      24.896   3.477  27.261  1.00  0.00     0.062 A 
ATOM     17  C   UNL     1      25.404   4.329  26.272  1.00  0.00     0.158 A 
BRANCH  15  18
ATOM     18  O   UNL     1      25.287   5.128  23.940  1.00  0.00    -0.504 OA
ATOM     19  H   UNL     1      26.242   5.444  23.846  1.00  0.00     0.293 HD
ENDBRANCH  15  18
BRANCH  17  20
ATOM     20  O   UNL     1      26.463   5.170  26.617  1.00  0.00    -0.504 OA
ATOM     21  H   UNL     1      27.404   5.067  26.264  1.00  0.00     0.293 HD
ENDBRANCH  17  20
ENDBRANCH   1  12
BRANCH   2  22
ATOM     22  O   UNL     1      24.961  -0.009  27.499  1.00  0.00    -0.502 OA
ATOM     23  H   UNL     1      25.137  -0.996  27.352  1.00  0.00     0.293 HD
ENDBRANCH   2  22
BRANCH   9  24
ATOM     24  O   UNL     1      19.033   1.645  32.238  1.00  0.00    -0.508 OA
ATOM     25  H   UNL     1      18.108   1.693  31.828  1.00  0.00     0.293 HD
ENDBRANCH   9  24
TORSDOF 5
ENDMDL
MODEL 6
REMARK VINA RESULT:    -4.789      7.000     10.099
REMARK INTER + INTRA:          -5.911
REMARK INTER:                  -5.596
REMARK INTRA:                  -0.314
REMARK UNBOUND:                -0.281
REMARK SMILES O=c1c(O)c(-c2ccc(O)c(O)c2)oc2cc(O)ccc12
REMARK SMILES IDX 5 1 3 2 2 3 1 4 21 5 15 6 14 7 16 8 17 9 19 10 20 11 6 12
REMARK SMILES IDX 7 13 8 14 9 15 13 16 11 17 10 18 12 20 4 22 18 24
REMARK H PARENT 10 19 12 21 4 23 18 25
REMARK Flexibility Score: inf
ROOT
ATOM      1  C   UNL     1      22.663   1.248  28.616  1.00  0.00     0.180 A 
ATOM      2  C   UNL     1      23.658   1.406  27.629  1.00  0.00     0.208 A 
ATOM      3  C   UNL     1      23.650   2.567  26.840  1.00  0.00     0.235 A 
ATOM      4  O   UNL     1      24.522   2.726  25.943  1.00  0.00    -0.285 OA
ATOM      5  C   UNL     1      22.670   3.547  27.063  1.00  0.00     0.069 A 
ATOM      6  C   UNL     1      21.722   3.324  28.086  1.00  0.00     0.142 A 
ATOM      7  O   UNL     1      21.759   2.208  28.805  1.00  0.00    -0.452 OA
ATOM      8  C   UNL     1      20.736   4.281  28.347  1.00  0.00     0.094 A 
ATOM      9  C   UNL     1      20.681   5.460  27.595  1.00  0.00     0.119 A 
ATOM     10  C   UNL     1      21.619   5.684  26.577  1.00  0.00     0.047 A 
ATOM     11  C   UNL     1      22.609   4.734  26.311  1.00  0.00     0.020 A 
ENDROOT
BRANCH   1  12
ATOM     12  C   UNL     1      22.593   0.045  29.476  1.00  0.00     0.025 A 
ATOM     13  C   UNL     1      23.238  -0.004  30.721  1.00  0.00     0.016 A 
ATOM     14  C   UNL     1      23.177  -1.158  31.503  1.00  0.00     0.051 A 
ATOM     15  C   UNL     1      22.486  -2.289  31.056  1.00  0.00     0.157 A 
ATOM     16  C   UNL     1      21.917  -1.096  29.014  1.00  0.00     0.062 A 
ATOM     17  C   UNL     1      21.850  -2.259  29.792  1.00  0.00     0.158 A 
BRANCH  15  18
ATOM     18  O   UNL     1      22.460  -3.409  31.888  1.00  0.00    -0.504 OA
ATOM     19  H   UNL     1      23.138  -4.157  31.848  1.00  0.00     0.293 HD
ENDBRANCH  15  18
BRANCH  17  20
ATOM     20  O   UNL     1      21.150  -3.350  29.274  1.00  0.00    -0.504 OA
ATOM     21  H   UNL     1      20.644  -4.017  29.840  1.00  0.00     0.293 HD
ENDBRANCH  17  20
ENDBRANCH   1  12
BRANCH   2  22
ATOM     22  O   UNL     1      24.650   0.436  27.463  1.00  0.00    -0.502 OA
ATOM     23  H   UNL     1      25.343   0.492  26.726  1.00  0.00     0.293 HD
ENDBRANCH   2  22
BRANCH   9  24
ATOM     24  O   UNL     1      19.692   6.402  27.867  1.00  0.00    -0.508 OA
ATOM     25  H   UNL     1      18.763   6.326  27.467  1.00  0.00     0.293 HD
ENDBRANCH   9  24
TORSDOF 5
ENDMDL
MODEL 7
REMARK VINA RESULT:    -4.774      6.794     10.514
REMARK INTER + INTRA:          -5.893
REMARK INTER:                  -5.574
REMARK INTRA:                  -0.319
REMARK UNBOUND:                -0.281
REMARK SMILES O=c1c(O)c(-c2ccc(O)c(O)c2)oc2cc(O)ccc12
REMARK SMILES IDX 5 1 3 2 2 3 1 4 21 5 15 6 14 7 16 8 17 9 19 10 20 11 6 12
REMARK SMILES IDX 7 13 8 14 9 15 13 16 11 17 10 18 12 20 4 22 18 24
REMARK H PARENT 10 19 12 21 4 23 18 25
REMARK Flexibility Score: inf
ROOT
ATOM      1  C   UNL     1      22.272   1.630  28.512  1.00  0.00     0.180 A 
ATOM      2  C   UNL     1      21.570   2.425  29.441  1.00  0.00     0.208 A 
ATOM      3  C   UNL     1      20.820   1.791  30.443  1.00  0.00     0.235 A 
ATOM      4  O   UNL     1      20.175   2.480  31.280  1.00  0.00    -0.285 OA
ATOM      5  C   UNL     1      20.801   0.388  30.509  1.00  0.00     0.069 A 
ATOM      6  C   UNL     1      21.550  -0.336  29.555  1.00  0.00     0.142 A 
ATOM      7  O   UNL     1      22.239   0.303  28.617  1.00  0.00    -0.452 OA
ATOM      8  C   UNL     1      21.565  -1.734  29.594  1.00  0.00     0.094 A 
ATOM      9  C   UNL     1      20.840  -2.421  30.573  1.00  0.00     0.119 A 
ATOM     10  C   UNL     1      20.094  -1.705  31.520  1.00  0.00     0.047 A 
ATOM     11  C   UNL     1      20.074  -0.308  31.491  1.00  0.00     0.020 A 
ENDROOT
BRANCH   1  12
ATOM     12  C   UNL     1      23.070   2.223  27.414  1.00  0.00     0.025 A 
ATOM     13  C   UNL     1      22.480   2.589  26.195  1.00  0.00     0.016 A 
ATOM     14  C   UNL     1      23.258   3.124  25.167  1.00  0.00     0.051 A 
ATOM     15  C   UNL     1      24.638   3.293  25.328  1.00  0.00     0.157 A 
ATOM     16  C   UNL     1      24.458   2.370  27.572  1.00  0.00     0.062 A 
ATOM     17  C   UNL     1      25.247   2.907  26.546  1.00  0.00     0.158 A 
BRANCH  15  18
ATOM     18  O   UNL     1      25.357   3.837  24.263  1.00  0.00    -0.504 OA
ATOM     19  H   UNL     1      24.934   4.331  23.490  1.00  0.00     0.293 HD
ENDBRANCH  15  18
BRANCH  17  20
ATOM     20  O   UNL     1      26.617   3.036  26.778  1.00  0.00    -0.504 OA
ATOM     21  H   UNL     1      27.160   3.848  26.519  1.00  0.00     0.293 HD
ENDBRANCH  17  20
ENDBRANCH   1  12
BRANCH   2  22
ATOM     22  O   UNL     1      21.647   3.819  29.381  1.00  0.00    -0.502 OA
ATOM     23  H   UNL     1      21.922   4.309  28.538  1.00  0.00     0.293 HD
ENDBRANCH   2  22
BRANCH   9  24
ATOM     24  O   UNL     1      20.865  -3.813  30.596  1.00  0.00    -0.508 OA
ATOM     25  H   UNL     1      21.004  -4.355  29.750  1.00  0.00     0.293 HD
ENDBRANCH   9  24
TORSDOF 5
ENDMDL
MODEL 8
REMARK VINA RESULT:    -4.762      1.765      6.936
REMARK INTER + INTRA:          -5.879
REMARK INTER:                  -5.696
REMARK INTRA:                  -0.182
REMARK UNBOUND:                -0.281
REMARK SMILES O=c1c(O)c(-c2ccc(O)c(O)c2)oc2cc(O)ccc12
REMARK SMILES IDX 5 1 3 2 2 3 1 4 21 5 15 6 14 7 16 8 17 9 19 10 20 11 6 12
REMARK SMILES IDX 7 13 8 14 9 15 13 16 11 17 10 18 12 20 4 22 18 24
REMARK H PARENT 10 19 12 21 4 23 18 25
REMARK Flexibility Score: inf
ROOT
ATOM      1  C   UNL     1      16.744  -7.420  26.692  1.00  0.00     0.180 A 
ATOM      2  C   UNL     1      16.204  -7.512  25.393  1.00  0.00     0.208 A 
ATOM      3  C   UNL     1      16.233  -8.750  24.734  1.00  0.00     0.235 A 
ATOM      4  O   UNL     1      15.765  -8.855  23.567  1.00  0.00    -0.285 OA
ATOM      5  C   UNL     1      16.778  -9.867  25.387  1.00  0.00     0.069 A 
ATOM      6  C   UNL     1      17.278  -9.698  26.697  1.00  0.00     0.142 A 
ATOM      7  O   UNL     1      17.240  -8.507  27.282  1.00  0.00    -0.452 OA
ATOM      8  C   UNL     1      17.820 -10.789  27.384  1.00  0.00     0.094 A 
ATOM      9  C   UNL     1      17.872 -12.050  26.779  1.00  0.00     0.119 A 
ATOM     10  C   UNL     1      17.378 -12.221  25.478  1.00  0.00     0.047 A 
ATOM     11  C   UNL     1      16.833 -11.137  24.783  1.00  0.00     0.020 A 
ENDROOT
BRANCH   1  12
ATOM     12  C   UNL     1      16.768  -6.146  27.446  1.00  0.00     0.025 A 
ATOM     13  C   UNL     1      15.583  -5.532  27.884  1.00  0.00     0.016 A 
ATOM     14  C   UNL     1      15.630  -4.319  28.572  1.00  0.00     0.051 A 
ATOM     15  C   UNL     1      16.852  -3.687  28.826  1.00  0.00     0.157 A 
ATOM     16  C   UNL     1      17.994  -5.504  27.680  1.00  0.00     0.062 A 
ATOM     17  C   UNL     1      18.051  -4.286  28.370  1.00  0.00     0.158 A 
BRANCH  15  18
ATOM     18  O   UNL     1      16.829  -2.478  29.522  1.00  0.00    -0.504 OA
ATOM     19  H   UNL     1      17.656  -1.950  29.764  1.00  0.00     0.293 HD
ENDBRANCH  15  18
BRANCH  17  20
ATOM     20  O   UNL     1      19.306  -3.712  28.577  1.00  0.00    -0.504 OA
ATOM     21  H   UNL     1      19.519  -2.740  28.400  1.00  0.00     0.293 HD
ENDBRANCH  17  20
ENDBRANCH   1  12
BRANCH   2  22
ATOM     22  O   UNL     1      15.623  -6.394  24.789  1.00  0.00    -0.502 OA
ATOM     23  H   UNL     1      16.096  -5.861  24.068  1.00  0.00     0.293 HD
ENDBRANCH   2  22
BRANCH   9  24
ATOM     24  O   UNL     1      18.416 -13.125  27.478  1.00  0.00    -0.508 OA
ATOM     25  H   UNL     1      17.829 -13.801  27.951  1.00  0.00     0.293 HD
ENDBRANCH   9  24
TORSDOF 5
ENDMDL
