MODEL 1
REMARK VINA RESULT:     1.411      0.000      0.000
REMARK INTER + INTRA:           1.401
REMARK INTER:                   2.030
REMARK INTRA:                  -0.629
REMARK UNBOUND:                -0.629
REMARK SMILES CC(C)=CCCC(C)=CCCC(C)=CCO
REMARK SMILES IDX 10 1 9 2 7 3 8 4 6 5 5 6 4 7 1 8 2 9 3 10 11 11 12 12 14 13
REMARK SMILES IDX 13 14 15 15 16 16
REMARK H PARENT 16 17
REMARK Flexibility Score: inf
ROOT
ATOM      1  C   UNL     1      14.920 -17.571  40.587  1.00  0.00     0.032 C 
ENDROOT
BRANCH   1   2
ATOM      2  C   UNL     1      15.139 -16.325  39.766  1.00  0.00    -0.028 C 
ATOM      3  C   UNL     1      15.451 -15.111  40.275  1.00  0.00    -0.077 C 
ATOM      4  C   UNL     1      15.698 -13.976  39.314  1.00  0.00     0.039 C 
BRANCH   3   5
ATOM      5  C   UNL     1      15.530 -14.835  41.767  1.00  0.00     0.034 C 
BRANCH   5   6
ATOM      6  C   UNL     1      15.255 -13.359  42.092  1.00  0.00     0.032 C 
BRANCH   6   7
ATOM      7  C   UNL     1      14.633 -13.190  43.457  1.00  0.00    -0.028 C 
ATOM      8  C   UNL     1      14.604 -12.875  45.911  1.00  0.00     0.039 C 
ATOM      9  C   UNL     1      15.334 -13.074  44.608  1.00  0.00    -0.080 C 
ATOM     10  C   UNL     1      16.837 -13.196  44.647  1.00  0.00     0.039 C 
ENDBRANCH   6   7
ENDBRANCH   5   6
ENDBRANCH   3   5
ENDBRANCH   1   2
BRANCH   1  11
ATOM     11  C   UNL     1      13.477 -18.067  40.446  1.00  0.00     0.034 C 
BRANCH  11  12
ATOM     12  C   UNL     1      13.012 -18.738  41.720  1.00  0.00    -0.075 C 
ATOM     13  C   UNL     1      13.394 -20.011  41.969  1.00  0.00    -0.000 C 
ATOM     14  C   UNL     1      12.116 -17.981  42.672  1.00  0.00     0.039 C 
BRANCH  13  15
ATOM     15  C   UNL     1      12.991 -20.784  43.195  1.00  0.00     0.183 C 
BRANCH  15  16
ATOM     16  O   UNL     1      14.131 -21.226  43.874  1.00  0.00    -0.392 OA
ATOM     17  H   UNL     1      14.664 -21.738  43.213  1.00  0.00     0.210 HD
ENDBRANCH  15  16
ENDBRANCH  13  15
ENDBRANCH  11  12
ENDBRANCH   1  11
TORSDOF 8
ENDMDL
MODEL 2
REMARK VINA RESULT:     2.361      0.595      1.044
REMARK INTER + INTRA:           2.768
REMARK INTER:                   3.558
REMARK INTRA:                  -0.790
REMARK UNBOUND:                -0.629
REMARK SMILES CC(C)=CCCC(C)=CCCC(C)=CCO
REMARK SMILES IDX 10 1 9 2 7 3 8 4 6 5 5 6 4 7 1 8 2 9 3 10 11 11 12 12 14 13
REMARK SMILES IDX 13 14 15 15 16 16
REMARK H PARENT 16 17
REMARK Flexibility Score: inf
ROOT
ATOM      1  C   UNL     1      15.163 -17.478  40.858  1.00  0.00     0.032 C 
ENDROOT
BRANCH   1   2
ATOM      2  C   UNL     1      15.453 -16.239  40.049  1.00  0.00    -0.028 C 
ATOM      3  C   UNL     1      15.327 -14.972  40.506  1.00  0.00    -0.077 C 
ATOM      4  C   UNL     1      15.715 -13.841  39.588  1.00  0.00     0.039 C 
BRANCH   3   5
ATOM      5  C   UNL     1      14.781 -14.640  41.884  1.00  0.00     0.034 C 
BRANCH   5   6
ATOM      6  C   UNL     1      15.110 -13.198  42.298  1.00  0.00     0.032 C 
BRANCH   6   7
ATOM      7  C   UNL     1      16.274 -13.140  43.259  1.00  0.00    -0.028 C 
ATOM      8  C   UNL     1      17.386 -13.021  45.466  1.00  0.00     0.039 C 
ATOM      9  C   UNL     1      16.152 -13.036  44.601  1.00  0.00    -0.080 C 
ATOM     10  C   UNL     1      14.812 -12.875  45.275  1.00  0.00     0.039 C 
ENDBRANCH   6   7
ENDBRANCH   5   6
ENDBRANCH   3   5
ENDBRANCH   1   2
BRANCH   1  11
ATOM     11  C   UNL     1      13.788 -18.052  40.498  1.00  0.00     0.034 C 
BRANCH  11  12
ATOM     12  C   UNL     1      13.143 -18.700  41.704  1.00  0.00    -0.075 C 
ATOM     13  C   UNL     1      13.455 -19.981  42.006  1.00  0.00    -0.000 C 
ATOM     14  C   UNL     1      12.153 -17.912  42.528  1.00  0.00     0.039 C 
BRANCH  13  15
ATOM     15  C   UNL     1      12.874 -20.733  43.172  1.00  0.00     0.183 C 
BRANCH  15  16
ATOM     16  O   UNL     1      13.889 -21.424  43.845  1.00  0.00    -0.392 OA
ATOM     17  H   UNL     1      14.733 -21.195  43.377  1.00  0.00     0.210 HD
ENDBRANCH  15  16
ENDBRANCH  13  15
ENDBRANCH  11  12
ENDBRANCH   1  11
TORSDOF 8
ENDMDL
