MODEL 1
REMARK VINA RESULT:    -6.419      0.000      0.000
REMARK INTER + INTRA:          -8.851
REMARK INTER:                  -8.859
REMARK INTRA:                   0.008
REMARK UNBOUND:                 0.008
REMARK SMILES CC[C@H](CC[C@@H](C)[C@@H]1CC[C@@H]2[C@H]3CC=C4C[C@@H](O)CC[C@@]4(C)[C@H]3CC[C@]21C)C(C)C
REMARK SMILES IDX 5 1 4 2 3 3 2 4 1 5 28 6 29 7 30 8 6 9 7 10 8 11 9 12 26 13
REMARK SMILES IDX 10 14 11 15 25 16 27 17 12 18 24 19 23 20 13 21 21 22 14 23
REMARK SMILES IDX 15 24 20 25 22 26 16 27 19 28 17 29 18 30
REMARK H PARENT 18 31
REMARK Flexibility Score: inf
ROOT
ATOM      1  C   UNL     1      33.101   9.290 106.759  1.00  0.00     0.004 C 
ENDROOT
BRANCH   1   2
ATOM      2  C   UNL     1      31.710   8.826 106.269  1.00  0.00     0.004 C 
BRANCH   2   3
ATOM      3  C   UNL     1      31.282   7.427 106.799  1.00  0.00    -0.009 C 
BRANCH   3   4
ATOM      4  C   UNL     1      30.652   6.581 105.649  1.00  0.00     0.000 C 
ATOM      5  C   UNL     1      30.525   7.364 104.340  1.00  0.00     0.004 C 
ENDBRANCH   3   4
BRANCH   3   6
ATOM      6  C   UNL     1      32.436   6.668 107.544  1.00  0.00    -0.014 C 
ATOM      7  C   UNL     1      32.547   7.090 109.021  1.00  0.00     0.007 C 
ATOM      8  C   UNL     1      32.251   5.143 107.480  1.00  0.00     0.007 C 
ENDBRANCH   3   6
ENDBRANCH   2   3
ENDBRANCH   1   2
BRANCH   1   9
ATOM      9  C   UNL     1      33.949   9.936 105.624  1.00  0.00    -0.011 C 
ATOM     10  C   UNL     1      33.177  11.133 105.012  1.00  0.00     0.008 C 
BRANCH   9  11
ATOM     11  C   UNL     1      35.395  10.246 106.150  1.00  0.00    -0.002 C 
ATOM     12  C   UNL     1      35.537  10.555 107.661  1.00  0.00     0.005 C 
ATOM     13  C   UNL     1      36.271  11.316 105.434  1.00  0.00    -0.026 C 
ATOM     14  C   UNL     1      36.813  11.404 107.806  1.00  0.00     0.005 C 
ATOM     15  C   UNL     1      37.453  11.372 106.420  1.00  0.00    -0.001 C 
ATOM     16  C   UNL     1      36.802  10.881 104.031  1.00  0.00     0.007 C 
ATOM     17  C   UNL     1      35.531  12.684 105.329  1.00  0.00     0.012 C 
ATOM     18  C   UNL     1      38.497  12.462 106.075  1.00  0.00     0.000 C 
ATOM     19  C   UNL     1      38.307  11.189 103.805  1.00  0.00     0.005 C 
ATOM     20  C   UNL     1      38.810  12.476 104.530  1.00  0.00     0.003 C 
ATOM     21  C   UNL     1      39.760  12.269 106.909  1.00  0.00     0.031 C 
ATOM     22  C   UNL     1      40.298  12.903 104.120  1.00  0.00    -0.008 C 
ATOM     23  C   UNL     1      40.772  13.305 106.552  1.00  0.00    -0.027 C 
ATOM     24  C   UNL     1      41.054  13.586 105.266  1.00  0.00    -0.065 C 
ATOM     25  C   UNL     1      41.198  11.698 103.698  1.00  0.00     0.014 C 
ATOM     26  C   UNL     1      40.166  13.885 102.919  1.00  0.00     0.016 C 
ATOM     27  C   UNL     1      42.433  14.125 104.961  1.00  0.00     0.063 C 
ATOM     28  C   UNL     1      42.669  12.088 103.396  1.00  0.00     0.033 C 
ATOM     29  C   UNL     1      43.334  12.964 104.489  1.00  0.00     0.118 C 
BRANCH  29  30
ATOM     30  O   UNL     1      43.760  12.180 105.578  1.00  0.00    -0.393 OA
ATOM     31  H   UNL     1      43.011  11.587 105.842  1.00  0.00     0.210 HD
ENDBRANCH  29  30
ENDBRANCH   9  11
ENDBRANCH   1   9
TORSDOF 7
ENDMDL
MODEL 2
REMARK VINA RESULT:    -5.952      2.953      9.389
REMARK INTER + INTRA:          -8.205
REMARK INTER:                  -7.186
REMARK INTRA:                  -1.019
REMARK UNBOUND:                 0.008
REMARK SMILES CC[C@H](CC[C@@H](C)[C@@H]1CC[C@@H]2[C@H]3CC=C4C[C@@H](O)CC[C@@]4(C)[C@H]3CC[C@]21C)C(C)C
REMARK SMILES IDX 5 1 4 2 3 3 2 4 1 5 28 6 29 7 30 8 6 9 7 10 8 11 9 12 26 13
REMARK SMILES IDX 10 14 11 15 25 16 27 17 12 18 24 19 23 20 13 21 21 22 14 23
REMARK SMILES IDX 15 24 20 25 22 26 16 27 19 28 17 29 18 30
REMARK H PARENT 18 31
REMARK Flexibility Score: inf
ROOT
ATOM      1  C   UNL     1      39.130  11.778 106.170  1.00  0.00     0.004 C 
ENDROOT
BRANCH   1   2
ATOM      2  C   UNL     1      40.378  12.662 106.398  1.00  0.00     0.004 C 
BRANCH   2   3
ATOM      3  C   UNL     1      41.690  12.079 105.797  1.00  0.00    -0.009 C 
BRANCH   3   4
ATOM      4  C   UNL     1      41.885  10.600 106.254  1.00  0.00     0.000 C 
ATOM      5  C   UNL     1      42.343  10.486 107.710  1.00  0.00     0.004 C 
ENDBRANCH   3   4
BRANCH   3   6
ATOM      6  C   UNL     1      41.784  12.247 104.240  1.00  0.00    -0.014 C 
ATOM      7  C   UNL     1      41.074  11.103 103.491  1.00  0.00     0.007 C 
ATOM      8  C   UNL     1      41.191  13.586 103.771  1.00  0.00     0.007 C 
ENDBRANCH   3   6
ENDBRANCH   2   3
ENDBRANCH   1   2
BRANCH   1   9
ATOM      9  C   UNL     1      37.801  12.579 106.284  1.00  0.00    -0.011 C 
ATOM     10  C   UNL     1      37.988  13.990 105.669  1.00  0.00     0.008 C 
BRANCH   9  11
ATOM     11  C   UNL     1      36.613  11.729 105.709  1.00  0.00    -0.002 C 
ATOM     12  C   UNL     1      35.711  12.416 104.653  1.00  0.00     0.005 C 
ATOM     13  C   UNL     1      35.629  11.010 106.677  1.00  0.00    -0.026 C 
ATOM     14  C   UNL     1      34.351  11.699 104.723  1.00  0.00     0.005 C 
ATOM     15  C   UNL     1      34.590  10.513 105.654  1.00  0.00    -0.001 C 
ATOM     16  C   UNL     1      36.239   9.779 107.419  1.00  0.00     0.007 C 
ATOM     17  C   UNL     1      35.009  12.006 107.705  1.00  0.00     0.012 C 
ATOM     18  C   UNL     1      33.358   9.835 106.301  1.00  0.00     0.000 C 
ATOM     19  C   UNL     1      35.318   8.529 107.424  1.00  0.00     0.005 C 
ATOM     20  C   UNL     1      33.793   8.859 107.460  1.00  0.00     0.003 C 
ATOM     21  C   UNL     1      32.527   9.121 105.239  1.00  0.00     0.031 C 
ATOM     22  C   UNL     1      32.864   7.575 107.682  1.00  0.00    -0.008 C 
ATOM     23  C   UNL     1      31.358   8.447 105.873  1.00  0.00    -0.027 C 
ATOM     24  C   UNL     1      31.504   7.702 106.985  1.00  0.00    -0.065 C 
ATOM     25  C   UNL     1      33.484   6.253 107.126  1.00  0.00     0.014 C 
ATOM     26  C   UNL     1      32.655   7.433 109.218  1.00  0.00     0.016 C 
ATOM     27  C   UNL     1      30.503   6.592 107.212  1.00  0.00     0.063 C 
ATOM     28  C   UNL     1      32.549   5.022 107.245  1.00  0.00     0.033 C 
ATOM     29  C   UNL     1      31.109   5.260 106.720  1.00  0.00     0.118 C 
BRANCH  29  30
ATOM     30  O   UNL     1      31.059   5.169 105.317  1.00  0.00    -0.393 OA
ATOM     31  H   UNL     1      31.830   4.624 105.016  1.00  0.00     0.210 HD
ENDBRANCH  29  30
ENDBRANCH   9  11
ENDBRANCH   1   9
TORSDOF 7
ENDMDL
MODEL 3
REMARK VINA RESULT:    -5.856      3.062      9.407
REMARK INTER + INTRA:          -8.074
REMARK INTER:                  -7.252
REMARK INTRA:                  -0.821
REMARK UNBOUND:                 0.008
REMARK SMILES CC[C@H](CC[C@@H](C)[C@@H]1CC[C@@H]2[C@H]3CC=C4C[C@@H](O)CC[C@@]4(C)[C@H]3CC[C@]21C)C(C)C
REMARK SMILES IDX 5 1 4 2 3 3 2 4 1 5 28 6 29 7 30 8 6 9 7 10 8 11 9 12 26 13
REMARK SMILES IDX 10 14 11 15 25 16 27 17 12 18 24 19 23 20 13 21 21 22 14 23
REMARK SMILES IDX 15 24 20 25 22 26 16 27 19 28 17 29 18 30
REMARK H PARENT 18 31
REMARK Flexibility Score: inf
ROOT
ATOM      1  C   UNL     1      39.214  11.956 105.552  1.00  0.00     0.004 C 
ENDROOT
BRANCH   1   2
ATOM      2  C   UNL     1      40.356  11.841 106.588  1.00  0.00     0.004 C 
BRANCH   2   3
ATOM      3  C   UNL     1      41.692  11.295 106.007  1.00  0.00    -0.009 C 
BRANCH   3   4
ATOM      4  C   UNL     1      42.557  12.465 105.444  1.00  0.00     0.000 C 
ATOM      5  C   UNL     1      42.263  12.765 103.973  1.00  0.00     0.004 C 
ENDBRANCH   3   4
BRANCH   3   6
ATOM      6  C   UNL     1      42.483  10.392 107.017  1.00  0.00    -0.014 C 
ATOM      7  C   UNL     1      43.999  10.411 106.745  1.00  0.00     0.007 C 
ATOM      8  C   UNL     1      42.239  10.815 108.475  1.00  0.00     0.007 C 
ENDBRANCH   3   6
ENDBRANCH   2   3
ENDBRANCH   1   2
BRANCH   1   9
ATOM      9  C   UNL     1      37.889  12.478 106.180  1.00  0.00    -0.011 C 
ATOM     10  C   UNL     1      37.798  14.015 106.004  1.00  0.00     0.008 C 
BRANCH   9  11
ATOM     11  C   UNL     1      36.674  11.649 105.628  1.00  0.00    -0.002 C 
ATOM     12  C   UNL     1      35.766  12.351 104.589  1.00  0.00     0.005 C 
ATOM     13  C   UNL     1      35.695  10.951 106.616  1.00  0.00    -0.026 C 
ATOM     14  C   UNL     1      34.393  11.660 104.685  1.00  0.00     0.005 C 
ATOM     15  C   UNL     1      34.628  10.472 105.614  1.00  0.00    -0.001 C 
ATOM     16  C   UNL     1      36.295   9.709 107.350  1.00  0.00     0.007 C 
ATOM     17  C   UNL     1      35.114  11.959 107.654  1.00  0.00     0.012 C 
ATOM     18  C   UNL     1      33.395   9.819 106.286  1.00  0.00     0.000 C 
ATOM     19  C   UNL     1      35.351   8.477 107.374  1.00  0.00     0.005 C 
ATOM     20  C   UNL     1      33.834   8.836 107.439  1.00  0.00     0.003 C 
ATOM     21  C   UNL     1      32.532   9.118 105.241  1.00  0.00     0.031 C 
ATOM     22  C   UNL     1      32.885   7.570 107.681  1.00  0.00    -0.008 C 
ATOM     23  C   UNL     1      31.361   8.468 105.899  1.00  0.00    -0.027 C 
ATOM     24  C   UNL     1      31.514   7.722 107.009  1.00  0.00    -0.065 C 
ATOM     25  C   UNL     1      33.469   6.236 107.116  1.00  0.00     0.014 C 
ATOM     26  C   UNL     1      32.703   7.435 109.220  1.00  0.00     0.016 C 
ATOM     27  C   UNL     1      30.497   6.632 107.257  1.00  0.00     0.063 C 
ATOM     28  C   UNL     1      32.513   5.023 107.255  1.00  0.00     0.033 C 
ATOM     29  C   UNL     1      31.068   5.288 106.757  1.00  0.00     0.118 C 
BRANCH  29  30
ATOM     30  O   UNL     1      30.991   5.196 105.355  1.00  0.00    -0.393 OA
ATOM     31  H   UNL     1      30.177   5.679 105.059  1.00  0.00     0.210 HD
ENDBRANCH  29  30
ENDBRANCH   9  11
ENDBRANCH   1   9
TORSDOF 7
ENDMDL
MODEL 4
REMARK VINA RESULT:    -5.470      0.578      1.500
REMARK INTER + INTRA:          -7.541
REMARK INTER:                  -7.410
REMARK INTRA:                  -0.130
REMARK UNBOUND:                 0.008
REMARK SMILES CC[C@H](CC[C@@H](C)[C@@H]1CC[C@@H]2[C@H]3CC=C4C[C@@H](O)CC[C@@]4(C)[C@H]3CC[C@]21C)C(C)C
REMARK SMILES IDX 5 1 4 2 3 3 2 4 1 5 28 6 29 7 30 8 6 9 7 10 8 11 9 12 26 13
REMARK SMILES IDX 10 14 11 15 25 16 27 17 12 18 24 19 23 20 13 21 21 22 14 23
REMARK SMILES IDX 15 24 20 25 22 26 16 27 19 28 17 29 18 30
REMARK H PARENT 18 31
REMARK Flexibility Score: inf
ROOT
ATOM      1  C   UNL     1      32.804   9.576 107.028  1.00  0.00     0.004 C 
ENDROOT
BRANCH   1   2
ATOM      2  C   UNL     1      31.857   8.413 106.653  1.00  0.00     0.004 C 
BRANCH   2   3
ATOM      3  C   UNL     1      32.372   7.009 107.080  1.00  0.00    -0.009 C 
BRANCH   3   4
ATOM      4  C   UNL     1      32.888   7.046 108.552  1.00  0.00     0.000 C 
ATOM      5  C   UNL     1      31.815   7.500 109.545  1.00  0.00     0.004 C 
ENDBRANCH   3   4
BRANCH   3   6
ATOM      6  C   UNL     1      31.325   5.866 106.838  1.00  0.00    -0.014 C 
ATOM      7  C   UNL     1      30.924   5.753 105.355  1.00  0.00     0.007 C 
ATOM      8  C   UNL     1      31.849   4.500 107.312  1.00  0.00     0.007 C 
ENDBRANCH   3   6
ENDBRANCH   2   3
ENDBRANCH   1   2
BRANCH   1   9
ATOM      9  C   UNL     1      33.707  10.019 105.840  1.00  0.00    -0.011 C 
ATOM     10  C   UNL     1      33.032  11.188 105.078  1.00  0.00     0.008 C 
BRANCH   9  11
ATOM     11  C   UNL     1      35.169  10.282 106.349  1.00  0.00    -0.002 C 
ATOM     12  C   UNL     1      35.347  10.509 107.870  1.00  0.00     0.005 C 
ATOM     13  C   UNL     1      36.044  11.376 105.671  1.00  0.00    -0.026 C 
ATOM     14  C   UNL     1      36.638  11.332 108.032  1.00  0.00     0.005 C 
ATOM     15  C   UNL     1      37.248  11.365 106.633  1.00  0.00    -0.001 C 
ATOM     16  C   UNL     1      36.539  11.008 104.236  1.00  0.00     0.007 C 
ATOM     17  C   UNL     1      35.321  12.757 105.653  1.00  0.00     0.012 C 
ATOM     18  C   UNL     1      38.300  12.458 106.322  1.00  0.00     0.000 C 
ATOM     19  C   UNL     1      38.043  11.308 103.993  1.00  0.00     0.005 C 
ATOM     20  C   UNL     1      38.580  12.548 104.773  1.00  0.00     0.003 C 
ATOM     21  C   UNL     1      39.577  12.204 107.117  1.00  0.00     0.031 C 
ATOM     22  C   UNL     1      40.065  12.977 104.353  1.00  0.00    -0.008 C 
ATOM     23  C   UNL     1      40.595  13.244 106.792  1.00  0.00    -0.027 C 
ATOM     24  C   UNL     1      40.855  13.588 105.517  1.00  0.00    -0.065 C 
ATOM     25  C   UNL     1      40.938  11.783 103.850  1.00  0.00     0.014 C 
ATOM     26  C   UNL     1      39.922  14.021 103.209  1.00  0.00     0.016 C 
ATOM     27  C   UNL     1      42.234  14.124 105.210  1.00  0.00     0.063 C 
ATOM     28  C   UNL     1      42.408  12.169 103.537  1.00  0.00     0.033 C 
ATOM     29  C   UNL     1      43.109  12.978 104.659  1.00  0.00     0.118 C 
BRANCH  29  30
ATOM     30  O   UNL     1      43.546  12.133 105.696  1.00  0.00    -0.393 OA
ATOM     31  H   UNL     1      42.798  12.018 106.336  1.00  0.00     0.210 HD
ENDBRANCH  29  30
ENDBRANCH   9  11
ENDBRANCH   1   9
TORSDOF 7
ENDMDL
MODEL 5
REMARK VINA RESULT:    -4.563      1.184      2.028
REMARK INTER + INTRA:          -6.289
REMARK INTER:                  -7.010
REMARK INTRA:                   0.722
REMARK UNBOUND:                 0.008
REMARK SMILES CC[C@H](CC[C@@H](C)[C@@H]1CC[C@@H]2[C@H]3CC=C4C[C@@H](O)CC[C@@]4(C)[C@H]3CC[C@]21C)C(C)C
REMARK SMILES IDX 5 1 4 2 3 3 2 4 1 5 28 6 29 7 30 8 6 9 7 10 8 11 9 12 26 13
REMARK SMILES IDX 10 14 11 15 25 16 27 17 12 18 24 19 23 20 13 21 21 22 14 23
REMARK SMILES IDX 15 24 20 25 22 26 16 27 19 28 17 29 18 30
REMARK H PARENT 18 31
REMARK Flexibility Score: inf
ROOT
ATOM      1  C   UNL     1      32.978   8.055 108.219  1.00  0.00     0.004 C 
ENDROOT
BRANCH   1   2
ATOM      2  C   UNL     1      33.228   6.530 108.244  1.00  0.00     0.004 C 
BRANCH   2   3
ATOM      3  C   UNL     1      32.471   5.743 107.136  1.00  0.00    -0.009 C 
BRANCH   3   4
ATOM      4  C   UNL     1      32.669   4.207 107.331  1.00  0.00     0.000 C 
ATOM      5  C   UNL     1      34.053   3.728 106.888  1.00  0.00     0.004 C 
ENDBRANCH   3   4
BRANCH   3   6
ATOM      6  C   UNL     1      30.959   6.144 107.014  1.00  0.00    -0.014 C 
ATOM      7  C   UNL     1      30.521   7.096 108.143  1.00  0.00     0.007 C 
ATOM      8  C   UNL     1      30.651   6.809 105.662  1.00  0.00     0.007 C 
ENDBRANCH   3   6
ENDBRANCH   2   3
ENDBRANCH   1   2
BRANCH   1   9
ATOM      9  C   UNL     1      33.547   8.734 106.940  1.00  0.00    -0.011 C 
ATOM     10  C   UNL     1      32.441   9.581 106.261  1.00  0.00     0.008 C 
BRANCH   9  11
ATOM     11  C   UNL     1      34.879   9.490 107.284  1.00  0.00    -0.002 C 
ATOM     12  C   UNL     1      34.901  10.300 108.604  1.00  0.00     0.005 C 
ATOM     13  C   UNL     1      35.542  10.422 106.227  1.00  0.00    -0.026 C 
ATOM     14  C   UNL     1      35.969  11.393 108.419  1.00  0.00     0.005 C 
ATOM     15  C   UNL     1      36.651  11.041 107.099  1.00  0.00    -0.001 C 
ATOM     16  C   UNL     1      36.200   9.670 105.027  1.00  0.00     0.007 C 
ATOM     17  C   UNL     1      34.540  11.496 105.704  1.00  0.00     0.012 C 
ATOM     18  C   UNL     1      37.460  12.148 106.379  1.00  0.00     0.000 C 
ATOM     19  C   UNL     1      37.617  10.190 104.661  1.00  0.00     0.005 C 
ATOM     20  C   UNL     1      37.819  11.718 104.905  1.00  0.00     0.003 C 
ATOM     21  C   UNL     1      38.705  12.503 107.186  1.00  0.00     0.031 C 
ATOM     22  C   UNL     1      39.200  12.283 104.327  1.00  0.00    -0.008 C 
ATOM     23  C   UNL     1      39.493  13.549 106.474  1.00  0.00    -0.027 C 
ATOM     24  C   UNL     1      39.758  13.444 105.158  1.00  0.00    -0.065 C 
ATOM     25  C   UNL     1      40.343  11.219 104.294  1.00  0.00     0.014 C 
ATOM     26  C   UNL     1      38.913  12.767 102.875  1.00  0.00     0.016 C 
ATOM     27  C   UNL     1      41.007  14.125 104.646  1.00  0.00     0.063 C 
ATOM     28  C   UNL     1      41.712  11.782 103.830  1.00  0.00     0.033 C 
ATOM     29  C   UNL     1      42.144  13.086 104.551  1.00  0.00     0.118 C 
BRANCH  29  30
ATOM     30  O   UNL     1      42.682  12.808 105.821  1.00  0.00    -0.393 OA
ATOM     31  H   UNL     1      42.220  12.010 106.184  1.00  0.00     0.210 HD
ENDBRANCH  29  30
ENDBRANCH   9  11
ENDBRANCH   1   9
TORSDOF 7
ENDMDL
