MODEL 1
REMARK VINA RESULT:    -3.966      0.000      0.000
REMARK INTER + INTRA:          -5.177
REMARK INTER:                  -5.125
REMARK INTRA:                  -0.052
REMARK UNBOUND:                -0.052
REMARK SMILES CCCCCCC=O
REMARK SMILES IDX 4 1 3 2 2 3 1 4 5 5 6 6 7 7 8 8
REMARK H PARENT
REMARK Flexibility Score: inf
ROOT
ATOM      1  C   UNL     1      27.997  45.753  -0.771  1.00  0.00     0.000 C 
ENDROOT
BRANCH   1   2
ATOM      2  C   UNL     1      29.353  45.803  -0.044  1.00  0.00    -0.000 C 
BRANCH   2   3
ATOM      3  C   UNL     1      30.133  44.476  -0.041  1.00  0.00    -0.003 C 
ATOM      4  C   UNL     1      31.240  44.434   1.013  1.00  0.00     0.004 C 
ENDBRANCH   2   3
ENDBRANCH   1   2
BRANCH   1   5
ATOM      5  C   UNL     1      27.283  47.115  -0.797  1.00  0.00     0.008 C 
BRANCH   5   6
ATOM      6  C   UNL     1      26.806  47.488  -2.207  1.00  0.00     0.072 C 
BRANCH   6   7
ATOM      7  C   UNL     1      25.415  48.051  -2.186  1.00  0.00     0.224 C 
ATOM      8  O   UNL     1      24.575  47.652  -2.976  1.00  0.00    -0.303 OA
ENDBRANCH   6   7
ENDBRANCH   5   6
ENDBRANCH   1   5
TORSDOF 5
ENDMDL
MODEL 2
REMARK VINA RESULT:    -3.936      2.795      5.505
REMARK INTER + INTRA:          -5.139
REMARK INTER:                  -5.082
REMARK INTRA:                  -0.057
REMARK UNBOUND:                -0.052
REMARK SMILES CCCCCCC=O
REMARK SMILES IDX 4 1 3 2 2 3 1 4 5 5 6 6 7 7 8 8
REMARK H PARENT
REMARK Flexibility Score: inf
ROOT
ATOM      1  C   UNL     1      27.958  46.834  -0.617  1.00  0.00     0.000 C 
ENDROOT
BRANCH   1   2
ATOM      2  C   UNL     1      26.611  46.766  -1.358  1.00  0.00    -0.000 C 
BRANCH   2   3
ATOM      3  C   UNL     1      26.201  48.064  -2.075  1.00  0.00    -0.003 C 
ATOM      4  C   UNL     1      24.780  48.017  -2.635  1.00  0.00     0.004 C 
ENDBRANCH   2   3
ENDBRANCH   1   2
BRANCH   1   5
ATOM      5  C   UNL     1      28.666  45.471  -0.536  1.00  0.00     0.008 C 
BRANCH   5   6
ATOM      6  C   UNL     1      29.961  45.542   0.284  1.00  0.00     0.072 C 
BRANCH   6   7
ATOM      7  C   UNL     1      30.792  44.305   0.108  1.00  0.00     0.224 C 
ATOM      8  O   UNL     1      30.713  43.647  -0.917  1.00  0.00    -0.303 OA
ENDBRANCH   6   7
ENDBRANCH   5   6
ENDBRANCH   1   5
TORSDOF 5
ENDMDL
MODEL 3
REMARK VINA RESULT:    -3.744     13.077     14.904
REMARK INTER + INTRA:          -4.891
REMARK INTER:                  -4.842
REMARK INTRA:                  -0.049
REMARK UNBOUND:                -0.052
REMARK SMILES CCCCCCC=O
REMARK SMILES IDX 4 1 3 2 2 3 1 4 5 5 6 6 7 7 8 8
REMARK H PARENT
REMARK Flexibility Score: inf
ROOT
ATOM      1  C   UNL     1      25.939  57.218  -8.979  1.00  0.00     0.000 C 
ENDROOT
BRANCH   1   2
ATOM      2  C   UNL     1      24.479  56.849  -8.659  1.00  0.00    -0.000 C 
BRANCH   2   3
ATOM      3  C   UNL     1      24.256  55.378  -8.265  1.00  0.00    -0.003 C 
ATOM      4  C   UNL     1      23.046  55.179  -7.353  1.00  0.00     0.004 C 
ENDBRANCH   2   3
ENDBRANCH   1   2
BRANCH   1   5
ATOM      5  C   UNL     1      26.100  58.677  -9.437  1.00  0.00     0.008 C 
BRANCH   5   6
ATOM      6  C   UNL     1      27.267  58.847 -10.419  1.00  0.00     0.072 C 
BRANCH   6   7
ATOM      7  C   UNL     1      27.737  60.271 -10.473  1.00  0.00     0.224 C 
ATOM      8  O   UNL     1      28.728  60.572 -11.119  1.00  0.00    -0.303 OA
ENDBRANCH   6   7
ENDBRANCH   5   6
ENDBRANCH   1   5
TORSDOF 5
ENDMDL
MODEL 4
REMARK VINA RESULT:    -3.707      0.910      1.196
REMARK INTER + INTRA:          -4.843
REMARK INTER:                  -4.792
REMARK INTRA:                  -0.051
REMARK UNBOUND:                -0.052
REMARK SMILES CCCCCCC=O
REMARK SMILES IDX 4 1 3 2 2 3 1 4 5 5 6 6 7 7 8 8
REMARK H PARENT
REMARK Flexibility Score: inf
ROOT
ATOM      1  C   UNL     1      29.011  45.962  -0.295  1.00  0.00     0.000 C 
ENDROOT
BRANCH   1   2
ATOM      2  C   UNL     1      29.577  44.532  -0.236  1.00  0.00    -0.000 C 
BRANCH   2   3
ATOM      3  C   UNL     1      30.904  44.394   0.531  1.00  0.00    -0.003 C 
ATOM      4  C   UNL     1      32.029  43.804  -0.319  1.00  0.00     0.004 C 
ENDBRANCH   2   3
ENDBRANCH   1   2
BRANCH   1   5
ATOM      5  C   UNL     1      27.646  46.036  -1.002  1.00  0.00     0.008 C 
BRANCH   5   6
ATOM      6  C   UNL     1      27.223  47.483  -1.286  1.00  0.00     0.072 C 
BRANCH   6   7
ATOM      7  C   UNL     1      26.042  47.539  -2.209  1.00  0.00     0.224 C 
ATOM      8  O   UNL     1      25.121  48.309  -1.990  1.00  0.00    -0.303 OA
ENDBRANCH   6   7
ENDBRANCH   5   6
ENDBRANCH   1   5
TORSDOF 5
ENDMDL
MODEL 5
REMARK VINA RESULT:    -3.578      3.423      5.834
REMARK INTER + INTRA:          -4.676
REMARK INTER:                  -4.623
REMARK INTRA:                  -0.053
REMARK UNBOUND:                -0.052
REMARK SMILES CCCCCCC=O
REMARK SMILES IDX 4 1 3 2 2 3 1 4 5 5 6 6 7 7 8 8
REMARK H PARENT
REMARK Flexibility Score: inf
ROOT
ATOM      1  C   UNL     1      28.671  45.464  -0.393  1.00  0.00     0.000 C 
ENDROOT
BRANCH   1   2
ATOM      2  C   UNL     1      28.033  46.817  -0.759  1.00  0.00    -0.000 C 
BRANCH   2   3
ATOM      3  C   UNL     1      26.619  46.723  -1.358  1.00  0.00    -0.003 C 
ATOM      4  C   UNL     1      26.184  48.003  -2.070  1.00  0.00     0.004 C 
ENDBRANCH   2   3
ENDBRANCH   1   2
BRANCH   1   5
ATOM      5  C   UNL     1      30.043  45.615   0.286  1.00  0.00     0.008 C 
BRANCH   5   6
ATOM      6  C   UNL     1      30.784  44.275   0.389  1.00  0.00     0.072 C 
BRANCH   6   7
ATOM      7  C   UNL     1      32.083  44.421   1.125  1.00  0.00     0.224 C 
ATOM      8  O   UNL     1      32.198  45.239   2.023  1.00  0.00    -0.303 OA
ENDBRANCH   6   7
ENDBRANCH   5   6
ENDBRANCH   1   5
TORSDOF 5
ENDMDL
MODEL 6
REMARK VINA RESULT:    -3.536     12.428     14.839
REMARK INTER + INTRA:          -4.622
REMARK INTER:                  -4.462
REMARK INTRA:                  -0.160
REMARK UNBOUND:                -0.052
REMARK SMILES CCCCCCC=O
REMARK SMILES IDX 4 1 3 2 2 3 1 4 5 5 6 6 7 7 8 8
REMARK H PARENT
REMARK Flexibility Score: inf
ROOT
ATOM      1  C   UNL     1      25.880  59.016  -9.365  1.00  0.00     0.000 C 
ENDROOT
BRANCH   1   2
ATOM      2  C   UNL     1      27.018  58.417 -10.210  1.00  0.00    -0.000 C 
BRANCH   2   3
ATOM      3  C   UNL     1      28.143  59.403 -10.571  1.00  0.00    -0.003 C 
ATOM      4  C   UNL     1      27.748  60.864 -10.360  1.00  0.00     0.004 C 
ENDBRANCH   2   3
ENDBRANCH   1   2
BRANCH   1   5
ATOM      5  C   UNL     1      24.997  57.944  -8.705  1.00  0.00     0.008 C 
BRANCH   5   6
ATOM      6  C   UNL     1      25.682  56.571  -8.678  1.00  0.00     0.072 C 
BRANCH   6   7
ATOM      7  C   UNL     1      24.714  55.480  -8.323  1.00  0.00     0.224 C 
ATOM      8  O   UNL     1      23.788  55.699  -7.559  1.00  0.00    -0.303 OA
ENDBRANCH   6   7
ENDBRANCH   5   6
ENDBRANCH   1   5
TORSDOF 5
ENDMDL
MODEL 7
REMARK VINA RESULT:    -3.327      2.045      3.340
REMARK INTER + INTRA:          -4.352
REMARK INTER:                  -4.137
REMARK INTRA:                  -0.215
REMARK UNBOUND:                -0.052
REMARK SMILES CCCCCCC=O
REMARK SMILES IDX 4 1 3 2 2 3 1 4 5 5 6 6 7 7 8 8
REMARK H PARENT
REMARK Flexibility Score: inf
ROOT
ATOM      1  C   UNL     1      31.445  45.321   0.547  1.00  0.00     0.000 C 
ENDROOT
BRANCH   1   2
ATOM      2  C   UNL     1      31.854  43.954   1.124  1.00  0.00    -0.000 C 
BRANCH   2   3
ATOM      3  C   UNL     1      32.524  43.002   0.117  1.00  0.00    -0.003 C 
ATOM      4  C   UNL     1      31.819  42.972  -1.238  1.00  0.00     0.004 C 
ENDBRANCH   2   3
ENDBRANCH   1   2
BRANCH   1   5
ATOM      5  C   UNL     1      29.972  45.668   0.821  1.00  0.00     0.008 C 
BRANCH   5   6
ATOM      6  C   UNL     1      29.064  45.296  -0.358  1.00  0.00     0.072 C 
BRANCH   6   7
ATOM      7  C   UNL     1      28.154  46.429  -0.730  1.00  0.00     0.224 C 
ATOM      8  O   UNL     1      27.037  46.208  -1.171  1.00  0.00    -0.303 OA
ENDBRANCH   6   7
ENDBRANCH   5   6
ENDBRANCH   1   5
TORSDOF 5
ENDMDL
MODEL 8
REMARK VINA RESULT:    -3.323      3.840      6.115
REMARK INTER + INTRA:          -4.347
REMARK INTER:                  -4.203
REMARK INTRA:                  -0.144
REMARK UNBOUND:                -0.052
REMARK SMILES CCCCCCC=O
REMARK SMILES IDX 4 1 3 2 2 3 1 4 5 5 6 6 7 7 8 8
REMARK H PARENT
REMARK Flexibility Score: inf
ROOT
ATOM      1  C   UNL     1      31.241  44.817   0.726  1.00  0.00     0.000 C 
ENDROOT
BRANCH   1   2
ATOM      2  C   UNL     1      29.962  45.673   0.746  1.00  0.00    -0.000 C 
BRANCH   2   3
ATOM      3  C   UNL     1      28.955  45.357  -0.374  1.00  0.00    -0.003 C 
ATOM      4  C   UNL     1      28.095  46.559  -0.762  1.00  0.00     0.004 C 
ENDBRANCH   2   3
ENDBRANCH   1   2
BRANCH   1   5
ATOM      5  C   UNL     1      32.138  45.052   1.953  1.00  0.00     0.008 C 
BRANCH   5   6
ATOM      6  C   UNL     1      32.866  46.401   1.883  1.00  0.00     0.072 C 
BRANCH   6   7
ATOM      7  C   UNL     1      32.720  47.171   3.163  1.00  0.00     0.224 C 
ATOM      8  O   UNL     1      31.625  47.572   3.523  1.00  0.00    -0.303 OA
ENDBRANCH   6   7
ENDBRANCH   5   6
ENDBRANCH   1   5
TORSDOF 5
ENDMDL
MODEL 9
REMARK VINA RESULT:    -3.231     16.613     17.218
REMARK INTER + INTRA:          -4.227
REMARK INTER:                  -3.968
REMARK INTRA:                  -0.259
REMARK UNBOUND:                -0.052
REMARK SMILES CCCCCCC=O
REMARK SMILES IDX 4 1 3 2 2 3 1 4 5 5 6 6 7 7 8 8
REMARK H PARENT
REMARK Flexibility Score: inf
ROOT
ATOM      1  C   UNL     1      31.127  56.957 -13.558  1.00  0.00     0.000 C 
ENDROOT
BRANCH   1   2
ATOM      2  C   UNL     1      32.420  57.018 -12.726  1.00  0.00    -0.000 C 
BRANCH   2   3
ATOM      3  C   UNL     1      33.700  57.277 -13.540  1.00  0.00    -0.003 C 
ATOM      4  C   UNL     1      33.563  58.443 -14.518  1.00  0.00     0.004 C 
ENDBRANCH   2   3
ENDBRANCH   1   2
BRANCH   1   5
ATOM      5  C   UNL     1      30.090  58.010 -13.129  1.00  0.00     0.008 C 
BRANCH   5   6
ATOM      6  C   UNL     1      30.667  59.004 -12.113  1.00  0.00     0.072 C 
BRANCH   6   7
ATOM      7  C   UNL     1      29.580  59.759 -11.405  1.00  0.00     0.224 C 
ATOM      8  O   UNL     1      28.658  59.163 -10.873  1.00  0.00    -0.303 OA
ENDBRANCH   6   7
ENDBRANCH   5   6
ENDBRANCH   1   5
TORSDOF 5
ENDMDL
