MODEL 1
REMARK VINA RESULT:    -4.429      0.000      0.000
REMARK INTER + INTRA:          -4.862
REMARK INTER:                  -4.817
REMARK INTRA:                  -0.045
REMARK UNBOUND:                -0.045
REMARK SMILES COc1ccccc1O
REMARK SMILES IDX 3 1 4 2 5 3 6 4 7 5 8 6 2 7 1 8 9 9
REMARK H PARENT 9 10
REMARK Flexibility Score: inf
ROOT
ATOM      1  C   UNL     1     -13.642  40.733  -9.299  1.00  0.00     0.160 A 
ATOM      2  C   UNL     1     -14.140  39.457  -9.634  1.00  0.00     0.050 A 
ATOM      3  C   UNL     1     -15.394  39.326 -10.238  1.00  0.00     0.004 A 
ATOM      4  C   UNL     1     -16.161  40.461 -10.513  1.00  0.00     0.004 A 
ATOM      5  C   UNL     1     -15.675  41.728 -10.185  1.00  0.00     0.050 A 
ATOM      6  C   UNL     1     -14.418  41.868  -9.580  1.00  0.00     0.157 A 
ENDROOT
BRANCH   1   7
ATOM      7  O   UNL     1     -12.389  40.910  -8.692  1.00  0.00    -0.493 OA
ATOM      8  C   UNL     1     -11.148  40.922  -9.392  1.00  0.00     0.278 C 
ENDBRANCH   1   7
BRANCH   6   9
ATOM      9  O   UNL     1     -13.933  43.133  -9.251  1.00  0.00    -0.504 OA
ATOM     10  H   UNL     1     -13.406  43.687  -9.916  1.00  0.00     0.293 HD
ENDBRANCH   6   9
TORSDOF 2
ENDMDL
MODEL 2
REMARK VINA RESULT:    -4.305      2.480      2.972
REMARK INTER + INTRA:          -4.727
REMARK INTER:                  -4.689
REMARK INTRA:                  -0.039
REMARK UNBOUND:                -0.045
REMARK SMILES COc1ccccc1O
REMARK SMILES IDX 3 1 4 2 5 3 6 4 7 5 8 6 2 7 1 8 9 9
REMARK H PARENT 9 10
REMARK Flexibility Score: inf
ROOT
ATOM      1  C   UNL     1     -15.391  39.610  -8.656  1.00  0.00     0.160 A 
ATOM      2  C   UNL     1     -14.162  39.296  -9.273  1.00  0.00     0.050 A 
ATOM      3  C   UNL     1     -13.789  39.928 -10.463  1.00  0.00     0.004 A 
ATOM      4  C   UNL     1     -14.633  40.876 -11.047  1.00  0.00     0.004 A 
ATOM      5  C   UNL     1     -15.850  41.193 -10.443  1.00  0.00     0.050 A 
ATOM      6  C   UNL     1     -16.232  40.564  -9.249  1.00  0.00     0.157 A 
ENDROOT
BRANCH   1   7
ATOM      7  O   UNL     1     -15.804  39.000  -7.462  1.00  0.00    -0.493 OA
ATOM      8  C   UNL     1     -15.043  38.986  -6.258  1.00  0.00     0.278 C 
ENDBRANCH   1   7
BRANCH   6   9
ATOM      9  O   UNL     1     -17.448  40.880  -8.646  1.00  0.00    -0.504 OA
ATOM     10  H   UNL     1     -17.489  41.403  -7.779  1.00  0.00     0.293 HD
ENDBRANCH   6   9
TORSDOF 2
ENDMDL
MODEL 3
REMARK VINA RESULT:    -4.218      7.772      8.604
REMARK INTER + INTRA:          -4.633
REMARK INTER:                  -4.602
REMARK INTRA:                  -0.031
REMARK UNBOUND:                -0.045
REMARK SMILES COc1ccccc1O
REMARK SMILES IDX 3 1 4 2 5 3 6 4 7 5 8 6 2 7 1 8 9 9
REMARK H PARENT 9 10
REMARK Flexibility Score: inf
ROOT
ATOM      1  C   UNL     1     -12.460  34.643  -4.375  1.00  0.00     0.160 A 
ATOM      2  C   UNL     1     -12.922  33.944  -3.240  1.00  0.00     0.050 A 
ATOM      3  C   UNL     1     -13.946  33.001  -3.363  1.00  0.00     0.004 A 
ATOM      4  C   UNL     1     -14.519  32.745  -4.611  1.00  0.00     0.004 A 
ATOM      5  C   UNL     1     -14.067  33.432  -5.740  1.00  0.00     0.050 A 
ATOM      6  C   UNL     1     -13.040  34.380  -5.625  1.00  0.00     0.157 A 
ENDROOT
BRANCH   1   7
ATOM      7  O   UNL     1     -11.434  35.597  -4.297  1.00  0.00    -0.493 OA
ATOM      8  C   UNL     1     -11.242  36.488  -3.203  1.00  0.00     0.278 C 
ENDBRANCH   1   7
BRANCH   6   9
ATOM      9  O   UNL     1     -12.589  35.067  -6.752  1.00  0.00    -0.504 OA
ATOM     10  H   UNL     1     -12.275  36.029  -6.695  1.00  0.00     0.293 HD
ENDBRANCH   6   9
TORSDOF 2
ENDMDL
MODEL 4
REMARK VINA RESULT:    -4.173      8.477      9.547
REMARK INTER + INTRA:          -4.584
REMARK INTER:                  -4.557
REMARK INTRA:                  -0.027
REMARK UNBOUND:                -0.045
REMARK SMILES COc1ccccc1O
REMARK SMILES IDX 3 1 4 2 5 3 6 4 7 5 8 6 2 7 1 8 9 9
REMARK H PARENT 9 10
REMARK Flexibility Score: inf
ROOT
ATOM      1  C   UNL     1     -13.191  33.970  -3.021  1.00  0.00     0.160 A 
ATOM      2  C   UNL     1     -14.184  33.036  -3.384  1.00  0.00     0.050 A 
ATOM      3  C   UNL     1     -14.410  32.736  -4.731  1.00  0.00     0.004 A 
ATOM      4  C   UNL     1     -13.652  33.360  -5.725  1.00  0.00     0.004 A 
ATOM      5  C   UNL     1     -12.667  34.285  -5.374  1.00  0.00     0.050 A 
ATOM      6  C   UNL     1     -12.434  34.591  -4.026  1.00  0.00     0.157 A 
ENDROOT
BRANCH   1   7
ATOM      7  O   UNL     1     -12.931  34.300  -1.682  1.00  0.00    -0.493 OA
ATOM      8  C   UNL     1     -13.524  33.651  -0.562  1.00  0.00     0.278 C 
ENDBRANCH   1   7
BRANCH   6   9
ATOM      9  O   UNL     1     -11.451  35.516  -3.675  1.00  0.00    -0.504 OA
ATOM     10  H   UNL     1     -11.547  36.500  -3.894  1.00  0.00     0.293 HD
ENDBRANCH   6   9
TORSDOF 2
ENDMDL
MODEL 5
REMARK VINA RESULT:    -4.168      9.956     11.029
REMARK INTER + INTRA:          -4.578
REMARK INTER:                  -4.532
REMARK INTRA:                  -0.046
REMARK UNBOUND:                -0.045
REMARK SMILES COc1ccccc1O
REMARK SMILES IDX 3 1 4 2 5 3 6 4 7 5 8 6 2 7 1 8 9 9
REMARK H PARENT 9 10
REMARK Flexibility Score: inf
ROOT
ATOM      1  C   UNL     1     -14.447  34.827  -1.149  1.00  0.00     0.160 A 
ATOM      2  C   UNL     1     -15.131  34.934  -2.378  1.00  0.00     0.050 A 
ATOM      3  C   UNL     1     -14.861  34.035  -3.414  1.00  0.00     0.004 A 
ATOM      4  C   UNL     1     -13.912  33.025  -3.237  1.00  0.00     0.004 A 
ATOM      5  C   UNL     1     -13.231  32.912  -2.024  1.00  0.00     0.050 A 
ATOM      6  C   UNL     1     -13.496  33.810  -0.980  1.00  0.00     0.157 A 
ENDROOT
BRANCH   1   7
ATOM      7  O   UNL     1     -14.687  35.707  -0.083  1.00  0.00    -0.493 OA
ATOM      8  C   UNL     1     -15.796  35.614   0.807  1.00  0.00     0.278 C 
ENDBRANCH   1   7
BRANCH   6   9
ATOM      9  O   UNL     1     -12.816  33.698   0.232  1.00  0.00    -0.504 OA
ATOM     10  H   UNL     1     -12.866  34.425   0.937  1.00  0.00     0.293 HD
ENDBRANCH   6   9
TORSDOF 2
ENDMDL
MODEL 6
REMARK VINA RESULT:    -4.128      9.654     10.737
REMARK INTER + INTRA:          -4.534
REMARK INTER:                  -4.508
REMARK INTRA:                  -0.027
REMARK UNBOUND:                -0.045
REMARK SMILES COc1ccccc1O
REMARK SMILES IDX 3 1 4 2 5 3 6 4 7 5 8 6 2 7 1 8 9 9
REMARK H PARENT 9 10
REMARK Flexibility Score: inf
ROOT
ATOM      1  C   UNL     1     -15.015  34.852  -1.854  1.00  0.00     0.160 A 
ATOM      2  C   UNL     1     -14.777  34.125  -3.039  1.00  0.00     0.050 A 
ATOM      3  C   UNL     1     -13.936  33.008  -3.023  1.00  0.00     0.004 A 
ATOM      4  C   UNL     1     -13.327  32.605  -1.832  1.00  0.00     0.004 A 
ATOM      5  C   UNL     1     -13.558  33.319  -0.654  1.00  0.00     0.050 A 
ATOM      6  C   UNL     1     -14.400  34.440  -0.662  1.00  0.00     0.157 A 
ENDROOT
BRANCH   1   7
ATOM      7  O   UNL     1     -15.852  35.978  -1.825  1.00  0.00    -0.493 OA
ATOM      8  C   UNL     1     -16.562  36.485  -2.951  1.00  0.00     0.278 C 
ENDBRANCH   1   7
BRANCH   6   9
ATOM      9  O   UNL     1     -14.631  35.154   0.513  1.00  0.00    -0.504 OA
ATOM     10  H   UNL     1     -15.436  35.760   0.616  1.00  0.00     0.293 HD
ENDBRANCH   6   9
TORSDOF 2
ENDMDL
MODEL 7
REMARK VINA RESULT:    -4.124      8.896      9.708
REMARK INTER + INTRA:          -4.530
REMARK INTER:                  -4.485
REMARK INTRA:                  -0.045
REMARK UNBOUND:                -0.045
REMARK SMILES COc1ccccc1O
REMARK SMILES IDX 3 1 4 2 5 3 6 4 7 5 8 6 2 7 1 8 9 9
REMARK H PARENT 9 10
REMARK Flexibility Score: inf
ROOT
ATOM      1  C   UNL     1     -13.098  34.206  -2.953  1.00  0.00     0.160 A 
ATOM      2  C   UNL     1     -12.287  34.534  -4.059  1.00  0.00     0.050 A 
ATOM      3  C   UNL     1     -12.594  34.038  -5.329  1.00  0.00     0.004 A 
ATOM      4  C   UNL     1     -13.707  33.213  -5.509  1.00  0.00     0.004 A 
ATOM      5  C   UNL     1     -14.515  32.883  -4.420  1.00  0.00     0.050 A 
ATOM      6  C   UNL     1     -14.214  33.378  -3.142  1.00  0.00     0.157 A 
ENDROOT
BRANCH   1   7
ATOM      7  O   UNL     1     -12.826  34.683  -1.661  1.00  0.00    -0.493 OA
ATOM      8  C   UNL     1     -12.973  36.040  -1.255  1.00  0.00     0.278 C 
ENDBRANCH   1   7
BRANCH   6   9
ATOM      9  O   UNL     1     -15.020  33.049  -2.053  1.00  0.00    -0.504 OA
ATOM     10  H   UNL     1     -14.833  33.413  -1.126  1.00  0.00     0.293 HD
ENDBRANCH   6   9
TORSDOF 2
ENDMDL
MODEL 8
REMARK VINA RESULT:    -4.029      7.925      8.958
REMARK INTER + INTRA:          -4.427
REMARK INTER:                  -4.387
REMARK INTRA:                  -0.040
REMARK UNBOUND:                -0.045
REMARK SMILES COc1ccccc1O
REMARK SMILES IDX 3 1 4 2 5 3 6 4 7 5 8 6 2 7 1 8 9 9
REMARK H PARENT 9 10
REMARK Flexibility Score: inf
ROOT
ATOM      1  C   UNL     1     -12.359  34.676  -4.045  1.00  0.00     0.160 A 
ATOM      2  C   UNL     1     -12.599  34.171  -5.340  1.00  0.00     0.050 A 
ATOM      3  C   UNL     1     -13.627  33.250  -5.557  1.00  0.00     0.004 A 
ATOM      4  C   UNL     1     -14.425  32.824  -4.492  1.00  0.00     0.004 A 
ATOM      5  C   UNL     1     -14.195  33.319  -3.207  1.00  0.00     0.050 A 
ATOM      6  C   UNL     1     -13.165  34.244  -2.980  1.00  0.00     0.157 A 
ENDROOT
BRANCH   1   7
ATOM      7  O   UNL     1     -11.338  35.602  -3.782  1.00  0.00    -0.493 OA
ATOM      8  C   UNL     1     -11.222  36.875  -4.409  1.00  0.00     0.278 C 
ENDBRANCH   1   7
BRANCH   6   9
ATOM      9  O   UNL     1     -12.934  34.738  -1.697  1.00  0.00    -0.504 OA
ATOM     10  H   UNL     1     -13.076  35.716  -1.473  1.00  0.00     0.293 HD
ENDBRANCH   6   9
TORSDOF 2
ENDMDL
MODEL 9
REMARK VINA RESULT:    -3.951     10.045     10.965
REMARK INTER + INTRA:          -4.342
REMARK INTER:                  -4.306
REMARK INTRA:                  -0.036
REMARK UNBOUND:                -0.045
REMARK SMILES COc1ccccc1O
REMARK SMILES IDX 3 1 4 2 5 3 6 4 7 5 8 6 2 7 1 8 9 9
REMARK H PARENT 9 10
REMARK Flexibility Score: inf
ROOT
ATOM      1  C   UNL     1     -14.763  34.640  -0.829  1.00  0.00     0.160 A 
ATOM      2  C   UNL     1     -13.831  33.636  -0.496  1.00  0.00     0.050 A 
ATOM      3  C   UNL     1     -13.323  32.791  -1.487  1.00  0.00     0.004 A 
ATOM      4  C   UNL     1     -13.737  32.936  -2.813  1.00  0.00     0.004 A 
ATOM      5  C   UNL     1     -14.660  33.928  -3.151  1.00  0.00     0.050 A 
ATOM      6  C   UNL     1     -15.174  34.780  -2.163  1.00  0.00     0.157 A 
ENDROOT
BRANCH   1   7
ATOM      7  O   UNL     1     -15.298  35.510   0.134  1.00  0.00    -0.493 OA
ATOM      8  C   UNL     1     -15.858  35.094   1.375  1.00  0.00     0.278 C 
ENDBRANCH   1   7
BRANCH   6   9
ATOM      9  O   UNL     1     -16.096  35.770  -2.500  1.00  0.00    -0.504 OA
ATOM     10  H   UNL     1     -15.870  36.755  -2.419  1.00  0.00     0.293 HD
ENDBRANCH   6   9
TORSDOF 2
ENDMDL
