MODEL 1
REMARK VINA RESULT:    -4.724      0.000      0.000
REMARK INTER + INTRA:          -7.573
REMARK INTER:                  -7.209
REMARK INTRA:                  -0.364
REMARK UNBOUND:                -0.364
REMARK SMILES CCCCCCCCCCC(=O)[O-]
REMARK SMILES IDX 7 1 8 2 9 3 10 4 11 5 12 6 13 7 6 8 5 9 4 10 3 11 2 12 1 13
REMARK H PARENT
REMARK Flexibility Score: inf
ROOT
ATOM      1  C   UNL     1     -17.486  -1.178  34.430  1.00  0.00     0.000 C 
ENDROOT
BRANCH   1   2
ATOM      2  C   UNL     1     -17.466  -0.626  35.870  1.00  0.00     0.000 C 
BRANCH   2   3
ATOM      3  C   UNL     1     -18.449   0.531  36.139  1.00  0.00     0.006 C 
BRANCH   3   4
ATOM      4  C   UNL     1     -17.777   1.844  36.572  1.00  0.00     0.053 C 
BRANCH   4   5
ATOM      5  C   UNL     1     -18.042   2.162  38.011  1.00  0.00     0.041 C 
ATOM      6  O   UNL     1     -19.192   1.993  38.496  1.00  0.00    -0.550 OA
ATOM      7  O   UNL     1     -17.012   2.612  38.827  1.00  0.00    -0.550 OA
ENDBRANCH   4   5
ENDBRANCH   3   4
ENDBRANCH   2   3
ENDBRANCH   1   2
BRANCH   1   8
ATOM      8  C   UNL     1     -17.041  -2.647  34.285  1.00  0.00     0.000 C 
BRANCH   8   9
ATOM      9  C   UNL     1     -17.372  -3.293  32.927  1.00  0.00    -0.000 C 
BRANCH   9  10
ATOM     10  C   UNL     1     -16.787  -2.518  31.738  1.00  0.00    -0.000 C 
BRANCH  10  11
ATOM     11  C   UNL     1     -17.898  -1.817  30.942  1.00  0.00    -0.000 C 
BRANCH  11  12
ATOM     12  C   UNL     1     -19.304  -2.171  31.451  1.00  0.00    -0.003 C 
ATOM     13  C   UNL     1     -20.356  -2.154  30.342  1.00  0.00     0.004 C 
ENDBRANCH  11  12
ENDBRANCH  10  11
ENDBRANCH   9  10
ENDBRANCH   8   9
ENDBRANCH   1   8
TORSDOF 9
ENDMDL
MODEL 2
REMARK VINA RESULT:    -4.708      1.486      2.356
REMARK INTER + INTRA:          -7.550
REMARK INTER:                  -7.007
REMARK INTRA:                  -0.543
REMARK UNBOUND:                -0.364
REMARK SMILES CCCCCCCCCCC(=O)[O-]
REMARK SMILES IDX 7 1 8 2 9 3 10 4 11 5 12 6 13 7 6 8 5 9 4 10 3 11 2 12 1 13
REMARK H PARENT
REMARK Flexibility Score: inf
ROOT
ATOM      1  C   UNL     1     -17.709  -1.195  35.250  1.00  0.00     0.000 C 
ENDROOT
BRANCH   1   2
ATOM      2  C   UNL     1     -17.101  -1.565  36.617  1.00  0.00     0.000 C 
BRANCH   2   3
ATOM      3  C   UNL     1     -17.509  -0.642  37.783  1.00  0.00     0.006 C 
BRANCH   3   4
ATOM      4  C   UNL     1     -18.680   0.302  37.464  1.00  0.00     0.053 C 
BRANCH   4   5
ATOM      5  C   UNL     1     -18.243   1.732  37.386  1.00  0.00     0.041 C 
ATOM      6  O   UNL     1     -17.971   2.252  36.271  1.00  0.00    -0.550 OA
ATOM      7  O   UNL     1     -18.170   2.502  38.540  1.00  0.00    -0.550 OA
ENDBRANCH   4   5
ENDBRANCH   3   4
ENDBRANCH   2   3
ENDBRANCH   1   2
BRANCH   1   8
ATOM      8  C   UNL     1     -17.576  -2.277  34.159  1.00  0.00     0.000 C 
BRANCH   8   9
ATOM      9  C   UNL     1     -18.345  -1.984  32.858  1.00  0.00    -0.000 C 
BRANCH   9  10
ATOM     10  C   UNL     1     -17.418  -1.755  31.655  1.00  0.00    -0.000 C 
BRANCH  10  11
ATOM     11  C   UNL     1     -15.958  -2.063  32.022  1.00  0.00    -0.000 C 
BRANCH  11  12
ATOM     12  C   UNL     1     -15.405  -3.284  31.272  1.00  0.00    -0.003 C 
ATOM     13  C   UNL     1     -16.017  -4.600  31.752  1.00  0.00     0.004 C 
ENDBRANCH  11  12
ENDBRANCH  10  11
ENDBRANCH   9  10
ENDBRANCH   8   9
ENDBRANCH   1   8
TORSDOF 9
ENDMDL
MODEL 3
REMARK VINA RESULT:    -4.683     10.676     11.788
REMARK INTER + INTRA:          -7.512
REMARK INTER:                  -6.924
REMARK INTRA:                  -0.588
REMARK UNBOUND:                -0.364
REMARK SMILES CCCCCCCCCCC(=O)[O-]
REMARK SMILES IDX 7 1 8 2 9 3 10 4 11 5 12 6 13 7 6 8 5 9 4 10 3 11 2 12 1 13
REMARK H PARENT
REMARK Flexibility Score: inf
ROOT
ATOM      1  C   UNL     1     -19.210   9.803  32.755  1.00  0.00     0.000 C 
ENDROOT
BRANCH   1   2
ATOM      2  C   UNL     1     -17.852  10.120  32.097  1.00  0.00     0.000 C 
BRANCH   2   3
ATOM      3  C   UNL     1     -16.949   8.897  31.843  1.00  0.00     0.006 C 
BRANCH   3   4
ATOM      4  C   UNL     1     -16.109   8.986  30.558  1.00  0.00     0.053 C 
BRANCH   4   5
ATOM      5  C   UNL     1     -16.899   8.607  29.343  1.00  0.00     0.041 C 
ATOM      6  O   UNL     1     -17.623   7.578  29.354  1.00  0.00    -0.550 OA
ATOM      7  O   UNL     1     -16.863   9.412  28.211  1.00  0.00    -0.550 OA
ENDBRANCH   4   5
ENDBRANCH   3   4
ENDBRANCH   2   3
ENDBRANCH   1   2
BRANCH   1   8
ATOM      8  C   UNL     1     -20.429   9.883  31.813  1.00  0.00     0.000 C 
BRANCH   8   9
ATOM      9  C   UNL     1     -20.088  10.118  30.331  1.00  0.00    -0.000 C 
BRANCH   9  10
ATOM     10  C   UNL     1     -21.302   9.952  29.405  1.00  0.00    -0.000 C 
BRANCH  10  11
ATOM     11  C   UNL     1     -22.370   9.060  30.057  1.00  0.00    -0.000 C 
BRANCH  11  12
ATOM     12  C   UNL     1     -23.636   8.929  29.196  1.00  0.00    -0.003 C 
ATOM     13  C   UNL     1     -24.902   8.738  30.032  1.00  0.00     0.004 C 
ENDBRANCH  11  12
ENDBRANCH  10  11
ENDBRANCH   9  10
ENDBRANCH   8   9
ENDBRANCH   1   8
TORSDOF 9
ENDMDL
MODEL 4
REMARK VINA RESULT:    -4.571      1.944      3.437
REMARK INTER + INTRA:          -7.341
REMARK INTER:                  -6.591
REMARK INTRA:                  -0.750
REMARK UNBOUND:                -0.364
REMARK SMILES CCCCCCCCCCC(=O)[O-]
REMARK SMILES IDX 7 1 8 2 9 3 10 4 11 5 12 6 13 7 6 8 5 9 4 10 3 11 2 12 1 13
REMARK H PARENT
REMARK Flexibility Score: inf
ROOT
ATOM      1  C   UNL     1     -17.816  -1.032  35.023  1.00  0.00     0.000 C 
ENDROOT
BRANCH   1   2
ATOM      2  C   UNL     1     -17.134  -1.425  36.348  1.00  0.00     0.000 C 
BRANCH   2   3
ATOM      3  C   UNL     1     -17.659  -0.687  37.596  1.00  0.00     0.006 C 
BRANCH   3   4
ATOM      4  C   UNL     1     -18.798   0.306  37.313  1.00  0.00     0.053 C 
BRANCH   4   5
ATOM      5  C   UNL     1     -18.321   1.725  37.324  1.00  0.00     0.041 C 
ATOM      6  O   UNL     1     -18.272   2.369  38.405  1.00  0.00    -0.550 OA
ATOM      7  O   UNL     1     -17.896   2.327  36.146  1.00  0.00    -0.550 OA
ENDBRANCH   4   5
ENDBRANCH   3   4
ENDBRANCH   2   3
ENDBRANCH   1   2
BRANCH   1   8
ATOM      8  C   UNL     1     -17.600  -2.017  33.857  1.00  0.00     0.000 C 
BRANCH   8   9
ATOM      9  C   UNL     1     -16.814  -1.445  32.663  1.00  0.00    -0.000 C 
BRANCH   9  10
ATOM     10  C   UNL     1     -15.549  -2.252  32.339  1.00  0.00    -0.000 C 
BRANCH  10  11
ATOM     11  C   UNL     1     -15.116  -3.100  33.544  1.00  0.00    -0.000 C 
BRANCH  11  12
ATOM     12  C   UNL     1     -13.693  -2.768  34.020  1.00  0.00    -0.003 C 
ATOM     13  C   UNL     1     -13.597  -2.620  35.538  1.00  0.00     0.004 C 
ENDBRANCH  11  12
ENDBRANCH  10  11
ENDBRANCH   9  10
ENDBRANCH   8   9
ENDBRANCH   1   8
TORSDOF 9
ENDMDL
MODEL 5
REMARK VINA RESULT:    -4.552      1.574      2.259
REMARK INTER + INTRA:          -7.311
REMARK INTER:                  -6.419
REMARK INTRA:                  -0.892
REMARK UNBOUND:                -0.364
REMARK SMILES CCCCCCCCCCC(=O)[O-]
REMARK SMILES IDX 7 1 8 2 9 3 10 4 11 5 12 6 13 7 6 8 5 9 4 10 3 11 2 12 1 13
REMARK H PARENT
REMARK Flexibility Score: inf
ROOT
ATOM      1  C   UNL     1     -15.284  -3.249  34.247  1.00  0.00     0.000 C 
ENDROOT
BRANCH   1   2
ATOM      2  C   UNL     1     -15.592  -2.284  35.409  1.00  0.00     0.000 C 
BRANCH   2   3
ATOM      3  C   UNL     1     -17.087  -1.977  35.623  1.00  0.00     0.006 C 
BRANCH   3   4
ATOM      4  C   UNL     1     -17.487  -0.526  35.310  1.00  0.00     0.053 C 
BRANCH   4   5
ATOM      5  C   UNL     1     -18.158   0.135  36.474  1.00  0.00     0.041 C 
ATOM      6  O   UNL     1     -19.158   0.879  36.291  1.00  0.00    -0.550 OA
ATOM      7  O   UNL     1     -17.703  -0.099  37.765  1.00  0.00    -0.550 OA
ENDBRANCH   4   5
ENDBRANCH   3   4
ENDBRANCH   2   3
ENDBRANCH   1   2
BRANCH   1   8
ATOM      8  C   UNL     1     -14.894  -2.571  32.917  1.00  0.00     0.000 C 
BRANCH   8   9
ATOM      9  C   UNL     1     -15.538  -3.187  31.662  1.00  0.00    -0.000 C 
BRANCH   9  10
ATOM     10  C   UNL     1     -17.067  -3.284  31.762  1.00  0.00    -0.000 C 
BRANCH  10  11
ATOM     11  C   UNL     1     -17.705  -1.887  31.758  1.00  0.00    -0.000 C 
BRANCH  11  12
ATOM     12  C   UNL     1     -19.223  -1.930  31.997  1.00  0.00    -0.003 C 
ATOM     13  C   UNL     1     -20.023  -2.014  30.697  1.00  0.00     0.004 C 
ENDBRANCH  11  12
ENDBRANCH  10  11
ENDBRANCH   9  10
ENDBRANCH   8   9
ENDBRANCH   1   8
TORSDOF 9
ENDMDL
MODEL 6
REMARK VINA RESULT:    -4.543     10.422     12.800
REMARK INTER + INTRA:          -7.298
REMARK INTER:                  -6.584
REMARK INTRA:                  -0.714
REMARK UNBOUND:                -0.364
REMARK SMILES CCCCCCCCCCC(=O)[O-]
REMARK SMILES IDX 7 1 8 2 9 3 10 4 11 5 12 6 13 7 6 8 5 9 4 10 3 11 2 12 1 13
REMARK H PARENT
REMARK Flexibility Score: inf
ROOT
ATOM      1  C   UNL     1     -24.739  -1.054  23.542  1.00  0.00     0.000 C 
ENDROOT
BRANCH   1   2
ATOM      2  C   UNL     1     -23.552  -1.074  24.526  1.00  0.00     0.000 C 
BRANCH   2   3
ATOM      3  C   UNL     1     -22.728   0.228  24.580  1.00  0.00     0.006 C 
BRANCH   3   4
ATOM      4  C   UNL     1     -23.401   1.433  23.902  1.00  0.00     0.053 C 
BRANCH   4   5
ATOM      5  C   UNL     1     -22.743   1.786  22.604  1.00  0.00     0.041 C 
ATOM      6  O   UNL     1     -21.542   1.472  22.396  1.00  0.00    -0.550 OA
ATOM      7  O   UNL     1     -23.468   2.430  21.609  1.00  0.00    -0.550 OA
ENDBRANCH   4   5
ENDBRANCH   3   4
ENDBRANCH   2   3
ENDBRANCH   1   2
BRANCH   1   8
ATOM      8  C   UNL     1     -26.131  -1.199  24.190  1.00  0.00     0.000 C 
BRANCH   8   9
ATOM      9  C   UNL     1     -26.183  -2.133  25.412  1.00  0.00    -0.000 C 
BRANCH   9  10
ATOM     10  C   UNL     1     -26.810  -1.469  26.646  1.00  0.00    -0.000 C 
BRANCH  10  11
ATOM     11  C   UNL     1     -26.199  -2.028  27.939  1.00  0.00    -0.000 C 
BRANCH  11  12
ATOM     12  C   UNL     1     -24.666  -1.921  27.963  1.00  0.00    -0.003 C 
ATOM     13  C   UNL     1     -24.001  -3.116  28.646  1.00  0.00     0.004 C 
ENDBRANCH  11  12
ENDBRANCH  10  11
ENDBRANCH   9  10
ENDBRANCH   8   9
ENDBRANCH   1   8
TORSDOF 9
ENDMDL
MODEL 7
REMARK VINA RESULT:    -4.494      1.972      3.715
REMARK INTER + INTRA:          -7.222
REMARK INTER:                  -6.040
REMARK INTRA:                  -1.182
REMARK UNBOUND:                -0.364
REMARK SMILES CCCCCCCCCCC(=O)[O-]
REMARK SMILES IDX 7 1 8 2 9 3 10 4 11 5 12 6 13 7 6 8 5 9 4 10 3 11 2 12 1 13
REMARK H PARENT
REMARK Flexibility Score: inf
ROOT
ATOM      1  C   UNL     1     -17.909  -2.277  32.203  1.00  0.00     0.000 C 
ENDROOT
BRANCH   1   2
ATOM      2  C   UNL     1     -18.279  -1.878  33.645  1.00  0.00     0.000 C 
BRANCH   2   3
ATOM      3  C   UNL     1     -17.298  -0.901  34.323  1.00  0.00     0.006 C 
BRANCH   3   4
ATOM      4  C   UNL     1     -17.538  -0.706  35.830  1.00  0.00     0.053 C 
BRANCH   4   5
ATOM      5  C   UNL     1     -18.099   0.648  36.138  1.00  0.00     0.041 C 
ATOM      6  O   UNL     1     -19.225   0.757  36.689  1.00  0.00    -0.550 OA
ATOM      7  O   UNL     1     -17.361   1.789  35.850  1.00  0.00    -0.550 OA
ENDBRANCH   4   5
ENDBRANCH   3   4
ENDBRANCH   2   3
ENDBRANCH   1   2
BRANCH   1   8
ATOM      8  C   UNL     1     -16.473  -1.919  31.771  1.00  0.00     0.000 C 
BRANCH   8   9
ATOM      9  C   UNL     1     -15.599  -3.120  31.367  1.00  0.00    -0.000 C 
BRANCH   9  10
ATOM     10  C   UNL     1     -14.834  -3.727  32.552  1.00  0.00    -0.000 C 
BRANCH  10  11
ATOM     11  C   UNL     1     -14.070  -2.642  33.325  1.00  0.00    -0.000 C 
BRANCH  11  12
ATOM     12  C   UNL     1     -14.131  -2.848  34.847  1.00  0.00    -0.003 C 
ATOM     13  C   UNL     1     -15.225  -3.830  35.267  1.00  0.00     0.004 C 
ENDBRANCH  11  12
ENDBRANCH  10  11
ENDBRANCH   9  10
ENDBRANCH   8   9
ENDBRANCH   1   8
TORSDOF 9
ENDMDL
MODEL 8
REMARK VINA RESULT:    -4.486     10.963     12.207
REMARK INTER + INTRA:          -7.210
REMARK INTER:                  -6.423
REMARK INTRA:                  -0.787
REMARK UNBOUND:                -0.364
REMARK SMILES CCCCCCCCCCC(=O)[O-]
REMARK SMILES IDX 7 1 8 2 9 3 10 4 11 5 12 6 13 7 6 8 5 9 4 10 3 11 2 12 1 13
REMARK H PARENT
REMARK Flexibility Score: inf
ROOT
ATOM      1  C   UNL     1     -19.482   8.971  30.230  1.00  0.00     0.000 C 
ENDROOT
BRANCH   1   2
ATOM      2  C   UNL     1     -19.894   9.973  29.133  1.00  0.00     0.000 C 
BRANCH   2   3
ATOM      3  C   UNL     1     -21.391   9.959  28.766  1.00  0.00     0.006 C 
BRANCH   3   4
ATOM      4  C   UNL     1     -22.260   9.079  29.681  1.00  0.00     0.053 C 
BRANCH   4   5
ATOM      5  C   UNL     1     -23.716   9.197  29.354  1.00  0.00     0.041 C 
ATOM      6  O   UNL     1     -24.126  10.125  28.609  1.00  0.00    -0.550 OA
ATOM      7  O   UNL     1     -24.617   8.259  29.843  1.00  0.00    -0.550 OA
ENDBRANCH   4   5
ENDBRANCH   3   4
ENDBRANCH   2   3
ENDBRANCH   1   2
BRANCH   1   8
ATOM      8  C   UNL     1     -18.993   9.605  31.548  1.00  0.00     0.000 C 
BRANCH   8   9
ATOM      9  C   UNL     1     -17.481   9.477  31.807  1.00  0.00    -0.000 C 
BRANCH   9  10
ATOM     10  C   UNL     1     -16.778   8.557  30.799  1.00  0.00    -0.000 C 
BRANCH  10  11
ATOM     11  C   UNL     1     -15.617   9.288  30.108  1.00  0.00    -0.000 C 
BRANCH  11  12
ATOM     12  C   UNL     1     -15.831   9.439  28.594  1.00  0.00    -0.003 C 
ATOM     13  C   UNL     1     -16.627   8.281  27.991  1.00  0.00     0.004 C 
ENDBRANCH  11  12
ENDBRANCH  10  11
ENDBRANCH   9  10
ENDBRANCH   8   9
ENDBRANCH   1   8
TORSDOF 9
ENDMDL
MODEL 9
REMARK VINA RESULT:    -4.443     11.313     12.879
REMARK INTER + INTRA:          -7.145
REMARK INTER:                  -6.181
REMARK INTRA:                  -0.964
REMARK UNBOUND:                -0.364
REMARK SMILES CCCCCCCCCCC(=O)[O-]
REMARK SMILES IDX 7 1 8 2 9 3 10 4 11 5 12 6 13 7 6 8 5 9 4 10 3 11 2 12 1 13
REMARK H PARENT
REMARK Flexibility Score: inf
ROOT
ATOM      1  C   UNL     1     -24.192  -2.151  25.565  1.00  0.00     0.000 C 
ENDROOT
BRANCH   1   2
ATOM      2  C   UNL     1     -23.284  -0.961  25.199  1.00  0.00     0.000 C 
BRANCH   2   3
ATOM      3  C   UNL     1     -23.629  -0.262  23.868  1.00  0.00     0.006 C 
BRANCH   3   4
ATOM      4  C   UNL     1     -23.482   1.268  23.899  1.00  0.00     0.053 C 
BRANCH   4   5
ATOM      5  C   UNL     1     -22.804   1.792  22.671  1.00  0.00     0.041 C 
ATOM      6  O   UNL     1     -23.380   2.641  21.942  1.00  0.00    -0.550 OA
ATOM      7  O   UNL     1     -21.519   1.369  22.352  1.00  0.00    -0.550 OA
ENDBRANCH   4   5
ENDBRANCH   3   4
ENDBRANCH   2   3
ENDBRANCH   1   2
BRANCH   1   8
ATOM      8  C   UNL     1     -24.504  -2.300  27.068  1.00  0.00     0.000 C 
BRANCH   8   9
ATOM      9  C   UNL     1     -25.833  -1.670  27.520  1.00  0.00    -0.000 C 
BRANCH   9  10
ATOM     10  C   UNL     1     -27.033  -2.144  26.686  1.00  0.00    -0.000 C 
BRANCH  10  11
ATOM     11  C   UNL     1     -27.886  -0.952  26.227  1.00  0.00    -0.000 C 
BRANCH  11  12
ATOM     12  C   UNL     1     -27.325  -0.274  24.968  1.00  0.00    -0.003 C 
ATOM     13  C   UNL     1     -27.405  -1.167  23.730  1.00  0.00     0.004 C 
ENDBRANCH  11  12
ENDBRANCH  10  11
ENDBRANCH   9  10
ENDBRANCH   8   9
ENDBRANCH   1   8
TORSDOF 9
ENDMDL
