MODEL 1
REMARK VINA RESULT:    -7.454      0.000      0.000
REMARK INTER + INTRA:          -9.042
REMARK INTER:                  -8.761
REMARK INTRA:                  -0.280
REMARK UNBOUND:                -0.280
REMARK SMILES O=c1cc(-c2ccc(O)c(O)c2)oc2cc(O)cc(O)c12
REMARK SMILES IDX 4 1 3 2 2 3 1 4 21 5 19 6 18 7 16 8 15 9 14 10 13 11 5 12
REMARK SMILES IDX 6 13 7 14 8 15 12 16 10 17 9 18 11 20 20 22 17 24
REMARK H PARENT 9 19 11 21 20 23 17 25
REMARK Flexibility Score: inf
ROOT
ATOM      1  C   UNL     1     -14.462  48.410  53.671  1.00  0.00     0.138 A 
ATOM      2  C   UNL     1     -13.703  47.454  54.366  1.00  0.00     0.100 A 
ATOM      3  C   UNL     1     -12.385  47.746  54.718  1.00  0.00     0.197 A 
ATOM      4  O   UNL     1     -11.714  46.882  55.344  1.00  0.00    -0.289 OA
ATOM      5  C   UNL     1     -11.835  48.996  54.374  1.00  0.00     0.107 A 
ATOM      6  C   UNL     1     -10.507  49.372  54.691  1.00  0.00     0.134 A 
ATOM      7  C   UNL     1     -10.035  50.639  54.319  1.00  0.00     0.093 A 
ATOM      8  C   UNL     1     -10.863  51.535  53.637  1.00  0.00     0.123 A 
ATOM      9  C   UNL     1     -12.175  51.170  53.321  1.00  0.00     0.094 A 
ATOM     10  C   UNL     1     -12.664  49.910  53.683  1.00  0.00     0.146 A 
ATOM     11  O   UNL     1     -13.914  49.586  53.369  1.00  0.00    -0.456 OA
ENDROOT
BRANCH   1  12
ATOM     12  C   UNL     1     -15.869  48.155  53.272  1.00  0.00     0.021 A 
ATOM     13  C   UNL     1     -16.216  47.085  52.425  1.00  0.00     0.016 A 
ATOM     14  C   UNL     1     -17.548  46.875  52.059  1.00  0.00     0.051 A 
ATOM     15  C   UNL     1     -18.552  47.729  52.520  1.00  0.00     0.157 A 
ATOM     16  C   UNL     1     -16.884  49.020  53.721  1.00  0.00     0.062 A 
ATOM     17  C   UNL     1     -18.220  48.809  53.354  1.00  0.00     0.158 A 
BRANCH  15  18
ATOM     18  O   UNL     1     -19.873  47.493  52.137  1.00  0.00    -0.504 OA
ATOM     19  H   UNL     1     -20.378  48.125  51.528  1.00  0.00     0.293 HD
ENDBRANCH  15  18
BRANCH  17  20
ATOM     20  O   UNL     1     -19.217  49.667  53.815  1.00  0.00    -0.504 OA
ATOM     21  H   UNL     1     -19.836  50.154  53.177  1.00  0.00     0.293 HD
ENDBRANCH  17  20
ENDBRANCH   1  12
BRANCH   6  22
ATOM     22  O   UNL     1      -9.658  48.498  55.372  1.00  0.00    -0.507 OA
ATOM     23  H   UNL     1      -9.741  47.492  55.278  1.00  0.00     0.293 HD
ENDBRANCH   6  22
BRANCH   8  24
ATOM     24  O   UNL     1     -10.369  52.788  53.278  1.00  0.00    -0.508 OA
ATOM     25  H   UNL     1      -9.761  52.908  52.476  1.00  0.00     0.293 HD
ENDBRANCH   8  24
TORSDOF 5
ENDMDL
MODEL 2
REMARK VINA RESULT:    -7.413      4.281      6.940
REMARK INTER + INTRA:          -8.994
REMARK INTER:                  -8.715
REMARK INTRA:                  -0.279
REMARK UNBOUND:                -0.280
REMARK SMILES O=c1cc(-c2ccc(O)c(O)c2)oc2cc(O)cc(O)c12
REMARK SMILES IDX 4 1 3 2 2 3 1 4 21 5 19 6 18 7 16 8 15 9 14 10 13 11 5 12
REMARK SMILES IDX 6 13 7 14 8 15 12 16 10 17 9 18 11 20 20 22 17 24
REMARK H PARENT 9 19 11 21 20 23 17 25
REMARK Flexibility Score: inf
ROOT
ATOM      1  C   UNL     1      -8.047  49.487  54.989  1.00  0.00     0.138 A 
ATOM      2  C   UNL     1      -7.514  49.479  56.289  1.00  0.00     0.100 A 
ATOM      3  C   UNL     1      -6.130  49.480  56.465  1.00  0.00     0.197 A 
ATOM      4  O   UNL     1      -5.662  49.476  57.635  1.00  0.00    -0.289 OA
ATOM      5  C   UNL     1      -5.286  49.493  55.336  1.00  0.00     0.107 A 
ATOM      6  C   UNL     1      -3.874  49.493  55.425  1.00  0.00     0.134 A 
ATOM      7  C   UNL     1      -3.103  49.512  54.253  1.00  0.00     0.093 A 
ATOM      8  C   UNL     1      -3.716  49.529  52.998  1.00  0.00     0.123 A 
ATOM      9  C   UNL     1      -5.112  49.529  52.903  1.00  0.00     0.094 A 
ATOM     10  C   UNL     1      -5.897  49.509  54.060  1.00  0.00     0.146 A 
ATOM     11  O   UNL     1      -7.221  49.508  53.944  1.00  0.00    -0.456 OA
ENDROOT
BRANCH   1  12
ATOM     12  C   UNL     1      -9.511  49.487  54.742  1.00  0.00     0.021 A 
ATOM     13  C   UNL     1     -10.336  48.434  55.180  1.00  0.00     0.016 A 
ATOM     14  C   UNL     1     -11.709  48.457  54.925  1.00  0.00     0.051 A 
ATOM     15  C   UNL     1     -12.281  49.521  54.224  1.00  0.00     0.157 A 
ATOM     16  C   UNL     1     -10.092  50.549  54.025  1.00  0.00     0.062 A 
ATOM     17  C   UNL     1     -11.470  50.572  53.769  1.00  0.00     0.158 A 
BRANCH  15  18
ATOM     18  O   UNL     1     -13.656  49.515  53.986  1.00  0.00    -0.504 OA
ATOM     19  H   UNL     1     -14.040  49.527  53.049  1.00  0.00     0.293 HD
ENDBRANCH  15  18
BRANCH  17  20
ATOM     20  O   UNL     1     -12.034  51.636  53.067  1.00  0.00    -0.504 OA
ATOM     21  H   UNL     1     -12.876  52.099  53.390  1.00  0.00     0.293 HD
ENDBRANCH  17  20
ENDBRANCH   1  12
BRANCH   6  22
ATOM     22  O   UNL     1      -3.233  49.476  56.665  1.00  0.00    -0.507 OA
ATOM     23  H   UNL     1      -2.584  48.740  56.920  1.00  0.00     0.293 HD
ENDBRANCH   6  22
BRANCH   8  24
ATOM     24  O   UNL     1      -2.928  49.547  51.849  1.00  0.00    -0.508 OA
ATOM     25  H   UNL     1      -2.046  50.046  51.819  1.00  0.00     0.293 HD
ENDBRANCH   8  24
TORSDOF 5
ENDMDL
MODEL 3
REMARK VINA RESULT:    -7.113      2.993      8.405
REMARK INTER + INTRA:          -8.641
REMARK INTER:                  -8.360
REMARK INTRA:                  -0.281
REMARK UNBOUND:                -0.280
REMARK SMILES O=c1cc(-c2ccc(O)c(O)c2)oc2cc(O)cc(O)c12
REMARK SMILES IDX 4 1 3 2 2 3 1 4 21 5 19 6 18 7 16 8 15 9 14 10 13 11 5 12
REMARK SMILES IDX 6 13 7 14 8 15 12 16 10 17 9 18 11 20 20 22 17 24
REMARK H PARENT 9 19 11 21 20 23 17 25
REMARK Flexibility Score: inf
ROOT
ATOM      1  C   UNL     1      -9.436  49.506  55.236  1.00  0.00     0.138 A 
ATOM      2  C   UNL     1      -9.622  50.720  54.554  1.00  0.00     0.100 A 
ATOM      3  C   UNL     1     -10.819  50.949  53.874  1.00  0.00     0.197 A 
ATOM      4  O   UNL     1     -10.977  52.043  53.267  1.00  0.00    -0.289 OA
ATOM      5  C   UNL     1     -11.824  49.962  53.884  1.00  0.00     0.107 A 
ATOM      6  C   UNL     1     -13.065  50.114  53.219  1.00  0.00     0.134 A 
ATOM      7  C   UNL     1     -14.017  49.086  53.281  1.00  0.00     0.093 A 
ATOM      8  C   UNL     1     -13.753  47.912  53.993  1.00  0.00     0.123 A 
ATOM      9  C   UNL     1     -12.529  47.757  54.651  1.00  0.00     0.094 A 
ATOM     10  C   UNL     1     -11.566  48.770  54.600  1.00  0.00     0.146 A 
ATOM     11  O   UNL     1     -10.410  48.598  55.233  1.00  0.00    -0.456 OA
ENDROOT
BRANCH   1  12
ATOM     12  C   UNL     1      -8.185  49.208  55.977  1.00  0.00     0.021 A 
ATOM     13  C   UNL     1      -7.640  47.910  56.018  1.00  0.00     0.016 A 
ATOM     14  C   UNL     1      -6.466  47.658  56.732  1.00  0.00     0.051 A 
ATOM     15  C   UNL     1      -5.821  48.687  57.423  1.00  0.00     0.157 A 
ATOM     16  C   UNL     1      -7.538  50.237  56.686  1.00  0.00     0.062 A 
ATOM     17  C   UNL     1      -6.360  49.984  57.402  1.00  0.00     0.158 A 
BRANCH  15  18
ATOM     18  O   UNL     1      -4.649  48.403  58.125  1.00  0.00    -0.504 OA
ATOM     19  H   UNL     1      -3.733  48.503  57.705  1.00  0.00     0.293 HD
ENDBRANCH  15  18
BRANCH  17  20
ATOM     20  O   UNL     1      -5.723  51.014  58.091  1.00  0.00    -0.504 OA
ATOM     21  H   UNL     1      -4.838  50.870  58.562  1.00  0.00     0.293 HD
ENDBRANCH  17  20
ENDBRANCH   1  12
BRANCH   6  22
ATOM     22  O   UNL     1     -13.357  51.274  52.501  1.00  0.00    -0.507 OA
ATOM     23  H   UNL     1     -14.058  51.935  52.817  1.00  0.00     0.293 HD
ENDBRANCH   6  22
BRANCH   8  24
ATOM     24  O   UNL     1     -14.716  46.906  54.039  1.00  0.00    -0.508 OA
ATOM     25  H   UNL     1     -15.538  46.986  54.626  1.00  0.00     0.293 HD
ENDBRANCH   8  24
TORSDOF 5
ENDMDL
MODEL 4
REMARK VINA RESULT:    -7.101     19.139     21.534
REMARK INTER + INTRA:          -8.626
REMARK INTER:                  -8.364
REMARK INTRA:                  -0.263
REMARK UNBOUND:                -0.280
REMARK SMILES O=c1cc(-c2ccc(O)c(O)c2)oc2cc(O)cc(O)c12
REMARK SMILES IDX 4 1 3 2 2 3 1 4 21 5 19 6 18 7 16 8 15 9 14 10 13 11 5 12
REMARK SMILES IDX 6 13 7 14 8 15 12 16 10 17 9 18 11 20 20 22 17 24
REMARK H PARENT 9 19 11 21 20 23 17 25
REMARK Flexibility Score: inf
ROOT
ATOM      1  C   UNL     1     -11.819  62.914  39.299  1.00  0.00     0.138 A 
ATOM      2  C   UNL     1     -11.818  61.511  39.236  1.00  0.00     0.100 A 
ATOM      3  C   UNL     1     -12.995  60.835  38.911  1.00  0.00     0.197 A 
ATOM      4  O   UNL     1     -12.982  59.577  38.855  1.00  0.00    -0.289 OA
ATOM      5  C   UNL     1     -14.167  61.571  38.647  1.00  0.00     0.107 A 
ATOM      6  C   UNL     1     -15.402  60.966  38.312  1.00  0.00     0.134 A 
ATOM      7  C   UNL     1     -16.524  61.769  38.058  1.00  0.00     0.093 A 
ATOM      8  C   UNL     1     -16.434  63.162  38.132  1.00  0.00     0.123 A 
ATOM      9  C   UNL     1     -15.217  63.765  38.463  1.00  0.00     0.094 A 
ATOM     10  C   UNL     1     -14.088  62.982  38.721  1.00  0.00     0.146 A 
ATOM     11  O   UNL     1     -12.943  63.579  39.035  1.00  0.00    -0.456 OA
ENDROOT
BRANCH   1  12
ATOM     12  C   UNL     1     -10.596  63.684  39.638  1.00  0.00     0.021 A 
ATOM     13  C   UNL     1     -10.382  64.201  40.930  1.00  0.00     0.016 A 
ATOM     14  C   UNL     1      -9.226  64.931  41.218  1.00  0.00     0.051 A 
ATOM     15  C   UNL     1      -8.271  65.165  40.226  1.00  0.00     0.157 A 
ATOM     16  C   UNL     1      -9.638  63.936  38.640  1.00  0.00     0.062 A 
ATOM     17  C   UNL     1      -8.477  64.668  38.929  1.00  0.00     0.158 A 
BRANCH  15  18
ATOM     18  O   UNL     1      -7.126  65.896  40.545  1.00  0.00    -0.504 OA
ATOM     19  H   UNL     1      -6.589  66.388  39.841  1.00  0.00     0.293 HD
ENDBRANCH  15  18
BRANCH  17  20
ATOM     20  O   UNL     1      -7.530  64.901  37.934  1.00  0.00    -0.504 OA
ATOM     21  H   UNL     1      -7.266  64.179  37.273  1.00  0.00     0.293 HD
ENDBRANCH  17  20
ENDBRANCH   1  12
BRANCH   6  22
ATOM     22  O   UNL     1     -15.522  59.578  38.230  1.00  0.00    -0.507 OA
ATOM     23  H   UNL     1     -14.724  58.985  38.035  1.00  0.00     0.293 HD
ENDBRANCH   6  22
BRANCH   8  24
ATOM     24  O   UNL     1     -17.564  63.937  37.875  1.00  0.00    -0.508 OA
ATOM     25  H   UNL     1     -18.212  63.699  37.134  1.00  0.00     0.293 HD
ENDBRANCH   8  24
TORSDOF 5
ENDMDL
MODEL 5
REMARK VINA RESULT:    -6.995      1.163      2.690
REMARK INTER + INTRA:          -8.503
REMARK INTER:                  -8.240
REMARK INTRA:                  -0.263
REMARK UNBOUND:                -0.280
REMARK SMILES O=c1cc(-c2ccc(O)c(O)c2)oc2cc(O)cc(O)c12
REMARK SMILES IDX 4 1 3 2 2 3 1 4 21 5 19 6 18 7 16 8 15 9 14 10 13 11 5 12
REMARK SMILES IDX 6 13 7 14 8 15 12 16 10 17 9 18 11 20 20 22 17 24
REMARK H PARENT 9 19 11 21 20 23 17 25
REMARK Flexibility Score: inf
ROOT
ATOM      1  C   UNL     1     -14.129  48.840  53.532  1.00  0.00     0.138 A 
ATOM      2  C   UNL     1     -13.594  50.043  53.043  1.00  0.00     0.100 A 
ATOM      3  C   UNL     1     -12.288  50.402  53.380  1.00  0.00     0.197 A 
ATOM      4  O   UNL     1     -11.816  51.482  52.934  1.00  0.00    -0.289 OA
ATOM      5  C   UNL     1     -11.525  49.551  54.204  1.00  0.00     0.107 A 
ATOM      6  C   UNL     1     -10.195  49.839  54.595  1.00  0.00     0.134 A 
ATOM      7  C   UNL     1      -9.499  48.937  55.413  1.00  0.00     0.093 A 
ATOM      8  C   UNL     1     -10.106  47.755  55.846  1.00  0.00     0.123 A 
ATOM      9  C   UNL     1     -11.420  47.465  55.464  1.00  0.00     0.094 A 
ATOM     10  C   UNL     1     -12.130  48.352  54.649  1.00  0.00     0.146 A 
ATOM     11  O   UNL     1     -13.378  48.054  54.300  1.00  0.00    -0.456 OA
ENDROOT
BRANCH   1  12
ATOM     12  C   UNL     1     -15.512  48.408  53.204  1.00  0.00     0.021 A 
ATOM     13  C   UNL     1     -15.765  47.252  52.442  1.00  0.00     0.016 A 
ATOM     14  C   UNL     1     -17.076  46.875  52.142  1.00  0.00     0.051 A 
ATOM     15  C   UNL     1     -18.154  47.646  52.585  1.00  0.00     0.157 A 
ATOM     16  C   UNL     1     -16.601  49.187  53.636  1.00  0.00     0.062 A 
ATOM     17  C   UNL     1     -17.917  48.809  53.334  1.00  0.00     0.158 A 
BRANCH  15  18
ATOM     18  O   UNL     1     -19.452  47.242  52.270  1.00  0.00    -0.504 OA
ATOM     19  H   UNL     1     -19.982  47.672  51.522  1.00  0.00     0.293 HD
ENDBRANCH  15  18
BRANCH  17  20
ATOM     20  O   UNL     1     -18.987  49.584  53.778  1.00  0.00    -0.504 OA
ATOM     21  H   UNL     1     -19.923  49.202  53.856  1.00  0.00     0.293 HD
ENDBRANCH  17  20
ENDBRANCH   1  12
BRANCH   6  22
ATOM     22  O   UNL     1      -9.563  51.011  54.177  1.00  0.00    -0.507 OA
ATOM     23  H   UNL     1     -10.036  51.695  53.597  1.00  0.00     0.293 HD
ENDBRANCH   6  22
BRANCH   8  24
ATOM     24  O   UNL     1      -9.394  46.875  56.659  1.00  0.00    -0.508 OA
ATOM     25  H   UNL     1      -9.797  46.490  57.504  1.00  0.00     0.293 HD
ENDBRANCH   8  24
TORSDOF 5
ENDMDL
MODEL 6
REMARK VINA RESULT:    -6.649     17.911     21.117
REMARK INTER + INTRA:          -8.095
REMARK INTER:                  -7.806
REMARK INTRA:                  -0.289
REMARK UNBOUND:                -0.280
REMARK SMILES O=c1cc(-c2ccc(O)c(O)c2)oc2cc(O)cc(O)c12
REMARK SMILES IDX 4 1 3 2 2 3 1 4 21 5 19 6 18 7 16 8 15 9 14 10 13 11 5 12
REMARK SMILES IDX 6 13 7 14 8 15 12 16 10 17 9 18 11 20 20 22 17 24
REMARK H PARENT 9 19 11 21 20 23 17 25
REMARK Flexibility Score: inf
ROOT
ATOM      1  C   UNL     1      -9.858  63.263  40.018  1.00  0.00     0.138 A 
ATOM      2  C   UNL     1      -9.822  62.824  41.352  1.00  0.00     0.100 A 
ATOM      3  C   UNL     1     -10.762  61.892  41.795  1.00  0.00     0.197 A 
ATOM      4  O   UNL     1     -10.719  61.503  42.993  1.00  0.00    -0.289 OA
ATOM      5  C   UNL     1     -11.732  61.403  40.898  1.00  0.00     0.107 A 
ATOM      6  C   UNL     1     -12.721  60.460  41.265  1.00  0.00     0.134 A 
ATOM      7  C   UNL     1     -13.649  60.018  40.311  1.00  0.00     0.093 A 
ATOM      8  C   UNL     1     -13.607  60.500  39.000  1.00  0.00     0.123 A 
ATOM      9  C   UNL     1     -12.632  61.432  38.631  1.00  0.00     0.094 A 
ATOM     10  C   UNL     1     -11.698  61.886  39.568  1.00  0.00     0.146 A 
ATOM     11  O   UNL     1     -10.783  62.774  39.194  1.00  0.00    -0.456 OA
ENDROOT
BRANCH   1  12
ATOM     12  C   UNL     1      -8.883  64.251  39.492  1.00  0.00     0.021 A 
ATOM     13  C   UNL     1      -9.161  65.031  38.353  1.00  0.00     0.016 A 
ATOM     14  C   UNL     1      -8.220  65.946  37.875  1.00  0.00     0.051 A 
ATOM     15  C   UNL     1      -6.987  66.093  38.514  1.00  0.00     0.157 A 
ATOM     16  C   UNL     1      -7.634  64.394  40.123  1.00  0.00     0.062 A 
ATOM     17  C   UNL     1      -6.689  65.313  39.643  1.00  0.00     0.158 A 
BRANCH  15  18
ATOM     18  O   UNL     1      -6.068  67.017  38.014  1.00  0.00    -0.504 OA
ATOM     19  H   UNL     1      -5.410  66.778  37.282  1.00  0.00     0.293 HD
ENDBRANCH  15  18
BRANCH  17  20
ATOM     20  O   UNL     1      -5.460  65.453  40.284  1.00  0.00    -0.504 OA
ATOM     21  H   UNL     1      -4.592  65.192  39.831  1.00  0.00     0.293 HD
ENDBRANCH  17  20
ENDBRANCH   1  12
BRANCH   6  22
ATOM     22  O   UNL     1     -12.788  59.960  42.567  1.00  0.00    -0.507 OA
ATOM     23  H   UNL     1     -13.337  60.417  43.286  1.00  0.00     0.293 HD
ENDBRANCH   6  22
BRANCH   8  24
ATOM     24  O   UNL     1     -14.540  60.045  38.071  1.00  0.00    -0.508 OA
ATOM     25  H   UNL     1     -15.163  59.273  38.280  1.00  0.00     0.293 HD
ENDBRANCH   8  24
TORSDOF 5
ENDMDL
MODEL 7
REMARK VINA RESULT:    -6.606     18.378     21.364
REMARK INTER + INTRA:          -8.045
REMARK INTER:                  -7.781
REMARK INTRA:                  -0.264
REMARK UNBOUND:                -0.280
REMARK SMILES O=c1cc(-c2ccc(O)c(O)c2)oc2cc(O)cc(O)c12
REMARK SMILES IDX 4 1 3 2 2 3 1 4 21 5 19 6 18 7 16 8 15 9 14 10 13 11 5 12
REMARK SMILES IDX 6 13 7 14 8 15 12 16 10 17 9 18 11 20 20 22 17 24
REMARK H PARENT 9 19 11 21 20 23 17 25
REMARK Flexibility Score: inf
ROOT
ATOM      1  C   UNL     1     -10.738  63.345  39.768  1.00  0.00     0.138 A 
ATOM      2  C   UNL     1     -10.579  62.009  40.171  1.00  0.00     0.100 A 
ATOM      3  C   UNL     1     -11.648  61.120  40.043  1.00  0.00     0.197 A 
ATOM      4  O   UNL     1     -11.493  59.923  40.405  1.00  0.00    -0.289 OA
ATOM      5  C   UNL     1     -12.870  61.576  39.510  1.00  0.00     0.107 A 
ATOM      6  C   UNL     1     -14.002  60.742  39.349  1.00  0.00     0.134 A 
ATOM      7  C   UNL     1     -15.183  61.271  38.805  1.00  0.00     0.093 A 
ATOM      8  C   UNL     1     -15.251  62.612  38.420  1.00  0.00     0.123 A 
ATOM      9  C   UNL     1     -14.135  63.441  38.577  1.00  0.00     0.094 A 
ATOM     10  C   UNL     1     -12.950  62.933  39.119  1.00  0.00     0.146 A 
ATOM     11  O   UNL     1     -11.904  63.740  39.260  1.00  0.00    -0.456 OA
ENDROOT
BRANCH   1  12
ATOM     12  C   UNL     1      -9.635  64.333  39.879  1.00  0.00     0.021 A 
ATOM     13  C   UNL     1      -8.697  64.515  38.846  1.00  0.00     0.016 A 
ATOM     14  C   UNL     1      -7.664  65.445  38.983  1.00  0.00     0.051 A 
ATOM     15  C   UNL     1      -7.543  66.202  40.151  1.00  0.00     0.157 A 
ATOM     16  C   UNL     1      -9.500  65.089  41.058  1.00  0.00     0.062 A 
ATOM     17  C   UNL     1      -8.464  66.023  41.196  1.00  0.00     0.158 A 
BRANCH  15  18
ATOM     18  O   UNL     1      -6.502  67.125  40.257  1.00  0.00    -0.504 OA
ATOM     19  H   UNL     1      -5.563  66.848  40.517  1.00  0.00     0.293 HD
ENDBRANCH  15  18
BRANCH  17  20
ATOM     20  O   UNL     1      -8.347  66.773  42.365  1.00  0.00    -0.504 OA
ATOM     21  H   UNL     1      -7.769  66.465  43.138  1.00  0.00     0.293 HD
ENDBRANCH  17  20
ENDBRANCH   1  12
BRANCH   6  22
ATOM     22  O   UNL     1     -13.964  59.398  39.723  1.00  0.00    -0.507 OA
ATOM     23  H   UNL     1     -14.189  59.101  40.666  1.00  0.00     0.293 HD
ENDBRANCH   6  22
BRANCH   8  24
ATOM     24  O   UNL     1     -16.435  63.113  37.882  1.00  0.00    -0.508 OA
ATOM     25  H   UNL     1     -16.826  63.995  38.190  1.00  0.00     0.293 HD
ENDBRANCH   8  24
TORSDOF 5
ENDMDL
MODEL 8
REMARK VINA RESULT:    -6.034     18.867     20.736
REMARK INTER + INTRA:          -7.373
REMARK INTER:                  -7.109
REMARK INTRA:                  -0.264
REMARK UNBOUND:                -0.280
REMARK SMILES O=c1cc(-c2ccc(O)c(O)c2)oc2cc(O)cc(O)c12
REMARK SMILES IDX 4 1 3 2 2 3 1 4 21 5 19 6 18 7 16 8 15 9 14 10 13 11 5 12
REMARK SMILES IDX 6 13 7 14 8 15 12 16 10 17 9 18 11 20 20 22 17 24
REMARK H PARENT 9 19 11 21 20 23 17 25
REMARK Flexibility Score: inf
ROOT
ATOM      1  C   UNL     1     -11.008  63.393  39.471  1.00  0.00     0.138 A 
ATOM      2  C   UNL     1     -10.001  63.538  38.501  1.00  0.00     0.100 A 
ATOM      3  C   UNL     1      -8.926  64.392  38.750  1.00  0.00     0.197 A 
ATOM      4  O   UNL     1      -8.027  64.513  37.875  1.00  0.00    -0.289 OA
ATOM      5  C   UNL     1      -8.863  65.094  39.970  1.00  0.00     0.107 A 
ATOM      6  C   UNL     1      -7.810  65.980  40.301  1.00  0.00     0.134 A 
ATOM      7  C   UNL     1      -7.818  66.637  41.540  1.00  0.00     0.093 A 
ATOM      8  C   UNL     1      -8.856  66.426  42.452  1.00  0.00     0.123 A 
ATOM      9  C   UNL     1      -9.899  65.552  42.130  1.00  0.00     0.094 A 
ATOM     10  C   UNL     1      -9.910  64.888  40.900  1.00  0.00     0.146 A 
ATOM     11  O   UNL     1     -10.914  64.064  40.617  1.00  0.00    -0.456 OA
ENDROOT
BRANCH   1  12
ATOM     12  C   UNL     1     -12.174  62.498  39.261  1.00  0.00     0.021 A 
ATOM     13  C   UNL     1     -12.076  61.103  39.427  1.00  0.00     0.016 A 
ATOM     14  C   UNL     1     -13.188  60.285  39.213  1.00  0.00     0.051 A 
ATOM     15  C   UNL     1     -14.410  60.839  38.823  1.00  0.00     0.157 A 
ATOM     16  C   UNL     1     -13.404  63.047  38.855  1.00  0.00     0.062 A 
ATOM     17  C   UNL     1     -14.520  62.226  38.640  1.00  0.00     0.158 A 
BRANCH  15  18
ATOM     18  O   UNL     1     -15.503  59.995  38.618  1.00  0.00    -0.504 OA
ATOM     19  H   UNL     1     -15.464  59.210  37.980  1.00  0.00     0.293 HD
ENDBRANCH  15  18
BRANCH  17  20
ATOM     20  O   UNL     1     -15.735  62.785  38.249  1.00  0.00    -0.504 OA
ATOM     21  H   UNL     1     -16.222  63.458  38.829  1.00  0.00     0.293 HD
ENDBRANCH  17  20
ENDBRANCH   1  12
BRANCH   6  22
ATOM     22  O   UNL     1      -6.760  66.210  39.411  1.00  0.00    -0.507 OA
ATOM     23  H   UNL     1      -6.179  67.038  39.475  1.00  0.00     0.293 HD
ENDBRANCH   6  22
BRANCH   8  24
ATOM     24  O   UNL     1      -8.839  67.092  43.676  1.00  0.00    -0.508 OA
ATOM     25  H   UNL     1      -8.837  66.586  44.554  1.00  0.00     0.293 HD
ENDBRANCH   8  24
TORSDOF 5
ENDMDL
MODEL 9
REMARK VINA RESULT:    -6.030     18.005     19.642
REMARK INTER + INTRA:          -7.367
REMARK INTER:                  -7.075
REMARK INTRA:                  -0.292
REMARK UNBOUND:                -0.280
REMARK SMILES O=c1cc(-c2ccc(O)c(O)c2)oc2cc(O)cc(O)c12
REMARK SMILES IDX 4 1 3 2 2 3 1 4 21 5 19 6 18 7 16 8 15 9 14 10 13 11 5 12
REMARK SMILES IDX 6 13 7 14 8 15 12 16 10 17 9 18 11 20 20 22 17 24
REMARK H PARENT 9 19 11 21 20 23 17 25
REMARK Flexibility Score: inf
ROOT
ATOM      1  C   UNL     1     -13.407  61.926  39.339  1.00  0.00     0.138 A 
ATOM      2  C   UNL     1     -12.816  61.143  40.345  1.00  0.00     0.100 A 
ATOM      3  C   UNL     1     -11.477  61.349  40.678  1.00  0.00     0.197 A 
ATOM      4  O   UNL     1     -10.957  60.643  41.583  1.00  0.00    -0.289 OA
ATOM      5  C   UNL     1     -10.738  62.341  40.005  1.00  0.00     0.107 A 
ATOM      6  C   UNL     1      -9.377  62.613  40.281  1.00  0.00     0.134 A 
ATOM      7  C   UNL     1      -8.711  63.623  39.569  1.00  0.00     0.093 A 
ATOM      8  C   UNL     1      -9.380  64.363  38.590  1.00  0.00     0.123 A 
ATOM      9  C   UNL     1     -10.725  64.099  38.313  1.00  0.00     0.094 A 
ATOM     10  C   UNL     1     -11.405  63.095  39.011  1.00  0.00     0.146 A 
ATOM     11  O   UNL     1     -12.683  62.862  38.729  1.00  0.00    -0.456 OA
ENDROOT
BRANCH   1  12
ATOM     12  C   UNL     1     -14.828  61.752  38.944  1.00  0.00     0.021 A 
ATOM     13  C   UNL     1     -15.523  62.743  38.225  1.00  0.00     0.016 A 
ATOM     14  C   UNL     1     -16.862  62.555  37.875  1.00  0.00     0.051 A 
ATOM     15  C   UNL     1     -17.533  61.385  38.241  1.00  0.00     0.157 A 
ATOM     16  C   UNL     1     -15.512  60.582  39.321  1.00  0.00     0.062 A 
ATOM     17  C   UNL     1     -16.856  60.393  38.969  1.00  0.00     0.158 A 
BRANCH  15  18
ATOM     18  O   UNL     1     -18.870  61.226  37.875  1.00  0.00    -0.504 OA
ATOM     19  H   UNL     1     -19.144  60.703  37.053  1.00  0.00     0.293 HD
ENDBRANCH  15  18
BRANCH  17  20
ATOM     20  O   UNL     1     -17.520  59.225  39.339  1.00  0.00    -0.504 OA
ATOM     21  H   UNL     1     -18.322  58.884  38.823  1.00  0.00     0.293 HD
ENDBRANCH  17  20
ENDBRANCH   1  12
BRANCH   6  22
ATOM     22  O   UNL     1      -8.683  61.891  41.253  1.00  0.00    -0.507 OA
ATOM     23  H   UNL     1      -7.872  61.329  41.022  1.00  0.00     0.293 HD
ENDBRANCH   6  22
BRANCH   8  24
ATOM     24  O   UNL     1      -8.696  65.361  37.898  1.00  0.00    -0.508 OA
ATOM     25  H   UNL     1      -7.729  65.581  38.104  1.00  0.00     0.293 HD
ENDBRANCH   8  24
TORSDOF 5
ENDMDL
