MODEL 1
REMARK VINA RESULT:    -4.772      0.000      0.000
REMARK INTER + INTRA:          -5.060
REMARK INTER:                  -5.051
REMARK INTRA:                  -0.009
REMARK UNBOUND:                -0.009
REMARK SMILES O=Cc1ccccc1
REMARK SMILES IDX 6 1 5 2 4 3 3 4 8 5 7 6 2 7 1 8
REMARK H PARENT
REMARK Flexibility Score: inf
ROOT
ATOM      1  C   UNL     1     -10.754   2.546  -9.547  1.00  0.00     0.000 A 
ATOM      2  C   UNL     1     -10.873   1.159  -9.675  1.00  0.00     0.001 A 
ATOM      3  C   UNL     1     -12.137   0.562  -9.684  1.00  0.00     0.011 A 
ATOM      4  C   UNL     1     -13.295   1.349  -9.563  1.00  0.00     0.014 A 
ATOM      5  C   UNL     1     -13.167   2.744  -9.434  1.00  0.00     0.011 A 
ATOM      6  C   UNL     1     -11.900   3.337  -9.425  1.00  0.00     0.001 A 
ENDROOT
BRANCH   4   7
ATOM      7  C   UNL     1     -14.619   0.702  -9.574  1.00  0.00     0.260 C 
ATOM      8  O   UNL     1     -15.373   0.747  -8.566  1.00  0.00    -0.298 OA
ENDBRANCH   4   7
TORSDOF 1
ENDMDL
MODEL 2
REMARK VINA RESULT:    -4.604      2.122      3.126
REMARK INTER + INTRA:          -4.882
REMARK INTER:                  -4.874
REMARK INTRA:                  -0.009
REMARK UNBOUND:                -0.009
REMARK SMILES O=Cc1ccccc1
REMARK SMILES IDX 6 1 5 2 4 3 3 4 8 5 7 6 2 7 1 8
REMARK H PARENT
REMARK Flexibility Score: inf
ROOT
ATOM      1  C   UNL     1     -13.030   2.960  -9.283  1.00  0.00     0.000 A 
ATOM      2  C   UNL     1     -11.640   3.104  -9.298  1.00  0.00     0.001 A 
ATOM      3  C   UNL     1     -10.821   1.994  -9.526  1.00  0.00     0.011 A 
ATOM      4  C   UNL     1     -11.389   0.726  -9.739  1.00  0.00     0.014 A 
ATOM      5  C   UNL     1     -12.789   0.589  -9.723  1.00  0.00     0.011 A 
ATOM      6  C   UNL     1     -13.603   1.703  -9.494  1.00  0.00     0.001 A 
ENDROOT
BRANCH   4   7
ATOM      7  C   UNL     1     -10.512  -0.434  -9.977  1.00  0.00     0.260 C 
ATOM      8  O   UNL     1     -10.095  -1.141  -9.022  1.00  0.00    -0.298 OA
ENDBRANCH   4   7
TORSDOF 1
ENDMDL
MODEL 3
REMARK VINA RESULT:    -4.542      2.390      3.765
REMARK INTER + INTRA:          -4.817
REMARK INTER:                  -4.804
REMARK INTRA:                  -0.012
REMARK UNBOUND:                -0.009
REMARK SMILES O=Cc1ccccc1
REMARK SMILES IDX 6 1 5 2 4 3 3 4 8 5 7 6 2 7 1 8
REMARK H PARENT
REMARK Flexibility Score: inf
ROOT
ATOM      1  C   UNL     1     -13.505  -0.036  -9.789  1.00  0.00     0.000 A 
ATOM      2  C   UNL     1     -14.011   1.259  -9.645  1.00  0.00     0.001 A 
ATOM      3  C   UNL     1     -13.136   2.344  -9.525  1.00  0.00     0.011 A 
ATOM      4  C   UNL     1     -11.747   2.141  -9.546  1.00  0.00     0.014 A 
ATOM      5  C   UNL     1     -11.246   0.834  -9.691  1.00  0.00     0.011 A 
ATOM      6  C   UNL     1     -12.124  -0.248  -9.811  1.00  0.00     0.001 A 
ENDROOT
BRANCH   4   7
ATOM      7  C   UNL     1     -10.840   3.295  -9.418  1.00  0.00     0.260 C 
ATOM      8  O   UNL     1      -9.637   3.221  -9.784  1.00  0.00    -0.298 OA
ENDBRANCH   4   7
TORSDOF 1
ENDMDL
MODEL 4
REMARK VINA RESULT:    -4.414      1.562      2.686
REMARK INTER + INTRA:          -4.681
REMARK INTER:                  -4.671
REMARK INTRA:                  -0.010
REMARK UNBOUND:                -0.009
REMARK SMILES O=Cc1ccccc1
REMARK SMILES IDX 6 1 5 2 4 3 3 4 8 5 7 6 2 7 1 8
REMARK H PARENT
REMARK Flexibility Score: inf
ROOT
ATOM      1  C   UNL     1     -11.811  -0.599  -9.872  1.00  0.00     0.000 A 
ATOM      2  C   UNL     1     -10.777   0.335  -9.763  1.00  0.00     0.001 A 
ATOM      3  C   UNL     1     -11.071   1.689  -9.574  1.00  0.00     0.011 A 
ATOM      4  C   UNL     1     -12.406   2.120  -9.493  1.00  0.00     0.014 A 
ATOM      5  C   UNL     1     -13.441   1.174  -9.603  1.00  0.00     0.011 A 
ATOM      6  C   UNL     1     -13.142  -0.180  -9.793  1.00  0.00     0.001 A 
ENDROOT
BRANCH   4   7
ATOM      7  C   UNL     1     -12.698   3.550  -9.294  1.00  0.00     0.260 C 
ATOM      8  O   UNL     1     -13.514   3.931  -8.413  1.00  0.00    -0.298 OA
ENDBRANCH   4   7
TORSDOF 1
ENDMDL
MODEL 5
REMARK VINA RESULT:    -4.064     17.363     17.766
REMARK INTER + INTRA:          -4.311
REMARK INTER:                  -4.300
REMARK INTRA:                  -0.010
REMARK UNBOUND:                -0.009
REMARK SMILES O=Cc1ccccc1
REMARK SMILES IDX 6 1 5 2 4 3 3 4 8 5 7 6 2 7 1 8
REMARK H PARENT
REMARK Flexibility Score: inf
ROOT
ATOM      1  C   UNL     1     -12.021   3.423   9.661  1.00  0.00     0.000 A 
ATOM      2  C   UNL     1     -11.415   4.682   9.667  1.00  0.00     0.001 A 
ATOM      3  C   UNL     1     -10.816   5.178   8.505  1.00  0.00     0.011 A 
ATOM      4  C   UNL     1     -10.817   4.414   7.326  1.00  0.00     0.014 A 
ATOM      5  C   UNL     1     -11.428   3.147   7.328  1.00  0.00     0.011 A 
ATOM      6  C   UNL     1     -12.026   2.656   8.493  1.00  0.00     0.001 A 
ENDROOT
BRANCH   4   7
ATOM      7  C   UNL     1     -10.180   4.951   6.110  1.00  0.00     0.260 C 
ATOM      8  O   UNL     1     -10.778   4.936   5.001  1.00  0.00    -0.298 OA
ENDBRANCH   4   7
TORSDOF 1
ENDMDL
MODEL 6
REMARK VINA RESULT:    -4.057     17.387     17.728
REMARK INTER + INTRA:          -4.303
REMARK INTER:                  -4.292
REMARK INTRA:                  -0.011
REMARK UNBOUND:                -0.009
REMARK SMILES O=Cc1ccccc1
REMARK SMILES IDX 6 1 5 2 4 3 3 4 8 5 7 6 2 7 1 8
REMARK H PARENT
REMARK Flexibility Score: inf
ROOT
ATOM      1  C   UNL     1     -12.021   3.374   9.692  1.00  0.00     0.000 A 
ATOM      2  C   UNL     1     -12.014   2.618   8.517  1.00  0.00     0.001 A 
ATOM      3  C   UNL     1     -11.428   3.131   7.356  1.00  0.00     0.011 A 
ATOM      4  C   UNL     1     -10.844   4.409   7.361  1.00  0.00     0.014 A 
ATOM      5  C   UNL     1     -10.855   5.164   8.548  1.00  0.00     0.011 A 
ATOM      6  C   UNL     1     -11.442   4.646   9.707  1.00  0.00     0.001 A 
ENDROOT
BRANCH   4   7
ATOM      7  C   UNL     1     -10.231   4.934   6.128  1.00  0.00     0.260 C 
ATOM      8  O   UNL     1     -10.818   4.837   5.018  1.00  0.00    -0.298 OA
ENDBRANCH   4   7
TORSDOF 1
ENDMDL
MODEL 7
REMARK VINA RESULT:    -3.934     16.551     16.866
REMARK INTER + INTRA:          -4.173
REMARK INTER:                  -4.159
REMARK INTRA:                  -0.014
REMARK UNBOUND:                -0.009
REMARK SMILES O=Cc1ccccc1
REMARK SMILES IDX 6 1 5 2 4 3 3 4 8 5 7 6 2 7 1 8
REMARK H PARENT
REMARK Flexibility Score: inf
ROOT
ATOM      1  C   UNL     1     -11.713   3.719   9.182  1.00  0.00     0.000 A 
ATOM      2  C   UNL     1     -12.186   2.788   8.253  1.00  0.00     0.001 A 
ATOM      3  C   UNL     1     -11.991   3.000   6.884  1.00  0.00     0.011 A 
ATOM      4  C   UNL     1     -11.321   4.150   6.434  1.00  0.00     0.014 A 
ATOM      5  C   UNL     1     -10.848   5.083   7.375  1.00  0.00     0.011 A 
ATOM      6  C   UNL     1     -11.045   4.865   8.743  1.00  0.00     0.001 A 
ENDROOT
BRANCH   4   7
ATOM      7  C   UNL     1     -11.125   4.359   4.988  1.00  0.00     0.260 C 
ATOM      8  O   UNL     1     -11.459   3.477   4.152  1.00  0.00    -0.298 OA
ENDBRANCH   4   7
TORSDOF 1
ENDMDL
MODEL 8
REMARK VINA RESULT:    -3.871     15.484     15.796
REMARK INTER + INTRA:          -4.107
REMARK INTER:                  -4.099
REMARK INTRA:                  -0.009
REMARK UNBOUND:                -0.009
REMARK SMILES O=Cc1ccccc1
REMARK SMILES IDX 6 1 5 2 4 3 3 4 8 5 7 6 2 7 1 8
REMARK H PARENT
REMARK Flexibility Score: inf
ROOT
ATOM      1  C   UNL     1     -10.902   4.561   7.882  1.00  0.00     0.000 A 
ATOM      2  C   UNL     1     -10.356   5.107   6.717  1.00  0.00     0.001 A 
ATOM      3  C   UNL     1     -10.959   4.863   5.479  1.00  0.00     0.011 A 
ATOM      4  C   UNL     1     -12.115   4.068   5.397  1.00  0.00     0.014 A 
ATOM      5  C   UNL     1     -12.658   3.522   6.575  1.00  0.00     0.011 A 
ATOM      6  C   UNL     1     -12.051   3.769   7.811  1.00  0.00     0.001 A 
ENDROOT
BRANCH   4   7
ATOM      7  C   UNL     1     -12.737   3.821   4.085  1.00  0.00     0.260 C 
ATOM      8  O   UNL     1     -13.697   4.527   3.676  1.00  0.00    -0.298 OA
ENDBRANCH   4   7
TORSDOF 1
ENDMDL
MODEL 9
REMARK VINA RESULT:    -2.177      3.101      4.271
REMARK INTER + INTRA:          -2.314
REMARK INTER:                  -2.302
REMARK INTRA:                  -0.012
REMARK UNBOUND:                -0.009
REMARK SMILES O=Cc1ccccc1
REMARK SMILES IDX 6 1 5 2 4 3 3 4 8 5 7 6 2 7 1 8
REMARK H PARENT
REMARK Flexibility Score: inf
ROOT
ATOM      1  C   UNL     1     -15.016   0.893  -9.078  1.00  0.00     0.000 A 
ATOM      2  C   UNL     1     -13.989   0.234  -9.760  1.00  0.00     0.001 A 
ATOM      3  C   UNL     1     -14.027  -1.156  -9.912  1.00  0.00     0.011 A 
ATOM      4  C   UNL     1     -15.095  -1.898  -9.381  1.00  0.00     0.014 A 
ATOM      5  C   UNL     1     -16.125  -1.227  -8.697  1.00  0.00     0.011 A 
ATOM      6  C   UNL     1     -16.082   0.163  -8.547  1.00  0.00     0.001 A 
ENDROOT
BRANCH   4   7
ATOM      7  C   UNL     1     -15.119  -3.362  -9.550  1.00  0.00     0.260 C 
ATOM      8  O   UNL     1     -15.749  -4.100  -8.746  1.00  0.00    -0.298 OA
ENDBRANCH   4   7
TORSDOF 1
ENDMDL
