MODEL 1
REMARK VINA RESULT:    -6.930      0.000      0.000
REMARK INTER + INTRA:          -8.679
REMARK INTER:                  -8.348
REMARK INTRA:                  -0.331
REMARK UNBOUND:                -0.331
REMARK SMILES O=c1c(O)c(-c2ccc(O)c(O)c2)oc2cc(O)cc(O)c12
REMARK SMILES IDX 5 1 3 2 2 3 1 4 22 5 20 6 19 7 17 8 16 9 15 10 14 11 6 12
REMARK SMILES IDX 7 13 8 14 9 15 13 16 11 17 10 18 12 20 4 22 21 24 18 26
REMARK H PARENT 10 19 12 21 4 23 21 25 18 27
REMARK Flexibility Score: inf
ROOT
ATOM      1  C   UNL     1      25.587  40.151  31.754  1.00  0.00     0.180 A 
ATOM      2  C   UNL     1      26.350  39.143  31.139  1.00  0.00     0.208 A 
ATOM      3  C   UNL     1      26.820  38.074  31.919  1.00  0.00     0.238 A 
ATOM      4  O   UNL     1      27.548  37.203  31.374  1.00  0.00    -0.285 OA
ATOM      5  C   UNL     1      26.508  38.017  33.299  1.00  0.00     0.111 A 
ATOM      6  C   UNL     1      26.899  36.960  34.175  1.00  0.00     0.134 A 
ATOM      7  C   UNL     1      26.647  37.073  35.547  1.00  0.00     0.093 A 
ATOM      8  C   UNL     1      25.961  38.174  36.066  1.00  0.00     0.123 A 
ATOM      9  C   UNL     1      25.525  39.183  35.211  1.00  0.00     0.094 A 
ATOM     10  C   UNL     1      25.793  39.116  33.842  1.00  0.00     0.146 A 
ATOM     11  O   UNL     1      25.368  40.104  33.063  1.00  0.00    -0.452 OA
ENDROOT
BRANCH   1  12
ATOM     12  C   UNL     1      25.035  41.296  30.995  1.00  0.00     0.025 A 
ATOM     13  C   UNL     1      23.758  41.239  30.409  1.00  0.00     0.016 A 
ATOM     14  C   UNL     1      23.249  42.340  29.717  1.00  0.00     0.051 A 
ATOM     15  C   UNL     1      23.999  43.519  29.610  1.00  0.00     0.157 A 
ATOM     16  C   UNL     1      25.776  42.486  30.902  1.00  0.00     0.062 A 
ATOM     17  C   UNL     1      25.268  43.591  30.209  1.00  0.00     0.158 A 
BRANCH  15  18
ATOM     18  O   UNL     1      23.488  44.615  28.918  1.00  0.00    -0.504 OA
ATOM     19  H   UNL     1      24.001  45.485  28.847  1.00  0.00     0.293 HD
ENDBRANCH  15  18
BRANCH  17  20
ATOM     20  O   UNL     1      26.038  44.751  30.127  1.00  0.00    -0.504 OA
ATOM     21  H   UNL     1      26.608  45.073  30.900  1.00  0.00     0.293 HD
ENDBRANCH  17  20
ENDBRANCH   1  12
BRANCH   2  22
ATOM     22  O   UNL     1      26.665  39.230  29.780  1.00  0.00    -0.502 OA
ATOM     23  H   UNL     1      26.925  38.421  29.229  1.00  0.00     0.293 HD
ENDBRANCH   2  22
BRANCH   6  24
ATOM     24  O   UNL     1      27.506  35.775  33.746  1.00  0.00    -0.507 OA
ATOM     25  H   UNL     1      27.587  35.487  32.783  1.00  0.00     0.293 HD
ENDBRANCH   6  24
BRANCH   8  26
ATOM     26  O   UNL     1      25.702  38.270  37.432  1.00  0.00    -0.508 OA
ATOM     27  H   UNL     1      24.769  38.450  37.782  1.00  0.00     0.293 HD
ENDBRANCH   8  26
TORSDOF 6
ENDMDL
MODEL 2
REMARK VINA RESULT:    -6.236      1.245      2.823
REMARK INTER + INTRA:          -7.843
REMARK INTER:                  -7.590
REMARK INTRA:                  -0.252
REMARK UNBOUND:                -0.331
REMARK SMILES O=c1c(O)c(-c2ccc(O)c(O)c2)oc2cc(O)cc(O)c12
REMARK SMILES IDX 5 1 3 2 2 3 1 4 22 5 20 6 19 7 17 8 16 9 15 10 14 11 6 12
REMARK SMILES IDX 7 13 8 14 9 15 13 16 11 17 10 18 12 20 4 22 21 24 18 26
REMARK H PARENT 10 19 12 21 4 23 21 25 18 27
REMARK Flexibility Score: inf
ROOT
ATOM      1  C   UNL     1      25.134  40.566  32.193  1.00  0.00     0.180 A 
ATOM      2  C   UNL     1      25.156  40.794  33.580  1.00  0.00     0.208 A 
ATOM      3  C   UNL     1      25.603  39.772  34.432  1.00  0.00     0.238 A 
ATOM      4  O   UNL     1      25.569  39.963  35.675  1.00  0.00    -0.285 OA
ATOM      5  C   UNL     1      26.039  38.540  33.886  1.00  0.00     0.111 A 
ATOM      6  C   UNL     1      26.549  37.450  34.652  1.00  0.00     0.134 A 
ATOM      7  C   UNL     1      26.827  36.232  34.020  1.00  0.00     0.093 A 
ATOM      8  C   UNL     1      26.676  36.087  32.638  1.00  0.00     0.123 A 
ATOM      9  C   UNL     1      26.234  37.164  31.874  1.00  0.00     0.094 A 
ATOM     10  C   UNL     1      25.914  38.380  32.481  1.00  0.00     0.146 A 
ATOM     11  O   UNL     1      25.486  39.378  31.717  1.00  0.00    -0.452 OA
ENDROOT
BRANCH   1  12
ATOM     12  C   UNL     1      24.700  41.604  31.230  1.00  0.00     0.025 A 
ATOM     13  C   UNL     1      23.442  41.542  30.604  1.00  0.00     0.016 A 
ATOM     14  C   UNL     1      23.045  42.544  29.717  1.00  0.00     0.051 A 
ATOM     15  C   UNL     1      23.890  43.630  29.450  1.00  0.00     0.157 A 
ATOM     16  C   UNL     1      25.536  42.704  30.975  1.00  0.00     0.062 A 
ATOM     17  C   UNL     1      25.141  43.710  30.086  1.00  0.00     0.158 A 
BRANCH  15  18
ATOM     18  O   UNL     1      23.491  44.627  28.562  1.00  0.00    -0.504 OA
ATOM     19  H   UNL     1      23.277  45.566  28.879  1.00  0.00     0.293 HD
ENDBRANCH  15  18
BRANCH  17  20
ATOM     20  O   UNL     1      26.003  44.780  29.847  1.00  0.00    -0.504 OA
ATOM     21  H   UNL     1      25.689  45.634  29.403  1.00  0.00     0.293 HD
ENDBRANCH  17  20
ENDBRANCH   1  12
BRANCH   2  22
ATOM     22  O   UNL     1      24.701  42.010  34.099  1.00  0.00    -0.502 OA
ATOM     23  H   UNL     1      25.258  42.855  34.073  1.00  0.00     0.293 HD
ENDBRANCH   2  22
BRANCH   6  24
ATOM     24  O   UNL     1      26.825  37.519  36.021  1.00  0.00    -0.507 OA
ATOM     25  H   UNL     1      26.695  38.340  36.593  1.00  0.00     0.293 HD
ENDBRANCH   6  24
BRANCH   8  26
ATOM     26  O   UNL     1      26.970  34.875  32.015  1.00  0.00    -0.508 OA
ATOM     27  H   UNL     1      26.324  34.095  32.041  1.00  0.00     0.293 HD
ENDBRANCH   8  26
TORSDOF 6
ENDMDL
MODEL 3
REMARK VINA RESULT:    -6.140      1.652      3.028
REMARK INTER + INTRA:          -7.727
REMARK INTER:                  -7.699
REMARK INTRA:                  -0.028
REMARK UNBOUND:                -0.331
REMARK SMILES O=c1c(O)c(-c2ccc(O)c(O)c2)oc2cc(O)cc(O)c12
REMARK SMILES IDX 5 1 3 2 2 3 1 4 22 5 20 6 19 7 17 8 16 9 15 10 14 11 6 12
REMARK SMILES IDX 7 13 8 14 9 15 13 16 11 17 10 18 12 20 4 22 21 24 18 26
REMARK H PARENT 10 19 12 21 4 23 21 25 18 27
REMARK Flexibility Score: inf
ROOT
ATOM      1  C   UNL     1      25.447  40.210  31.278  1.00  0.00     0.180 A 
ATOM      2  C   UNL     1      24.725  39.522  32.269  1.00  0.00     0.208 A 
ATOM      3  C   UNL     1      25.286  38.370  32.843  1.00  0.00     0.238 A 
ATOM      4  O   UNL     1      24.612  37.727  33.689  1.00  0.00    -0.285 OA
ATOM      5  C   UNL     1      26.567  37.930  32.432  1.00  0.00     0.111 A 
ATOM      6  C   UNL     1      27.248  36.799  32.974  1.00  0.00     0.134 A 
ATOM      7  C   UNL     1      28.454  36.379  32.401  1.00  0.00     0.093 A 
ATOM      8  C   UNL     1      29.037  37.088  31.348  1.00  0.00     0.123 A 
ATOM      9  C   UNL     1      28.409  38.227  30.850  1.00  0.00     0.094 A 
ATOM     10  C   UNL     1      27.187  38.650  31.377  1.00  0.00     0.146 A 
ATOM     11  O   UNL     1      26.617  39.735  30.867  1.00  0.00    -0.452 OA
ENDROOT
BRANCH   1  12
ATOM     12  C   UNL     1      24.934  41.446  30.644  1.00  0.00     0.025 A 
ATOM     13  C   UNL     1      23.660  41.490  30.051  1.00  0.00     0.016 A 
ATOM     14  C   UNL     1      23.187  42.674  29.479  1.00  0.00     0.051 A 
ATOM     15  C   UNL     1      23.973  43.834  29.504  1.00  0.00     0.157 A 
ATOM     16  C   UNL     1      25.709  42.617  30.684  1.00  0.00     0.062 A 
ATOM     17  C   UNL     1      25.239  43.805  30.112  1.00  0.00     0.158 A 
BRANCH  15  18
ATOM     18  O   UNL     1      23.498  45.013  28.931  1.00  0.00    -0.504 OA
ATOM     19  H   UNL     1      24.023  45.507  28.219  1.00  0.00     0.293 HD
ENDBRANCH  15  18
BRANCH  17  20
ATOM     20  O   UNL     1      26.043  44.943  30.159  1.00  0.00    -0.504 OA
ATOM     21  H   UNL     1      26.990  44.948  29.799  1.00  0.00     0.293 HD
ENDBRANCH  17  20
ENDBRANCH   1  12
BRANCH   2  22
ATOM     22  O   UNL     1      23.453  39.961  32.644  1.00  0.00    -0.502 OA
ATOM     23  H   UNL     1      23.197  40.940  32.658  1.00  0.00     0.293 HD
ENDBRANCH   2  22
BRANCH   6  24
ATOM     24  O   UNL     1      26.800  36.076  34.085  1.00  0.00    -0.507 OA
ATOM     25  H   UNL     1      25.900  35.626  34.152  1.00  0.00     0.293 HD
ENDBRANCH   6  24
BRANCH   8  26
ATOM     26  O   UNL     1      30.246  36.672  30.793  1.00  0.00    -0.508 OA
ATOM     27  H   UNL     1      31.124  36.799  31.282  1.00  0.00     0.293 HD
ENDBRANCH   8  26
TORSDOF 6
ENDMDL
MODEL 4
REMARK VINA RESULT:    -6.122      0.652      1.455
REMARK INTER + INTRA:          -7.705
REMARK INTER:                  -7.426
REMARK INTRA:                  -0.280
REMARK UNBOUND:                -0.331
REMARK SMILES O=c1c(O)c(-c2ccc(O)c(O)c2)oc2cc(O)cc(O)c12
REMARK SMILES IDX 5 1 3 2 2 3 1 4 22 5 20 6 19 7 17 8 16 9 15 10 14 11 6 12
REMARK SMILES IDX 7 13 8 14 9 15 13 16 11 17 10 18 12 20 4 22 21 24 18 26
REMARK H PARENT 10 19 12 21 4 23 21 25 18 27
REMARK Flexibility Score: inf
ROOT
ATOM      1  C   UNL     1      25.495  40.385  31.833  1.00  0.00     0.180 A 
ATOM      2  C   UNL     1      26.227  39.371  31.192  1.00  0.00     0.208 A 
ATOM      3  C   UNL     1      26.615  38.240  31.929  1.00  0.00     0.238 A 
ATOM      4  O   UNL     1      27.317  37.362  31.364  1.00  0.00    -0.285 OA
ATOM      5  C   UNL     1      26.253  38.130  33.293  1.00  0.00     0.111 A 
ATOM      6  C   UNL     1      26.558  37.011  34.125  1.00  0.00     0.134 A 
ATOM      7  C   UNL     1      26.265  37.067  35.492  1.00  0.00     0.093 A 
ATOM      8  C   UNL     1      25.617  38.175  36.046  1.00  0.00     0.123 A 
ATOM      9  C   UNL     1      25.262  39.247  35.231  1.00  0.00     0.094 A 
ATOM     10  C   UNL     1      25.575  39.236  33.869  1.00  0.00     0.146 A 
ATOM     11  O   UNL     1      25.228  40.283  33.130  1.00  0.00    -0.452 OA
ENDROOT
BRANCH   1  12
ATOM     12  C   UNL     1      25.029  41.594  31.117  1.00  0.00     0.025 A 
ATOM     13  C   UNL     1      25.907  42.649  30.814  1.00  0.00     0.016 A 
ATOM     14  C   UNL     1      25.449  43.770  30.117  1.00  0.00     0.051 A 
ATOM     15  C   UNL     1      24.113  43.848  29.701  1.00  0.00     0.157 A 
ATOM     16  C   UNL     1      23.695  41.668  30.681  1.00  0.00     0.062 A 
ATOM     17  C   UNL     1      23.234  42.790  29.983  1.00  0.00     0.158 A 
BRANCH  15  18
ATOM     18  O   UNL     1      23.660  44.969  29.007  1.00  0.00    -0.504 OA
ATOM     19  H   UNL     1      23.823  45.908  29.350  1.00  0.00     0.293 HD
ENDBRANCH  15  18
BRANCH  17  20
ATOM     20  O   UNL     1      21.900  42.833  29.578  1.00  0.00    -0.504 OA
ATOM     21  H   UNL     1      21.637  42.964  28.609  1.00  0.00     0.293 HD
ENDBRANCH  17  20
ENDBRANCH   1  12
BRANCH   2  22
ATOM     22  O   UNL     1      26.593  39.509  29.850  1.00  0.00    -0.502 OA
ATOM     23  H   UNL     1      26.190  38.943  29.115  1.00  0.00     0.293 HD
ENDBRANCH   2  22
BRANCH   6  24
ATOM     24  O   UNL     1      27.120  35.820  33.655  1.00  0.00    -0.507 OA
ATOM     25  H   UNL     1      26.594  34.994  33.410  1.00  0.00     0.293 HD
ENDBRANCH   6  24
BRANCH   8  26
ATOM     26  O   UNL     1      25.315  38.215  37.406  1.00  0.00    -0.508 OA
ATOM     27  H   UNL     1      25.780  38.860  38.033  1.00  0.00     0.293 HD
ENDBRANCH   8  26
TORSDOF 6
ENDMDL
MODEL 5
REMARK VINA RESULT:    -5.996      1.051      1.115
REMARK INTER + INTRA:          -7.553
REMARK INTER:                  -7.235
REMARK INTRA:                  -0.318
REMARK UNBOUND:                -0.331
REMARK SMILES O=c1c(O)c(-c2ccc(O)c(O)c2)oc2cc(O)cc(O)c12
REMARK SMILES IDX 5 1 3 2 2 3 1 4 22 5 20 6 19 7 17 8 16 9 15 10 14 11 6 12
REMARK SMILES IDX 7 13 8 14 9 15 13 16 11 17 10 18 12 20 4 22 21 24 18 26
REMARK H PARENT 10 19 12 21 4 23 21 25 18 27
REMARK Flexibility Score: inf
ROOT
ATOM      1  C   UNL     1      25.972  39.471  32.092  1.00  0.00     0.180 A 
ATOM      2  C   UNL     1      26.534  38.380  31.408  1.00  0.00     0.208 A 
ATOM      3  C   UNL     1      27.206  37.389  32.141  1.00  0.00     0.238 A 
ATOM      4  O   UNL     1      27.754  36.443  31.518  1.00  0.00    -0.285 OA
ATOM      5  C   UNL     1      27.292  37.492  33.550  1.00  0.00     0.111 A 
ATOM      6  C   UNL     1      27.913  36.526  34.397  1.00  0.00     0.134 A 
ATOM      7  C   UNL     1      28.055  36.794  35.763  1.00  0.00     0.093 A 
ATOM      8  C   UNL     1      27.539  37.966  36.325  1.00  0.00     0.123 A 
ATOM      9  C   UNL     1      26.879  38.887  35.516  1.00  0.00     0.094 A 
ATOM     10  C   UNL     1      26.754  38.664  34.143  1.00  0.00     0.146 A 
ATOM     11  O   UNL     1      26.127  39.574  33.407  1.00  0.00    -0.452 OA
ENDROOT
BRANCH   1  12
ATOM     12  C   UNL     1      25.227  40.543  31.392  1.00  0.00     0.025 A 
ATOM     13  C   UNL     1      23.878  40.381  31.031  1.00  0.00     0.016 A 
ATOM     14  C   UNL     1      23.189  41.414  30.392  1.00  0.00     0.051 A 
ATOM     15  C   UNL     1      23.832  42.629  30.115  1.00  0.00     0.157 A 
ATOM     16  C   UNL     1      25.862  41.768  31.130  1.00  0.00     0.062 A 
ATOM     17  C   UNL     1      25.175  42.806  30.489  1.00  0.00     0.158 A 
BRANCH  15  18
ATOM     18  O   UNL     1      23.142  43.657  29.475  1.00  0.00    -0.504 OA
ATOM     19  H   UNL     1      22.168  43.850  29.678  1.00  0.00     0.293 HD
ENDBRANCH  15  18
BRANCH  17  20
ATOM     20  O   UNL     1      25.842  44.004  30.234  1.00  0.00    -0.504 OA
ATOM     21  H   UNL     1      26.346  44.164  29.370  1.00  0.00     0.293 HD
ENDBRANCH  17  20
ENDBRANCH   1  12
BRANCH   2  22
ATOM     22  O   UNL     1      26.456  38.309  30.014  1.00  0.00    -0.502 OA
ATOM     23  H   UNL     1      25.574  38.282  29.519  1.00  0.00     0.293 HD
ENDBRANCH   2  22
BRANCH   6  24
ATOM     24  O   UNL     1      28.379  35.284  33.954  1.00  0.00    -0.507 OA
ATOM     25  H   UNL     1      28.527  34.480  34.546  1.00  0.00     0.293 HD
ENDBRANCH   6  24
BRANCH   8  26
ATOM     26  O   UNL     1      27.672  38.218  37.689  1.00  0.00    -0.508 OA
ATOM     27  H   UNL     1      27.102  38.912  38.157  1.00  0.00     0.293 HD
ENDBRANCH   8  26
TORSDOF 6
ENDMDL
MODEL 6
REMARK VINA RESULT:    -5.608      2.284      2.884
REMARK INTER + INTRA:          -7.086
REMARK INTER:                  -6.815
REMARK INTRA:                  -0.271
REMARK UNBOUND:                -0.331
REMARK SMILES O=c1c(O)c(-c2ccc(O)c(O)c2)oc2cc(O)cc(O)c12
REMARK SMILES IDX 5 1 3 2 2 3 1 4 22 5 20 6 19 7 17 8 16 9 15 10 14 11 6 12
REMARK SMILES IDX 7 13 8 14 9 15 13 16 11 17 10 18 12 20 4 22 21 24 18 26
REMARK H PARENT 10 19 12 21 4 23 21 25 18 27
REMARK Flexibility Score: inf
ROOT
ATOM      1  C   UNL     1      24.236  39.237  33.273  1.00  0.00     0.180 A 
ATOM      2  C   UNL     1      23.667  37.964  33.448  1.00  0.00     0.208 A 
ATOM      3  C   UNL     1      24.319  37.034  34.273  1.00  0.00     0.238 A 
ATOM      4  O   UNL     1      23.833  35.878  34.382  1.00  0.00    -0.285 OA
ATOM      5  C   UNL     1      25.522  37.393  34.926  1.00  0.00     0.111 A 
ATOM      6  C   UNL     1      26.246  36.544  35.817  1.00  0.00     0.134 A 
ATOM      7  C   UNL     1      27.492  36.956  36.303  1.00  0.00     0.093 A 
ATOM      8  C   UNL     1      28.011  38.214  35.983  1.00  0.00     0.123 A 
ATOM      9  C   UNL     1      27.285  39.073  35.163  1.00  0.00     0.094 A 
ATOM     10  C   UNL     1      26.055  38.675  34.633  1.00  0.00     0.146 A 
ATOM     11  O   UNL     1      25.400  39.521  33.846  1.00  0.00    -0.452 OA
ENDROOT
BRANCH   1  12
ATOM     12  C   UNL     1      23.596  40.279  32.439  1.00  0.00     0.025 A 
ATOM     13  C   UNL     1      22.447  40.962  32.875  1.00  0.00     0.016 A 
ATOM     14  C   UNL     1      21.873  41.959  32.081  1.00  0.00     0.051 A 
ATOM     15  C   UNL     1      22.445  42.298  30.848  1.00  0.00     0.157 A 
ATOM     16  C   UNL     1      24.177  40.636  31.210  1.00  0.00     0.062 A 
ATOM     17  C   UNL     1      23.605  41.633  30.413  1.00  0.00     0.158 A 
BRANCH  15  18
ATOM     18  O   UNL     1      21.869  43.291  30.058  1.00  0.00    -0.504 OA
ATOM     19  H   UNL     1      21.166  43.920  30.425  1.00  0.00     0.293 HD
ENDBRANCH  15  18
BRANCH  17  20
ATOM     20  O   UNL     1      24.203  41.951  29.193  1.00  0.00    -0.504 OA
ATOM     21  H   UNL     1      23.890  42.732  28.629  1.00  0.00     0.293 HD
ENDBRANCH  17  20
ENDBRANCH   1  12
BRANCH   2  22
ATOM     22  O   UNL     1      22.490  37.622  32.776  1.00  0.00    -0.502 OA
ATOM     23  H   UNL     1      22.369  36.733  32.307  1.00  0.00     0.293 HD
ENDBRANCH   2  22
BRANCH   6  24
ATOM     24  O   UNL     1      25.775  35.309  36.273  1.00  0.00    -0.507 OA
ATOM     25  H   UNL     1      26.225  34.747  36.980  1.00  0.00     0.293 HD
ENDBRANCH   6  24
BRANCH   8  26
ATOM     26  O   UNL     1      29.246  38.621  36.485  1.00  0.00    -0.508 OA
ATOM     27  H   UNL     1      29.322  39.381  37.150  1.00  0.00     0.293 HD
ENDBRANCH   8  26
TORSDOF 6
ENDMDL
MODEL 7
REMARK VINA RESULT:    -5.515      2.073      6.672
REMARK INTER + INTRA:          -6.974
REMARK INTER:                  -6.660
REMARK INTRA:                  -0.314
REMARK UNBOUND:                -0.331
REMARK SMILES O=c1c(O)c(-c2ccc(O)c(O)c2)oc2cc(O)cc(O)c12
REMARK SMILES IDX 5 1 3 2 2 3 1 4 22 5 20 6 19 7 17 8 16 9 15 10 14 11 6 12
REMARK SMILES IDX 7 13 8 14 9 15 13 16 11 17 10 18 12 20 4 22 21 24 18 26
REMARK H PARENT 10 19 12 21 4 23 21 25 18 27
REMARK Flexibility Score: inf
ROOT
ATOM      1  C   UNL     1      25.935  38.824  33.275  1.00  0.00     0.180 A 
ATOM      2  C   UNL     1      26.502  38.994  32.000  1.00  0.00     0.208 A 
ATOM      3  C   UNL     1      25.870  39.847  31.081  1.00  0.00     0.238 A 
ATOM      4  O   UNL     1      26.353  39.952  29.923  1.00  0.00    -0.285 OA
ATOM      5  C   UNL     1      24.689  40.533  31.454  1.00  0.00     0.111 A 
ATOM      6  C   UNL     1      23.988  41.452  30.618  1.00  0.00     0.134 A 
ATOM      7  C   UNL     1      22.759  41.972  31.041  1.00  0.00     0.093 A 
ATOM      8  C   UNL     1      22.239  41.657  32.299  1.00  0.00     0.123 A 
ATOM      9  C   UNL     1      22.945  40.806  33.146  1.00  0.00     0.094 A 
ATOM     10  C   UNL     1      24.155  40.243  32.736  1.00  0.00     0.146 A 
ATOM     11  O   UNL     1      24.791  39.429  33.571  1.00  0.00    -0.452 OA
ENDROOT
BRANCH   1  12
ATOM     12  C   UNL     1      26.556  37.961  34.305  1.00  0.00     0.025 A 
ATOM     13  C   UNL     1      26.169  36.619  34.467  1.00  0.00     0.016 A 
ATOM     14  C   UNL     1      26.786  35.817  35.431  1.00  0.00     0.051 A 
ATOM     15  C   UNL     1      27.806  36.339  36.238  1.00  0.00     0.157 A 
ATOM     16  C   UNL     1      27.593  38.474  35.103  1.00  0.00     0.062 A 
ATOM     17  C   UNL     1      28.212  37.673  36.070  1.00  0.00     0.158 A 
BRANCH  15  18
ATOM     18  O   UNL     1      28.418  35.536  37.199  1.00  0.00    -0.504 OA
ATOM     19  H   UNL     1      29.389  35.260  37.121  1.00  0.00     0.293 HD
ENDBRANCH  15  18
BRANCH  17  20
ATOM     20  O   UNL     1      29.229  38.221  36.852  1.00  0.00    -0.504 OA
ATOM     21  H   UNL     1      30.090  37.722  37.039  1.00  0.00     0.293 HD
ENDBRANCH  17  20
ENDBRANCH   1  12
BRANCH   2  22
ATOM     22  O   UNL     1      27.657  38.290  31.645  1.00  0.00    -0.502 OA
ATOM     23  H   UNL     1      27.653  37.295  31.461  1.00  0.00     0.293 HD
ENDBRANCH   2  22
BRANCH   6  24
ATOM     24  O   UNL     1      24.465  41.906  29.384  1.00  0.00    -0.507 OA
ATOM     25  H   UNL     1      25.056  42.714  29.258  1.00  0.00     0.293 HD
ENDBRANCH   6  24
BRANCH   8  26
ATOM     26  O   UNL     1      21.022  42.191  32.719  1.00  0.00    -0.508 OA
ATOM     27  H   UNL     1      20.181  42.093  32.164  1.00  0.00     0.293 HD
ENDBRANCH   8  26
TORSDOF 6
ENDMDL
MODEL 8
REMARK VINA RESULT:    -5.428      1.982      7.220
REMARK INTER + INTRA:          -6.870
REMARK INTER:                  -6.571
REMARK INTRA:                  -0.299
REMARK UNBOUND:                -0.331
REMARK SMILES O=c1c(O)c(-c2ccc(O)c(O)c2)oc2cc(O)cc(O)c12
REMARK SMILES IDX 5 1 3 2 2 3 1 4 22 5 20 6 19 7 17 8 16 9 15 10 14 11 6 12
REMARK SMILES IDX 7 13 8 14 9 15 13 16 11 17 10 18 12 20 4 22 21 24 18 26
REMARK H PARENT 10 19 12 21 4 23 21 25 18 27
REMARK Flexibility Score: inf
ROOT
ATOM      1  C   UNL     1      24.597  40.303  32.909  1.00  0.00     0.180 A 
ATOM      2  C   UNL     1      23.244  40.281  33.292  1.00  0.00     0.208 A 
ATOM      3  C   UNL     1      22.326  41.084  32.597  1.00  0.00     0.238 A 
ATOM      4  O   UNL     1      21.127  41.101  32.980  1.00  0.00    -0.285 OA
ATOM      5  C   UNL     1      22.767  41.887  31.518  1.00  0.00     0.111 A 
ATOM      6  C   UNL     1      21.918  42.709  30.719  1.00  0.00     0.134 A 
ATOM      7  C   UNL     1      22.481  43.561  29.763  1.00  0.00     0.093 A 
ATOM      8  C   UNL     1      23.860  43.573  29.531  1.00  0.00     0.123 A 
ATOM      9  C   UNL     1      24.691  42.731  30.265  1.00  0.00     0.094 A 
ATOM     10  C   UNL     1      24.161  41.896  31.252  1.00  0.00     0.146 A 
ATOM     11  O   UNL     1      24.991  41.117  31.936  1.00  0.00    -0.452 OA
ENDROOT
BRANCH   1  12
ATOM     12  C   UNL     1      25.619  39.466  33.576  1.00  0.00     0.025 A 
ATOM     13  C   UNL     1      26.201  39.853  34.796  1.00  0.00     0.016 A 
ATOM     14  C   UNL     1      27.147  39.035  35.419  1.00  0.00     0.051 A 
ATOM     15  C   UNL     1      27.517  37.813  34.840  1.00  0.00     0.157 A 
ATOM     16  C   UNL     1      25.978  38.231  33.010  1.00  0.00     0.062 A 
ATOM     17  C   UNL     1      26.926  37.410  33.631  1.00  0.00     0.158 A 
BRANCH  15  18
ATOM     18  O   UNL     1      28.462  37.001  35.464  1.00  0.00    -0.504 OA
ATOM     19  H   UNL     1      28.242  36.475  36.301  1.00  0.00     0.293 HD
ENDBRANCH  15  18
BRANCH  17  20
ATOM     20  O   UNL     1      27.267  36.197  33.032  1.00  0.00    -0.504 OA
ATOM     21  H   UNL     1      26.758  35.828  32.238  1.00  0.00     0.293 HD
ENDBRANCH  17  20
ENDBRANCH   1  12
BRANCH   2  22
ATOM     22  O   UNL     1      22.834  39.497  34.374  1.00  0.00    -0.502 OA
ATOM     23  H   UNL     1      21.989  39.691  34.897  1.00  0.00     0.293 HD
ENDBRANCH   2  22
BRANCH   6  24
ATOM     24  O   UNL     1      20.521  42.705  30.806  1.00  0.00    -0.507 OA
ATOM     25  H   UNL     1      19.991  43.124  31.555  1.00  0.00     0.293 HD
ENDBRANCH   6  24
BRANCH   8  26
ATOM     26  O   UNL     1      24.411  44.413  28.566  1.00  0.00    -0.508 OA
ATOM     27  H   UNL     1      24.892  45.267  28.819  1.00  0.00     0.293 HD
ENDBRANCH   8  26
TORSDOF 6
ENDMDL
MODEL 9
REMARK VINA RESULT:    -5.196      2.192      7.152
REMARK INTER + INTRA:          -6.590
REMARK INTER:                  -6.289
REMARK INTRA:                  -0.300
REMARK UNBOUND:                -0.331
REMARK SMILES O=c1c(O)c(-c2ccc(O)c(O)c2)oc2cc(O)cc(O)c12
REMARK SMILES IDX 5 1 3 2 2 3 1 4 22 5 20 6 19 7 17 8 16 9 15 10 14 11 6 12
REMARK SMILES IDX 7 13 8 14 9 15 13 16 11 17 10 18 12 20 4 22 21 24 18 26
REMARK H PARENT 10 19 12 21 4 23 21 25 18 27
REMARK Flexibility Score: inf
ROOT
ATOM      1  C   UNL     1      25.478  38.842  33.959  1.00  0.00     0.180 A 
ATOM      2  C   UNL     1      24.307  39.042  34.711  1.00  0.00     0.208 A 
ATOM      3  C   UNL     1      23.294  39.863  34.189  1.00  0.00     0.238 A 
ATOM      4  O   UNL     1      22.272  40.081  34.891  1.00  0.00    -0.285 OA
ATOM      5  C   UNL     1      23.457  40.460  32.916  1.00  0.00     0.111 A 
ATOM      6  C   UNL     1      22.479  41.277  32.273  1.00  0.00     0.134 A 
ATOM      7  C   UNL     1      22.799  41.922  31.074  1.00  0.00     0.093 A 
ATOM      8  C   UNL     1      24.040  41.727  30.459  1.00  0.00     0.123 A 
ATOM      9  C   UNL     1      24.978  40.884  31.049  1.00  0.00     0.094 A 
ATOM     10  C   UNL     1      24.701  40.256  32.265  1.00  0.00     0.146 A 
ATOM     11  O   UNL     1      25.629  39.469  32.798  1.00  0.00    -0.452 OA
ENDROOT
BRANCH   1  12
ATOM     12  C   UNL     1      26.578  37.971  34.430  1.00  0.00     0.025 A 
ATOM     13  C   UNL     1      26.730  36.658  33.949  1.00  0.00     0.016 A 
ATOM     14  C   UNL     1      27.790  35.863  34.390  1.00  0.00     0.051 A 
ATOM     15  C   UNL     1      28.721  36.369  35.307  1.00  0.00     0.157 A 
ATOM     16  C   UNL     1      27.525  38.480  35.334  1.00  0.00     0.062 A 
ATOM     17  C   UNL     1      28.588  37.686  35.778  1.00  0.00     0.158 A 
BRANCH  15  18
ATOM     18  O   UNL     1      29.777  35.571  35.746  1.00  0.00    -0.504 OA
ATOM     19  H   UNL     1      29.625  34.783  36.365  1.00  0.00     0.293 HD
ENDBRANCH  15  18
BRANCH  17  20
ATOM     20  O   UNL     1      29.501  38.222  36.686  1.00  0.00    -0.504 OA
ATOM     21  H   UNL     1      29.537  37.921  37.653  1.00  0.00     0.293 HD
ENDBRANCH  17  20
ENDBRANCH   1  12
BRANCH   2  22
ATOM     22  O   UNL     1      24.176  38.460  35.975  1.00  0.00    -0.502 OA
ATOM     23  H   UNL     1      23.556  38.833  36.684  1.00  0.00     0.293 HD
ENDBRANCH   2  22
BRANCH   6  24
ATOM     24  O   UNL     1      21.179  41.464  32.755  1.00  0.00    -0.507 OA
ATOM     25  H   UNL     1      20.450  41.959  32.264  1.00  0.00     0.293 HD
ENDBRANCH   6  24
BRANCH   8  26
ATOM     26  O   UNL     1      24.344  42.361  29.256  1.00  0.00    -0.508 OA
ATOM     27  H   UNL     1      24.020  41.996  28.368  1.00  0.00     0.293 HD
ENDBRANCH   8  26
TORSDOF 6
ENDMDL
