MODEL 1
REMARK VINA RESULT:    -4.046      0.000      0.000
REMARK INTER + INTRA:          -9.290
REMARK INTER:                  -7.476
REMARK INTRA:                  -1.814
REMARK UNBOUND:                -1.814
REMARK SMILES CCCCCCCCCCCCCCCCO
REMARK SMILES IDX 9 1 8 2 7 3 6 4 5 5 4 6 3 7 2 8 1 9 10 10 11 11 12 12 13 13
REMARK SMILES IDX 14 14 15 15 16 16 17 17
REMARK H PARENT 17 18
REMARK Flexibility Score: inf
ROOT
ATOM      1  C   UNL     1     173.724 175.168 150.748  1.00  0.00     0.000 C 
ENDROOT
BRANCH   1   2
ATOM      2  C   UNL     1     174.039 174.356 152.019  1.00  0.00    -0.000 C 
BRANCH   2   3
ATOM      3  C   UNL     1     175.541 174.054 152.206  1.00  0.00    -0.000 C 
BRANCH   3   4
ATOM      4  C   UNL     1     176.395 174.585 151.042  1.00  0.00    -0.000 C 
BRANCH   4   5
ATOM      5  C   UNL     1     177.047 173.460 150.218  1.00  0.00    -0.000 C 
BRANCH   5   6
ATOM      6  C   UNL     1     176.582 172.034 150.579  1.00  0.00    -0.000 C 
BRANCH   6   7
ATOM      7  C   UNL     1     175.924 171.249 149.425  1.00  0.00    -0.000 C 
BRANCH   7   8
ATOM      8  C   UNL     1     174.431 170.938 149.625  1.00  0.00    -0.003 C 
ATOM      9  C   UNL     1     174.171 169.992 150.795  1.00  0.00     0.004 C 
ENDBRANCH   7   8
ENDBRANCH   6   7
ENDBRANCH   5   6
ENDBRANCH   4   5
ENDBRANCH   3   4
ENDBRANCH   2   3
ENDBRANCH   1   2
BRANCH   1  10
ATOM     10  C   UNL     1     173.490 176.673 150.975  1.00  0.00     0.000 C 
BRANCH  10  11
ATOM     11  C   UNL     1     174.537 177.601 150.330  1.00  0.00     0.000 C 
BRANCH  11  12
ATOM     12  C   UNL     1     175.587 178.106 151.333  1.00  0.00     0.000 C 
BRANCH  12  13
ATOM     13  C   UNL     1     175.085 178.080 152.790  1.00  0.00     0.000 C 
BRANCH  13  14
ATOM     14  C   UNL     1     176.006 177.355 153.791  1.00  0.00     0.002 C 
BRANCH  14  15
ATOM     15  C   UNL     1     175.287 176.640 154.949  1.00  0.00     0.028 C 
BRANCH  15  16
ATOM     16  C   UNL     1     174.228 177.505 155.643  1.00  0.00     0.156 C 
BRANCH  16  17
ATOM     17  O   UNL     1     172.981 177.334 155.031  1.00  0.00    -0.396 OA
ATOM     18  H   UNL     1     172.656 178.244 154.807  1.00  0.00     0.210 HD
ENDBRANCH  16  17
ENDBRANCH  15  16
ENDBRANCH  14  15
ENDBRANCH  13  14
ENDBRANCH  12  13
ENDBRANCH  11  12
ENDBRANCH  10  11
ENDBRANCH   1  10
TORSDOF 15
ENDMDL
MODEL 2
REMARK VINA RESULT:    -4.041      2.464      5.981
REMARK INTER + INTRA:          -9.281
REMARK INTER:                  -7.367
REMARK INTRA:                  -1.914
REMARK UNBOUND:                -1.814
REMARK SMILES CCCCCCCCCCCCCCCCO
REMARK SMILES IDX 9 1 8 2 7 3 6 4 5 5 4 6 3 7 2 8 1 9 10 10 11 11 12 12 13 13
REMARK SMILES IDX 14 14 15 15 16 16 17 17
REMARK H PARENT 17 18
REMARK Flexibility Score: inf
ROOT
ATOM      1  C   UNL     1     174.629 174.455 153.297  1.00  0.00     0.000 C 
ENDROOT
BRANCH   1   2
ATOM      2  C   UNL     1     174.642 175.756 154.121  1.00  0.00    -0.000 C 
BRANCH   2   3
ATOM      3  C   UNL     1     175.852 176.668 153.824  1.00  0.00    -0.000 C 
BRANCH   3   4
ATOM      4  C   UNL     1     175.450 177.943 153.062  1.00  0.00    -0.000 C 
BRANCH   4   5
ATOM      5  C   UNL     1     175.603 177.801 151.538  1.00  0.00    -0.000 C 
BRANCH   5   6
ATOM      6  C   UNL     1     174.290 177.905 150.737  1.00  0.00    -0.000 C 
BRANCH   6   7
ATOM      7  C   UNL     1     173.422 176.630 150.735  1.00  0.00    -0.000 C 
BRANCH   7   8
ATOM      8  C   UNL     1     172.155 176.709 151.605  1.00  0.00    -0.003 C 
ATOM      9  C   UNL     1     171.907 178.107 152.168  1.00  0.00     0.004 C 
ENDBRANCH   7   8
ENDBRANCH   6   7
ENDBRANCH   5   6
ENDBRANCH   4   5
ENDBRANCH   3   4
ENDBRANCH   2   3
ENDBRANCH   1   2
BRANCH   1  10
ATOM     10  C   UNL     1     175.961 174.103 152.609  1.00  0.00     0.000 C 
BRANCH  10  11
ATOM     11  C   UNL     1     175.933 174.150 151.069  1.00  0.00     0.000 C 
BRANCH  11  12
ATOM     12  C   UNL     1     176.968 173.214 150.424  1.00  0.00     0.000 C 
BRANCH  12  13
ATOM     13  C   UNL     1     176.322 172.080 149.605  1.00  0.00     0.000 C 
BRANCH  13  14
ATOM     14  C   UNL     1     175.683 170.949 150.435  1.00  0.00     0.002 C 
BRANCH  14  15
ATOM     15  C   UNL     1     176.654 170.156 151.328  1.00  0.00     0.028 C 
BRANCH  15  16
ATOM     16  C   UNL     1     176.334 170.257 152.825  1.00  0.00     0.156 C 
BRANCH  16  17
ATOM     17  O   UNL     1     177.500 170.111 153.584  1.00  0.00    -0.396 OA
ATOM     18  H   UNL     1     177.555 170.915 154.164  1.00  0.00     0.210 HD
ENDBRANCH  16  17
ENDBRANCH  15  16
ENDBRANCH  14  15
ENDBRANCH  13  14
ENDBRANCH  12  13
ENDBRANCH  11  12
ENDBRANCH  10  11
ENDBRANCH   1  10
TORSDOF 15
ENDMDL
MODEL 3
REMARK VINA RESULT:    -3.930     10.733     12.536
REMARK INTER + INTRA:          -9.075
REMARK INTER:                  -7.034
REMARK INTRA:                  -2.041
REMARK UNBOUND:                -1.814
REMARK SMILES CCCCCCCCCCCCCCCCO
REMARK SMILES IDX 9 1 8 2 7 3 6 4 5 5 4 6 3 7 2 8 1 9 10 10 11 11 12 12 13 13
REMARK SMILES IDX 14 14 15 15 16 16 17 17
REMARK H PARENT 17 18
REMARK Flexibility Score: inf
ROOT
ATOM      1  C   UNL     1     163.416 177.721 151.089  1.00  0.00     0.000 C 
ENDROOT
BRANCH   1   2
ATOM      2  C   UNL     1     164.333 177.022 152.110  1.00  0.00    -0.000 C 
BRANCH   2   3
ATOM      3  C   UNL     1     164.403 175.490 151.936  1.00  0.00    -0.000 C 
BRANCH   3   4
ATOM      4  C   UNL     1     164.511 175.072 150.459  1.00  0.00    -0.000 C 
BRANCH   4   5
ATOM      5  C   UNL     1     165.877 174.456 150.111  1.00  0.00    -0.000 C 
BRANCH   5   6
ATOM      6  C   UNL     1     166.784 175.337 149.227  1.00  0.00    -0.000 C 
BRANCH   6   7
ATOM      7  C   UNL     1     167.431 176.538 149.946  1.00  0.00    -0.000 C 
BRANCH   7   8
ATOM      8  C   UNL     1     168.341 176.168 151.130  1.00  0.00    -0.003 C 
ATOM      9  C   UNL     1     168.052 176.993 152.383  1.00  0.00     0.004 C 
ENDBRANCH   7   8
ENDBRANCH   6   7
ENDBRANCH   5   6
ENDBRANCH   4   5
ENDBRANCH   3   4
ENDBRANCH   2   3
ENDBRANCH   1   2
BRANCH   1  10
ATOM     10  C   UNL     1     161.926 177.771 151.476  1.00  0.00     0.000 C 
BRANCH  10  11
ATOM     11  C   UNL     1     160.970 177.087 150.479  1.00  0.00     0.000 C 
BRANCH  11  12
ATOM     12  C   UNL     1     159.999 176.108 151.158  1.00  0.00     0.000 C 
BRANCH  12  13
ATOM     13  C   UNL     1     160.277 175.936 152.665  1.00  0.00     0.000 C 
BRANCH  13  14
ATOM     14  C   UNL     1     160.974 174.621 153.061  1.00  0.00     0.002 C 
BRANCH  14  15
ATOM     15  C   UNL     1     161.020 173.542 151.963  1.00  0.00     0.028 C 
BRANCH  15  16
ATOM     16  C   UNL     1     160.063 172.370 152.214  1.00  0.00     0.156 C 
BRANCH  16  17
ATOM     17  O   UNL     1     159.239 172.640 153.312  1.00  0.00    -0.396 OA
ATOM     18  H   UNL     1     159.824 173.049 154.002  1.00  0.00     0.210 HD
ENDBRANCH  16  17
ENDBRANCH  15  16
ENDBRANCH  14  15
ENDBRANCH  13  14
ENDBRANCH  12  13
ENDBRANCH  11  12
ENDBRANCH  10  11
ENDBRANCH   1  10
TORSDOF 15
ENDMDL
MODEL 4
REMARK VINA RESULT:    -3.890      1.544      2.879
REMARK INTER + INTRA:          -9.002
REMARK INTER:                  -7.088
REMARK INTRA:                  -1.914
REMARK UNBOUND:                -1.814
REMARK SMILES CCCCCCCCCCCCCCCCO
REMARK SMILES IDX 9 1 8 2 7 3 6 4 5 5 4 6 3 7 2 8 1 9 10 10 11 11 12 12 13 13
REMARK SMILES IDX 14 14 15 15 16 16 17 17
REMARK H PARENT 17 18
REMARK Flexibility Score: inf
ROOT
ATOM      1  C   UNL     1     176.393 174.747 151.145  1.00  0.00     0.000 C 
ENDROOT
BRANCH   1   2
ATOM      2  C   UNL     1     176.819 173.521 150.316  1.00  0.00    -0.000 C 
BRANCH   2   3
ATOM      3  C   UNL     1     175.767 172.392 150.289  1.00  0.00    -0.000 C 
BRANCH   3   4
ATOM      4  C   UNL     1     176.408 170.995 150.249  1.00  0.00    -0.000 C 
BRANCH   4   5
ATOM      5  C   UNL     1     176.426 170.307 151.625  1.00  0.00    -0.000 C 
BRANCH   5   6
ATOM      6  C   UNL     1     175.798 171.124 152.772  1.00  0.00    -0.000 C 
BRANCH   6   7
ATOM      7  C   UNL     1     176.808 171.813 153.714  1.00  0.00    -0.000 C 
BRANCH   7   8
ATOM      8  C   UNL     1     176.215 172.929 154.591  1.00  0.00    -0.003 C 
ATOM      9  C   UNL     1     174.733 173.179 154.316  1.00  0.00     0.004 C 
ENDBRANCH   7   8
ENDBRANCH   6   7
ENDBRANCH   5   6
ENDBRANCH   4   5
ENDBRANCH   3   4
ENDBRANCH   2   3
ENDBRANCH   1   2
BRANCH   1  10
ATOM     10  C   UNL     1     174.882 175.047 151.140  1.00  0.00     0.000 C 
BRANCH  10  11
ATOM     11  C   UNL     1     174.500 176.465 150.675  1.00  0.00     0.000 C 
BRANCH  11  12
ATOM     12  C   UNL     1     175.449 177.547 151.215  1.00  0.00     0.000 C 
BRANCH  12  13
ATOM     13  C   UNL     1     175.003 178.109 152.579  1.00  0.00     0.000 C 
BRANCH  13  14
ATOM     14  C   UNL     1     175.778 177.572 153.798  1.00  0.00     0.002 C 
BRANCH  14  15
ATOM     15  C   UNL     1     174.918 176.900 154.883  1.00  0.00     0.028 C 
BRANCH  15  16
ATOM     16  C   UNL     1     173.413 176.944 154.589  1.00  0.00     0.156 C 
BRANCH  16  17
ATOM     17  O   UNL     1     172.823 178.039 155.231  1.00  0.00    -0.396 OA
ATOM     18  H   UNL     1     173.557 178.680 155.414  1.00  0.00     0.210 HD
ENDBRANCH  16  17
ENDBRANCH  15  16
ENDBRANCH  14  15
ENDBRANCH  13  14
ENDBRANCH  12  13
ENDBRANCH  11  12
ENDBRANCH  10  11
ENDBRANCH   1  10
TORSDOF 15
ENDMDL
MODEL 5
REMARK VINA RESULT:    -3.878      2.727      5.893
REMARK INTER + INTRA:          -8.979
REMARK INTER:                  -7.153
REMARK INTRA:                  -1.826
REMARK UNBOUND:                -1.814
REMARK SMILES CCCCCCCCCCCCCCCCO
REMARK SMILES IDX 9 1 8 2 7 3 6 4 5 5 4 6 3 7 2 8 1 9 10 10 11 11 12 12 13 13
REMARK SMILES IDX 14 14 15 15 16 16 17 17
REMARK H PARENT 17 18
REMARK Flexibility Score: inf
ROOT
ATOM      1  C   UNL     1     173.776 175.726 151.128  1.00  0.00     0.000 C 
ENDROOT
BRANCH   1   2
ATOM      2  C   UNL     1     174.359 176.959 150.413  1.00  0.00    -0.000 C 
BRANCH   2   3
ATOM      3  C   UNL     1     174.702 178.125 151.366  1.00  0.00    -0.000 C 
BRANCH   3   4
ATOM      4  C   UNL     1     174.013 177.985 152.734  1.00  0.00    -0.000 C 
BRANCH   4   5
ATOM      5  C   UNL     1     175.001 177.670 153.871  1.00  0.00    -0.000 C 
BRANCH   5   6
ATOM      6  C   UNL     1     174.708 176.372 154.650  1.00  0.00    -0.000 C 
BRANCH   6   7
ATOM      7  C   UNL     1     175.954 175.566 155.071  1.00  0.00    -0.000 C 
BRANCH   7   8
ATOM      8  C   UNL     1     175.931 174.082 154.666  1.00  0.00    -0.003 C 
ATOM      9  C   UNL     1     174.579 173.416 154.920  1.00  0.00     0.004 C 
ENDBRANCH   7   8
ENDBRANCH   6   7
ENDBRANCH   5   6
ENDBRANCH   4   5
ENDBRANCH   3   4
ENDBRANCH   2   3
ENDBRANCH   1   2
BRANCH   1  10
ATOM     10  C   UNL     1     174.674 174.475 151.111  1.00  0.00     0.000 C 
BRANCH  10  11
ATOM     11  C   UNL     1     176.188 174.758 151.132  1.00  0.00     0.000 C 
BRANCH  11  12
ATOM     12  C   UNL     1     177.037 173.478 151.076  1.00  0.00     0.000 C 
BRANCH  12  13
ATOM     13  C   UNL     1     176.581 172.504 149.972  1.00  0.00     0.000 C 
BRANCH  13  14
ATOM     14  C   UNL     1     176.204 171.090 150.455  1.00  0.00     0.002 C 
BRANCH  14  15
ATOM     15  C   UNL     1     176.479 170.806 151.943  1.00  0.00     0.028 C 
BRANCH  15  16
ATOM     16  C   UNL     1     177.000 169.389 152.211  1.00  0.00     0.156 C 
BRANCH  16  17
ATOM     17  O   UNL     1     177.685 169.344 153.431  1.00  0.00    -0.396 OA
ATOM     18  H   UNL     1     178.428 169.998 153.354  1.00  0.00     0.210 HD
ENDBRANCH  16  17
ENDBRANCH  15  16
ENDBRANCH  14  15
ENDBRANCH  13  14
ENDBRANCH  12  13
ENDBRANCH  11  12
ENDBRANCH  10  11
ENDBRANCH   1  10
TORSDOF 15
ENDMDL
MODEL 6
REMARK VINA RESULT:    -3.841      2.688      6.485
REMARK INTER + INTRA:          -8.912
REMARK INTER:                  -7.135
REMARK INTRA:                  -1.777
REMARK UNBOUND:                -1.814
REMARK SMILES CCCCCCCCCCCCCCCCO
REMARK SMILES IDX 9 1 8 2 7 3 6 4 5 5 4 6 3 7 2 8 1 9 10 10 11 11 12 12 13 13
REMARK SMILES IDX 14 14 15 15 16 16 17 17
REMARK H PARENT 17 18
REMARK Flexibility Score: inf
ROOT
ATOM      1  C   UNL     1     174.030 174.016 151.812  1.00  0.00     0.000 C 
ENDROOT
BRANCH   1   2
ATOM      2  C   UNL     1     175.356 174.449 151.158  1.00  0.00    -0.000 C 
BRANCH   2   3
ATOM      3  C   UNL     1     175.389 175.936 150.746  1.00  0.00    -0.000 C 
BRANCH   3   4
ATOM      4  C   UNL     1     173.998 176.590 150.802  1.00  0.00    -0.000 C 
BRANCH   4   5
ATOM      5  C   UNL     1     174.002 177.939 151.543  1.00  0.00    -0.000 C 
BRANCH   5   6
ATOM      6  C   UNL     1     175.150 178.125 152.555  1.00  0.00    -0.000 C 
BRANCH   6   7
ATOM      7  C   UNL     1     174.874 177.569 153.967  1.00  0.00    -0.000 C 
BRANCH   7   8
ATOM      8  C   UNL     1     175.891 176.526 154.461  1.00  0.00    -0.003 C 
ATOM      9  C   UNL     1     175.228 175.279 155.046  1.00  0.00     0.004 C 
ENDBRANCH   7   8
ENDBRANCH   6   7
ENDBRANCH   5   6
ENDBRANCH   4   5
ENDBRANCH   3   4
ENDBRANCH   2   3
ENDBRANCH   1   2
BRANCH   1  10
ATOM     10  C   UNL     1     173.425 172.710 151.262  1.00  0.00     0.000 C 
BRANCH  10  11
ATOM     11  C   UNL     1     173.655 172.467 149.758  1.00  0.00     0.000 C 
BRANCH  11  12
ATOM     12  C   UNL     1     174.343 171.123 149.469  1.00  0.00     0.000 C 
BRANCH  12  13
ATOM     13  C   UNL     1     175.880 171.228 149.452  1.00  0.00     0.000 C 
BRANCH  13  14
ATOM     14  C   UNL     1     176.579 170.895 150.785  1.00  0.00     0.002 C 
BRANCH  14  15
ATOM     15  C   UNL     1     176.177 169.553 151.423  1.00  0.00     0.028 C 
BRANCH  15  16
ATOM     16  C   UNL     1     177.340 168.829 152.113  1.00  0.00     0.156 C 
BRANCH  16  17
ATOM     17  O   UNL     1     177.641 169.443 153.334  1.00  0.00    -0.396 OA
ATOM     18  H   UNL     1     178.095 168.754 153.885  1.00  0.00     0.210 HD
ENDBRANCH  16  17
ENDBRANCH  15  16
ENDBRANCH  14  15
ENDBRANCH  13  14
ENDBRANCH  12  13
ENDBRANCH  11  12
ENDBRANCH  10  11
ENDBRANCH   1  10
TORSDOF 15
ENDMDL
MODEL 7
REMARK VINA RESULT:    -3.823      9.854     11.869
REMARK INTER + INTRA:          -8.878
REMARK INTER:                  -7.170
REMARK INTRA:                  -1.708
REMARK UNBOUND:                -1.814
REMARK SMILES CCCCCCCCCCCCCCCCO
REMARK SMILES IDX 9 1 8 2 7 3 6 4 5 5 4 6 3 7 2 8 1 9 10 10 11 11 12 12 13 13
REMARK SMILES IDX 14 14 15 15 16 16 17 17
REMARK H PARENT 17 18
REMARK Flexibility Score: inf
ROOT
ATOM      1  C   UNL     1     164.013 175.234 151.802  1.00  0.00     0.000 C 
ENDROOT
BRANCH   1   2
ATOM      2  C   UNL     1     163.790 176.700 152.217  1.00  0.00    -0.000 C 
BRANCH   2   3
ATOM      3  C   UNL     1     163.292 177.603 151.067  1.00  0.00    -0.000 C 
BRANCH   3   4
ATOM      4  C   UNL     1     161.837 177.300 150.674  1.00  0.00    -0.000 C 
BRANCH   4   5
ATOM      5  C   UNL     1     160.818 177.843 151.691  1.00  0.00    -0.000 C 
BRANCH   5   6
ATOM      6  C   UNL     1     160.111 176.770 152.544  1.00  0.00    -0.000 C 
BRANCH   6   7
ATOM      7  C   UNL     1     159.743 175.474 151.792  1.00  0.00    -0.000 C 
BRANCH   7   8
ATOM      8  C   UNL     1     160.479 174.214 152.278  1.00  0.00    -0.003 C 
ATOM      9  C   UNL     1     160.853 174.277 153.758  1.00  0.00     0.004 C 
ENDBRANCH   7   8
ENDBRANCH   6   7
ENDBRANCH   5   6
ENDBRANCH   4   5
ENDBRANCH   3   4
ENDBRANCH   2   3
ENDBRANCH   1   2
BRANCH   1  10
ATOM     10  C   UNL     1     164.548 175.033 150.372  1.00  0.00     0.000 C 
BRANCH  10  11
ATOM     11  C   UNL     1     165.943 174.383 150.283  1.00  0.00     0.000 C 
BRANCH  11  12
ATOM     12  C   UNL     1     166.911 175.168 149.384  1.00  0.00     0.000 C 
BRANCH  12  13
ATOM     13  C   UNL     1     166.921 176.679 149.688  1.00  0.00     0.000 C 
BRANCH  13  14
ATOM     14  C   UNL     1     167.473 177.069 151.073  1.00  0.00     0.002 C 
BRANCH  14  15
ATOM     15  C   UNL     1     168.986 176.856 151.263  1.00  0.00     0.028 C 
BRANCH  15  16
ATOM     16  C   UNL     1     169.439 176.947 152.726  1.00  0.00     0.156 C 
BRANCH  16  17
ATOM     17  O   UNL     1     168.510 177.673 153.479  1.00  0.00    -0.396 OA
ATOM     18  H   UNL     1     168.977 178.500 153.769  1.00  0.00     0.210 HD
ENDBRANCH  16  17
ENDBRANCH  15  16
ENDBRANCH  14  15
ENDBRANCH  13  14
ENDBRANCH  12  13
ENDBRANCH  11  12
ENDBRANCH  10  11
ENDBRANCH   1  10
TORSDOF 15
ENDMDL
MODEL 8
REMARK VINA RESULT:    -3.790     10.337     12.064
REMARK INTER + INTRA:          -8.817
REMARK INTER:                  -6.813
REMARK INTRA:                  -2.004
REMARK UNBOUND:                -1.814
REMARK SMILES CCCCCCCCCCCCCCCCO
REMARK SMILES IDX 9 1 8 2 7 3 6 4 5 5 4 6 3 7 2 8 1 9 10 10 11 11 12 12 13 13
REMARK SMILES IDX 14 14 15 15 16 16 17 17
REMARK H PARENT 17 18
REMARK Flexibility Score: inf
ROOT
ATOM      1  C   UNL     1     163.458 177.410 150.755  1.00  0.00     0.000 C 
ENDROOT
BRANCH   1   2
ATOM      2  C   UNL     1     164.357 177.737 151.962  1.00  0.00    -0.000 C 
BRANCH   2   3
ATOM      3  C   UNL     1     164.593 176.536 152.904  1.00  0.00    -0.000 C 
BRANCH   3   4
ATOM      4  C   UNL     1     165.961 176.600 153.603  1.00  0.00    -0.000 C 
BRANCH   4   5
ATOM      5  C   UNL     1     167.003 177.401 152.803  1.00  0.00    -0.000 C 
BRANCH   5   6
ATOM      6  C   UNL     1     168.066 176.550 152.079  1.00  0.00    -0.000 C 
BRANCH   6   7
ATOM      7  C   UNL     1     168.362 176.970 150.625  1.00  0.00    -0.000 C 
BRANCH   7   8
ATOM      8  C   UNL     1     167.165 176.859 149.664  1.00  0.00    -0.003 C 
ATOM      9  C   UNL     1     166.598 175.443 149.581  1.00  0.00     0.004 C 
ENDBRANCH   7   8
ENDBRANCH   6   7
ENDBRANCH   5   6
ENDBRANCH   4   5
ENDBRANCH   3   4
ENDBRANCH   2   3
ENDBRANCH   1   2
BRANCH   1  10
ATOM     10  C   UNL     1     162.625 176.121 150.889  1.00  0.00     0.000 C 
BRANCH  10  11
ATOM     11  C   UNL     1     161.099 176.320 150.812  1.00  0.00     0.000 C 
BRANCH  11  12
ATOM     12  C   UNL     1     160.650 177.701 151.314  1.00  0.00     0.000 C 
BRANCH  12  13
ATOM     13  C   UNL     1     160.565 177.783 152.850  1.00  0.00     0.000 C 
BRANCH  13  14
ATOM     14  C   UNL     1     160.226 176.458 153.562  1.00  0.00     0.002 C 
BRANCH  14  15
ATOM     15  C   UNL     1     161.303 175.935 154.530  1.00  0.00     0.028 C 
BRANCH  15  16
ATOM     16  C   UNL     1     161.534 174.422 154.431  1.00  0.00     0.156 C 
BRANCH  16  17
ATOM     17  O   UNL     1     160.326 173.733 154.587  1.00  0.00    -0.396 OA
ATOM     18  H   UNL     1     159.888 174.122 155.389  1.00  0.00     0.210 HD
ENDBRANCH  16  17
ENDBRANCH  15  16
ENDBRANCH  14  15
ENDBRANCH  13  14
ENDBRANCH  12  13
ENDBRANCH  11  12
ENDBRANCH  10  11
ENDBRANCH   1  10
TORSDOF 15
ENDMDL
