MODEL 1
REMARK VINA RESULT:     0.042      0.000      0.000
REMARK INTER + INTRA:           1.358
REMARK INTER:                   0.091
REMARK INTRA:                   1.267
REMARK UNBOUND:                 1.267
REMARK SMILES CCCCCCCCCCCCCCCCCCCCCC(=O)[O-]
REMARK SMILES IDX 12 1 11 2 10 3 9 4 8 5 7 6 6 7 5 8 4 9 3 10 2 11 1 12 13 13
REMARK SMILES IDX 14 14 15 15 16 16 17 17 18 18 19 19 20 20 21 21 22 22 23 23
REMARK SMILES IDX 24 24
REMARK H PARENT
REMARK Flexibility Score: inf
ROOT
ATOM      1  C   UNL     1      33.563  24.166  33.753  1.00  0.00     0.000 C 
ENDROOT
BRANCH   1   2
ATOM      2  C   UNL     1      32.346  25.101  33.900  1.00  0.00     0.000 C 
BRANCH   2   3
ATOM      3  C   UNL     1      31.365  25.089  32.710  1.00  0.00     0.000 C 
BRANCH   3   4
ATOM      4  C   UNL     1      32.020  24.962  31.322  1.00  0.00    -0.000 C 
BRANCH   4   5
ATOM      5  C   UNL     1      31.297  23.956  30.410  1.00  0.00    -0.000 C 
BRANCH   5   6
ATOM      6  C   UNL     1      32.258  22.954  29.742  1.00  0.00    -0.000 C 
BRANCH   6   7
ATOM      7  C   UNL     1      31.884  22.547  28.306  1.00  0.00    -0.000 C 
BRANCH   7   8
ATOM      8  C   UNL     1      31.954  23.719  27.311  1.00  0.00    -0.000 C 
BRANCH   8   9
ATOM      9  C   UNL     1      31.096  24.919  27.763  1.00  0.00    -0.000 C 
BRANCH   9  10
ATOM     10  C   UNL     1      29.691  24.941  27.135  1.00  0.00    -0.000 C 
BRANCH  10  11
ATOM     11  C   UNL     1      28.570  24.941  28.183  1.00  0.00    -0.003 C 
ATOM     12  C   UNL     1      29.139  25.032  29.596  1.00  0.00     0.004 C 
ENDBRANCH  10  11
ENDBRANCH   9  10
ENDBRANCH   8   9
ENDBRANCH   7   8
ENDBRANCH   6   7
ENDBRANCH   5   6
ENDBRANCH   4   5
ENDBRANCH   3   4
ENDBRANCH   2   3
ENDBRANCH   1   2
BRANCH   1  13
ATOM     13  C   UNL     1      34.922  24.804  34.107  1.00  0.00     0.000 C 
BRANCH  13  14
ATOM     14  C   UNL     1      36.151  23.962  33.722  1.00  0.00     0.000 C 
BRANCH  14  15
ATOM     15  C   UNL     1      36.910  24.534  32.513  1.00  0.00     0.000 C 
BRANCH  15  16
ATOM     16  C   UNL     1      35.966  25.118  31.451  1.00  0.00     0.000 C 
BRANCH  16  17
ATOM     17  C   UNL     1      36.206  24.515  30.056  1.00  0.00     0.000 C 
BRANCH  17  18
ATOM     18  C   UNL     1      35.295  25.125  28.976  1.00  0.00     0.000 C 
BRANCH  18  19
ATOM     19  C   UNL     1      35.688  24.779  27.528  1.00  0.00     0.000 C 
BRANCH  19  20
ATOM     20  C   UNL     1      37.056  24.086  27.427  1.00  0.00     0.006 C 
BRANCH  20  21
ATOM     21  C   UNL     1      37.020  22.653  27.975  1.00  0.00     0.053 C 
BRANCH  21  22
ATOM     22  C   UNL     1      35.966  21.830  27.300  1.00  0.00     0.041 C 
ATOM     23  O   UNL     1      36.188  20.623  27.017  1.00  0.00    -0.550 OA
ATOM     24  O   UNL     1      34.725  22.387  27.016  1.00  0.00    -0.550 OA
ENDBRANCH  21  22
ENDBRANCH  20  21
ENDBRANCH  19  20
ENDBRANCH  18  19
ENDBRANCH  17  18
ENDBRANCH  16  17
ENDBRANCH  15  16
ENDBRANCH  14  15
ENDBRANCH  13  14
ENDBRANCH   1  13
TORSDOF 20
ENDMDL
