MODEL 1
REMARK VINA RESULT:    -3.726      0.000      0.000
REMARK INTER + INTRA:          -9.556
REMARK INTER:                  -7.210
REMARK INTRA:                  -2.345
REMARK UNBOUND:                -2.345
REMARK SMILES CCCCCCCCCCCCCCCCCC(=O)[O-]
REMARK SMILES IDX 10 1 11 2 12 3 13 4 14 5 15 6 16 7 17 8 18 9 19 10 20 11
REMARK SMILES IDX 9 12 8 13 7 14 6 15 5 16 4 17 3 18 2 19 1 20
REMARK H PARENT
REMARK Flexibility Score: inf
ROOT
ATOM      1  C   UNL     1       1.773   7.395  -8.654  1.00  0.00     0.000 C 
ENDROOT
BRANCH   1   2
ATOM      2  C   UNL     1       2.562   8.144  -9.744  1.00  0.00     0.000 C 
BRANCH   2   3
ATOM      3  C   UNL     1       2.206   7.756 -11.192  1.00  0.00     0.000 C 
BRANCH   3   4
ATOM      4  C   UNL     1       1.114   8.654 -11.798  1.00  0.00     0.000 C 
BRANCH   4   5
ATOM      5  C   UNL     1       1.562  10.116 -11.956  1.00  0.00     0.000 C 
BRANCH   5   6
ATOM      6  C   UNL     1       0.667  11.100 -11.182  1.00  0.00     0.000 C 
BRANCH   6   7
ATOM      7  C   UNL     1       1.465  12.248 -10.544  1.00  0.00     0.006 C 
BRANCH   7   8
ATOM      8  C   UNL     1       2.144  11.840  -9.229  1.00  0.00     0.053 C 
BRANCH   8   9
ATOM      9  C   UNL     1       3.621  12.070  -9.314  1.00  0.00     0.041 C 
ATOM     10  O   UNL     1       4.241  12.574  -8.338  1.00  0.00    -0.550 OA
ATOM     11  O   UNL     1       4.308  11.767 -10.484  1.00  0.00    -0.550 OA
ENDBRANCH   8   9
ENDBRANCH   7   8
ENDBRANCH   6   7
ENDBRANCH   5   6
ENDBRANCH   4   5
ENDBRANCH   3   4
ENDBRANCH   2   3
ENDBRANCH   1   2
BRANCH   1  12
ATOM     12  C   UNL     1       0.849   8.318  -7.842  1.00  0.00     0.000 C 
BRANCH  12  13
ATOM     13  C   UNL     1      -0.632   8.167  -8.248  1.00  0.00    -0.000 C 
BRANCH  13  14
ATOM     14  C   UNL     1      -0.900   6.983  -9.198  1.00  0.00    -0.000 C 
BRANCH  14  15
ATOM     15  C   UNL     1      -2.312   6.946  -9.807  1.00  0.00    -0.000 C 
BRANCH  15  16
ATOM     16  C   UNL     1      -2.301   6.639 -11.315  1.00  0.00    -0.000 C 
BRANCH  16  17
ATOM     17  C   UNL     1      -3.525   7.224 -12.043  1.00  0.00    -0.000 C 
BRANCH  17  18
ATOM     18  C   UNL     1      -4.265   8.325 -11.262  1.00  0.00    -0.000 C 
BRANCH  18  19
ATOM     19  C   UNL     1      -4.026   9.727 -11.842  1.00  0.00    -0.003 C 
ATOM     20  C   UNL     1      -2.818  10.396 -11.189  1.00  0.00     0.004 C 
ENDBRANCH  18  19
ENDBRANCH  17  18
ENDBRANCH  16  17
ENDBRANCH  15  16
ENDBRANCH  14  15
ENDBRANCH  13  14
ENDBRANCH  12  13
ENDBRANCH   1  12
TORSDOF 16
ENDMDL
MODEL 2
REMARK VINA RESULT:    -3.600      3.508      6.351
REMARK INTER + INTRA:          -9.312
REMARK INTER:                  -6.922
REMARK INTRA:                  -2.390
REMARK UNBOUND:                -2.345
REMARK SMILES CCCCCCCCCCCCCCCCCC(=O)[O-]
REMARK SMILES IDX 10 1 11 2 12 3 13 4 14 5 15 6 16 7 17 8 18 9 19 10 20 11
REMARK SMILES IDX 9 12 8 13 7 14 6 15 5 16 4 17 3 18 2 19 1 20
REMARK H PARENT
REMARK Flexibility Score: inf
ROOT
ATOM      1  C   UNL     1       1.130   8.701  -8.521  1.00  0.00     0.000 C 
ENDROOT
BRANCH   1   2
ATOM      2  C   UNL     1       0.186   7.497  -8.344  1.00  0.00     0.000 C 
BRANCH   2   3
ATOM      3  C   UNL     1      -1.294   7.772  -8.672  1.00  0.00     0.000 C 
BRANCH   3   4
ATOM      4  C   UNL     1      -1.815   6.913  -9.837  1.00  0.00     0.000 C 
BRANCH   4   5
ATOM      5  C   UNL     1      -2.507   7.745 -10.929  1.00  0.00     0.000 C 
BRANCH   5   6
ATOM      6  C   UNL     1      -2.357   9.261 -10.707  1.00  0.00     0.000 C 
BRANCH   6   7
ATOM      7  C   UNL     1      -3.454  10.073 -11.413  1.00  0.00     0.006 C 
BRANCH   7   8
ATOM      8  C   UNL     1      -4.869   9.628 -11.017  1.00  0.00     0.053 C 
BRANCH   8   9
ATOM      9  C   UNL     1      -5.818  10.782 -11.102  1.00  0.00     0.041 C 
ATOM     10  O   UNL     1      -5.639  11.804 -10.385  1.00  0.00    -0.550 OA
ATOM     11  O   UNL     1      -6.925  10.715 -11.940  1.00  0.00    -0.550 OA
ENDBRANCH   8   9
ENDBRANCH   7   8
ENDBRANCH   6   7
ENDBRANCH   5   6
ENDBRANCH   4   5
ENDBRANCH   3   4
ENDBRANCH   2   3
ENDBRANCH   1   2
BRANCH   1  12
ATOM     12  C   UNL     1       2.279   8.422  -9.505  1.00  0.00     0.000 C 
BRANCH  12  13
ATOM     13  C   UNL     1       1.812   7.618 -10.737  1.00  0.00    -0.000 C 
BRANCH  13  14
ATOM     14  C   UNL     1       1.057   8.463 -11.782  1.00  0.00    -0.000 C 
BRANCH  14  15
ATOM     15  C   UNL     1       1.657   9.855 -12.048  1.00  0.00    -0.000 C 
BRANCH  15  16
ATOM     16  C   UNL     1       0.764  10.995 -11.528  1.00  0.00    -0.000 C 
BRANCH  16  17
ATOM     17  C   UNL     1       1.567  12.266 -11.197  1.00  0.00    -0.000 C 
BRANCH  17  18
ATOM     18  C   UNL     1       3.062  12.022 -10.923  1.00  0.00    -0.000 C 
BRANCH  18  19
ATOM     19  C   UNL     1       3.482  12.444  -9.506  1.00  0.00    -0.003 C 
ATOM     20  C   UNL     1       2.405  12.087  -8.483  1.00  0.00     0.004 C 
ENDBRANCH  18  19
ENDBRANCH  17  18
ENDBRANCH  16  17
ENDBRANCH  15  16
ENDBRANCH  14  15
ENDBRANCH  13  14
ENDBRANCH  12  13
ENDBRANCH   1  12
TORSDOF 16
ENDMDL
MODEL 3
REMARK VINA RESULT:    -3.533     15.687     18.116
REMARK INTER + INTRA:          -9.183
REMARK INTER:                  -7.943
REMARK INTRA:                  -1.240
REMARK UNBOUND:                -2.345
REMARK SMILES CCCCCCCCCCCCCCCCCC(=O)[O-]
REMARK SMILES IDX 10 1 11 2 12 3 13 4 14 5 15 6 16 7 17 8 18 9 19 10 20 11
REMARK SMILES IDX 9 12 8 13 7 14 6 15 5 16 4 17 3 18 2 19 1 20
REMARK H PARENT
REMARK Flexibility Score: inf
ROOT
ATOM      1  C   UNL     1      -0.624  12.921   4.334  1.00  0.00     0.000 C 
ENDROOT
BRANCH   1   2
ATOM      2  C   UNL     1      -0.436  11.412   4.576  1.00  0.00     0.000 C 
BRANCH   2   3
ATOM      3  C   UNL     1      -1.477  10.763   5.508  1.00  0.00     0.000 C 
BRANCH   3   4
ATOM      4  C   UNL     1      -2.592  11.738   5.926  1.00  0.00     0.000 C 
BRANCH   4   5
ATOM      5  C   UNL     1      -3.976  11.321   5.403  1.00  0.00     0.000 C 
BRANCH   5   6
ATOM      6  C   UNL     1      -3.998   9.881   4.859  1.00  0.00     0.000 C 
BRANCH   6   7
ATOM      7  C   UNL     1      -4.754   8.912   5.782  1.00  0.00     0.006 C 
BRANCH   7   8
ATOM      8  C   UNL     1      -6.181   8.620   5.295  1.00  0.00     0.053 C 
BRANCH   8   9
ATOM      9  C   UNL     1      -6.423   7.144   5.254  1.00  0.00     0.041 C 
ATOM     10  O   UNL     1      -6.373   6.463   6.315  1.00  0.00    -0.550 OA
ATOM     11  O   UNL     1      -6.665   6.509   4.041  1.00  0.00    -0.550 OA
ENDBRANCH   8   9
ENDBRANCH   7   8
ENDBRANCH   6   7
ENDBRANCH   5   6
ENDBRANCH   4   5
ENDBRANCH   3   4
ENDBRANCH   2   3
ENDBRANCH   1   2
BRANCH   1  12
ATOM     12  C   UNL     1       0.483  13.774   4.974  1.00  0.00     0.000 C 
BRANCH  12  13
ATOM     13  C   UNL     1       1.838  13.037   5.017  1.00  0.00    -0.000 C 
BRANCH  13  14
ATOM     14  C   UNL     1       2.569  13.157   6.370  1.00  0.00    -0.000 C 
BRANCH  14  15
ATOM     15  C   UNL     1       2.216  12.066   7.397  1.00  0.00    -0.000 C 
BRANCH  15  16
ATOM     16  C   UNL     1       3.434  11.222   7.809  1.00  0.00    -0.000 C 
BRANCH  16  17
ATOM     17  C   UNL     1       4.738  12.039   7.825  1.00  0.00    -0.000 C 
BRANCH  17  18
ATOM     18  C   UNL     1       6.015  11.208   7.601  1.00  0.00    -0.000 C 
BRANCH  18  19
ATOM     19  C   UNL     1       6.638  11.438   6.216  1.00  0.00    -0.003 C 
ATOM     20  C   UNL     1       6.484  10.204   5.330  1.00  0.00     0.004 C 
ENDBRANCH  18  19
ENDBRANCH  17  18
ENDBRANCH  16  17
ENDBRANCH  15  16
ENDBRANCH  14  15
ENDBRANCH  13  14
ENDBRANCH  12  13
ENDBRANCH   1  12
TORSDOF 16
ENDMDL
MODEL 4
REMARK VINA RESULT:    -3.484     15.190     16.321
REMARK INTER + INTRA:          -9.088
REMARK INTER:                  -7.045
REMARK INTRA:                  -2.043
REMARK UNBOUND:                -2.345
REMARK SMILES CCCCCCCCCCCCCCCCCC(=O)[O-]
REMARK SMILES IDX 10 1 11 2 12 3 13 4 14 5 15 6 16 7 17 8 18 9 19 10 20 11
REMARK SMILES IDX 9 12 8 13 7 14 6 15 5 16 4 17 3 18 2 19 1 20
REMARK H PARENT
REMARK Flexibility Score: inf
ROOT
ATOM      1  C   UNL     1      -0.598  11.571   6.295  1.00  0.00     0.000 C 
ENDROOT
BRANCH   1   2
ATOM      2  C   UNL     1      -0.609  11.588   4.755  1.00  0.00     0.000 C 
BRANCH   2   3
ATOM      3  C   UNL     1      -0.201  12.928   4.113  1.00  0.00     0.000 C 
BRANCH   3   4
ATOM      4  C   UNL     1       0.784  13.730   4.981  1.00  0.00     0.000 C 
BRANCH   4   5
ATOM      5  C   UNL     1       2.243  13.583   4.519  1.00  0.00     0.000 C 
BRANCH   5   6
ATOM      6  C   UNL     1       3.247  13.662   5.683  1.00  0.00     0.000 C 
BRANCH   6   7
ATOM      7  C   UNL     1       3.674  12.276   6.191  1.00  0.00     0.006 C 
BRANCH   7   8
ATOM      8  C   UNL     1       5.159  12.216   6.576  1.00  0.00     0.053 C 
BRANCH   8   9
ATOM      9  C   UNL     1       5.774  10.946   6.079  1.00  0.00     0.041 C 
ATOM     10  O   UNL     1       6.830  10.980   5.391  1.00  0.00    -0.550 OA
ATOM     11  O   UNL     1       5.161   9.726   6.339  1.00  0.00    -0.550 OA
ENDBRANCH   8   9
ENDBRANCH   7   8
ENDBRANCH   6   7
ENDBRANCH   5   6
ENDBRANCH   4   5
ENDBRANCH   3   4
ENDBRANCH   2   3
ENDBRANCH   1   2
BRANCH   1  12
ATOM     12  C   UNL     1      -1.534  10.505   6.889  1.00  0.00     0.000 C 
BRANCH  12  13
ATOM     13  C   UNL     1      -2.253   9.684   5.798  1.00  0.00    -0.000 C 
BRANCH  13  14
ATOM     14  C   UNL     1      -3.420   8.828   6.331  1.00  0.00    -0.000 C 
BRANCH  14  15
ATOM     15  C   UNL     1      -4.814   9.256   5.842  1.00  0.00    -0.000 C 
BRANCH  15  16
ATOM     16  C   UNL     1      -4.766  10.030   4.512  1.00  0.00    -0.000 C 
BRANCH  16  17
ATOM     17  C   UNL     1      -5.334  11.454   4.641  1.00  0.00    -0.000 C 
BRANCH  17  18
ATOM     18  C   UNL     1      -5.201  12.070   6.046  1.00  0.00    -0.000 C 
BRANCH  18  19
ATOM     19  C   UNL     1      -4.048  13.080   6.145  1.00  0.00    -0.003 C 
ATOM     20  C   UNL     1      -3.725  13.683   4.779  1.00  0.00     0.004 C 
ENDBRANCH  18  19
ENDBRANCH  17  18
ENDBRANCH  16  17
ENDBRANCH  15  16
ENDBRANCH  14  15
ENDBRANCH  13  14
ENDBRANCH  12  13
ENDBRANCH   1  12
TORSDOF 16
ENDMDL
MODEL 5
REMARK VINA RESULT:    -3.397     15.414     16.511
REMARK INTER + INTRA:          -8.920
REMARK INTER:                  -7.643
REMARK INTRA:                  -1.277
REMARK UNBOUND:                -2.345
REMARK SMILES CCCCCCCCCCCCCCCCCC(=O)[O-]
REMARK SMILES IDX 10 1 11 2 12 3 13 4 14 5 15 6 16 7 17 8 18 9 19 10 20 11
REMARK SMILES IDX 9 12 8 13 7 14 6 15 5 16 4 17 3 18 2 19 1 20
REMARK H PARENT
REMARK Flexibility Score: inf
ROOT
ATOM      1  C   UNL     1      -0.379  11.354   4.732  1.00  0.00     0.000 C 
ENDROOT
BRANCH   1   2
ATOM      2  C   UNL     1      -0.559  12.845   4.392  1.00  0.00     0.000 C 
BRANCH   2   3
ATOM      3  C   UNL     1       0.649  13.742   4.724  1.00  0.00     0.000 C 
BRANCH   3   4
ATOM      4  C   UNL     1       1.914  12.936   5.067  1.00  0.00     0.000 C 
BRANCH   4   5
ATOM      5  C   UNL     1       3.189  13.795   5.060  1.00  0.00     0.000 C 
BRANCH   5   6
ATOM      6  C   UNL     1       4.283  13.244   5.992  1.00  0.00     0.000 C 
BRANCH   6   7
ATOM      7  C   UNL     1       3.930  11.864   6.568  1.00  0.00     0.006 C 
BRANCH   7   8
ATOM      8  C   UNL     1       5.155  11.116   7.113  1.00  0.00     0.053 C 
BRANCH   8   9
ATOM      9  C   UNL     1       5.810  10.328   6.023  1.00  0.00     0.041 C 
ATOM     10  O   UNL     1       5.238   9.309   5.546  1.00  0.00    -0.550 OA
ATOM     11  O   UNL     1       7.069  10.690   5.559  1.00  0.00    -0.550 OA
ENDBRANCH   8   9
ENDBRANCH   7   8
ENDBRANCH   6   7
ENDBRANCH   5   6
ENDBRANCH   4   5
ENDBRANCH   3   4
ENDBRANCH   2   3
ENDBRANCH   1   2
BRANCH   1  12
ATOM     12  C   UNL     1      -1.577  10.765   5.497  1.00  0.00     0.000 C 
BRANCH  12  13
ATOM     13  C   UNL     1      -2.647  11.830   5.817  1.00  0.00    -0.000 C 
BRANCH  13  14
ATOM     14  C   UNL     1      -4.061  11.458   5.328  1.00  0.00    -0.000 C 
BRANCH  14  15
ATOM     15  C   UNL     1      -4.218  10.006   4.842  1.00  0.00    -0.000 C 
BRANCH  15  16
ATOM     16  C   UNL     1      -5.691   9.575   4.724  1.00  0.00    -0.000 C 
BRANCH  16  17
ATOM     17  C   UNL     1      -5.960   8.215   5.394  1.00  0.00    -0.000 C 
BRANCH  17  18
ATOM     18  C   UNL     1      -5.485   8.119   6.855  1.00  0.00    -0.000 C 
BRANCH  18  19
ATOM     19  C   UNL     1      -4.245   7.226   7.018  1.00  0.00    -0.003 C 
ATOM     20  C   UNL     1      -3.126   7.965   7.749  1.00  0.00     0.004 C 
ENDBRANCH  18  19
ENDBRANCH  17  18
ENDBRANCH  16  17
ENDBRANCH  15  16
ENDBRANCH  14  15
ENDBRANCH  13  14
ENDBRANCH  12  13
ENDBRANCH   1  12
TORSDOF 16
ENDMDL
MODEL 6
REMARK VINA RESULT:    -3.323     15.239     16.434
REMARK INTER + INTRA:          -8.776
REMARK INTER:                  -7.225
REMARK INTRA:                  -1.551
REMARK UNBOUND:                -2.345
REMARK SMILES CCCCCCCCCCCCCCCCCC(=O)[O-]
REMARK SMILES IDX 10 1 11 2 12 3 13 4 14 5 15 6 16 7 17 8 18 9 19 10 20 11
REMARK SMILES IDX 9 12 8 13 7 14 6 15 5 16 4 17 3 18 2 19 1 20
REMARK H PARENT
REMARK Flexibility Score: inf
ROOT
ATOM      1  C   UNL     1      -0.431  13.222   4.017  1.00  0.00     0.000 C 
ENDROOT
BRANCH   1   2
ATOM      2  C   UNL     1       0.139  12.101   4.904  1.00  0.00     0.000 C 
BRANCH   2   3
ATOM      3  C   UNL     1       1.558  12.356   5.449  1.00  0.00     0.000 C 
BRANCH   3   4
ATOM      4  C   UNL     1       2.246  13.558   4.781  1.00  0.00     0.000 C 
BRANCH   4   5
ATOM      5  C   UNL     1       3.699  13.750   5.247  1.00  0.00     0.000 C 
BRANCH   5   6
ATOM      6  C   UNL     1       3.877  13.507   6.757  1.00  0.00     0.000 C 
BRANCH   6   7
ATOM      7  C   UNL     1       5.054  12.572   7.070  1.00  0.00     0.006 C 
BRANCH   7   8
ATOM      8  C   UNL     1       4.693  11.088   6.912  1.00  0.00     0.053 C 
BRANCH   8   9
ATOM      9  C   UNL     1       5.583  10.441   5.898  1.00  0.00     0.041 C 
ATOM     10  O   UNL     1       5.317   9.287   5.464  1.00  0.00    -0.550 OA
ATOM     11  O   UNL     1       6.731  11.093   5.461  1.00  0.00    -0.550 OA
ENDBRANCH   8   9
ENDBRANCH   7   8
ENDBRANCH   6   7
ENDBRANCH   5   6
ENDBRANCH   4   5
ENDBRANCH   3   4
ENDBRANCH   2   3
ENDBRANCH   1   2
BRANCH   1  12
ATOM     12  C   UNL     1      -1.704  13.860   4.601  1.00  0.00     0.000 C 
BRANCH  12  13
ATOM     13  C   UNL     1      -2.487  12.882   5.502  1.00  0.00    -0.000 C 
BRANCH  13  14
ATOM     14  C   UNL     1      -4.001  13.167   5.561  1.00  0.00    -0.000 C 
BRANCH  14  15
ATOM     15  C   UNL     1      -4.795  12.707   4.326  1.00  0.00    -0.000 C 
BRANCH  15  16
ATOM     16  C   UNL     1      -5.570  11.400   4.570  1.00  0.00    -0.000 C 
BRANCH  16  17
ATOM     17  C   UNL     1      -4.640  10.178   4.680  1.00  0.00    -0.000 C 
BRANCH  17  18
ATOM     18  C   UNL     1      -4.719   9.436   6.027  1.00  0.00    -0.000 C 
BRANCH  18  19
ATOM     19  C   UNL     1      -3.377   9.416   6.773  1.00  0.00    -0.003 C 
ATOM     20  C   UNL     1      -2.205   9.333   5.797  1.00  0.00     0.004 C 
ENDBRANCH  18  19
ENDBRANCH  17  18
ENDBRANCH  16  17
ENDBRANCH  15  16
ENDBRANCH  14  15
ENDBRANCH  13  14
ENDBRANCH  12  13
ENDBRANCH   1  12
TORSDOF 16
ENDMDL
MODEL 7
REMARK VINA RESULT:    -3.260     15.231     17.036
REMARK INTER + INTRA:          -8.654
REMARK INTER:                  -6.918
REMARK INTRA:                  -1.736
REMARK UNBOUND:                -2.345
REMARK SMILES CCCCCCCCCCCCCCCCCC(=O)[O-]
REMARK SMILES IDX 10 1 11 2 12 3 13 4 14 5 15 6 16 7 17 8 18 9 19 10 20 11
REMARK SMILES IDX 9 12 8 13 7 14 6 15 5 16 4 17 3 18 2 19 1 20
REMARK H PARENT
REMARK Flexibility Score: inf
ROOT
ATOM      1  C   UNL     1       1.140  12.980   5.031  1.00  0.00     0.000 C 
ENDROOT
BRANCH   1   2
ATOM      2  C   UNL     1       2.328  13.773   4.457  1.00  0.00     0.000 C 
BRANCH   2   3
ATOM      3  C   UNL     1       3.633  13.679   5.271  1.00  0.00     0.000 C 
BRANCH   3   4
ATOM      4  C   UNL     1       3.442  14.058   6.749  1.00  0.00     0.000 C 
BRANCH   4   5
ATOM      5  C   UNL     1       4.078  13.043   7.713  1.00  0.00     0.000 C 
BRANCH   5   6
ATOM      6  C   UNL     1       3.550  11.613   7.505  1.00  0.00     0.000 C 
BRANCH   6   7
ATOM      7  C   UNL     1       4.548  10.541   7.970  1.00  0.00     0.006 C 
BRANCH   7   8
ATOM      8  C   UNL     1       5.975  10.799   7.465  1.00  0.00     0.053 C 
BRANCH   8   9
ATOM      9  C   UNL     1       6.086  10.442   6.016  1.00  0.00     0.041 C 
ATOM     10  O   UNL     1       6.817  11.125   5.249  1.00  0.00    -0.550 OA
ATOM     11  O   UNL     1       5.351   9.380   5.501  1.00  0.00    -0.550 OA
ENDBRANCH   8   9
ENDBRANCH   7   8
ENDBRANCH   6   7
ENDBRANCH   5   6
ENDBRANCH   4   5
ENDBRANCH   3   4
ENDBRANCH   2   3
ENDBRANCH   1   2
BRANCH   1  12
ATOM     12  C   UNL     1      -0.029  12.848   4.040  1.00  0.00     0.000 C 
BRANCH  12  13
ATOM     13  C   UNL     1      -1.201  13.789   4.389  1.00  0.00    -0.000 C 
BRANCH  13  14
ATOM     14  C   UNL     1      -1.452  13.935   5.904  1.00  0.00    -0.000 C 
BRANCH  14  15
ATOM     15  C   UNL     1      -2.404  12.887   6.506  1.00  0.00    -0.000 C 
BRANCH  15  16
ATOM     16  C   UNL     1      -1.657  11.748   7.222  1.00  0.00    -0.000 C 
BRANCH  16  17
ATOM     17  C   UNL     1      -1.787  10.404   6.483  1.00  0.00    -0.000 C 
BRANCH  17  18
ATOM     18  C   UNL     1      -2.695  10.445   5.240  1.00  0.00    -0.000 C 
BRANCH  18  19
ATOM     19  C   UNL     1      -4.061   9.785   5.481  1.00  0.00    -0.003 C 
ATOM     20  C   UNL     1      -3.966   8.692   6.544  1.00  0.00     0.004 C 
ENDBRANCH  18  19
ENDBRANCH  17  18
ENDBRANCH  16  17
ENDBRANCH  15  16
ENDBRANCH  14  15
ENDBRANCH  13  14
ENDBRANCH  12  13
ENDBRANCH   1  12
TORSDOF 16
ENDMDL
MODEL 8
REMARK VINA RESULT:    -3.213      9.308     11.803
REMARK INTER + INTRA:          -8.563
REMARK INTER:                  -5.964
REMARK INTRA:                  -2.599
REMARK UNBOUND:                -2.345
REMARK SMILES CCCCCCCCCCCCCCCCCC(=O)[O-]
REMARK SMILES IDX 10 1 11 2 12 3 13 4 14 5 15 6 16 7 17 8 18 9 19 10 20 11
REMARK SMILES IDX 9 12 8 13 7 14 6 15 5 16 4 17 3 18 2 19 1 20
REMARK H PARENT
REMARK Flexibility Score: inf
ROOT
ATOM      1  C   UNL     1       7.729  12.590  -4.598  1.00  0.00     0.000 C 
ENDROOT
BRANCH   1   2
ATOM      2  C   UNL     1       8.399  13.962  -4.404  1.00  0.00     0.000 C 
BRANCH   2   3
ATOM      3  C   UNL     1       9.923  13.985  -4.628  1.00  0.00     0.000 C 
BRANCH   3   4
ATOM      4  C   UNL     1      10.703  13.316  -3.483  1.00  0.00     0.000 C 
BRANCH   4   5
ATOM      5  C   UNL     1      12.136  12.929  -3.884  1.00  0.00     0.000 C 
BRANCH   5   6
ATOM      6  C   UNL     1      12.361  11.406  -3.891  1.00  0.00     0.000 C 
BRANCH   6   7
ATOM      7  C   UNL     1      11.938  10.752  -5.215  1.00  0.00     0.006 C 
BRANCH   7   8
ATOM      8  C   UNL     1      10.739   9.807  -5.053  1.00  0.00     0.053 C 
BRANCH   8   9
ATOM      9  C   UNL     1      11.163   8.388  -5.270  1.00  0.00     0.041 C 
ATOM     10  O   UNL     1      11.612   8.025  -6.392  1.00  0.00    -0.550 OA
ATOM     11  O   UNL     1      11.024   7.455  -4.249  1.00  0.00    -0.550 OA
ENDBRANCH   8   9
ENDBRANCH   7   8
ENDBRANCH   6   7
ENDBRANCH   5   6
ENDBRANCH   4   5
ENDBRANCH   3   4
ENDBRANCH   2   3
ENDBRANCH   1   2
BRANCH   1  12
ATOM     12  C   UNL     1       6.513  12.643  -5.539  1.00  0.00     0.000 C 
BRANCH  12  13
ATOM     13  C   UNL     1       6.674  13.709  -6.643  1.00  0.00    -0.000 C 
BRANCH  13  14
ATOM     14  C   UNL     1       7.267  13.160  -7.956  1.00  0.00    -0.000 C 
BRANCH  14  15
ATOM     15  C   UNL     1       8.749  13.503  -8.192  1.00  0.00    -0.000 C 
BRANCH  15  16
ATOM     16  C   UNL     1       9.676  12.289  -8.012  1.00  0.00    -0.000 C 
BRANCH  16  17
ATOM     17  C   UNL     1       8.897  10.964  -7.917  1.00  0.00    -0.000 C 
BRANCH  17  18
ATOM     18  C   UNL     1       9.569   9.777  -8.631  1.00  0.00    -0.000 C 
BRANCH  18  19
ATOM     19  C   UNL     1      10.924  10.147  -9.251  1.00  0.00    -0.003 C 
ATOM     20  C   UNL     1      10.885  10.027 -10.774  1.00  0.00     0.004 C 
ENDBRANCH  18  19
ENDBRANCH  17  18
ENDBRANCH  16  17
ENDBRANCH  15  16
ENDBRANCH  14  15
ENDBRANCH  13  14
ENDBRANCH  12  13
ENDBRANCH   1  12
TORSDOF 16
ENDMDL
MODEL 9
REMARK VINA RESULT:    -3.205      4.923      9.550
REMARK INTER + INTRA:          -8.548
REMARK INTER:                  -7.493
REMARK INTRA:                  -1.055
REMARK UNBOUND:                -2.345
REMARK SMILES CCCCCCCCCCCCCCCCCC(=O)[O-]
REMARK SMILES IDX 10 1 11 2 12 3 13 4 14 5 15 6 16 7 17 8 18 9 19 10 20 11
REMARK SMILES IDX 9 12 8 13 7 14 6 15 5 16 4 17 3 18 2 19 1 20
REMARK H PARENT
REMARK Flexibility Score: inf
ROOT
ATOM      1  C   UNL     1       4.743  13.520  -8.368  1.00  0.00     0.000 C 
ENDROOT
BRANCH   1   2
ATOM      2  C   UNL     1       3.816  12.637  -9.224  1.00  0.00     0.000 C 
BRANCH   2   3
ATOM      3  C   UNL     1       2.579  12.082  -8.490  1.00  0.00     0.000 C 
BRANCH   3   4
ATOM      4  C   UNL     1       2.015  10.813  -9.150  1.00  0.00     0.000 C 
BRANCH   4   5
ATOM      5  C   UNL     1       2.723  10.460 -10.468  1.00  0.00     0.000 C 
BRANCH   5   6
ATOM      6  C   UNL     1       2.964   8.948 -10.629  1.00  0.00     0.000 C 
BRANCH   6   7
ATOM      7  C   UNL     1       2.246   8.117  -9.554  1.00  0.00     0.006 C 
BRANCH   7   8
ATOM      8  C   UNL     1       1.005   7.393 -10.094  1.00  0.00     0.053 C 
BRANCH   8   9
ATOM      9  C   UNL     1       0.114   6.978  -8.965  1.00  0.00     0.041 C 
ATOM     10  O   UNL     1      -0.886   6.240  -9.185  1.00  0.00    -0.550 OA
ATOM     11  O   UNL     1       0.359   7.439  -7.677  1.00  0.00    -0.550 OA
ENDBRANCH   8   9
ENDBRANCH   7   8
ENDBRANCH   6   7
ENDBRANCH   5   6
ENDBRANCH   4   5
ENDBRANCH   3   4
ENDBRANCH   2   3
ENDBRANCH   1   2
BRANCH   1  12
ATOM     12  C   UNL     1       6.232  13.316  -8.692  1.00  0.00     0.000 C 
BRANCH  12  13
ATOM     13  C   UNL     1       7.118  13.369  -7.429  1.00  0.00    -0.000 C 
BRANCH  13  14
ATOM     14  C   UNL     1       6.374  12.997  -6.131  1.00  0.00    -0.000 C 
BRANCH  14  15
ATOM     15  C   UNL     1       7.259  12.397  -5.025  1.00  0.00    -0.000 C 
BRANCH  15  16
ATOM     16  C   UNL     1       8.704  12.924  -5.069  1.00  0.00    -0.000 C 
BRANCH  16  17
ATOM     17  C   UNL     1       9.743  11.789  -5.113  1.00  0.00    -0.000 C 
BRANCH  17  18
ATOM     18  C   UNL     1       9.210  10.458  -5.674  1.00  0.00    -0.000 C 
BRANCH  18  19
ATOM     19  C   UNL     1      10.332   9.517  -6.137  1.00  0.00    -0.003 C 
ATOM     20  C   UNL     1      10.874   8.691  -4.972  1.00  0.00     0.004 C 
ENDBRANCH  18  19
ENDBRANCH  17  18
ENDBRANCH  16  17
ENDBRANCH  15  16
ENDBRANCH  14  15
ENDBRANCH  13  14
ENDBRANCH  12  13
ENDBRANCH   1  12
TORSDOF 16
ENDMDL
