MODEL 1
REMARK VINA RESULT:    -5.028      0.000      0.000
REMARK INTER + INTRA:          -8.143
REMARK INTER:                  -7.673
REMARK INTRA:                  -0.469
REMARK UNBOUND:                -0.469
REMARK SMILES CCCCCCCCCCC(=O)[O-]
REMARK SMILES IDX 7 1 8 2 9 3 10 4 11 5 12 6 13 7 6 8 5 9 4 10 3 11 2 12 1 13
REMARK H PARENT
REMARK Flexibility Score: inf
ROOT
ATOM      1  C   UNL     1     -11.697  -0.070 -10.002  1.00  0.00     0.000 C 
ENDROOT
BRANCH   1   2
ATOM      2  C   UNL     1     -10.593  -1.113 -10.207  1.00  0.00     0.000 C 
BRANCH   2   3
ATOM      3  C   UNL     1     -11.038  -2.493  -9.700  1.00  0.00     0.006 C 
BRANCH   3   4
ATOM      4  C   UNL     1      -9.850  -3.366  -9.274  1.00  0.00     0.053 C 
BRANCH   4   5
ATOM      5  C   UNL     1     -10.281  -4.751  -8.904  1.00  0.00     0.041 C 
ATOM      6  O   UNL     1     -11.399  -5.190  -9.283  1.00  0.00    -0.550 OA
ATOM      7  O   UNL     1      -9.433  -5.572  -8.170  1.00  0.00    -0.550 OA
ENDBRANCH   4   5
ENDBRANCH   3   4
ENDBRANCH   2   3
ENDBRANCH   1   2
BRANCH   1   8
ATOM      8  C   UNL     1     -13.069  -0.635 -10.391  1.00  0.00     0.000 C 
BRANCH   8   9
ATOM      9  C   UNL     1     -14.193   0.339 -10.008  1.00  0.00    -0.000 C 
BRANCH   9  10
ATOM     10  C   UNL     1     -13.671   1.747  -9.680  1.00  0.00    -0.000 C 
BRANCH  10  11
ATOM     11  C   UNL     1     -14.719   2.614  -8.967  1.00  0.00    -0.000 C 
BRANCH  11  12
ATOM     12  C   UNL     1     -14.078   3.882  -8.387  1.00  0.00    -0.003 C 
ATOM     13  C   UNL     1     -12.571   3.895  -8.625  1.00  0.00     0.004 C 
ENDBRANCH  11  12
ENDBRANCH  10  11
ENDBRANCH   9  10
ENDBRANCH   8   9
ENDBRANCH   1   8
TORSDOF 9
ENDMDL
MODEL 2
REMARK VINA RESULT:    -4.662      1.046      1.786
REMARK INTER + INTRA:          -7.585
REMARK INTER:                  -7.070
REMARK INTRA:                  -0.515
REMARK UNBOUND:                -0.469
REMARK SMILES CCCCCCCCCCC(=O)[O-]
REMARK SMILES IDX 7 1 8 2 9 3 10 4 11 5 12 6 13 7 6 8 5 9 4 10 3 11 2 12 1 13
REMARK H PARENT
REMARK Flexibility Score: inf
ROOT
ATOM      1  C   UNL     1     -10.680  -1.029 -10.094  1.00  0.00     0.000 C 
ENDROOT
BRANCH   1   2
ATOM      2  C   UNL     1     -11.040  -2.469  -9.710  1.00  0.00     0.000 C 
BRANCH   2   3
ATOM      3  C   UNL     1      -9.784  -3.269  -9.336  1.00  0.00     0.006 C 
BRANCH   3   4
ATOM      4  C   UNL     1      -9.644  -3.455  -7.819  1.00  0.00     0.053 C 
BRANCH   4   5
ATOM      5  C   UNL     1     -10.073  -4.821  -7.383  1.00  0.00     0.041 C 
ATOM      6  O   UNL     1     -10.783  -4.965  -6.354  1.00  0.00    -0.550 OA
ATOM      7  O   UNL     1      -9.718  -5.936  -8.135  1.00  0.00    -0.550 OA
ENDBRANCH   4   5
ENDBRANCH   3   4
ENDBRANCH   2   3
ENDBRANCH   1   2
BRANCH   1   8
ATOM      8  C   UNL     1     -11.919  -0.126 -10.073  1.00  0.00     0.000 C 
BRANCH   8   9
ATOM      9  C   UNL     1     -13.164  -0.889 -10.549  1.00  0.00    -0.000 C 
BRANCH   9  10
ATOM     10  C   UNL     1     -14.458  -0.385  -9.889  1.00  0.00    -0.000 C 
BRANCH  10  11
ATOM     11  C   UNL     1     -14.807   1.054 -10.297  1.00  0.00    -0.000 C 
BRANCH  11  12
ATOM     12  C   UNL     1     -14.896   1.966  -9.067  1.00  0.00    -0.003 C 
ATOM     13  C   UNL     1     -13.731   2.950  -9.025  1.00  0.00     0.004 C 
ENDBRANCH  11  12
ENDBRANCH  10  11
ENDBRANCH   9  10
ENDBRANCH   8   9
ENDBRANCH   1   8
TORSDOF 9
ENDMDL
MODEL 3
REMARK VINA RESULT:    -4.640      3.664      6.911
REMARK INTER + INTRA:          -7.550
REMARK INTER:                  -7.113
REMARK INTRA:                  -0.437
REMARK UNBOUND:                -0.469
REMARK SMILES CCCCCCCCCCC(=O)[O-]
REMARK SMILES IDX 7 1 8 2 9 3 10 4 11 5 12 6 13 7 6 8 5 9 4 10 3 11 2 12 1 13
REMARK H PARENT
REMARK Flexibility Score: inf
ROOT
ATOM      1  C   UNL     1     -13.217  -0.851 -10.615  1.00  0.00     0.000 C 
ENDROOT
BRANCH   1   2
ATOM      2  C   UNL     1     -14.523  -0.296 -10.034  1.00  0.00     0.000 C 
BRANCH   2   3
ATOM      3  C   UNL     1     -14.634   1.217 -10.277  1.00  0.00     0.006 C 
BRANCH   3   4
ATOM      4  C   UNL     1     -14.854   1.999  -8.975  1.00  0.00     0.053 C 
BRANCH   4   5
ATOM      5  C   UNL     1     -13.922   3.165  -8.863  1.00  0.00     0.041 C 
ATOM      6  O   UNL     1     -14.338   4.270  -8.425  1.00  0.00    -0.550 OA
ATOM      7  O   UNL     1     -12.583   3.023  -9.208  1.00  0.00    -0.550 OA
ENDBRANCH   4   5
ENDBRANCH   3   4
ENDBRANCH   2   3
ENDBRANCH   1   2
BRANCH   1   8
ATOM      8  C   UNL     1     -11.998  -0.231  -9.921  1.00  0.00     0.000 C 
BRANCH   8   9
ATOM      9  C   UNL     1     -10.718  -1.009 -10.262  1.00  0.00    -0.000 C 
BRANCH   9  10
ATOM     10  C   UNL     1     -10.374  -2.076  -9.209  1.00  0.00    -0.000 C 
BRANCH  10  11
ATOM     11  C   UNL     1     -10.002  -3.427  -9.837  1.00  0.00    -0.000 C 
BRANCH  11  12
ATOM     12  C   UNL     1     -10.311  -4.581  -8.875  1.00  0.00    -0.003 C 
ATOM     13  C   UNL     1      -9.937  -4.218  -7.441  1.00  0.00     0.004 C 
ENDBRANCH  11  12
ENDBRANCH  10  11
ENDBRANCH   9  10
ENDBRANCH   8   9
ENDBRANCH   1   8
TORSDOF 9
ENDMDL
MODEL 4
REMARK VINA RESULT:    -4.492      5.158      7.368
REMARK INTER + INTRA:          -7.324
REMARK INTER:                  -6.068
REMARK INTRA:                  -1.256
REMARK UNBOUND:                -0.469
REMARK SMILES CCCCCCCCCCC(=O)[O-]
REMARK SMILES IDX 7 1 8 2 9 3 10 4 11 5 12 6 13 7 6 8 5 9 4 10 3 11 2 12 1 13
REMARK H PARENT
REMARK Flexibility Score: inf
ROOT
ATOM      1  C   UNL     1     -12.144  -7.367  -9.196  1.00  0.00     0.000 C 
ENDROOT
BRANCH   1   2
ATOM      2  C   UNL     1     -10.770  -7.489  -8.527  1.00  0.00     0.000 C 
BRANCH   2   3
ATOM      3  C   UNL     1     -10.150  -6.105  -8.287  1.00  0.00     0.006 C 
BRANCH   3   4
ATOM      4  C   UNL     1     -10.919  -4.991  -9.010  1.00  0.00     0.053 C 
BRANCH   4   5
ATOM      5  C   UNL     1     -10.067  -3.780  -9.231  1.00  0.00     0.041 C 
ATOM      6  O   UNL     1      -9.548  -3.567 -10.359  1.00  0.00    -0.550 OA
ATOM      7  O   UNL     1      -9.875  -2.866  -8.202  1.00  0.00    -0.550 OA
ENDBRANCH   4   5
ENDBRANCH   3   4
ENDBRANCH   2   3
ENDBRANCH   1   2
BRANCH   1   8
ATOM      8  C   UNL     1     -13.259  -7.841  -8.255  1.00  0.00     0.000 C 
BRANCH   8   9
ATOM      9  C   UNL     1     -14.008  -6.646  -7.645  1.00  0.00    -0.000 C 
BRANCH   9  10
ATOM     10  C   UNL     1     -13.756  -6.497  -6.136  1.00  0.00    -0.000 C 
BRANCH  10  11
ATOM     11  C   UNL     1     -13.157  -7.764  -5.508  1.00  0.00    -0.000 C 
BRANCH  11  12
ATOM     12  C   UNL     1     -11.768  -7.480  -4.921  1.00  0.00    -0.003 C 
ATOM     13  C   UNL     1     -11.475  -5.983  -4.901  1.00  0.00     0.004 C 
ENDBRANCH  11  12
ENDBRANCH  10  11
ENDBRANCH   9  10
ENDBRANCH   8   9
ENDBRANCH   1   8
TORSDOF 9
ENDMDL
MODEL 5
REMARK VINA RESULT:    -4.474      5.335      7.414
REMARK INTER + INTRA:          -7.297
REMARK INTER:                  -6.091
REMARK INTRA:                  -1.206
REMARK UNBOUND:                -0.469
REMARK SMILES CCCCCCCCCCC(=O)[O-]
REMARK SMILES IDX 7 1 8 2 9 3 10 4 11 5 12 6 13 7 6 8 5 9 4 10 3 11 2 12 1 13
REMARK H PARENT
REMARK Flexibility Score: inf
ROOT
ATOM      1  C   UNL     1     -11.114  -5.473  -6.201  1.00  0.00     0.000 C 
ENDROOT
BRANCH   1   2
ATOM      2  C   UNL     1     -10.297  -6.425  -7.082  1.00  0.00     0.000 C 
BRANCH   2   3
ATOM      3  C   UNL     1     -10.526  -6.129  -8.572  1.00  0.00     0.006 C 
BRANCH   3   4
ATOM      4  C   UNL     1     -10.878  -4.657  -8.824  1.00  0.00     0.053 C 
BRANCH   4   5
ATOM      5  C   UNL     1      -9.677  -3.860  -9.229  1.00  0.00     0.041 C 
ATOM      6  O   UNL     1      -9.540  -3.482 -10.422  1.00  0.00    -0.550 OA
ATOM      7  O   UNL     1      -8.726  -3.503  -8.281  1.00  0.00    -0.550 OA
ENDBRANCH   4   5
ENDBRANCH   3   4
ENDBRANCH   2   3
ENDBRANCH   1   2
BRANCH   1   8
ATOM      8  C   UNL     1     -11.538  -6.157  -4.895  1.00  0.00     0.000 C 
BRANCH   8   9
ATOM      9  C   UNL     1     -11.793  -7.655  -5.117  1.00  0.00    -0.000 C 
BRANCH   9  10
ATOM     10  C   UNL     1     -13.287  -7.988  -5.258  1.00  0.00    -0.000 C 
BRANCH  10  11
ATOM     11  C   UNL     1     -13.777  -7.903  -6.712  1.00  0.00    -0.000 C 
BRANCH  11  12
ATOM     12  C   UNL     1     -14.683  -6.682  -6.913  1.00  0.00    -0.003 C 
ATOM     13  C   UNL     1     -14.295  -5.909  -8.170  1.00  0.00     0.004 C 
ENDBRANCH  11  12
ENDBRANCH  10  11
ENDBRANCH   9  10
ENDBRANCH   8   9
ENDBRANCH   1   8
TORSDOF 9
ENDMDL
MODEL 6
REMARK VINA RESULT:    -4.455      1.796      3.364
REMARK INTER + INTRA:          -7.268
REMARK INTER:                  -6.903
REMARK INTRA:                  -0.365
REMARK UNBOUND:                -0.469
REMARK SMILES CCCCCCCCCCC(=O)[O-]
REMARK SMILES IDX 7 1 8 2 9 3 10 4 11 5 12 6 13 7 6 8 5 9 4 10 3 11 2 12 1 13
REMARK H PARENT
REMARK Flexibility Score: inf
ROOT
ATOM      1  C   UNL     1     -10.641  -3.380  -9.597  1.00  0.00     0.000 C 
ENDROOT
BRANCH   1   2
ATOM      2  C   UNL     1      -9.707  -4.319  -8.825  1.00  0.00     0.000 C 
BRANCH   2   3
ATOM      3  C   UNL     1     -10.225  -4.559  -7.398  1.00  0.00     0.006 C 
BRANCH   3   4
ATOM      4  C   UNL     1     -11.282  -5.669  -7.343  1.00  0.00     0.053 C 
BRANCH   4   5
ATOM      5  C   UNL     1     -10.659  -7.030  -7.310  1.00  0.00     0.041 C 
ATOM      6  O   UNL     1     -10.461  -7.663  -8.381  1.00  0.00    -0.550 OA
ATOM      7  O   UNL     1     -10.264  -7.586  -6.099  1.00  0.00    -0.550 OA
ENDBRANCH   4   5
ENDBRANCH   3   4
ENDBRANCH   2   3
ENDBRANCH   1   2
BRANCH   1   8
ATOM      8  C   UNL     1     -10.392  -1.916  -9.214  1.00  0.00     0.000 C 
BRANCH   8   9
ATOM      9  C   UNL     1     -10.900  -0.967 -10.308  1.00  0.00    -0.000 C 
BRANCH   9  10
ATOM     10  C   UNL     1     -12.150  -0.182  -9.878  1.00  0.00    -0.000 C 
BRANCH  10  11
ATOM     11  C   UNL     1     -13.417  -0.636 -10.619  1.00  0.00    -0.000 C 
BRANCH  11  12
ATOM     12  C   UNL     1     -14.679  -0.211  -9.856  1.00  0.00    -0.003 C 
ATOM     13  C   UNL     1     -14.765   1.307  -9.737  1.00  0.00     0.004 C 
ENDBRANCH  11  12
ENDBRANCH  10  11
ENDBRANCH   9  10
ENDBRANCH   8   9
ENDBRANCH   1   8
TORSDOF 9
ENDMDL
MODEL 7
REMARK VINA RESULT:    -4.422     15.451     17.316
REMARK INTER + INTRA:          -7.218
REMARK INTER:                  -6.222
REMARK INTRA:                  -0.995
REMARK UNBOUND:                -0.469
REMARK SMILES CCCCCCCCCCC(=O)[O-]
REMARK SMILES IDX 7 1 8 2 9 3 10 4 11 5 12 6 13 7 6 8 5 9 4 10 3 11 2 12 1 13
REMARK H PARENT
REMARK Flexibility Score: inf
ROOT
ATOM      1  C   UNL     1     -13.590   5.178   6.446  1.00  0.00     0.000 C 
ENDROOT
BRANCH   1   2
ATOM      2  C   UNL     1     -12.933   4.473   5.254  1.00  0.00     0.000 C 
BRANCH   2   3
ATOM      3  C   UNL     1     -13.526   4.968   3.926  1.00  0.00     0.006 C 
BRANCH   3   4
ATOM      4  C   UNL     1     -14.518   6.121   4.128  1.00  0.00     0.053 C 
BRANCH   4   5
ATOM      5  C   UNL     1     -14.352   7.187   3.091  1.00  0.00     0.041 C 
ATOM      6  O   UNL     1     -14.218   8.391   3.435  1.00  0.00    -0.550 OA
ATOM      7  O   UNL     1     -14.309   6.848   1.744  1.00  0.00    -0.550 OA
ENDBRANCH   4   5
ENDBRANCH   3   4
ENDBRANCH   2   3
ENDBRANCH   1   2
BRANCH   1   8
ATOM      8  C   UNL     1     -13.265   4.458   7.761  1.00  0.00     0.000 C 
BRANCH   8   9
ATOM      9  C   UNL     1     -12.104   3.469   7.574  1.00  0.00    -0.000 C 
BRANCH   9  10
ATOM     10  C   UNL     1     -10.959   3.705   8.572  1.00  0.00    -0.000 C 
BRANCH  10  11
ATOM     11  C   UNL     1     -10.317   5.092   8.417  1.00  0.00    -0.000 C 
BRANCH  11  12
ATOM     12  C   UNL     1      -9.712   5.263   7.018  1.00  0.00    -0.003 C 
ATOM     13  C   UNL     1     -10.117   6.599   6.402  1.00  0.00     0.004 C 
ENDBRANCH  11  12
ENDBRANCH  10  11
ENDBRANCH   9  10
ENDBRANCH   8   9
ENDBRANCH   1   8
TORSDOF 9
ENDMDL
MODEL 8
REMARK VINA RESULT:    -4.367     15.623     17.624
REMARK INTER + INTRA:          -7.134
REMARK INTER:                  -6.090
REMARK INTRA:                  -1.044
REMARK UNBOUND:                -0.469
REMARK SMILES CCCCCCCCCCC(=O)[O-]
REMARK SMILES IDX 7 1 8 2 9 3 10 4 11 5 12 6 13 7 6 8 5 9 4 10 3 11 2 12 1 13
REMARK H PARENT
REMARK Flexibility Score: inf
ROOT
ATOM      1  C   UNL     1     -13.920   4.982   7.416  1.00  0.00     0.000 C 
ENDROOT
BRANCH   1   2
ATOM      2  C   UNL     1     -14.263   6.446   7.119  1.00  0.00     0.000 C 
BRANCH   2   3
ATOM      3  C   UNL     1     -13.507   6.948   5.879  1.00  0.00     0.006 C 
BRANCH   3   4
ATOM      4  C   UNL     1     -14.429   7.107   4.663  1.00  0.00     0.053 C 
BRANCH   4   5
ATOM      5  C   UNL     1     -14.107   6.116   3.587  1.00  0.00     0.041 C 
ATOM      6  O   UNL     1     -14.271   6.419   2.376  1.00  0.00    -0.550 OA
ATOM      7  O   UNL     1     -13.592   4.869   3.920  1.00  0.00    -0.550 OA
ENDBRANCH   4   5
ENDBRANCH   3   4
ENDBRANCH   2   3
ENDBRANCH   1   2
BRANCH   1   8
ATOM      8  C   UNL     1     -12.887   4.875   8.544  1.00  0.00     0.000 C 
BRANCH   8   9
ATOM      9  C   UNL     1     -12.064   3.584   8.416  1.00  0.00    -0.000 C 
BRANCH   9  10
ATOM     10  C   UNL     1     -10.689   3.818   7.770  1.00  0.00    -0.000 C 
BRANCH  10  11
ATOM     11  C   UNL     1     -10.169   5.247   7.989  1.00  0.00    -0.000 C 
BRANCH  11  12
ATOM     12  C   UNL     1      -9.794   5.904   6.654  1.00  0.00    -0.003 C 
ATOM     13  C   UNL     1     -10.417   5.156   5.479  1.00  0.00     0.004 C 
ENDBRANCH  11  12
ENDBRANCH  10  11
ENDBRANCH   9  10
ENDBRANCH   8   9
ENDBRANCH   1   8
TORSDOF 9
ENDMDL
MODEL 9
REMARK VINA RESULT:    -4.311     16.020     17.704
REMARK INTER + INTRA:          -7.048
REMARK INTER:                  -5.888
REMARK INTRA:                  -1.161
REMARK UNBOUND:                -0.469
REMARK SMILES CCCCCCCCCCC(=O)[O-]
REMARK SMILES IDX 7 1 8 2 9 3 10 4 11 5 12 6 13 7 6 8 5 9 4 10 3 11 2 12 1 13
REMARK H PARENT
REMARK Flexibility Score: inf
ROOT
ATOM      1  C   UNL     1     -12.306   4.938   9.090  1.00  0.00     0.000 C 
ENDROOT
BRANCH   1   2
ATOM      2  C   UNL     1     -12.154   3.628   8.307  1.00  0.00     0.000 C 
BRANCH   2   3
ATOM      3  C   UNL     1     -11.021   3.732   7.275  1.00  0.00     0.006 C 
BRANCH   3   4
ATOM      4  C   UNL     1     -10.016   4.836   7.627  1.00  0.00     0.053 C 
BRANCH   4   5
ATOM      5  C   UNL     1      -9.648   5.657   6.429  1.00  0.00     0.041 C 
ATOM      6  O   UNL     1     -10.023   5.304   5.280  1.00  0.00    -0.550 OA
ATOM      7  O   UNL     1      -8.922   6.831   6.586  1.00  0.00    -0.550 OA
ENDBRANCH   4   5
ENDBRANCH   3   4
ENDBRANCH   2   3
ENDBRANCH   1   2
BRANCH   1   8
ATOM      8  C   UNL     1     -13.463   5.780   8.538  1.00  0.00     0.000 C 
BRANCH   8   9
ATOM      9  C   UNL     1     -12.939   7.044   7.841  1.00  0.00    -0.000 C 
BRANCH   9  10
ATOM     10  C   UNL     1     -13.090   6.983   6.312  1.00  0.00    -0.000 C 
BRANCH  10  11
ATOM     11  C   UNL     1     -13.934   5.787   5.849  1.00  0.00    -0.000 C 
BRANCH  11  12
ATOM     12  C   UNL     1     -13.543   5.358   4.429  1.00  0.00    -0.003 C 
ATOM     13  C   UNL     1     -14.367   6.101   3.382  1.00  0.00     0.004 C 
ENDBRANCH  11  12
ENDBRANCH  10  11
ENDBRANCH   9  10
ENDBRANCH   8   9
ENDBRANCH   1   8
TORSDOF 9
ENDMDL
