MODEL 1
REMARK VINA RESULT:    -5.471      0.000      0.000
REMARK INTER + INTRA:          -5.471
REMARK INTER:                  -5.471
REMARK INTRA:                   0.000
REMARK UNBOUND:                 0.000
REMARK SMILES C=C1CCC[C@@]2(C)CC(=O)C(=C(C)C)C[C@H]12
REMARK SMILES IDX 13 1 12 2 11 3 15 4 16 5 2 6 1 7 3 8 4 9 5 10 6 11 8 12 9 13
REMARK SMILES IDX 10 14 7 15 14 16
REMARK H PARENT
REMARK Flexibility Score: inf
ROOT
ATOM      1  C   UNL     1     -16.895   4.055  27.696  1.00  0.00     0.039 C 
ATOM      2  C   UNL     1     -16.074   4.361  28.926  1.00  0.00    -0.070 C 
ATOM      3  C   UNL     1     -15.102   3.512  29.373  1.00  0.00    -0.006 C 
ATOM      4  C   UNL     1     -14.325   3.805  30.650  1.00  0.00     0.047 C 
ATOM      5  C   UNL     1     -13.866   2.519  31.381  1.00  0.00     0.025 C 
ATOM      6  C   UNL     1     -13.045   2.751  32.650  1.00  0.00    -0.073 C 
ATOM      7  C   UNL     1     -12.715   3.969  33.123  1.00  0.00     0.008 C 
ATOM      8  C   UNL     1     -12.635   1.516  33.416  1.00  0.00     0.031 C 
ATOM      9  C   UNL     1     -11.921   0.528  32.489  1.00  0.00     0.005 C 
ATOM     10  C   UNL     1     -12.745   0.240  31.223  1.00  0.00     0.008 C 
ATOM     11  C   UNL     1     -13.120   1.530  30.432  1.00  0.00    -0.018 C 
ATOM     12  C   UNL     1     -14.078   1.129  29.283  1.00  0.00     0.088 C 
ATOM     13  C   UNL     1     -14.658   2.325  28.585  1.00  0.00     0.159 C 
ATOM     14  O   UNL     1     -14.744   2.306  27.327  1.00  0.00    -0.295 OA
ATOM     15  C   UNL     1     -11.835   2.164  29.831  1.00  0.00     0.012 C 
ATOM     16  C   UNL     1     -16.403   5.637  29.669  1.00  0.00     0.039 C 
ENDROOT
TORSDOF 0
ENDMDL
MODEL 2
REMARK VINA RESULT:    -5.424      2.494      5.338
REMARK INTER + INTRA:          -5.424
REMARK INTER:                  -5.424
REMARK INTRA:                   0.000
REMARK UNBOUND:                 0.000
REMARK SMILES C=C1CCC[C@@]2(C)CC(=O)C(=C(C)C)C[C@H]12
REMARK SMILES IDX 13 1 12 2 11 3 15 4 16 5 2 6 1 7 3 8 4 9 5 10 6 11 8 12 9 13
REMARK SMILES IDX 10 14 7 15 14 16
REMARK H PARENT
REMARK Flexibility Score: inf
ROOT
ATOM      1  C   UNL     1     -12.522   0.889  32.850  1.00  0.00     0.039 C 
ATOM      2  C   UNL     1     -13.416   1.932  33.478  1.00  0.00    -0.070 C 
ATOM      3  C   UNL     1     -13.894   2.995  32.765  1.00  0.00    -0.006 C 
ATOM      4  C   UNL     1     -14.745   4.071  33.429  1.00  0.00     0.047 C 
ATOM      5  C   UNL     1     -14.572   5.462  32.770  1.00  0.00     0.025 C 
ATOM      6  C   UNL     1     -15.432   6.576  33.369  1.00  0.00    -0.073 C 
ATOM      7  C   UNL     1     -16.297   6.397  34.386  1.00  0.00     0.008 C 
ATOM      8  C   UNL     1     -15.239   7.955  32.785  1.00  0.00     0.031 C 
ATOM      9  C   UNL     1     -15.398   7.916  31.262  1.00  0.00     0.005 C 
ATOM     10  C   UNL     1     -14.508   6.833  30.627  1.00  0.00     0.008 C 
ATOM     11  C   UNL     1     -14.757   5.413  31.221  1.00  0.00    -0.018 C 
ATOM     12  C   UNL     1     -13.698   4.452  30.626  1.00  0.00     0.088 C 
ATOM     13  C   UNL     1     -13.724   3.103  31.287  1.00  0.00     0.159 C 
ATOM     14  O   UNL     1     -13.614   2.076  30.564  1.00  0.00    -0.295 OA
ATOM     15  C   UNL     1     -16.177   4.924  30.823  1.00  0.00     0.012 C 
ATOM     16  C   UNL     1     -13.729   1.770  34.949  1.00  0.00     0.039 C 
ENDROOT
TORSDOF 0
ENDMDL
MODEL 3
REMARK VINA RESULT:    -5.394      4.369      5.990
REMARK INTER + INTRA:          -5.394
REMARK INTER:                  -5.394
REMARK INTRA:                   0.000
REMARK UNBOUND:                 0.000
REMARK SMILES C=C1CCC[C@@]2(C)CC(=O)C(=C(C)C)C[C@H]12
REMARK SMILES IDX 13 1 12 2 11 3 15 4 16 5 2 6 1 7 3 8 4 9 5 10 6 11 8 12 9 13
REMARK SMILES IDX 10 14 7 15 14 16
REMARK H PARENT
REMARK Flexibility Score: inf
ROOT
ATOM      1  C   UNL     1     -15.457  11.472  29.916  1.00  0.00     0.039 C 
ATOM      2  C   UNL     1     -16.046  10.431  30.838  1.00  0.00    -0.070 C 
ATOM      3  C   UNL     1     -15.318   9.362  31.276  1.00  0.00    -0.006 C 
ATOM      4  C   UNL     1     -15.945   8.288  32.156  1.00  0.00     0.047 C 
ATOM      5  C   UNL     1     -15.306   6.892  31.946  1.00  0.00     0.025 C 
ATOM      6  C   UNL     1     -15.869   5.781  32.832  1.00  0.00    -0.073 C 
ATOM      7  C   UNL     1     -16.839   5.965  33.749  1.00  0.00     0.008 C 
ATOM      8  C   UNL     1     -15.307   4.398  32.606  1.00  0.00     0.031 C 
ATOM      9  C   UNL     1     -13.778   4.425  32.686  1.00  0.00     0.005 C 
ATOM     10  C   UNL     1     -13.181   5.505  31.768  1.00  0.00     0.008 C 
ATOM     11  C   UNL     1     -13.750   6.929  32.051  1.00  0.00    -0.018 C 
ATOM     12  C   UNL     1     -13.203   7.889  30.966  1.00  0.00     0.088 C 
ATOM     13  C   UNL     1     -13.851   9.242  31.030  1.00  0.00     0.159 C 
ATOM     14  O   UNL     1     -13.127  10.265  30.885  1.00  0.00    -0.295 OA
ATOM     15  C   UNL     1     -13.276   7.410  33.450  1.00  0.00     0.012 C 
ATOM     16  C   UNL     1     -17.497  10.604  31.227  1.00  0.00     0.039 C 
ENDROOT
TORSDOF 0
ENDMDL
MODEL 4
REMARK VINA RESULT:    -5.295      4.485      7.406
REMARK INTER + INTRA:          -5.295
REMARK INTER:                  -5.295
REMARK INTRA:                   0.000
REMARK UNBOUND:                 0.000
REMARK SMILES C=C1CCC[C@@]2(C)CC(=O)C(=C(C)C)C[C@H]12
REMARK SMILES IDX 13 1 12 2 11 3 15 4 16 5 2 6 1 7 3 8 4 9 5 10 6 11 8 12 9 13
REMARK SMILES IDX 10 14 7 15 14 16
REMARK H PARENT
REMARK Flexibility Score: inf
ROOT
ATOM      1  C   UNL     1     -14.715   4.621  33.035  1.00  0.00     0.039 C 
ATOM      2  C   UNL     1     -15.603   5.804  32.728  1.00  0.00    -0.070 C 
ATOM      3  C   UNL     1     -15.176   6.840  31.946  1.00  0.00    -0.006 C 
ATOM      4  C   UNL     1     -16.062   8.055  31.695  1.00  0.00     0.047 C 
ATOM      5  C   UNL     1     -15.248   9.354  31.475  1.00  0.00     0.025 C 
ATOM      6  C   UNL     1     -16.083  10.601  31.179  1.00  0.00    -0.073 C 
ATOM      7  C   UNL     1     -17.427  10.606  31.095  1.00  0.00     0.008 C 
ATOM      8  C   UNL     1     -15.319  11.893  31.019  1.00  0.00     0.031 C 
ATOM      9  C   UNL     1     -14.210  11.731  29.976  1.00  0.00     0.005 C 
ATOM     10  C   UNL     1     -13.324  10.509  30.274  1.00  0.00     0.008 C 
ATOM     11  C   UNL     1     -14.135   9.182  30.394  1.00  0.00    -0.018 C 
ATOM     12  C   UNL     1     -13.165   8.066  30.856  1.00  0.00     0.088 C 
ATOM     13  C   UNL     1     -13.888   6.795  31.196  1.00  0.00     0.159 C 
ATOM     14  O   UNL     1     -13.388   5.699  30.821  1.00  0.00    -0.295 OA
ATOM     15  C   UNL     1     -14.728   8.808  29.008  1.00  0.00     0.012 C 
ATOM     16  C   UNL     1     -16.977   5.811  33.358  1.00  0.00     0.039 C 
ENDROOT
TORSDOF 0
ENDMDL
MODEL 5
REMARK VINA RESULT:    -5.288     10.884     12.564
REMARK INTER + INTRA:          -5.288
REMARK INTER:                  -5.288
REMARK INTRA:                   0.000
REMARK UNBOUND:                 0.000
REMARK SMILES C=C1CCC[C@@]2(C)CC(=O)C(=C(C)C)C[C@H]12
REMARK SMILES IDX 13 1 12 2 11 3 15 4 16 5 2 6 1 7 3 8 4 9 5 10 6 11 8 12 9 13
REMARK SMILES IDX 10 14 7 15 14 16
REMARK H PARENT
REMARK Flexibility Score: inf
ROOT
ATOM      1  C   UNL     1      -2.533   4.394  33.167  1.00  0.00     0.039 C 
ATOM      2  C   UNL     1      -2.996   3.091  32.560  1.00  0.00    -0.070 C 
ATOM      3  C   UNL     1      -2.476   2.617  31.389  1.00  0.00    -0.006 C 
ATOM      4  C   UNL     1      -2.997   1.331  30.758  1.00  0.00     0.047 C 
ATOM      5  C   UNL     1      -2.885   1.335  29.213  1.00  0.00     0.025 C 
ATOM      6  C   UNL     1      -3.357   0.053  28.525  1.00  0.00    -0.073 C 
ATOM      7  C   UNL     1      -3.829  -1.025  29.181  1.00  0.00     0.008 C 
ATOM      8  C   UNL     1      -3.315   0.051  27.016  1.00  0.00     0.031 C 
ATOM      9  C   UNL     1      -1.920   0.442  26.521  1.00  0.00     0.005 C 
ATOM     10  C   UNL     1      -1.437   1.755  27.163  1.00  0.00     0.008 C 
ATOM     11  C   UNL     1      -1.453   1.714  28.722  1.00  0.00    -0.018 C 
ATOM     12  C   UNL     1      -1.110   3.131  29.243  1.00  0.00     0.088 C 
ATOM     13  C   UNL     1      -1.297   3.248  30.728  1.00  0.00     0.159 C 
ATOM     14  O   UNL     1      -0.430   3.875  31.397  1.00  0.00    -0.295 OA
ATOM     15  C   UNL     1      -0.383   0.707  29.226  1.00  0.00     0.012 C 
ATOM     16  C   UNL     1      -4.095   2.349  33.287  1.00  0.00     0.039 C 
ENDROOT
TORSDOF 0
ENDMDL
MODEL 6
REMARK VINA RESULT:    -5.277      2.574      3.545
REMARK INTER + INTRA:          -5.277
REMARK INTER:                  -5.277
REMARK INTRA:                   0.000
REMARK UNBOUND:                 0.000
REMARK SMILES C=C1CCC[C@@]2(C)CC(=O)C(=C(C)C)C[C@H]12
REMARK SMILES IDX 13 1 12 2 11 3 15 4 16 5 2 6 1 7 3 8 4 9 5 10 6 11 8 12 9 13
REMARK SMILES IDX 10 14 7 15 14 16
REMARK H PARENT
REMARK Flexibility Score: inf
ROOT
ATOM      1  C   UNL     1     -15.655   7.620  32.219  1.00  0.00     0.039 C 
ATOM      2  C   UNL     1     -15.361   6.425  33.095  1.00  0.00    -0.070 C 
ATOM      3  C   UNL     1     -14.541   5.414  32.682  1.00  0.00    -0.006 C 
ATOM      4  C   UNL     1     -14.303   4.186  33.553  1.00  0.00     0.047 C 
ATOM      5  C   UNL     1     -14.022   2.909  32.723  1.00  0.00     0.025 C 
ATOM      6  C   UNL     1     -13.736   1.652  33.545  1.00  0.00    -0.073 C 
ATOM      7  C   UNL     1     -13.709   1.620  34.892  1.00  0.00     0.008 C 
ATOM      8  C   UNL     1     -13.517   0.379  32.763  1.00  0.00     0.031 C 
ATOM      9  C   UNL     1     -12.431   0.585  31.703  1.00  0.00     0.005 C 
ATOM     10  C   UNL     1     -12.717   1.819  30.830  1.00  0.00     0.008 C 
ATOM     11  C   UNL     1     -12.899   3.125  31.662  1.00  0.00    -0.018 C 
ATOM     12  C   UNL     1     -13.341   4.252  30.695  1.00  0.00     0.088 C 
ATOM     13  C   UNL     1     -13.738   5.502  31.428  1.00  0.00     0.159 C 
ATOM     14  O   UNL     1     -13.365   6.614  30.966  1.00  0.00    -0.295 OA
ATOM     15  C   UNL     1     -11.547   3.515  32.320  1.00  0.00     0.012 C 
ATOM     16  C   UNL     1     -16.049   6.378  34.441  1.00  0.00     0.039 C 
ENDROOT
TORSDOF 0
ENDMDL
MODEL 7
REMARK VINA RESULT:    -5.273      4.950      6.882
REMARK INTER + INTRA:          -5.273
REMARK INTER:                  -5.273
REMARK INTRA:                   0.000
REMARK UNBOUND:                 0.000
REMARK SMILES C=C1CCC[C@@]2(C)CC(=O)C(=C(C)C)C[C@H]12
REMARK SMILES IDX 13 1 12 2 11 3 15 4 16 5 2 6 1 7 3 8 4 9 5 10 6 11 8 12 9 13
REMARK SMILES IDX 10 14 7 15 14 16
REMARK H PARENT
REMARK Flexibility Score: inf
ROOT
ATOM      1  C   UNL     1     -14.479  12.748  30.754  1.00  0.00     0.039 C 
ATOM      2  C   UNL     1     -13.705  11.451  30.767  1.00  0.00    -0.070 C 
ATOM      3  C   UNL     1     -14.316  10.251  30.997  1.00  0.00    -0.006 C 
ATOM      4  C   UNL     1     -13.512   8.958  31.068  1.00  0.00     0.047 C 
ATOM      5  C   UNL     1     -14.149   7.908  32.012  1.00  0.00     0.025 C 
ATOM      6  C   UNL     1     -13.407   6.573  32.093  1.00  0.00    -0.073 C 
ATOM      7  C   UNL     1     -12.287   6.289  31.400  1.00  0.00     0.008 C 
ATOM      8  C   UNL     1     -13.971   5.553  33.051  1.00  0.00     0.031 C 
ATOM      9  C   UNL     1     -15.458   5.322  32.769  1.00  0.00     0.005 C 
ATOM     10  C   UNL     1     -16.240   6.647  32.728  1.00  0.00     0.008 C 
ATOM     11  C   UNL     1     -15.659   7.666  31.701  1.00  0.00    -0.018 C 
ATOM     12  C   UNL     1     -16.419   9.005  31.869  1.00  0.00     0.088 C 
ATOM     13  C   UNL     1     -15.800  10.112  31.066  1.00  0.00     0.159 C 
ATOM     14  O   UNL     1     -16.560  10.905  30.446  1.00  0.00    -0.295 OA
ATOM     15  C   UNL     1     -15.873   7.131  30.258  1.00  0.00     0.012 C 
ATOM     16  C   UNL     1     -12.211  11.542  30.553  1.00  0.00     0.039 C 
ENDROOT
TORSDOF 0
ENDMDL
MODEL 8
REMARK VINA RESULT:    -5.261      2.524      5.181
REMARK INTER + INTRA:          -5.261
REMARK INTER:                  -5.261
REMARK INTRA:                   0.000
REMARK UNBOUND:                 0.000
REMARK SMILES C=C1CCC[C@@]2(C)CC(=O)C(=C(C)C)C[C@H]12
REMARK SMILES IDX 13 1 12 2 11 3 15 4 16 5 2 6 1 7 3 8 4 9 5 10 6 11 8 12 9 13
REMARK SMILES IDX 10 14 7 15 14 16
REMARK H PARENT
REMARK Flexibility Score: inf
ROOT
ATOM      1  C   UNL     1     -13.361  -0.403  31.882  1.00  0.00     0.039 C 
ATOM      2  C   UNL     1     -13.365   0.899  31.116  1.00  0.00    -0.070 C 
ATOM      3  C   UNL     1     -13.589   2.097  31.734  1.00  0.00    -0.006 C 
ATOM      4  C   UNL     1     -13.651   3.395  30.938  1.00  0.00     0.047 C 
ATOM      5  C   UNL     1     -14.591   4.446  31.578  1.00  0.00     0.025 C 
ATOM      6  C   UNL     1     -14.663   5.786  30.844  1.00  0.00    -0.073 C 
ATOM      7  C   UNL     1     -13.965   6.072  29.728  1.00  0.00     0.008 C 
ATOM      8  C   UNL     1     -15.617   6.808  31.413  1.00  0.00     0.031 C 
ATOM      9  C   UNL     1     -15.338   7.027  32.902  1.00  0.00     0.005 C 
ATOM     10  C   UNL     1     -15.305   5.698  33.675  1.00  0.00     0.008 C 
ATOM     11  C   UNL     1     -14.282   4.677  33.090  1.00  0.00    -0.018 C 
ATOM     12  C   UNL     1     -14.460   3.334  33.842  1.00  0.00     0.088 C 
ATOM     13  C   UNL     1     -13.661   2.226  33.218  1.00  0.00     0.159 C 
ATOM     14  O   UNL     1     -13.048   1.426  33.975  1.00  0.00    -0.295 OA
ATOM     15  C   UNL     1     -12.837   5.203  33.312  1.00  0.00     0.012 C 
ATOM     16  C   UNL     1     -13.148   0.815  29.622  1.00  0.00     0.039 C 
ENDROOT
TORSDOF 0
ENDMDL
MODEL 9
REMARK VINA RESULT:    -5.246      9.983     12.103
REMARK INTER + INTRA:          -5.246
REMARK INTER:                  -5.246
REMARK INTRA:                   0.000
REMARK UNBOUND:                 0.000
REMARK SMILES C=C1CCC[C@@]2(C)CC(=O)C(=C(C)C)C[C@H]12
REMARK SMILES IDX 13 1 12 2 11 3 15 4 16 5 2 6 1 7 3 8 4 9 5 10 6 11 8 12 9 13
REMARK SMILES IDX 10 14 7 15 14 16
REMARK H PARENT
REMARK Flexibility Score: inf
ROOT
ATOM      1  C   UNL     1      -9.527   1.555  24.558  1.00  0.00     0.039 C 
ATOM      2  C   UNL     1      -8.605   1.555  23.361  1.00  0.00    -0.070 C 
ATOM      3  C   UNL     1      -9.086   1.559  22.083  1.00  0.00    -0.006 C 
ATOM      4  C   UNL     1      -8.144   1.497  20.886  1.00  0.00     0.047 C 
ATOM      5  C   UNL     1      -8.775   0.787  19.663  1.00  0.00     0.025 C 
ATOM      6  C   UNL     1      -7.890   0.731  18.417  1.00  0.00    -0.073 C 
ATOM      7  C   UNL     1      -6.652   1.259  18.346  1.00  0.00     0.008 C 
ATOM      8  C   UNL     1      -8.456  -0.008  17.229  1.00  0.00     0.031 C 
ATOM      9  C   UNL     1      -9.843   0.536  16.875  1.00  0.00     0.005 C 
ATOM     10  C   UNL     1     -10.772   0.561  18.102  1.00  0.00     0.008 C 
ATOM     11  C   UNL     1     -10.178   1.365  19.299  1.00  0.00    -0.018 C 
ATOM     12  C   UNL     1     -11.119   1.179  20.516  1.00  0.00     0.088 C 
ATOM     13  C   UNL     1     -10.533   1.747  21.776  1.00  0.00     0.159 C 
ATOM     14  O   UNL     1     -11.288   2.394  22.553  1.00  0.00    -0.295 OA
ATOM     15  C   UNL     1     -10.107   2.872  18.930  1.00  0.00     0.012 C 
ATOM     16  C   UNL     1      -7.120   1.512  23.641  1.00  0.00     0.039 C 
ENDROOT
TORSDOF 0
ENDMDL
