MODEL 1
REMARK VINA RESULT:    -6.529      0.000      0.000
REMARK INTER + INTRA:          -8.120
REMARK INTER:                  -7.865
REMARK INTRA:                  -0.255
REMARK UNBOUND:                -0.255
REMARK SMILES O=c1c(O)c(-c2ccc(O)c(O)c2)oc2cc(O)cc(O)c12
REMARK SMILES IDX 5 1 3 2 2 3 1 4 22 5 20 6 19 7 17 8 16 9 15 10 14 11 6 12
REMARK SMILES IDX 7 13 8 14 9 15 13 16 11 17 10 18 12 20 4 22 21 24 18 26
REMARK H PARENT 10 19 12 21 4 23 21 25 18 27
REMARK Flexibility Score: inf
ROOT
ATOM      1  C   UNL     1       1.660  16.438  26.265  1.00  0.00     0.180 A 
ATOM      2  C   UNL     1       1.152  17.167  25.176  1.00  0.00     0.208 A 
ATOM      3  C   UNL     1       0.359  18.298  25.425  1.00  0.00     0.238 A 
ATOM      4  O   UNL     1      -0.153  18.902  24.447  1.00  0.00    -0.285 OA
ATOM      5  C   UNL     1       0.131  18.720  26.757  1.00  0.00     0.111 A 
ATOM      6  C   UNL     1      -0.620  19.878  27.126  1.00  0.00     0.134 A 
ATOM      7  C   UNL     1      -0.870  20.137  28.479  1.00  0.00     0.093 A 
ATOM      8  C   UNL     1      -0.343  19.317  29.478  1.00  0.00     0.123 A 
ATOM      9  C   UNL     1       0.437  18.217  29.132  1.00  0.00     0.094 A 
ATOM     10  C   UNL     1       0.671  17.910  27.789  1.00  0.00     0.146 A 
ATOM     11  O   UNL     1       1.402  16.839  27.503  1.00  0.00    -0.452 OA
ENDROOT
BRANCH   1  12
ATOM     12  C   UNL     1       2.492  15.226  26.082  1.00  0.00     0.025 A 
ATOM     13  C   UNL     1       1.988  13.943  26.357  1.00  0.00     0.016 A 
ATOM     14  C   UNL     1       2.800  12.817  26.202  1.00  0.00     0.051 A 
ATOM     15  C   UNL     1       4.129  12.956  25.784  1.00  0.00     0.157 A 
ATOM     16  C   UNL     1       3.832  15.362  25.685  1.00  0.00     0.062 A 
ATOM     17  C   UNL     1       4.648  14.236  25.527  1.00  0.00     0.158 A 
BRANCH  15  18
ATOM     18  O   UNL     1       4.936  11.830  25.627  1.00  0.00    -0.504 OA
ATOM     19  H   UNL     1       4.911  11.063  26.288  1.00  0.00     0.293 HD
ENDBRANCH  15  18
BRANCH  17  20
ATOM     20  O   UNL     1       5.970  14.410  25.117  1.00  0.00    -0.504 OA
ATOM     21  H   UNL     1       6.405  15.323  25.077  1.00  0.00     0.293 HD
ENDBRANCH  17  20
ENDBRANCH   1  12
BRANCH   2  22
ATOM     22  O   UNL     1       1.453  16.779  23.867  1.00  0.00    -0.502 OA
ATOM     23  H   UNL     1       2.381  16.480  23.589  1.00  0.00     0.293 HD
ENDBRANCH   2  22
BRANCH   6  24
ATOM     24  O   UNL     1      -1.117  20.813  26.211  1.00  0.00    -0.507 OA
ATOM     25  H   UNL     1      -1.913  20.667  25.611  1.00  0.00     0.293 HD
ENDBRANCH   6  24
BRANCH   8  26
ATOM     26  O   UNL     1      -0.582  19.592  30.824  1.00  0.00    -0.508 OA
ATOM     27  H   UNL     1      -1.373  20.155  31.117  1.00  0.00     0.293 HD
ENDBRANCH   8  26
TORSDOF 6
ENDMDL
MODEL 2
REMARK VINA RESULT:    -5.789      0.969      1.659
REMARK INTER + INTRA:          -7.229
REMARK INTER:                  -7.143
REMARK INTRA:                  -0.086
REMARK UNBOUND:                -0.255
REMARK SMILES O=c1c(O)c(-c2ccc(O)c(O)c2)oc2cc(O)cc(O)c12
REMARK SMILES IDX 5 1 3 2 2 3 1 4 22 5 20 6 19 7 17 8 16 9 15 10 14 11 6 12
REMARK SMILES IDX 7 13 8 14 9 15 13 16 11 17 10 18 12 20 4 22 21 24 18 26
REMARK H PARENT 10 19 12 21 4 23 21 25 18 27
REMARK Flexibility Score: inf
ROOT
ATOM      1  C   UNL     1       1.567  16.041  26.315  1.00  0.00     0.180 A 
ATOM      2  C   UNL     1       1.128  16.666  25.135  1.00  0.00     0.208 A 
ATOM      3  C   UNL     1       0.369  17.843  25.229  1.00  0.00     0.238 A 
ATOM      4  O   UNL     1      -0.082  18.355  24.172  1.00  0.00    -0.285 OA
ATOM      5  C   UNL     1       0.106  18.412  26.499  1.00  0.00     0.111 A 
ATOM      6  C   UNL     1      -0.615  19.627  26.711  1.00  0.00     0.134 A 
ATOM      7  C   UNL     1      -0.907  20.037  28.018  1.00  0.00     0.093 A 
ATOM      8  C   UNL     1      -0.449  19.312  29.120  1.00  0.00     0.123 A 
ATOM      9  C   UNL     1       0.302  18.156  28.924  1.00  0.00     0.094 A 
ATOM     10  C   UNL     1       0.576  17.699  27.633  1.00  0.00     0.146 A 
ATOM     11  O   UNL     1       1.276  16.581  27.492  1.00  0.00    -0.452 OA
ENDROOT
BRANCH   1  12
ATOM     12  C   UNL     1       2.359  14.790  26.297  1.00  0.00     0.025 A 
ATOM     13  C   UNL     1       3.585  14.709  25.613  1.00  0.00     0.016 A 
ATOM     14  C   UNL     1       4.302  13.510  25.589  1.00  0.00     0.051 A 
ATOM     15  C   UNL     1       3.799  12.372  26.234  1.00  0.00     0.157 A 
ATOM     16  C   UNL     1       1.849  13.641  26.922  1.00  0.00     0.062 A 
ATOM     17  C   UNL     1       2.565  12.439  26.901  1.00  0.00     0.158 A 
BRANCH  15  18
ATOM     18  O   UNL     1       4.518  11.178  26.210  1.00  0.00    -0.504 OA
ATOM     19  H   UNL     1       5.241  10.980  26.891  1.00  0.00     0.293 HD
ENDBRANCH  15  18
BRANCH  17  20
ATOM     20  O   UNL     1       2.033  11.322  27.546  1.00  0.00    -0.504 OA
ATOM     21  H   UNL     1       1.719  11.355  28.509  1.00  0.00     0.293 HD
ENDBRANCH  17  20
ENDBRANCH   1  12
BRANCH   2  22
ATOM     22  O   UNL     1       1.465  16.130  23.888  1.00  0.00    -0.502 OA
ATOM     23  H   UNL     1       0.767  15.795  23.235  1.00  0.00     0.293 HD
ENDBRANCH   2  22
BRANCH   6  24
ATOM     24  O   UNL     1      -1.041  20.475  25.683  1.00  0.00    -0.507 OA
ATOM     25  H   UNL     1      -1.130  20.209  24.715  1.00  0.00     0.293 HD
ENDBRANCH   6  24
BRANCH   8  26
ATOM     26  O   UNL     1      -0.729  19.738  30.417  1.00  0.00    -0.508 OA
ATOM     27  H   UNL     1      -0.577  20.698  30.705  1.00  0.00     0.293 HD
ENDBRANCH   8  26
TORSDOF 6
ENDMDL
MODEL 3
REMARK VINA RESULT:    -5.696      1.688      6.974
REMARK INTER + INTRA:          -7.116
REMARK INTER:                  -6.814
REMARK INTRA:                  -0.302
REMARK UNBOUND:                -0.255
REMARK SMILES O=c1c(O)c(-c2ccc(O)c(O)c2)oc2cc(O)cc(O)c12
REMARK SMILES IDX 5 1 3 2 2 3 1 4 22 5 20 6 19 7 17 8 16 9 15 10 14 11 6 12
REMARK SMILES IDX 7 13 8 14 9 15 13 16 11 17 10 18 12 20 4 22 21 24 18 26
REMARK H PARENT 10 19 12 21 4 23 21 25 18 27
REMARK Flexibility Score: inf
ROOT
ATOM      1  C   UNL     1       1.010  16.931  26.158  1.00  0.00     0.180 A 
ATOM      2  C   UNL     1       0.243  15.800  26.487  1.00  0.00     0.208 A 
ATOM      3  C   UNL     1       0.857  14.538  26.490  1.00  0.00     0.238 A 
ATOM      4  O   UNL     1       0.147  13.524  26.713  1.00  0.00    -0.285 OA
ATOM      5  C   UNL     1       2.243  14.428  26.219  1.00  0.00     0.111 A 
ATOM      6  C   UNL     1       2.979  13.204  26.239  1.00  0.00     0.134 A 
ATOM      7  C   UNL     1       4.324  13.202  25.850  1.00  0.00     0.093 A 
ATOM      8  C   UNL     1       4.976  14.387  25.505  1.00  0.00     0.123 A 
ATOM      9  C   UNL     1       4.282  15.593  25.536  1.00  0.00     0.094 A 
ATOM     10  C   UNL     1       2.929  15.623  25.882  1.00  0.00     0.146 A 
ATOM     11  O   UNL     1       2.300  16.792  25.877  1.00  0.00    -0.452 OA
ENDROOT
BRANCH   1  12
ATOM     12  C   UNL     1       0.430  18.294  26.120  1.00  0.00     0.025 A 
ATOM     13  C   UNL     1      -0.334  18.734  25.025  1.00  0.00     0.016 A 
ATOM     14  C   UNL     1      -0.849  20.032  25.001  1.00  0.00     0.051 A 
ATOM     15  C   UNL     1      -0.598  20.913  26.060  1.00  0.00     0.157 A 
ATOM     16  C   UNL     1       0.699  19.188  27.169  1.00  0.00     0.062 A 
ATOM     17  C   UNL     1       0.183  20.488  27.148  1.00  0.00     0.158 A 
BRANCH  15  18
ATOM     18  O   UNL     1      -1.116  22.207  26.034  1.00  0.00    -0.504 OA
ATOM     19  H   UNL     1      -0.874  22.861  25.299  1.00  0.00     0.293 HD
ENDBRANCH  15  18
BRANCH  17  20
ATOM     20  O   UNL     1       0.458  21.343  28.215  1.00  0.00    -0.504 OA
ATOM     21  H   UNL     1       0.165  21.134  29.162  1.00  0.00     0.293 HD
ENDBRANCH  17  20
ENDBRANCH   1  12
BRANCH   2  22
ATOM     22  O   UNL     1      -1.106  15.941  26.827  1.00  0.00    -0.502 OA
ATOM     23  H   UNL     1      -1.470  16.775  27.271  1.00  0.00     0.293 HD
ENDBRANCH   2  22
BRANCH   6  24
ATOM     24  O   UNL     1       2.449  11.977  26.654  1.00  0.00    -0.507 OA
ATOM     25  H   UNL     1       1.517  11.842  27.014  1.00  0.00     0.293 HD
ENDBRANCH   6  24
BRANCH   8  26
ATOM     26  O   UNL     1       6.320  14.377  25.136  1.00  0.00    -0.508 OA
ATOM     27  H   UNL     1       6.993  13.779  25.601  1.00  0.00     0.293 HD
ENDBRANCH   8  26
TORSDOF 6
ENDMDL
MODEL 4
REMARK VINA RESULT:    -5.144      2.539      7.319
REMARK INTER + INTRA:          -6.451
REMARK INTER:                  -6.160
REMARK INTRA:                  -0.292
REMARK UNBOUND:                -0.255
REMARK SMILES O=c1c(O)c(-c2ccc(O)c(O)c2)oc2cc(O)cc(O)c12
REMARK SMILES IDX 5 1 3 2 2 3 1 4 22 5 20 6 19 7 17 8 16 9 15 10 14 11 6 12
REMARK SMILES IDX 7 13 8 14 9 15 13 16 11 17 10 18 12 20 4 22 21 24 18 26
REMARK H PARENT 10 19 12 21 4 23 21 25 18 27
REMARK Flexibility Score: inf
ROOT
ATOM      1  C   UNL     1       2.955  13.851  26.305  1.00  0.00     0.180 A 
ATOM      2  C   UNL     1       4.030  13.458  25.489  1.00  0.00     0.208 A 
ATOM      3  C   UNL     1       4.825  12.371  25.887  1.00  0.00     0.238 A 
ATOM      4  O   UNL     1       5.829  12.072  25.189  1.00  0.00    -0.285 OA
ATOM      5  C   UNL     1       4.502  11.656  27.066  1.00  0.00     0.111 A 
ATOM      6  C   UNL     1       5.211  10.511  27.541  1.00  0.00     0.134 A 
ATOM      7  C   UNL     1       4.867   9.950  28.777  1.00  0.00     0.093 A 
ATOM      8  C   UNL     1       3.799  10.451  29.523  1.00  0.00     0.123 A 
ATOM      9  C   UNL     1       3.066  11.533  29.043  1.00  0.00     0.094 A 
ATOM     10  C   UNL     1       3.409  12.139  27.832  1.00  0.00     0.146 A 
ATOM     11  O   UNL     1       2.697  13.182  27.422  1.00  0.00    -0.452 OA
ENDROOT
BRANCH   1  12
ATOM     12  C   UNL     1       2.081  14.996  25.959  1.00  0.00     0.025 A 
ATOM     13  C   UNL     1       0.840  14.806  25.327  1.00  0.00     0.016 A 
ATOM     14  C   UNL     1       0.045  15.903  24.988  1.00  0.00     0.051 A 
ATOM     15  C   UNL     1       0.482  17.205  25.262  1.00  0.00     0.157 A 
ATOM     16  C   UNL     1       2.525  16.304  26.212  1.00  0.00     0.062 A 
ATOM     17  C   UNL     1       1.730  17.405  25.874  1.00  0.00     0.158 A 
BRANCH  15  18
ATOM     18  O   UNL     1      -0.315  18.298  24.924  1.00  0.00    -0.504 OA
ATOM     19  H   UNL     1      -0.131  18.854  24.099  1.00  0.00     0.293 HD
ENDBRANCH  15  18
BRANCH  17  20
ATOM     20  O   UNL     1       2.198  18.689  26.154  1.00  0.00    -0.504 OA
ATOM     21  H   UNL     1       1.579  19.489  26.202  1.00  0.00     0.293 HD
ENDBRANCH  17  20
ENDBRANCH   1  12
BRANCH   2  22
ATOM     22  O   UNL     1       4.284  14.129  24.289  1.00  0.00    -0.502 OA
ATOM     23  H   UNL     1       5.011  13.836  23.647  1.00  0.00     0.293 HD
ENDBRANCH   2  22
BRANCH   6  24
ATOM     24  O   UNL     1       6.237   9.875  26.833  1.00  0.00    -0.507 OA
ATOM     25  H   UNL     1       6.406   9.977  25.844  1.00  0.00     0.293 HD
ENDBRANCH   6  24
BRANCH   8  26
ATOM     26  O   UNL     1       3.452   9.875  30.744  1.00  0.00    -0.508 OA
ATOM     27  H   UNL     1       3.311  10.439  31.575  1.00  0.00     0.293 HD
ENDBRANCH   8  26
TORSDOF 6
ENDMDL
MODEL 5
REMARK VINA RESULT:    -5.021      1.691      6.790
REMARK INTER + INTRA:          -6.303
REMARK INTER:                  -5.984
REMARK INTRA:                  -0.319
REMARK UNBOUND:                -0.255
REMARK SMILES O=c1c(O)c(-c2ccc(O)c(O)c2)oc2cc(O)cc(O)c12
REMARK SMILES IDX 5 1 3 2 2 3 1 4 22 5 20 6 19 7 17 8 16 9 15 10 14 11 6 12
REMARK SMILES IDX 7 13 8 14 9 15 13 16 11 17 10 18 12 20 4 22 21 24 18 26
REMARK H PARENT 10 19 12 21 4 23 21 25 18 27
REMARK Flexibility Score: inf
ROOT
ATOM      1  C   UNL     1       1.800  16.234  26.246  1.00  0.00     0.180 A 
ATOM      2  C   UNL     1       3.128  16.156  25.790  1.00  0.00     0.208 A 
ATOM      3  C   UNL     1       3.815  14.937  25.903  1.00  0.00     0.238 A 
ATOM      4  O   UNL     1       5.026  14.895  25.562  1.00  0.00    -0.285 OA
ATOM      5  C   UNL     1       3.151  13.798  26.420  1.00  0.00     0.111 A 
ATOM      6  C   UNL     1       3.736  12.501  26.539  1.00  0.00     0.134 A 
ATOM      7  C   UNL     1       3.018  11.474  27.163  1.00  0.00     0.093 A 
ATOM      8  C   UNL     1       1.713  11.679  27.614  1.00  0.00     0.123 A 
ATOM      9  C   UNL     1       1.113  12.925  27.453  1.00  0.00     0.094 A 
ATOM     10  C   UNL     1       1.817  13.981  26.869  1.00  0.00     0.146 A 
ATOM     11  O   UNL     1       1.215  15.158  26.755  1.00  0.00    -0.452 OA
ENDROOT
BRANCH   1  12
ATOM     12  C   UNL     1       1.015  17.488  26.172  1.00  0.00     0.025 A 
ATOM     13  C   UNL     1       0.211  17.785  25.058  1.00  0.00     0.016 A 
ATOM     14  C   UNL     1      -0.501  18.986  25.001  1.00  0.00     0.051 A 
ATOM     15  C   UNL     1      -0.409  19.913  26.047  1.00  0.00     0.157 A 
ATOM     16  C   UNL     1       1.121  18.431  27.208  1.00  0.00     0.062 A 
ATOM     17  C   UNL     1       0.409  19.634  27.155  1.00  0.00     0.158 A 
BRANCH  15  18
ATOM     18  O   UNL     1      -1.123  21.109  25.988  1.00  0.00    -0.504 OA
ATOM     19  H   UNL     1      -2.129  21.122  25.874  1.00  0.00     0.293 HD
ENDBRANCH  15  18
BRANCH  17  20
ATOM     20  O   UNL     1       0.528  20.539  28.209  1.00  0.00    -0.504 OA
ATOM     21  H   UNL     1      -0.254  21.098  28.530  1.00  0.00     0.293 HD
ENDBRANCH  17  20
ENDBRANCH   1  12
BRANCH   2  22
ATOM     22  O   UNL     1       3.740  17.272  25.212  1.00  0.00    -0.502 OA
ATOM     23  H   UNL     1       4.310  17.916  25.747  1.00  0.00     0.293 HD
ENDBRANCH   2  22
BRANCH   6  24
ATOM     24  O   UNL     1       5.000  12.163  26.042  1.00  0.00    -0.507 OA
ATOM     25  H   UNL     1       5.199  11.924  25.083  1.00  0.00     0.293 HD
ENDBRANCH   6  24
BRANCH   8  26
ATOM     26  O   UNL     1       0.999  10.646  28.219  1.00  0.00    -0.508 OA
ATOM     27  H   UNL     1       0.686   9.839  27.692  1.00  0.00     0.293 HD
ENDBRANCH   8  26
TORSDOF 6
ENDMDL
MODEL 6
REMARK VINA RESULT:    -4.991      1.927      2.254
REMARK INTER + INTRA:          -6.267
REMARK INTER:                  -6.021
REMARK INTRA:                  -0.246
REMARK UNBOUND:                -0.255
REMARK SMILES O=c1c(O)c(-c2ccc(O)c(O)c2)oc2cc(O)cc(O)c12
REMARK SMILES IDX 5 1 3 2 2 3 1 4 22 5 20 6 19 7 17 8 16 9 15 10 14 11 6 12
REMARK SMILES IDX 7 13 8 14 9 15 13 16 11 17 10 18 12 20 4 22 21 24 18 26
REMARK H PARENT 10 19 12 21 4 23 21 25 18 27
REMARK Flexibility Score: inf
ROOT
ATOM      1  C   UNL     1       2.016  15.090  26.250  1.00  0.00     0.180 A 
ATOM      2  C   UNL     1       0.732  15.144  25.679  1.00  0.00     0.208 A 
ATOM      3  C   UNL     1       0.052  16.371  25.647  1.00  0.00     0.238 A 
ATOM      4  O   UNL     1      -1.125  16.396  25.202  1.00  0.00    -0.285 OA
ATOM      5  C   UNL     1       0.685  17.541  26.133  1.00  0.00     0.111 A 
ATOM      6  C   UNL     1       0.108  18.847  26.109  1.00  0.00     0.134 A 
ATOM      7  C   UNL     1       0.785  19.912  26.716  1.00  0.00     0.093 A 
ATOM      8  C   UNL     1       2.045  19.733  27.288  1.00  0.00     0.123 A 
ATOM      9  C   UNL     1       2.641  18.475  27.268  1.00  0.00     0.094 A 
ATOM     10  C   UNL     1       1.975  17.384  26.705  1.00  0.00     0.146 A 
ATOM     11  O   UNL     1       2.570  16.198  26.727  1.00  0.00    -0.452 OA
ENDROOT
BRANCH   1  12
ATOM     12  C   UNL     1       2.789  13.830  26.333  1.00  0.00     0.025 A 
ATOM     13  C   UNL     1       2.421  12.801  27.217  1.00  0.00     0.016 A 
ATOM     14  C   UNL     1       3.181  11.632  27.296  1.00  0.00     0.051 A 
ATOM     15  C   UNL     1       4.326  11.478  26.505  1.00  0.00     0.157 A 
ATOM     16  C   UNL     1       3.951  13.681  25.558  1.00  0.00     0.062 A 
ATOM     17  C   UNL     1       4.714  12.510  25.634  1.00  0.00     0.158 A 
BRANCH  15  18
ATOM     18  O   UNL     1       5.081  10.309  26.584  1.00  0.00    -0.504 OA
ATOM     19  H   UNL     1       5.079   9.730  27.416  1.00  0.00     0.293 HD
ENDBRANCH  15  18
BRANCH  17  20
ATOM     20  O   UNL     1       5.854  12.392  24.839  1.00  0.00    -0.504 OA
ATOM     21  H   UNL     1       6.067  13.054  24.102  1.00  0.00     0.293 HD
ENDBRANCH  17  20
ENDBRANCH   1  12
BRANCH   2  22
ATOM     22  O   UNL     1       0.156  13.992  25.135  1.00  0.00    -0.502 OA
ATOM     23  H   UNL     1      -0.362  13.327  25.696  1.00  0.00     0.293 HD
ENDBRANCH   2  22
BRANCH   6  24
ATOM     24  O   UNL     1      -1.105  19.156  25.485  1.00  0.00    -0.507 OA
ATOM     25  H   UNL     1      -1.707  19.924  25.738  1.00  0.00     0.293 HD
ENDBRANCH   6  24
BRANCH   8  26
ATOM     26  O   UNL     1       2.719  20.802  27.875  1.00  0.00    -0.508 OA
ATOM     27  H   UNL     1       2.915  21.653  27.358  1.00  0.00     0.293 HD
ENDBRANCH   8  26
TORSDOF 6
ENDMDL
MODEL 7
REMARK VINA RESULT:    -4.641      1.671      6.675
REMARK INTER + INTRA:          -5.845
REMARK INTER:                  -6.271
REMARK INTRA:                   0.426
REMARK UNBOUND:                -0.255
REMARK SMILES O=c1c(O)c(-c2ccc(O)c(O)c2)oc2cc(O)cc(O)c12
REMARK SMILES IDX 5 1 3 2 2 3 1 4 22 5 20 6 19 7 17 8 16 9 15 10 14 11 6 12
REMARK SMILES IDX 7 13 8 14 9 15 13 16 11 17 10 18 12 20 4 22 21 24 18 26
REMARK H PARENT 10 19 12 21 4 23 21 25 18 27
REMARK Flexibility Score: inf
ROOT
ATOM      1  C   UNL     1       0.404  17.988  27.613  1.00  0.00     0.180 A 
ATOM      2  C   UNL     1       0.359  18.451  26.286  1.00  0.00     0.208 A 
ATOM      3  C   UNL     1       0.791  17.602  25.254  1.00  0.00     0.238 A 
ATOM      4  O   UNL     1       0.817  18.049  24.078  1.00  0.00    -0.285 OA
ATOM      5  C   UNL     1       1.210  16.283  25.555  1.00  0.00     0.111 A 
ATOM      6  C   UNL     1       1.626  15.322  24.584  1.00  0.00     0.134 A 
ATOM      7  C   UNL     1       2.121  14.083  25.008  1.00  0.00     0.093 A 
ATOM      8  C   UNL     1       2.155  13.745  26.363  1.00  0.00     0.123 A 
ATOM      9  C   UNL     1       1.700  14.655  27.314  1.00  0.00     0.094 A 
ATOM     10  C   UNL     1       1.237  15.914  26.925  1.00  0.00     0.146 A 
ATOM     11  O   UNL     1       0.833  16.758  27.866  1.00  0.00    -0.452 OA
ENDROOT
BRANCH   1  12
ATOM     12  C   UNL     1      -0.021  18.830  28.755  1.00  0.00     0.025 A 
ATOM     13  C   UNL     1      -0.756  20.012  28.561  1.00  0.00     0.016 A 
ATOM     14  C   UNL     1      -1.123  20.802  29.653  1.00  0.00     0.051 A 
ATOM     15  C   UNL     1      -0.751  20.432  30.951  1.00  0.00     0.157 A 
ATOM     16  C   UNL     1       0.369  18.474  30.057  1.00  0.00     0.062 A 
ATOM     17  C   UNL     1       0.001  19.263  31.153  1.00  0.00     0.158 A 
BRANCH  15  18
ATOM     18  O   UNL     1      -1.122  21.221  32.039  1.00  0.00    -0.504 OA
ATOM     19  H   UNL     1      -1.697  22.047  31.924  1.00  0.00     0.293 HD
ENDBRANCH  15  18
BRANCH  17  20
ATOM     20  O   UNL     1       0.394  18.870  32.432  1.00  0.00    -0.504 OA
ATOM     21  H   UNL     1      -0.250  18.437  33.084  1.00  0.00     0.293 HD
ENDBRANCH  17  20
ENDBRANCH   1  12
BRANCH   2  22
ATOM     22  O   UNL     1      -0.131  19.729  26.003  1.00  0.00    -0.502 OA
ATOM     23  H   UNL     1      -0.586  19.954  25.126  1.00  0.00     0.293 HD
ENDBRANCH   2  22
BRANCH   6  24
ATOM     24  O   UNL     1       1.550  15.521  23.201  1.00  0.00    -0.507 OA
ATOM     25  H   UNL     1       2.163  15.099  22.522  1.00  0.00     0.293 HD
ENDBRANCH   6  24
BRANCH   8  26
ATOM     26  O   UNL     1       2.633  12.503  26.774  1.00  0.00    -0.508 OA
ATOM     27  H   UNL     1       2.371  11.649  26.295  1.00  0.00     0.293 HD
ENDBRANCH   8  26
TORSDOF 6
ENDMDL
MODEL 8
REMARK VINA RESULT:    -4.477      2.271      7.407
REMARK INTER + INTRA:          -5.648
REMARK INTER:                  -5.413
REMARK INTRA:                  -0.235
REMARK UNBOUND:                -0.255
REMARK SMILES O=c1c(O)c(-c2ccc(O)c(O)c2)oc2cc(O)cc(O)c12
REMARK SMILES IDX 5 1 3 2 2 3 1 4 22 5 20 6 19 7 17 8 16 9 15 10 14 11 6 12
REMARK SMILES IDX 7 13 8 14 9 15 13 16 11 17 10 18 12 20 4 22 21 24 18 26
REMARK H PARENT 10 19 12 21 4 23 21 25 18 27
REMARK Flexibility Score: inf
ROOT
ATOM      1  C   UNL     1       1.744  14.625  26.173  1.00  0.00     0.180 A 
ATOM      2  C   UNL     1       1.113  13.644  26.958  1.00  0.00     0.208 A 
ATOM      3  C   UNL     1       1.751  12.408  27.145  1.00  0.00     0.238 A 
ATOM      4  O   UNL     1       1.147  11.509  27.787  1.00  0.00    -0.285 OA
ATOM      5  C   UNL     1       3.036  12.186  26.591  1.00  0.00     0.111 A 
ATOM      6  C   UNL     1       3.795  10.987  26.754  1.00  0.00     0.134 A 
ATOM      7  C   UNL     1       5.008  10.841  26.071  1.00  0.00     0.093 A 
ATOM      8  C   UNL     1       5.521  11.873  25.284  1.00  0.00     0.123 A 
ATOM      9  C   UNL     1       4.816  13.067  25.163  1.00  0.00     0.094 A 
ATOM     10  C   UNL     1       3.583  13.230  25.800  1.00  0.00     0.146 A 
ATOM     11  O   UNL     1       2.934  14.376  25.640  1.00  0.00    -0.452 OA
ENDROOT
BRANCH   1  12
ATOM     12  C   UNL     1       1.128  15.948  25.919  1.00  0.00     0.025 A 
ATOM     13  C   UNL     1      -0.008  16.083  25.102  1.00  0.00     0.016 A 
ATOM     14  C   UNL     1      -0.555  17.344  24.857  1.00  0.00     0.051 A 
ATOM     15  C   UNL     1       0.030  18.489  25.412  1.00  0.00     0.157 A 
ATOM     16  C   UNL     1       1.725  17.101  26.455  1.00  0.00     0.062 A 
ATOM     17  C   UNL     1       1.177  18.366  26.213  1.00  0.00     0.158 A 
BRANCH  15  18
ATOM     18  O   UNL     1      -0.521  19.747  25.168  1.00  0.00    -0.504 OA
ATOM     19  H   UNL     1      -1.249  19.882  24.477  1.00  0.00     0.293 HD
ENDBRANCH  15  18
BRANCH  17  20
ATOM     20  O   UNL     1       1.789  19.487  26.774  1.00  0.00    -0.504 OA
ATOM     21  H   UNL     1       1.265  20.184  27.290  1.00  0.00     0.293 HD
ENDBRANCH  17  20
ENDBRANCH   1  12
BRANCH   2  22
ATOM     22  O   UNL     1      -0.120  13.911  27.560  1.00  0.00    -0.502 OA
ATOM     23  H   UNL     1      -0.416  14.850  27.799  1.00  0.00     0.293 HD
ENDBRANCH   2  22
BRANCH   6  24
ATOM     24  O   UNL     1       3.418   9.929  27.588  1.00  0.00    -0.507 OA
ATOM     25  H   UNL     1       3.294   9.995  28.586  1.00  0.00     0.293 HD
ENDBRANCH   6  24
BRANCH   8  26
ATOM     26  O   UNL     1       6.739  11.725  24.622  1.00  0.00    -0.508 OA
ATOM     27  H   UNL     1       7.406  11.011  24.893  1.00  0.00     0.293 HD
ENDBRANCH   8  26
TORSDOF 6
ENDMDL
MODEL 9
REMARK VINA RESULT:    -3.826      2.028      6.781
REMARK INTER + INTRA:          -4.864
REMARK INTER:                  -4.533
REMARK INTRA:                  -0.331
REMARK UNBOUND:                -0.255
REMARK SMILES O=c1c(O)c(-c2ccc(O)c(O)c2)oc2cc(O)cc(O)c12
REMARK SMILES IDX 5 1 3 2 2 3 1 4 22 5 20 6 19 7 17 8 16 9 15 10 14 11 6 12
REMARK SMILES IDX 7 13 8 14 9 15 13 16 11 17 10 18 12 20 4 22 21 24 18 26
REMARK H PARENT 10 19 12 21 4 23 21 25 18 27
REMARK Flexibility Score: inf
ROOT
ATOM      1  C   UNL     1       1.048  17.540  26.574  1.00  0.00     0.180 A 
ATOM      2  C   UNL     1       2.390  17.272  26.255  1.00  0.00     0.208 A 
ATOM      3  C   UNL     1       2.814  15.937  26.165  1.00  0.00     0.238 A 
ATOM      4  O   UNL     1       4.033  15.705  25.952  1.00  0.00    -0.285 OA
ATOM      5  C   UNL     1       1.880  14.887  26.338  1.00  0.00     0.111 A 
ATOM      6  C   UNL     1       2.189  13.497  26.224  1.00  0.00     0.134 A 
ATOM      7  C   UNL     1       1.207  12.545  26.522  1.00  0.00     0.093 A 
ATOM      8  C   UNL     1      -0.089  12.931  26.867  1.00  0.00     0.123 A 
ATOM      9  C   UNL     1      -0.416  14.282  26.927  1.00  0.00     0.094 A 
ATOM     10  C   UNL     1       0.552  15.257  26.673  1.00  0.00     0.146 A 
ATOM     11  O   UNL     1       0.203  16.535  26.763  1.00  0.00    -0.452 OA
ENDROOT
BRANCH   1  12
ATOM     12  C   UNL     1       0.529  18.922  26.701  1.00  0.00     0.025 A 
ATOM     13  C   UNL     1       0.547  19.601  27.932  1.00  0.00     0.016 A 
ATOM     14  C   UNL     1       0.029  20.895  28.032  1.00  0.00     0.051 A 
ATOM     15  C   UNL     1      -0.527  21.523  26.911  1.00  0.00     0.157 A 
ATOM     16  C   UNL     1      -0.050  19.547  25.585  1.00  0.00     0.062 A 
ATOM     17  C   UNL     1      -0.568  20.843  25.682  1.00  0.00     0.158 A 
BRANCH  15  18
ATOM     18  O   UNL     1      -1.041  22.815  27.014  1.00  0.00    -0.504 OA
ATOM     19  H   UNL     1      -1.954  22.992  27.413  1.00  0.00     0.293 HD
ENDBRANCH  15  18
BRANCH  17  20
ATOM     20  O   UNL     1      -1.122  21.438  24.548  1.00  0.00    -0.504 OA
ATOM     21  H   UNL     1      -1.656  20.908  23.869  1.00  0.00     0.293 HD
ENDBRANCH  17  20
ENDBRANCH   1  12
BRANCH   2  22
ATOM     22  O   UNL     1       3.279  18.323  26.011  1.00  0.00    -0.502 OA
ATOM     23  H   UNL     1       3.986  18.280  25.287  1.00  0.00     0.293 HD
ENDBRANCH   2  22
BRANCH   6  24
ATOM     24  O   UNL     1       3.428  13.002  25.801  1.00  0.00    -0.507 OA
ATOM     25  H   UNL     1       3.645  12.719  24.858  1.00  0.00     0.293 HD
ENDBRANCH   6  24
BRANCH   8  26
ATOM     26  O   UNL     1      -1.066  11.975  27.145  1.00  0.00    -0.508 OA
ATOM     27  H   UNL     1      -1.556  11.961  28.032  1.00  0.00     0.293 HD
ENDBRANCH   8  26
TORSDOF 6
ENDMDL
