MODEL 1
REMARK VINA RESULT:    -7.331      0.000      0.000
REMARK INTER + INTRA:          -7.331
REMARK INTER:                  -7.331
REMARK INTRA:                   0.000
REMARK UNBOUND:                 0.000
REMARK SMILES C[C@H]1CCC=C2CC[C@H]3[C@@H](C3(C)C)[C@@]21C
REMARK SMILES IDX 1 1 2 2 3 3 4 4 5 5 6 6 14 7 10 8 9 9 11 10 12 11 13 12 8 13
REMARK SMILES IDX 7 14 15 15
REMARK H PARENT
REMARK Flexibility Score: inf
ROOT
ATOM      1  C   UNL     1      -1.521 -14.317   8.740  1.00  0.00     0.008 C 
ATOM      2  C   UNL     1      -2.935 -14.804   8.372  1.00  0.00    -0.004 C 
ATOM      3  C   UNL     1      -3.048 -15.017   6.839  1.00  0.00     0.008 C 
ATOM      4  C   UNL     1      -4.187 -15.961   6.391  1.00  0.00     0.027 C 
ATOM      5  C   UNL     1      -5.194 -16.269   7.466  1.00  0.00    -0.027 C 
ATOM      6  C   UNL     1      -4.859 -16.355   8.769  1.00  0.00    -0.068 C 
ATOM      7  C   UNL     1      -3.404 -16.052   9.201  1.00  0.00    -0.005 C 
ATOM      8  C   UNL     1      -3.454 -15.635  10.702  1.00  0.00     0.009 C 
ATOM      9  C   UNL     1      -4.158 -16.823  11.440  1.00  0.00    -0.000 C 
ATOM     10  C   UNL     1      -2.979 -16.114  12.070  1.00  0.00    -0.028 C 
ATOM     11  C   UNL     1      -1.635 -16.851  12.103  1.00  0.00     0.012 C 
ATOM     12  C   UNL     1      -3.301 -15.204  13.263  1.00  0.00     0.012 C 
ATOM     13  C   UNL     1      -5.628 -16.481  11.271  1.00  0.00     0.009 C 
ATOM     14  C   UNL     1      -5.990 -16.661   9.773  1.00  0.00     0.031 C 
ATOM     15  C   UNL     1      -2.478 -17.268   8.915  1.00  0.00     0.017 C 
ENDROOT
TORSDOF 0
ENDMDL
MODEL 2
REMARK VINA RESULT:    -7.223      1.139      4.794
REMARK INTER + INTRA:          -7.223
REMARK INTER:                  -7.223
REMARK INTRA:                   0.000
REMARK UNBOUND:                 0.000
REMARK SMILES C[C@H]1CCC=C2CC[C@H]3[C@@H](C3(C)C)[C@@]21C
REMARK SMILES IDX 1 1 2 2 3 3 4 4 5 5 6 6 14 7 10 8 9 9 11 10 12 11 13 12 8 13
REMARK SMILES IDX 7 14 15 15
REMARK H PARENT
REMARK Flexibility Score: inf
ROOT
ATOM      1  C   UNL     1      -5.496 -16.875  11.349  1.00  0.00     0.008 C 
ATOM      2  C   UNL     1      -4.422 -15.784  11.510  1.00  0.00    -0.004 C 
ATOM      3  C   UNL     1      -4.060 -15.602  13.008  1.00  0.00     0.008 C 
ATOM      4  C   UNL     1      -2.686 -14.947  13.275  1.00  0.00     0.027 C 
ATOM      5  C   UNL     1      -2.062 -14.303  12.066  1.00  0.00    -0.027 C 
ATOM      6  C   UNL     1      -2.232 -14.788  10.820  1.00  0.00    -0.068 C 
ATOM      7  C   UNL     1      -3.163 -16.003  10.597  1.00  0.00    -0.005 C 
ATOM      8  C   UNL     1      -3.636 -15.946   9.113  1.00  0.00     0.009 C 
ATOM      9  C   UNL     1      -2.323 -15.920   8.260  1.00  0.00    -0.000 C 
ATOM     10  C   UNL     1      -3.517 -16.734   7.812  1.00  0.00    -0.028 C 
ATOM     11  C   UNL     1      -3.434 -18.259   7.946  1.00  0.00     0.012 C 
ATOM     12  C   UNL     1      -4.292 -16.185   6.607  1.00  0.00     0.012 C 
ATOM     13  C   UNL     1      -1.986 -14.439   8.234  1.00  0.00     0.009 C 
ATOM     14  C   UNL     1      -1.550 -14.025   9.664  1.00  0.00     0.031 C 
ATOM     15  C   UNL     1      -2.445 -17.328  10.979  1.00  0.00     0.017 C 
ENDROOT
TORSDOF 0
ENDMDL
MODEL 3
REMARK VINA RESULT:    -6.613      1.597      2.403
REMARK INTER + INTRA:          -6.613
REMARK INTER:                  -6.613
REMARK INTRA:                   0.000
REMARK UNBOUND:                 0.000
REMARK SMILES C[C@H]1CCC=C2CC[C@H]3[C@@H](C3(C)C)[C@@]21C
REMARK SMILES IDX 1 1 2 2 3 3 4 4 5 5 6 6 14 7 10 8 9 9 11 10 12 11 13 12 8 13
REMARK SMILES IDX 7 14 15 15
REMARK H PARENT
REMARK Flexibility Score: inf
ROOT
ATOM      1  C   UNL     1      -4.443 -13.279   7.639  1.00  0.00     0.008 C 
ATOM      2  C   UNL     1      -4.565 -14.795   7.884  1.00  0.00    -0.004 C 
ATOM      3  C   UNL     1      -5.029 -15.512   6.588  1.00  0.00     0.008 C 
ATOM      4  C   UNL     1      -4.706 -17.023   6.526  1.00  0.00     0.027 C 
ATOM      5  C   UNL     1      -4.289 -17.622   7.842  1.00  0.00    -0.027 C 
ATOM      6  C   UNL     1      -3.596 -16.926   8.766  1.00  0.00    -0.068 C 
ATOM      7  C   UNL     1      -3.276 -15.434   8.512  1.00  0.00    -0.005 C 
ATOM      8  C   UNL     1      -3.050 -14.776   9.907  1.00  0.00     0.009 C 
ATOM      9  C   UNL     1      -1.915 -15.617  10.583  1.00  0.00    -0.000 C 
ATOM     10  C   UNL     1      -1.947 -14.110  10.726  1.00  0.00    -0.028 C 
ATOM     11  C   UNL     1      -0.914 -13.295   9.940  1.00  0.00     0.012 C 
ATOM     12  C   UNL     1      -2.351 -13.574  12.106  1.00  0.00     0.012 C 
ATOM     13  C   UNL     1      -2.695 -16.754  11.221  1.00  0.00     0.009 C 
ATOM     14  C   UNL     1      -3.243 -17.652  10.081  1.00  0.00     0.031 C 
ATOM     15  C   UNL     1      -2.072 -15.283   7.541  1.00  0.00     0.017 C 
ENDROOT
TORSDOF 0
ENDMDL
MODEL 4
REMARK VINA RESULT:    -6.562      1.268      4.845
REMARK INTER + INTRA:          -6.562
REMARK INTER:                  -6.562
REMARK INTRA:                   0.000
REMARK UNBOUND:                 0.000
REMARK SMILES C[C@H]1CCC=C2CC[C@H]3[C@@H](C3(C)C)[C@@]21C
REMARK SMILES IDX 1 1 2 2 3 3 4 4 5 5 6 6 14 7 10 8 9 9 11 10 12 11 13 12 8 13
REMARK SMILES IDX 7 14 15 15
REMARK H PARENT
REMARK Flexibility Score: inf
ROOT
ATOM      1  C   UNL     1      -5.518 -16.995  10.666  1.00  0.00     0.008 C 
ATOM      2  C   UNL     1      -4.526 -15.940  11.191  1.00  0.00    -0.004 C 
ATOM      3  C   UNL     1      -3.980 -16.361  12.581  1.00  0.00     0.008 C 
ATOM      4  C   UNL     1      -2.641 -15.703  12.986  1.00  0.00     0.027 C 
ATOM      5  C   UNL     1      -2.243 -14.533  12.128  1.00  0.00    -0.027 C 
ATOM      6  C   UNL     1      -2.541 -14.464  10.815  1.00  0.00    -0.068 C 
ATOM      7  C   UNL     1      -3.389 -15.584  10.168  1.00  0.00    -0.005 C 
ATOM      8  C   UNL     1      -4.063 -14.970   8.904  1.00  0.00     0.009 C 
ATOM      9  C   UNL     1      -2.885 -14.411   8.036  1.00  0.00    -0.000 C 
ATOM     10  C   UNL     1      -4.057 -15.112   7.384  1.00  0.00    -0.028 C 
ATOM     11  C   UNL     1      -3.831 -16.525   6.834  1.00  0.00     0.012 C 
ATOM     12  C   UNL     1      -5.032 -14.214   6.611  1.00  0.00     0.012 C 
ATOM     13  C   UNL     1      -2.678 -13.027   8.627  1.00  0.00     0.009 C 
ATOM     14  C   UNL     1      -2.088 -13.201  10.051  1.00  0.00     0.031 C 
ATOM     15  C   UNL     1      -2.518 -16.837   9.872  1.00  0.00     0.017 C 
ENDROOT
TORSDOF 0
ENDMDL
MODEL 5
REMARK VINA RESULT:    -6.460      1.414      3.881
REMARK INTER + INTRA:          -6.460
REMARK INTER:                  -6.460
REMARK INTRA:                   0.000
REMARK UNBOUND:                 0.000
REMARK SMILES C[C@H]1CCC=C2CC[C@H]3[C@@H](C3(C)C)[C@@]21C
REMARK SMILES IDX 1 1 2 2 3 3 4 4 5 5 6 6 14 7 10 8 9 9 11 10 12 11 13 12 8 13
REMARK SMILES IDX 7 14 15 15
REMARK H PARENT
REMARK Flexibility Score: inf
ROOT
ATOM      1  C   UNL     1      -0.400 -15.185   7.883  1.00  0.00     0.008 C 
ATOM      2  C   UNL     1      -1.039 -14.978   9.269  1.00  0.00    -0.004 C 
ATOM      3  C   UNL     1      -0.660 -13.582   9.833  1.00  0.00     0.008 C 
ATOM      4  C   UNL     1      -1.606 -13.039  10.928  1.00  0.00     0.027 C 
ATOM      5  C   UNL     1      -2.546 -14.067  11.498  1.00  0.00    -0.027 C 
ATOM      6  C   UNL     1      -3.046 -15.079  10.761  1.00  0.00    -0.068 C 
ATOM      7  C   UNL     1      -2.585 -15.250   9.294  1.00  0.00    -0.005 C 
ATOM      8  C   UNL     1      -2.811 -16.746   8.919  1.00  0.00     0.009 C 
ATOM      9  C   UNL     1      -4.327 -17.020   9.200  1.00  0.00    -0.000 C 
ATOM     10  C   UNL     1      -3.651 -17.608   7.981  1.00  0.00    -0.028 C 
ATOM     11  C   UNL     1      -3.985 -16.998   6.614  1.00  0.00     0.012 C 
ATOM     12  C   UNL     1      -3.387 -19.118   8.021  1.00  0.00     0.012 C 
ATOM     13  C   UNL     1      -4.322 -17.366  10.680  1.00  0.00     0.009 C 
ATOM     14  C   UNL     1      -3.988 -16.074  11.470  1.00  0.00     0.031 C 
ATOM     15  C   UNL     1      -3.323 -14.249   8.361  1.00  0.00     0.017 C 
ENDROOT
TORSDOF 0
ENDMDL
MODEL 6
REMARK VINA RESULT:    -6.035      1.175      2.868
REMARK INTER + INTRA:          -6.035
REMARK INTER:                  -6.035
REMARK INTRA:                   0.000
REMARK UNBOUND:                 0.000
REMARK SMILES C[C@H]1CCC=C2CC[C@H]3[C@@H](C3(C)C)[C@@]21C
REMARK SMILES IDX 1 1 2 2 3 3 4 4 5 5 6 6 14 7 10 8 9 9 11 10 12 11 13 12 8 13
REMARK SMILES IDX 7 14 15 15
REMARK H PARENT
REMARK Flexibility Score: inf
ROOT
ATOM      1  C   UNL     1      -3.870 -18.616   9.488  1.00  0.00     0.008 C 
ATOM      2  C   UNL     1      -3.390 -17.400   8.674  1.00  0.00    -0.004 C 
ATOM      3  C   UNL     1      -3.928 -17.480   7.221  1.00  0.00     0.008 C 
ATOM      4  C   UNL     1      -3.968 -16.133   6.463  1.00  0.00     0.027 C 
ATOM      5  C   UNL     1      -3.193 -15.026   7.125  1.00  0.00    -0.027 C 
ATOM      6  C   UNL     1      -3.077 -14.926   8.465  1.00  0.00    -0.068 C 
ATOM      7  C   UNL     1      -3.691 -16.023   9.365  1.00  0.00    -0.005 C 
ATOM      8  C   UNL     1      -2.915 -15.989  10.716  1.00  0.00     0.009 C 
ATOM      9  C   UNL     1      -3.049 -14.517  11.235  1.00  0.00    -0.000 C 
ATOM     10  C   UNL     1      -3.142 -15.684  12.194  1.00  0.00    -0.028 C 
ATOM     11  C   UNL     1      -4.523 -16.040  12.757  1.00  0.00     0.012 C 
ATOM     12  C   UNL     1      -1.939 -15.886  13.126  1.00  0.00     0.012 C 
ATOM     13  C   UNL     1      -1.899 -13.821  10.528  1.00  0.00     0.009 C 
ATOM     14  C   UNL     1      -2.240 -13.752   9.017  1.00  0.00     0.031 C 
ATOM     15  C   UNL     1      -5.225 -15.821   9.516  1.00  0.00     0.017 C 
ENDROOT
TORSDOF 0
ENDMDL
MODEL 7
REMARK VINA RESULT:    -5.418      1.562      4.260
REMARK INTER + INTRA:          -5.418
REMARK INTER:                  -5.418
REMARK INTRA:                   0.000
REMARK UNBOUND:                 0.000
REMARK SMILES C[C@H]1CCC=C2CC[C@H]3[C@@H](C3(C)C)[C@@]21C
REMARK SMILES IDX 1 1 2 2 3 3 4 4 5 5 6 6 14 7 10 8 9 9 11 10 12 11 13 12 8 13
REMARK SMILES IDX 7 14 15 15
REMARK H PARENT
REMARK Flexibility Score: inf
ROOT
ATOM      1  C   UNL     1      -2.738 -16.360  11.686  1.00  0.00     0.008 C 
ATOM      2  C   UNL     1      -2.788 -14.978  11.006  1.00  0.00    -0.004 C 
ATOM      3  C   UNL     1      -1.724 -14.034  11.626  1.00  0.00     0.008 C 
ATOM      4  C   UNL     1      -1.313 -12.838  10.738  1.00  0.00     0.027 C 
ATOM      5  C   UNL     1      -2.225 -12.596   9.566  1.00  0.00    -0.027 C 
ATOM      6  C   UNL     1      -2.856 -13.597   8.921  1.00  0.00    -0.068 C 
ATOM      7  C   UNL     1      -2.710 -15.047   9.440  1.00  0.00    -0.005 C 
ATOM      8  C   UNL     1      -3.954 -15.838   8.935  1.00  0.00     0.009 C 
ATOM      9  C   UNL     1      -3.955 -15.661   7.379  1.00  0.00    -0.000 C 
ATOM     10  C   UNL     1      -4.314 -16.992   8.003  1.00  0.00    -0.028 C 
ATOM     11  C   UNL     1      -3.290 -18.128   7.902  1.00  0.00     0.012 C 
ATOM     12  C   UNL     1      -5.796 -17.385   7.943  1.00  0.00     0.012 C 
ATOM     13  C   UNL     1      -4.691 -14.344   7.205  1.00  0.00     0.009 C 
ATOM     14  C   UNL     1      -3.777 -13.212   7.743  1.00  0.00     0.031 C 
ATOM     15  C   UNL     1      -1.351 -15.660   8.995  1.00  0.00     0.017 C 
ENDROOT
TORSDOF 0
ENDMDL
MODEL 8
REMARK VINA RESULT:    -5.111      1.286      4.178
REMARK INTER + INTRA:          -5.111
REMARK INTER:                  -5.111
REMARK INTRA:                   0.000
REMARK UNBOUND:                 0.000
REMARK SMILES C[C@H]1CCC=C2CC[C@H]3[C@@H](C3(C)C)[C@@]21C
REMARK SMILES IDX 1 1 2 2 3 3 4 4 5 5 6 6 14 7 10 8 9 9 11 10 12 11 13 12 8 13
REMARK SMILES IDX 7 14 15 15
REMARK H PARENT
REMARK Flexibility Score: inf
ROOT
ATOM      1  C   UNL     1      -1.031 -15.329   7.980  1.00  0.00     0.008 C 
ATOM      2  C   UNL     1      -1.747 -15.858   9.237  1.00  0.00    -0.004 C 
ATOM      3  C   UNL     1      -0.878 -15.604  10.498  1.00  0.00     0.008 C 
ATOM      4  C   UNL     1      -1.651 -15.602  11.836  1.00  0.00     0.027 C 
ATOM      5  C   UNL     1      -3.047 -16.157  11.745  1.00  0.00    -0.027 C 
ATOM      6  C   UNL     1      -3.811 -16.016  10.643  1.00  0.00    -0.068 C 
ATOM      7  C   UNL     1      -3.218 -15.331   9.390  1.00  0.00    -0.005 C 
ATOM      8  C   UNL     1      -4.035 -15.840   8.164  1.00  0.00     0.009 C 
ATOM      9  C   UNL     1      -5.529 -15.502   8.492  1.00  0.00    -0.000 C 
ATOM     10  C   UNL     1      -4.987 -15.322   7.090  1.00  0.00    -0.028 C 
ATOM     11  C   UNL     1      -4.741 -13.892   6.596  1.00  0.00     0.012 C 
ATOM     12  C   UNL     1      -5.464 -16.344   6.049  1.00  0.00     0.012 C 
ATOM     13  C   UNL     1      -5.959 -16.706   9.311  1.00  0.00     0.009 C 
ATOM     14  C   UNL     1      -5.220 -16.645  10.673  1.00  0.00     0.031 C 
ATOM     15  C   UNL     1      -3.222 -13.784   9.550  1.00  0.00     0.017 C 
ENDROOT
TORSDOF 0
ENDMDL
MODEL 9
REMARK VINA RESULT:    -4.777      1.322      4.426
REMARK INTER + INTRA:          -4.777
REMARK INTER:                  -4.777
REMARK INTRA:                   0.000
REMARK UNBOUND:                 0.000
REMARK SMILES C[C@H]1CCC=C2CC[C@H]3[C@@H](C3(C)C)[C@@]21C
REMARK SMILES IDX 1 1 2 2 3 3 4 4 5 5 6 6 14 7 10 8 9 9 11 10 12 11 13 12 8 13
REMARK SMILES IDX 7 14 15 15
REMARK H PARENT
REMARK Flexibility Score: inf
ROOT
ATOM      1  C   UNL     1      -2.577 -13.645  10.017  1.00  0.00     0.008 C 
ATOM      2  C   UNL     1      -2.296 -15.102  10.430  1.00  0.00    -0.004 C 
ATOM      3  C   UNL     1      -1.956 -15.176  11.942  1.00  0.00     0.008 C 
ATOM      4  C   UNL     1      -2.156 -16.565  12.591  1.00  0.00     0.027 C 
ATOM      5  C   UNL     1      -2.337 -17.688  11.605  1.00  0.00    -0.027 C 
ATOM      6  C   UNL     1      -2.953 -17.517  10.419  1.00  0.00    -0.068 C 
ATOM      7  C   UNL     1      -3.428 -16.104  10.006  1.00  0.00    -0.005 C 
ATOM      8  C   UNL     1      -3.516 -16.091   8.450  1.00  0.00     0.009 C 
ATOM      9  C   UNL     1      -4.472 -17.274   8.079  1.00  0.00    -0.000 C 
ATOM     10  C   UNL     1      -4.548 -15.960   7.333  1.00  0.00    -0.028 C 
ATOM     11  C   UNL     1      -5.744 -15.044   7.617  1.00  0.00     0.012 C 
ATOM     12  C   UNL     1      -4.006 -15.969   5.898  1.00  0.00     0.012 C 
ATOM     13  C   UNL     1      -3.520 -18.457   8.040  1.00  0.00     0.009 C 
ATOM     14  C   UNL     1      -3.060 -18.746   9.492  1.00  0.00     0.031 C 
ATOM     15  C   UNL     1      -4.763 -15.739  10.715  1.00  0.00     0.017 C 
ENDROOT
TORSDOF 0
ENDMDL
