MODEL 1
REMARK VINA RESULT:    -4.001      0.000      0.000
REMARK INTER + INTRA:          -7.009
REMARK INTER:                  -6.106
REMARK INTRA:                  -0.903
REMARK UNBOUND:                -0.903
REMARK SMILES O=C([O-])CCCCCCCCC(=O)[O-]
REMARK SMILES IDX 7 1 6 2 5 3 4 4 2 5 1 6 3 7 8 8 9 9 10 10 11 11 12 12 13 13
REMARK SMILES IDX 14 14
REMARK H PARENT
REMARK Flexibility Score: inf
ROOT
ATOM      1  C   UNL     1      19.678  11.387  -5.418  1.00  0.00     0.000 C 
ENDROOT
BRANCH   1   2
ATOM      2  C   UNL     1      18.973  11.058  -6.742  1.00  0.00     0.000 C 
BRANCH   2   3
ATOM      3  C   UNL     1      17.501  11.502  -6.755  1.00  0.00     0.006 C 
BRANCH   3   4
ATOM      4  C   UNL     1      17.192  12.493  -7.884  1.00  0.00     0.053 C 
BRANCH   4   5
ATOM      5  C   UNL     1      15.726  12.788  -7.934  1.00  0.00     0.041 C 
ATOM      6  O   UNL     1      15.108  13.106  -6.884  1.00  0.00    -0.550 OA
ATOM      7  O   UNL     1      15.052  12.758  -9.148  1.00  0.00    -0.550 OA
ENDBRANCH   4   5
ENDBRANCH   3   4
ENDBRANCH   2   3
ENDBRANCH   1   2
BRANCH   1   8
ATOM      8  C   UNL     1      20.043  12.878  -5.348  1.00  0.00     0.000 C 
BRANCH   8   9
ATOM      9  C   UNL     1      19.961  13.441  -3.920  1.00  0.00     0.000 C 
BRANCH   9  10
ATOM     10  C   UNL     1      19.018  14.653  -3.816  1.00  0.00     0.006 C 
BRANCH  10  11
ATOM     11  C   UNL     1      17.649  14.378  -4.452  1.00  0.00     0.053 C 
BRANCH  11  12
ATOM     12  C   UNL     1      17.287  15.424  -5.461  1.00  0.00     0.041 C 
ATOM     13  O   UNL     1      16.309  16.191  -5.258  1.00  0.00    -0.550 OA
ATOM     14  O   UNL     1      18.011  15.531  -6.642  1.00  0.00    -0.550 OA
ENDBRANCH  11  12
ENDBRANCH  10  11
ENDBRANCH   9  10
ENDBRANCH   8   9
ENDBRANCH   1   8
TORSDOF 9
ENDMDL
MODEL 2
REMARK VINA RESULT:    -3.961      2.350      5.002
REMARK INTER + INTRA:          -6.947
REMARK INTER:                  -5.949
REMARK INTRA:                  -0.998
REMARK UNBOUND:                -0.903
REMARK SMILES O=C([O-])CCCCCCCCC(=O)[O-]
REMARK SMILES IDX 7 1 6 2 5 3 4 4 2 5 1 6 3 7 8 8 9 9 10 10 11 11 12 12 13 13
REMARK SMILES IDX 14 14
REMARK H PARENT
REMARK Flexibility Score: inf
ROOT
ATOM      1  C   UNL     1      15.583  13.610  -6.738  1.00  0.00     0.000 C 
ENDROOT
BRANCH   1   2
ATOM      2  C   UNL     1      16.389  12.359  -6.358  1.00  0.00     0.000 C 
BRANCH   2   3
ATOM      3  C   UNL     1      17.667  12.694  -5.571  1.00  0.00     0.006 C 
BRANCH   3   4
ATOM      4  C   UNL     1      17.646  14.112  -4.988  1.00  0.00     0.053 C 
BRANCH   4   5
ATOM      5  C   UNL     1      19.007  14.495  -4.497  1.00  0.00     0.041 C 
ATOM      6  O   UNL     1      19.382  14.160  -3.343  1.00  0.00    -0.550 OA
ATOM      7  O   UNL     1      19.880  15.179  -5.333  1.00  0.00    -0.550 OA
ENDBRANCH   4   5
ENDBRANCH   3   4
ENDBRANCH   2   3
ENDBRANCH   1   2
BRANCH   1   8
ATOM      8  C   UNL     1      14.584  13.296  -7.862  1.00  0.00     0.000 C 
BRANCH   8   9
ATOM      9  C   UNL     1      15.275  12.835  -9.156  1.00  0.00     0.000 C 
BRANCH   9  10
ATOM     10  C   UNL     1      16.254  13.884  -9.711  1.00  0.00     0.006 C 
BRANCH  10  11
ATOM     11  C   UNL     1      17.702  13.376  -9.721  1.00  0.00     0.053 C 
BRANCH  11  12
ATOM     12  C   UNL     1      18.581  14.192  -8.823  1.00  0.00     0.041 C 
ATOM     13  O   UNL     1      19.729  13.778  -8.510  1.00  0.00    -0.550 OA
ATOM     14  O   UNL     1      18.120  15.395  -8.305  1.00  0.00    -0.550 OA
ENDBRANCH  11  12
ENDBRANCH  10  11
ENDBRANCH   9  10
ENDBRANCH   8   9
ENDBRANCH   1   8
TORSDOF 9
ENDMDL
MODEL 3
REMARK VINA RESULT:    -3.926      0.815      4.014
REMARK INTER + INTRA:          -6.895
REMARK INTER:                  -6.061
REMARK INTRA:                  -0.834
REMARK UNBOUND:                -0.903
REMARK SMILES O=C([O-])CCCCCCCCC(=O)[O-]
REMARK SMILES IDX 7 1 6 2 5 3 4 4 2 5 1 6 3 7 8 8 9 9 10 10 11 11 12 12 13 13
REMARK SMILES IDX 14 14
REMARK H PARENT
REMARK Flexibility Score: inf
ROOT
ATOM      1  C   UNL     1      19.550  11.307  -5.562  1.00  0.00     0.000 C 
ENDROOT
BRANCH   1   2
ATOM      2  C   UNL     1      19.581  12.788  -5.156  1.00  0.00     0.000 C 
BRANCH   2   3
ATOM      3  C   UNL     1      18.233  13.279  -4.605  1.00  0.00     0.006 C 
BRANCH   3   4
ATOM      4  C   UNL     1      18.181  14.804  -4.441  1.00  0.00     0.053 C 
BRANCH   4   5
ATOM      5  C   UNL     1      17.374  15.420  -5.539  1.00  0.00     0.041 C 
ATOM      6  O   UNL     1      16.242  15.914  -5.294  1.00  0.00    -0.550 OA
ATOM      7  O   UNL     1      17.891  15.492  -6.826  1.00  0.00    -0.550 OA
ENDBRANCH   4   5
ENDBRANCH   3   4
ENDBRANCH   2   3
ENDBRANCH   1   2
BRANCH   1   8
ATOM      8  C   UNL     1      18.612  11.088  -6.758  1.00  0.00     0.000 C 
BRANCH   8   9
ATOM      9  C   UNL     1      18.980  11.962  -7.968  1.00  0.00     0.000 C 
BRANCH   9  10
ATOM     10  C   UNL     1      17.747  12.589  -8.642  1.00  0.00     0.006 C 
BRANCH  10  11
ATOM     11  C   UNL     1      16.486  12.455  -7.779  1.00  0.00     0.053 C 
BRANCH  11  12
ATOM     12  C   UNL     1      15.261  12.905  -8.515  1.00  0.00     0.041 C 
ATOM     13  O   UNL     1      15.280  13.020  -9.769  1.00  0.00    -0.550 OA
ATOM     14  O   UNL     1      14.108  13.230  -7.812  1.00  0.00    -0.550 OA
ENDBRANCH  11  12
ENDBRANCH  10  11
ENDBRANCH   9  10
ENDBRANCH   8   9
ENDBRANCH   1   8
TORSDOF 9
ENDMDL
MODEL 4
REMARK VINA RESULT:    -3.926      2.410      5.128
REMARK INTER + INTRA:          -6.894
REMARK INTER:                  -5.994
REMARK INTRA:                  -0.900
REMARK UNBOUND:                -0.903
REMARK SMILES O=C([O-])CCCCCCCCC(=O)[O-]
REMARK SMILES IDX 7 1 6 2 5 3 4 4 2 5 1 6 3 7 8 8 9 9 10 10 11 11 12 12 13 13
REMARK SMILES IDX 14 14
REMARK H PARENT
REMARK Flexibility Score: inf
ROOT
ATOM      1  C   UNL     1      16.713  12.330  -6.899  1.00  0.00     0.000 C 
ENDROOT
BRANCH   1   2
ATOM      2  C   UNL     1      17.853  13.167  -6.297  1.00  0.00     0.000 C 
BRANCH   2   3
ATOM      3  C   UNL     1      17.399  14.577  -5.885  1.00  0.00     0.006 C 
BRANCH   3   4
ATOM      4  C   UNL     1      17.621  14.856  -4.393  1.00  0.00     0.053 C 
BRANCH   4   5
ATOM      5  C   UNL     1      19.066  14.690  -4.041  1.00  0.00     0.041 C 
ATOM      6  O   UNL     1      19.919  15.518  -4.458  1.00  0.00    -0.550 OA
ATOM      7  O   UNL     1      19.465  13.650  -3.212  1.00  0.00    -0.550 OA
ENDBRANCH   4   5
ENDBRANCH   3   4
ENDBRANCH   2   3
ENDBRANCH   1   2
BRANCH   1   8
ATOM      8  C   UNL     1      15.364  13.045  -6.731  1.00  0.00     0.000 C 
BRANCH   8   9
ATOM      9  C   UNL     1      14.693  13.366  -8.076  1.00  0.00     0.000 C 
BRANCH   9  10
ATOM     10  C   UNL     1      15.562  12.965  -9.281  1.00  0.00     0.006 C 
BRANCH  10  11
ATOM     11  C   UNL     1      16.054  14.185 -10.071  1.00  0.00     0.053 C 
BRANCH  11  12
ATOM     12  C   UNL     1      17.486  14.501  -9.766  1.00  0.00     0.041 C 
ATOM     13  O   UNL     1      17.829  15.676  -9.470  1.00  0.00    -0.550 OA
ATOM     14  O   UNL     1      18.449  13.502  -9.839  1.00  0.00    -0.550 OA
ENDBRANCH  11  12
ENDBRANCH  10  11
ENDBRANCH   9  10
ENDBRANCH   8   9
ENDBRANCH   1   8
TORSDOF 9
ENDMDL
MODEL 5
REMARK VINA RESULT:    -3.915      1.865      3.373
REMARK INTER + INTRA:          -6.878
REMARK INTER:                  -6.288
REMARK INTRA:                  -0.590
REMARK UNBOUND:                -0.903
REMARK SMILES O=C([O-])CCCCCCCCC(=O)[O-]
REMARK SMILES IDX 7 1 6 2 5 3 4 4 2 5 1 6 3 7 8 8 9 9 10 10 11 11 12 12 13 13
REMARK SMILES IDX 14 14
REMARK H PARENT
REMARK Flexibility Score: inf
ROOT
ATOM      1  C   UNL     1      15.438  12.992  -6.946  1.00  0.00     0.000 C 
ENDROOT
BRANCH   1   2
ATOM      2  C   UNL     1      14.800  13.075  -8.341  1.00  0.00     0.000 C 
BRANCH   2   3
ATOM      3  C   UNL     1      15.838  13.002  -9.472  1.00  0.00     0.006 C 
BRANCH   3   4
ATOM      4  C   UNL     1      16.101  14.366 -10.122  1.00  0.00     0.053 C 
BRANCH   4   5
ATOM      5  C   UNL     1      17.495  14.823  -9.831  1.00  0.00     0.041 C 
ATOM      6  O   UNL     1      18.403  13.981  -9.600  1.00  0.00    -0.550 OA
ATOM      7  O   UNL     1      17.805  16.176  -9.864  1.00  0.00    -0.550 OA
ENDBRANCH   4   5
ENDBRANCH   3   4
ENDBRANCH   2   3
ENDBRANCH   1   2
BRANCH   1   8
ATOM      8  C   UNL     1      16.799  12.282  -7.009  1.00  0.00     0.000 C 
BRANCH   8   9
ATOM      9  C   UNL     1      17.405  12.040  -5.616  1.00  0.00     0.000 C 
BRANCH   9  10
ATOM     10  C   UNL     1      18.513  13.051  -5.271  1.00  0.00     0.006 C 
BRANCH  10  11
ATOM     11  C   UNL     1      17.966  14.276  -4.526  1.00  0.00     0.053 C 
BRANCH  11  12
ATOM     12  C   UNL     1      17.511  15.343  -5.475  1.00  0.00     0.041 C 
ATOM     13  O   UNL     1      18.173  15.589  -6.518  1.00  0.00    -0.550 OA
ATOM     14  O   UNL     1      16.374  16.088  -5.190  1.00  0.00    -0.550 OA
ENDBRANCH  11  12
ENDBRANCH  10  11
ENDBRANCH   9  10
ENDBRANCH   8   9
ENDBRANCH   1   8
TORSDOF 9
ENDMDL
MODEL 6
REMARK VINA RESULT:    -3.897      2.672      3.877
REMARK INTER + INTRA:          -6.850
REMARK INTER:                  -5.911
REMARK INTRA:                  -0.939
REMARK UNBOUND:                -0.903
REMARK SMILES O=C([O-])CCCCCCCCC(=O)[O-]
REMARK SMILES IDX 7 1 6 2 5 3 4 4 2 5 1 6 3 7 8 8 9 9 10 10 11 11 12 12 13 13
REMARK SMILES IDX 14 14
REMARK H PARENT
REMARK Flexibility Score: inf
ROOT
ATOM      1  C   UNL     1      15.006  13.106  -7.532  1.00  0.00     0.000 C 
ENDROOT
BRANCH   1   2
ATOM      2  C   UNL     1      15.653  13.440  -8.885  1.00  0.00     0.000 C 
BRANCH   2   3
ATOM      3  C   UNL     1      17.127  13.008  -8.959  1.00  0.00     0.006 C 
BRANCH   3   4
ATOM      4  C   UNL     1      18.061  14.160  -9.353  1.00  0.00     0.053 C 
BRANCH   4   5
ATOM      5  C   UNL     1      19.011  14.465  -8.238  1.00  0.00     0.041 C 
ATOM      6  O   UNL     1      19.173  15.652  -7.851  1.00  0.00    -0.550 OA
ATOM      7  O   UNL     1      19.681  13.434  -7.594  1.00  0.00    -0.550 OA
ENDBRANCH   4   5
ENDBRANCH   3   4
ENDBRANCH   2   3
ENDBRANCH   1   2
BRANCH   1   8
ATOM      8  C   UNL     1      15.963  13.429  -6.374  1.00  0.00     0.000 C 
BRANCH   8   9
ATOM      9  C   UNL     1      15.992  14.928  -6.032  1.00  0.00     0.000 C 
BRANCH   9  10
ATOM     10  C   UNL     1      17.138  15.293  -5.073  1.00  0.00     0.006 C 
BRANCH  10  11
ATOM     11  C   UNL     1      17.936  14.059  -4.629  1.00  0.00     0.053 C 
BRANCH  11  12
ATOM     12  C   UNL     1      19.218  14.442  -3.955  1.00  0.00     0.041 C 
ATOM     13  O   UNL     1      19.605  15.640  -3.960  1.00  0.00    -0.550 OA
ATOM     14  O   UNL     1      20.002  13.468  -3.351  1.00  0.00    -0.550 OA
ENDBRANCH  11  12
ENDBRANCH  10  11
ENDBRANCH   9  10
ENDBRANCH   8   9
ENDBRANCH   1   8
TORSDOF 9
ENDMDL
MODEL 7
REMARK VINA RESULT:    -3.792      1.956      4.113
REMARK INTER + INTRA:          -6.690
REMARK INTER:                  -5.666
REMARK INTRA:                  -1.024
REMARK UNBOUND:                -0.903
REMARK SMILES O=C([O-])CCCCCCCCC(=O)[O-]
REMARK SMILES IDX 7 1 6 2 5 3 4 4 2 5 1 6 3 7 8 8 9 9 10 10 11 11 12 12 13 13
REMARK SMILES IDX 14 14
REMARK H PARENT
REMARK Flexibility Score: inf
ROOT
ATOM      1  C   UNL     1      18.377  13.819  -4.496  1.00  0.00     0.000 C 
ENDROOT
BRANCH   1   2
ATOM      2  C   UNL     1      19.771  14.274  -4.954  1.00  0.00     0.000 C 
BRANCH   2   3
ATOM      3  C   UNL     1      20.030  13.982  -6.441  1.00  0.00     0.006 C 
BRANCH   3   4
ATOM      4  C   UNL     1      19.875  15.227  -7.323  1.00  0.00     0.053 C 
BRANCH   4   5
ATOM      5  C   UNL     1      19.116  14.893  -8.568  1.00  0.00     0.041 C 
ATOM      6  O   UNL     1      19.412  13.867  -9.236  1.00  0.00    -0.550 OA
ATOM      7  O   UNL     1      18.048  15.688  -8.966  1.00  0.00    -0.550 OA
ENDBRANCH   4   5
ENDBRANCH   3   4
ENDBRANCH   2   3
ENDBRANCH   1   2
BRANCH   1   8
ATOM      8  C   UNL     1      17.323  14.893  -4.804  1.00  0.00     0.000 C 
BRANCH   8   9
ATOM      9  C   UNL     1      16.375  14.482  -5.942  1.00  0.00     0.000 C 
BRANCH   9  10
ATOM     10  C   UNL     1      16.329  12.959  -6.153  1.00  0.00     0.006 C 
BRANCH  10  11
ATOM     11  C   UNL     1      16.501  12.573  -7.628  1.00  0.00     0.053 C 
BRANCH  11  12
ATOM     12  C   UNL     1      15.371  13.083  -8.469  1.00  0.00     0.041 C 
ATOM     13  O   UNL     1      15.590  13.526  -9.627  1.00  0.00    -0.550 OA
ATOM     14  O   UNL     1      14.079  13.100  -7.959  1.00  0.00    -0.550 OA
ENDBRANCH  11  12
ENDBRANCH  10  11
ENDBRANCH   9  10
ENDBRANCH   8   9
ENDBRANCH   1   8
TORSDOF 9
ENDMDL
MODEL 8
REMARK VINA RESULT:    -3.787      1.195      2.144
REMARK INTER + INTRA:          -6.682
REMARK INTER:                  -5.749
REMARK INTRA:                  -0.933
REMARK UNBOUND:                -0.903
REMARK SMILES O=C([O-])CCCCCCCCC(=O)[O-]
REMARK SMILES IDX 7 1 6 2 5 3 4 4 2 5 1 6 3 7 8 8 9 9 10 10 11 11 12 12 13 13
REMARK SMILES IDX 14 14
REMARK H PARENT
REMARK Flexibility Score: inf
ROOT
ATOM      1  C   UNL     1      19.423  12.141  -7.627  1.00  0.00     0.000 C 
ENDROOT
BRANCH   1   2
ATOM      2  C   UNL     1      19.007  13.206  -8.653  1.00  0.00     0.000 C 
BRANCH   2   3
ATOM      3  C   UNL     1      17.691  12.858  -9.367  1.00  0.00     0.006 C 
BRANCH   3   4
ATOM      4  C   UNL     1      16.551  13.819  -9.006  1.00  0.00     0.053 C 
BRANCH   4   5
ATOM      5  C   UNL     1      15.274  13.064  -8.813  1.00  0.00     0.041 C 
ATOM      6  O   UNL     1      14.666  13.119  -7.712  1.00  0.00    -0.550 OA
ATOM      7  O   UNL     1      14.729  12.340  -9.865  1.00  0.00    -0.550 OA
ENDBRANCH   4   5
ENDBRANCH   3   4
ENDBRANCH   2   3
ENDBRANCH   1   2
BRANCH   1   8
ATOM      8  C   UNL     1      18.197  11.376  -7.107  1.00  0.00     0.000 C 
BRANCH   8   9
ATOM      9  C   UNL     1      17.605  12.002  -5.833  1.00  0.00     0.000 C 
BRANCH   9  10
ATOM     10  C   UNL     1      18.633  12.839  -5.053  1.00  0.00     0.006 C 
BRANCH  10  11
ATOM     11  C   UNL     1      18.018  14.121  -4.477  1.00  0.00     0.053 C 
BRANCH  11  12
ATOM     12  C   UNL     1      17.514  15.027  -5.558  1.00  0.00     0.041 C 
ATOM     13  O   UNL     1      18.312  15.515  -6.401  1.00  0.00    -0.550 OA
ATOM     14  O   UNL     1      16.166  15.359  -5.614  1.00  0.00    -0.550 OA
ENDBRANCH  11  12
ENDBRANCH  10  11
ENDBRANCH   9  10
ENDBRANCH   8   9
ENDBRANCH   1   8
TORSDOF 9
ENDMDL
MODEL 9
REMARK VINA RESULT:    -3.712      9.899     11.172
REMARK INTER + INTRA:          -6.568
REMARK INTER:                  -6.046
REMARK INTRA:                  -0.522
REMARK UNBOUND:                -0.903
REMARK SMILES O=C([O-])CCCCCCCCC(=O)[O-]
REMARK SMILES IDX 7 1 6 2 5 3 4 4 2 5 1 6 3 7 8 8 9 9 10 10 11 11 12 12 13 13
REMARK SMILES IDX 14 14
REMARK H PARENT
REMARK Flexibility Score: inf
ROOT
ATOM      1  C   UNL     1      18.327   2.362  -4.334  1.00  0.00     0.000 C 
ENDROOT
BRANCH   1   2
ATOM      2  C   UNL     1      17.115   1.659  -4.966  1.00  0.00     0.000 C 
BRANCH   2   3
ATOM      3  C   UNL     1      16.789   2.192  -6.371  1.00  0.00     0.006 C 
BRANCH   3   4
ATOM      4  C   UNL     1      15.440   2.921  -6.427  1.00  0.00     0.053 C 
BRANCH   4   5
ATOM      5  C   UNL     1      15.648   4.402  -6.428  1.00  0.00     0.041 C 
ATOM      6  O   UNL     1      16.812   4.879  -6.478  1.00  0.00    -0.550 OA
ATOM      7  O   UNL     1      14.554   5.258  -6.424  1.00  0.00    -0.550 OA
ENDBRANCH   4   5
ENDBRANCH   3   4
ENDBRANCH   2   3
ENDBRANCH   1   2
BRANCH   1   8
ATOM      8  C   UNL     1      17.876   3.421  -3.318  1.00  0.00     0.000 C 
BRANCH   8   9
ATOM      9  C   UNL     1      17.442   2.807  -1.976  1.00  0.00     0.000 C 
BRANCH   9  10
ATOM     10  C   UNL     1      16.736   3.823  -1.062  1.00  0.00     0.006 C 
BRANCH  10  11
ATOM     11  C   UNL     1      16.988   3.536   0.425  1.00  0.00     0.053 C 
BRANCH  11  12
ATOM     12  C   UNL     1      15.855   2.775   1.041  1.00  0.00     0.041 C 
ATOM     13  O   UNL     1      14.726   2.755   0.485  1.00  0.00    -0.550 OA
ATOM     14  O   UNL     1      16.039   2.112   2.248  1.00  0.00    -0.550 OA
ENDBRANCH  11  12
ENDBRANCH  10  11
ENDBRANCH   9  10
ENDBRANCH   8   9
ENDBRANCH   1   8
TORSDOF 9
ENDMDL
