MODEL 1
REMARK VINA RESULT:    -3.472      0.000      0.000
REMARK INTER + INTRA:          -4.728
REMARK INTER:                  -4.487
REMARK INTRA:                  -0.241
REMARK UNBOUND:                -0.241
REMARK SMILES C=CC(=O)CCCCC
REMARK SMILES IDX 6 1 7 2 8 3 9 4 5 5 3 6 4 7 2 8 1 9
REMARK H PARENT
REMARK Flexibility Score: inf
ROOT
ATOM      1  C   UNL     1     158.762 167.322 199.103  1.00  0.00     0.008 C 
ENDROOT
BRANCH   1   2
ATOM      2  C   UNL     1     159.026 167.361 200.617  1.00  0.00     0.000 C 
BRANCH   2   3
ATOM      3  C   UNL     1     158.932 168.782 201.196  1.00  0.00    -0.003 C 
ATOM      4  C   UNL     1     159.339 168.850 202.667  1.00  0.00     0.004 C 
ENDBRANCH   2   3
ENDBRANCH   1   2
BRANCH   1   5
ATOM      5  C   UNL     1     158.809 165.890 198.544  1.00  0.00     0.080 C 
BRANCH   5   6
ATOM      6  C   UNL     1     157.589 165.062 198.884  1.00  0.00     0.155 C 
ATOM      7  O   UNL     1     156.448 165.440 198.504  1.00  0.00    -0.295 OA
BRANCH   6   8
ATOM      8  C   UNL     1     157.675 163.837 199.706  1.00  0.00     0.039 C 
ATOM      9  C   UNL     1     158.795 163.133 199.868  1.00  0.00     0.012 C 
ENDBRANCH   6   8
ENDBRANCH   5   6
ENDBRANCH   1   5
TORSDOF 5
ENDMDL
MODEL 2
REMARK VINA RESULT:    -3.445      9.320     10.447
REMARK INTER + INTRA:          -4.693
REMARK INTER:                  -4.163
REMARK INTRA:                  -0.530
REMARK UNBOUND:                -0.241
REMARK SMILES C=CC(=O)CCCCC
REMARK SMILES IDX 6 1 7 2 8 3 9 4 5 5 3 6 4 7 2 8 1 9
REMARK H PARENT
REMARK Flexibility Score: inf
ROOT
ATOM      1  C   UNL     1     151.998 160.096 200.173  1.00  0.00     0.008 C 
ENDROOT
BRANCH   1   2
ATOM      2  C   UNL     1     152.145 160.149 201.703  1.00  0.00     0.000 C 
BRANCH   2   3
ATOM      3  C   UNL     1     151.207 161.179 202.350  1.00  0.00    -0.003 C 
ATOM      4  C   UNL     1     150.070 160.531 203.140  1.00  0.00     0.004 C 
ENDBRANCH   2   3
ENDBRANCH   1   2
BRANCH   1   5
ATOM      5  C   UNL     1     151.255 158.832 199.707  1.00  0.00     0.080 C 
BRANCH   5   6
ATOM      6  C   UNL     1     149.966 159.120 198.968  1.00  0.00     0.155 C 
ATOM      7  O   UNL     1     149.637 158.411 197.979  1.00  0.00    -0.295 OA
BRANCH   6   8
ATOM      8  C   UNL     1     149.089 160.253 199.332  1.00  0.00     0.039 C 
ATOM      9  C   UNL     1     148.066 160.153 200.180  1.00  0.00     0.012 C 
ENDBRANCH   6   8
ENDBRANCH   5   6
ENDBRANCH   1   5
TORSDOF 5
ENDMDL
MODEL 3
REMARK VINA RESULT:    -3.406      1.607      4.288
REMARK INTER + INTRA:          -4.643
REMARK INTER:                  -4.267
REMARK INTRA:                  -0.375
REMARK UNBOUND:                -0.241
REMARK SMILES C=CC(=O)CCCCC
REMARK SMILES IDX 6 1 7 2 8 3 9 4 5 5 3 6 4 7 2 8 1 9
REMARK H PARENT
REMARK Flexibility Score: inf
ROOT
ATOM      1  C   UNL     1     156.839 165.053 198.640  1.00  0.00     0.008 C 
ENDROOT
BRANCH   1   2
ATOM      2  C   UNL     1     157.062 163.562 198.337  1.00  0.00     0.000 C 
BRANCH   2   3
ATOM      3  C   UNL     1     157.522 162.772 199.571  1.00  0.00    -0.003 C 
ATOM      4  C   UNL     1     158.965 163.082 199.969  1.00  0.00     0.004 C 
ENDBRANCH   2   3
ENDBRANCH   1   2
BRANCH   1   5
ATOM      5  C   UNL     1     157.686 165.961 197.733  1.00  0.00     0.080 C 
BRANCH   5   6
ATOM      6  C   UNL     1     158.553 166.943 198.492  1.00  0.00     0.155 C 
ATOM      7  O   UNL     1     159.006 167.964 197.908  1.00  0.00    -0.295 OA
BRANCH   6   8
ATOM      8  C   UNL     1     158.942 166.721 199.901  1.00  0.00     0.039 C 
ATOM      9  C   UNL     1     159.023 167.694 200.807  1.00  0.00     0.012 C 
ENDBRANCH   6   8
ENDBRANCH   5   6
ENDBRANCH   1   5
TORSDOF 5
ENDMDL
MODEL 4
REMARK VINA RESULT:    -3.385      9.145     10.673
REMARK INTER + INTRA:          -4.616
REMARK INTER:                  -4.100
REMARK INTRA:                  -0.515
REMARK UNBOUND:                -0.241
REMARK SMILES C=CC(=O)CCCCC
REMARK SMILES IDX 6 1 7 2 8 3 9 4 5 5 3 6 4 7 2 8 1 9
REMARK H PARENT
REMARK Flexibility Score: inf
ROOT
ATOM      1  C   UNL     1     151.348 158.927 199.296  1.00  0.00     0.008 C 
ENDROOT
BRANCH   1   2
ATOM      2  C   UNL     1     149.863 158.935 198.895  1.00  0.00     0.000 C 
BRANCH   2   3
ATOM      3  C   UNL     1     149.174 160.272 199.212  1.00  0.00    -0.003 C 
ATOM      4  C   UNL     1     148.020 160.123 200.202  1.00  0.00     0.004 C 
ENDBRANCH   2   3
ENDBRANCH   1   2
BRANCH   1   5
ATOM      5  C   UNL     1     151.536 158.781 200.816  1.00  0.00     0.080 C 
BRANCH   5   6
ATOM      6  C   UNL     1     152.136 160.003 201.476  1.00  0.00     0.155 C 
ATOM      7  O   UNL     1     153.383 160.187 201.442  1.00  0.00    -0.295 OA
BRANCH   6   8
ATOM      8  C   UNL     1     151.312 160.978 202.220  1.00  0.00     0.039 C 
ATOM      9  C   UNL     1     150.262 160.640 202.969  1.00  0.00     0.012 C 
ENDBRANCH   6   8
ENDBRANCH   5   6
ENDBRANCH   1   5
TORSDOF 5
ENDMDL
MODEL 5
REMARK VINA RESULT:    -3.385      2.887      4.292
REMARK INTER + INTRA:          -4.615
REMARK INTER:                  -4.058
REMARK INTRA:                  -0.557
REMARK UNBOUND:                -0.241
REMARK SMILES C=CC(=O)CCCCC
REMARK SMILES IDX 6 1 7 2 8 3 9 4 5 5 3 6 4 7 2 8 1 9
REMARK H PARENT
REMARK Flexibility Score: inf
ROOT
ATOM      1  C   UNL     1     156.913 165.135 198.599  1.00  0.00     0.008 C 
ENDROOT
BRANCH   1   2
ATOM      2  C   UNL     1     156.644 163.710 198.086  1.00  0.00     0.000 C 
BRANCH   2   3
ATOM      3  C   UNL     1     157.332 162.636 198.943  1.00  0.00    -0.003 C 
ATOM      4  C   UNL     1     158.312 163.224 199.957  1.00  0.00     0.004 C 
ENDBRANCH   2   3
ENDBRANCH   1   2
BRANCH   1   5
ATOM      5  C   UNL     1     157.375 166.077 197.474  1.00  0.00     0.080 C 
BRANCH   5   6
ATOM      6  C   UNL     1     158.771 166.625 197.673  1.00  0.00     0.155 C 
ATOM      7  O   UNL     1     158.966 167.871 197.655  1.00  0.00    -0.295 OA
BRANCH   6   8
ATOM      8  C   UNL     1     159.946 165.743 197.833  1.00  0.00     0.039 C 
ATOM      9  C   UNL     1     160.220 164.722 197.021  1.00  0.00     0.012 C 
ENDBRANCH   6   8
ENDBRANCH   5   6
ENDBRANCH   1   5
TORSDOF 5
ENDMDL
MODEL 6
REMARK VINA RESULT:    -3.286      2.094      2.967
REMARK INTER + INTRA:          -4.487
REMARK INTER:                  -3.904
REMARK INTRA:                  -0.584
REMARK UNBOUND:                -0.241
REMARK SMILES C=CC(=O)CCCCC
REMARK SMILES IDX 6 1 7 2 8 3 9 4 5 5 3 6 4 7 2 8 1 9
REMARK H PARENT
REMARK Flexibility Score: inf
ROOT
ATOM      1  C   UNL     1     156.682 165.445 198.304  1.00  0.00     0.008 C 
ENDROOT
BRANCH   1   2
ATOM      2  C   UNL     1     157.714 166.241 197.488  1.00  0.00     0.000 C 
BRANCH   2   3
ATOM      3  C   UNL     1     159.058 166.388 198.218  1.00  0.00    -0.003 C 
ATOM      4  C   UNL     1     158.893 166.652 199.715  1.00  0.00     0.004 C 
ENDBRANCH   2   3
ENDBRANCH   1   2
BRANCH   1   5
ATOM      5  C   UNL     1     156.432 164.047 197.713  1.00  0.00     0.080 C 
BRANCH   5   6
ATOM      6  C   UNL     1     157.304 162.966 198.314  1.00  0.00     0.155 C 
ATOM      7  O   UNL     1     157.619 161.958 197.625  1.00  0.00    -0.295 OA
BRANCH   6   8
ATOM      8  C   UNL     1     157.763 163.017 199.718  1.00  0.00     0.039 C 
ATOM      9  C   UNL     1     159.043 162.935 200.080  1.00  0.00     0.012 C 
ENDBRANCH   6   8
ENDBRANCH   5   6
ENDBRANCH   1   5
TORSDOF 5
ENDMDL
MODEL 7
REMARK VINA RESULT:    -3.281      2.287      4.745
REMARK INTER + INTRA:          -4.481
REMARK INTER:                  -3.995
REMARK INTRA:                  -0.486
REMARK UNBOUND:                -0.241
REMARK SMILES C=CC(=O)CCCCC
REMARK SMILES IDX 6 1 7 2 8 3 9 4 5 5 3 6 4 7 2 8 1 9
REMARK H PARENT
REMARK Flexibility Score: inf
ROOT
ATOM      1  C   UNL     1     157.308 164.507 199.272  1.00  0.00     0.008 C 
ENDROOT
BRANCH   1   2
ATOM      2  C   UNL     1     157.486 163.472 198.149  1.00  0.00     0.000 C 
BRANCH   2   3
ATOM      3  C   UNL     1     156.819 163.907 196.835  1.00  0.00    -0.003 C 
ATOM      4  C   UNL     1     155.937 165.143 196.999  1.00  0.00     0.004 C 
ENDBRANCH   2   3
ENDBRANCH   1   2
BRANCH   1   5
ATOM      5  C   UNL     1     158.652 165.085 199.744  1.00  0.00     0.080 C 
BRANCH   5   6
ATOM      6  C   UNL     1     158.868 166.529 199.345  1.00  0.00     0.155 C 
ATOM      7  O   UNL     1     158.846 167.434 200.224  1.00  0.00    -0.295 OA
BRANCH   6   8
ATOM      8  C   UNL     1     159.050 166.936 197.937  1.00  0.00     0.039 C 
ATOM      9  C   UNL     1     158.729 168.142 197.467  1.00  0.00     0.012 C 
ENDBRANCH   6   8
ENDBRANCH   5   6
ENDBRANCH   1   5
TORSDOF 5
ENDMDL
MODEL 8
REMARK VINA RESULT:    -3.278      2.754      3.296
REMARK INTER + INTRA:          -4.478
REMARK INTER:                  -4.206
REMARK INTRA:                  -0.272
REMARK UNBOUND:                -0.241
REMARK SMILES C=CC(=O)CCCCC
REMARK SMILES IDX 6 1 7 2 8 3 9 4 5 5 3 6 4 7 2 8 1 9
REMARK H PARENT
REMARK Flexibility Score: inf
ROOT
ATOM      1  C   UNL     1     156.899 165.353 198.536  1.00  0.00     0.008 C 
ENDROOT
BRANCH   1   2
ATOM      2  C   UNL     1     157.708 166.030 197.416  1.00  0.00     0.000 C 
BRANCH   2   3
ATOM      3  C   UNL     1     158.825 166.933 197.960  1.00  0.00    -0.003 C 
ATOM      4  C   UNL     1     158.775 168.349 197.385  1.00  0.00     0.004 C 
ENDBRANCH   2   3
ENDBRANCH   1   2
BRANCH   1   5
ATOM      5  C   UNL     1     157.796 164.878 199.691  1.00  0.00     0.080 C 
BRANCH   5   6
ATOM      6  C   UNL     1     158.108 163.397 199.650  1.00  0.00     0.155 C 
ATOM      7  O   UNL     1     159.112 162.949 200.267  1.00  0.00    -0.295 OA
BRANCH   6   8
ATOM      8  C   UNL     1     157.300 162.446 198.859  1.00  0.00     0.039 C 
ATOM      9  C   UNL     1     156.666 161.397 199.385  1.00  0.00     0.012 C 
ENDBRANCH   6   8
ENDBRANCH   5   6
ENDBRANCH   1   5
TORSDOF 5
ENDMDL
MODEL 9
REMARK VINA RESULT:    -3.110      2.671      4.952
REMARK INTER + INTRA:          -4.260
REMARK INTER:                  -3.723
REMARK INTRA:                  -0.537
REMARK UNBOUND:                -0.241
REMARK SMILES C=CC(=O)CCCCC
REMARK SMILES IDX 6 1 7 2 8 3 9 4 5 5 3 6 4 7 2 8 1 9
REMARK H PARENT
REMARK Flexibility Score: inf
ROOT
ATOM      1  C   UNL     1     158.899 163.535 199.811  1.00  0.00     0.008 C 
ENDROOT
BRANCH   1   2
ATOM      2  C   UNL     1     157.705 162.565 199.829  1.00  0.00     0.000 C 
BRANCH   2   3
ATOM      3  C   UNL     1     157.512 161.842 198.488  1.00  0.00    -0.003 C 
ATOM      4  C   UNL     1     156.047 161.526 198.191  1.00  0.00     0.004 C 
ENDBRANCH   2   3
ENDBRANCH   1   2
BRANCH   1   5
ATOM      5  C   UNL     1     158.450 165.005 199.781  1.00  0.00     0.080 C 
BRANCH   5   6
ATOM      6  C   UNL     1     158.489 165.626 198.401  1.00  0.00     0.155 C 
ATOM      7  O   UNL     1     159.554 166.153 197.979  1.00  0.00    -0.295 OA
BRANCH   6   8
ATOM      8  C   UNL     1     157.294 165.689 197.534  1.00  0.00     0.039 C 
ATOM      9  C   UNL     1     156.078 165.305 197.923  1.00  0.00     0.012 C 
ENDBRANCH   6   8
ENDBRANCH   5   6
ENDBRANCH   1   5
TORSDOF 5
ENDMDL
