MODEL 1
REMARK VINA RESULT:    -5.931      0.000      0.000
REMARK INTER + INTRA:          -7.132
REMARK INTER:                  -6.798
REMARK INTRA:                  -0.334
REMARK UNBOUND:                -0.334
REMARK SMILES COc1ccc(C(C)=O)c(O)c1
REMARK SMILES IDX 6 1 10 2 12 3 3 4 4 5 5 6 7 7 8 8 9 9 11 10 2 12 1 13
REMARK H PARENT 11 11
REMARK Flexibility Score: inf
ROOT
ATOM      1  C   UNL     1     -36.510  71.618 -18.750  1.00  0.00     0.059 A 
ATOM      2  C   UNL     1     -35.118  71.392 -18.858  1.00  0.00     0.130 A 
ATOM      3  C   UNL     1     -34.614  70.084 -18.787  1.00  0.00     0.093 A 
ATOM      4  C   UNL     1     -35.469  68.991 -18.625  1.00  0.00     0.122 A 
ATOM      5  C   UNL     1     -36.854  69.214 -18.535  1.00  0.00     0.047 A 
ATOM      6  C   UNL     1     -37.365  70.512 -18.600  1.00  0.00     0.019 A 
ENDROOT
BRANCH   1   7
ATOM      7  C   UNL     1     -37.105  72.982 -18.800  1.00  0.00     0.163 C 
ATOM      8  C   UNL     1     -38.150  73.367 -19.802  1.00  0.00     0.093 C 
ATOM      9  O   UNL     1     -36.722  73.854 -17.973  1.00  0.00    -0.294 OA
ENDBRANCH   1   7
BRANCH   2  10
ATOM     10  O   UNL     1     -34.234  72.451 -19.060  1.00  0.00    -0.507 OA
ATOM     11  H   UNL     1     -33.340  72.498 -18.586  1.00  0.00     0.293 HD
ENDBRANCH   2  10
BRANCH   4  12
ATOM     12  O   UNL     1     -34.907  67.708 -18.560  1.00  0.00    -0.497 OA
ATOM     13  C   UNL     1     -33.563  67.401 -18.915  1.00  0.00     0.278 C 
ENDBRANCH   4  12
TORSDOF 3
ENDMDL
MODEL 2
REMARK VINA RESULT:    -5.929      1.299      2.024
REMARK INTER + INTRA:          -7.129
REMARK INTER:                  -7.072
REMARK INTRA:                  -0.057
REMARK UNBOUND:                -0.334
REMARK SMILES COc1ccc(C(C)=O)c(O)c1
REMARK SMILES IDX 6 1 10 2 12 3 3 4 4 5 5 6 7 7 8 8 9 9 11 10 2 12 1 13
REMARK H PARENT 11 11
REMARK Flexibility Score: inf
ROOT
ATOM      1  C   UNL     1     -36.140  71.613 -18.801  1.00  0.00     0.059 A 
ATOM      2  C   UNL     1     -36.726  70.346 -18.574  1.00  0.00     0.130 A 
ATOM      3  C   UNL     1     -35.943  69.186 -18.665  1.00  0.00     0.093 A 
ATOM      4  C   UNL     1     -34.579  69.260 -18.962  1.00  0.00     0.122 A 
ATOM      5  C   UNL     1     -33.993  70.520 -19.171  1.00  0.00     0.047 A 
ATOM      6  C   UNL     1     -34.765  71.680 -19.088  1.00  0.00     0.019 A 
ENDROOT
BRANCH   1   7
ATOM      7  C   UNL     1     -36.921  72.879 -18.737  1.00  0.00     0.163 C 
ATOM      8  C   UNL     1     -38.056  73.172 -19.670  1.00  0.00     0.093 C 
ATOM      9  O   UNL     1     -36.623  73.745 -17.870  1.00  0.00    -0.294 OA
ENDBRANCH   1   7
BRANCH   2  10
ATOM     10  O   UNL     1     -38.074  70.232 -18.236  1.00  0.00    -0.507 OA
ATOM     11  H   UNL     1     -38.493  70.803 -17.512  1.00  0.00     0.293 HD
ENDBRANCH   2  10
BRANCH   4  12
ATOM     12  O   UNL     1     -33.847  68.067 -19.039  1.00  0.00    -0.497 OA
ATOM     13  C   UNL     1     -34.351  66.789 -18.661  1.00  0.00     0.278 C 
ENDBRANCH   4  12
TORSDOF 3
ENDMDL
MODEL 3
REMARK VINA RESULT:    -5.110      1.439      4.826
REMARK INTER + INTRA:          -6.191
REMARK INTER:                  -6.237
REMARK INTRA:                   0.046
REMARK UNBOUND:                -0.334
REMARK SMILES COc1ccc(C(C)=O)c(O)c1
REMARK SMILES IDX 6 1 10 2 12 3 3 4 4 5 5 6 7 7 8 8 9 9 11 10 2 12 1 13
REMARK H PARENT 11 11
REMARK Flexibility Score: inf
ROOT
ATOM      1  C   UNL     1     -36.557  70.951 -18.900  1.00  0.00     0.059 A 
ATOM      2  C   UNL     1     -36.062  72.265 -18.735  1.00  0.00     0.130 A 
ATOM      3  C   UNL     1     -36.867  73.363 -19.072  1.00  0.00     0.093 A 
ATOM      4  C   UNL     1     -38.165  73.182 -19.557  1.00  0.00     0.122 A 
ATOM      5  C   UNL     1     -38.664  71.877 -19.704  1.00  0.00     0.047 A 
ATOM      6  C   UNL     1     -37.868  70.777 -19.376  1.00  0.00     0.019 A 
ENDROOT
BRANCH   1   7
ATOM      7  C   UNL     1     -35.746  69.744 -18.578  1.00  0.00     0.163 C 
ATOM      8  C   UNL     1     -34.374  69.523 -19.138  1.00  0.00     0.093 C 
ATOM      9  O   UNL     1     -36.223  68.868 -17.806  1.00  0.00    -0.294 OA
ENDBRANCH   1   7
BRANCH   2  10
ATOM     10  O   UNL     1     -34.786  72.490 -18.218  1.00  0.00    -0.507 OA
ATOM     11  H   UNL     1     -33.950  72.232 -18.729  1.00  0.00     0.293 HD
ENDBRANCH   2  10
BRANCH   4  12
ATOM     12  O   UNL     1     -38.923  74.318 -19.876  1.00  0.00    -0.497 OA
ATOM     13  C   UNL     1     -38.591  75.644 -19.476  1.00  0.00     0.278 C 
ENDBRANCH   4  12
TORSDOF 3
ENDMDL
MODEL 4
REMARK VINA RESULT:    -4.804      1.816      5.218
REMARK INTER + INTRA:          -5.841
REMARK INTER:                  -5.500
REMARK INTRA:                  -0.341
REMARK UNBOUND:                -0.334
REMARK SMILES COc1ccc(C(C)=O)c(O)c1
REMARK SMILES IDX 6 1 10 2 12 3 3 4 4 5 5 6 7 7 8 8 9 9 11 10 2 12 1 13
REMARK H PARENT 11 11
REMARK Flexibility Score: inf
ROOT
ATOM      1  C   UNL     1     -36.442  71.092 -18.817  1.00  0.00     0.059 A 
ATOM      2  C   UNL     1     -37.720  71.289 -19.390  1.00  0.00     0.130 A 
ATOM      3  C   UNL     1     -38.269  72.578 -19.449  1.00  0.00     0.093 A 
ATOM      4  C   UNL     1     -37.565  73.684 -18.963  1.00  0.00     0.122 A 
ATOM      5  C   UNL     1     -36.288  73.491 -18.410  1.00  0.00     0.047 A 
ATOM      6  C   UNL     1     -35.734  72.211 -18.342  1.00  0.00     0.019 A 
ENDROOT
BRANCH   1   7
ATOM      7  C   UNL     1     -35.812  69.748 -18.709  1.00  0.00     0.163 C 
ATOM      8  C   UNL     1     -34.392  69.489 -19.113  1.00  0.00     0.093 C 
ATOM      9  O   UNL     1     -36.489  68.783 -18.261  1.00  0.00    -0.294 OA
ENDBRANCH   1   7
BRANCH   2  10
ATOM     10  O   UNL     1     -38.438  70.219 -19.922  1.00  0.00    -0.507 OA
ATOM     11  H   UNL     1     -38.216  69.825 -20.829  1.00  0.00     0.293 HD
ENDBRANCH   2  10
BRANCH   4  12
ATOM     12  O   UNL     1     -38.165  74.948 -19.050  1.00  0.00    -0.497 OA
ATOM     13  C   UNL     1     -38.896  75.415 -20.180  1.00  0.00     0.278 C 
ENDBRANCH   4  12
TORSDOF 3
ENDMDL
MODEL 5
REMARK VINA RESULT:    -4.679      1.726      2.787
REMARK INTER + INTRA:          -5.698
REMARK INTER:                  -5.766
REMARK INTRA:                   0.069
REMARK UNBOUND:                -0.334
REMARK SMILES COc1ccc(C(C)=O)c(O)c1
REMARK SMILES IDX 6 1 10 2 12 3 3 4 4 5 5 6 7 7 8 8 9 9 11 10 2 12 1 13
REMARK H PARENT 11 11
REMARK Flexibility Score: inf
ROOT
ATOM      1  C   UNL     1     -37.583  73.188 -19.185  1.00  0.00     0.059 A 
ATOM      2  C   UNL     1     -38.284  72.020 -19.567  1.00  0.00     0.130 A 
ATOM      3  C   UNL     1     -37.694  70.760 -19.388  1.00  0.00     0.093 A 
ATOM      4  C   UNL     1     -36.423  70.635 -18.819  1.00  0.00     0.122 A 
ATOM      5  C   UNL     1     -35.734  71.793 -18.423  1.00  0.00     0.047 A 
ATOM      6  C   UNL     1     -36.311  73.052 -18.602  1.00  0.00     0.019 A 
ENDROOT
BRANCH   1   7
ATOM      7  C   UNL     1     -38.147  74.554 -19.365  1.00  0.00     0.163 C 
ATOM      8  C   UNL     1     -38.690  75.034 -20.676  1.00  0.00     0.093 C 
ATOM      9  O   UNL     1     -38.172  75.346 -18.383  1.00  0.00    -0.294 OA
ENDBRANCH   1   7
BRANCH   2  10
ATOM     10  O   UNL     1     -39.569  72.099 -20.101  1.00  0.00    -0.507 OA
ATOM     11  H   UNL     1     -40.395  72.053 -19.514  1.00  0.00     0.293 HD
ENDBRANCH   2  10
BRANCH   4  12
ATOM     12  O   UNL     1     -35.885  69.349 -18.665  1.00  0.00    -0.497 OA
ATOM     13  C   UNL     1     -34.540  68.997 -18.974  1.00  0.00     0.278 C 
ENDBRANCH   4  12
TORSDOF 3
ENDMDL
MODEL 6
REMARK VINA RESULT:    -4.369      9.035     10.268
REMARK INTER + INTRA:          -5.342
REMARK INTER:                  -5.050
REMARK INTRA:                  -0.292
REMARK UNBOUND:                -0.334
REMARK SMILES COc1ccc(C(C)=O)c(O)c1
REMARK SMILES IDX 6 1 10 2 12 3 3 4 4 5 5 6 7 7 8 8 9 9 11 10 2 12 1 13
REMARK H PARENT 11 11
REMARK Flexibility Score: inf
ROOT
ATOM      1  C   UNL     1     -39.374  72.580 -10.321  1.00  0.00     0.059 A 
ATOM      2  C   UNL     1     -37.996  72.878 -10.431  1.00  0.00     0.130 A 
ATOM      3  C   UNL     1     -37.550  74.198 -10.267  1.00  0.00     0.093 A 
ATOM      4  C   UNL     1     -38.448  75.230  -9.979  1.00  0.00     0.122 A 
ATOM      5  C   UNL     1     -39.815  74.931  -9.852  1.00  0.00     0.047 A 
ATOM      6  C   UNL     1     -40.269  73.621 -10.018  1.00  0.00     0.019 A 
ENDROOT
BRANCH   1   7
ATOM      7  C   UNL     1     -39.913  71.203 -10.502  1.00  0.00     0.163 C 
ATOM      8  C   UNL     1     -41.229  70.773  -9.930  1.00  0.00     0.093 C 
ATOM      9  O   UNL     1     -39.244  70.360 -11.158  1.00  0.00    -0.294 OA
ENDBRANCH   1   7
BRANCH   2  10
ATOM     10  O   UNL     1     -37.064  71.871 -10.679  1.00  0.00    -0.507 OA
ATOM     11  H   UNL     1     -36.208  72.050 -11.191  1.00  0.00     0.293 HD
ENDBRANCH   2  10
BRANCH   4  12
ATOM     12  O   UNL     1     -37.943  76.529  -9.825  1.00  0.00    -0.497 OA
ATOM     13  C   UNL     1     -36.979  77.124 -10.688  1.00  0.00     0.278 C 
ENDBRANCH   4  12
TORSDOF 3
ENDMDL
MODEL 7
REMARK VINA RESULT:    -4.354      9.019     10.571
REMARK INTER + INTRA:          -5.324
REMARK INTER:                  -5.043
REMARK INTRA:                  -0.281
REMARK UNBOUND:                -0.334
REMARK SMILES COc1ccc(C(C)=O)c(O)c1
REMARK SMILES IDX 6 1 10 2 12 3 3 4 4 5 5 6 7 7 8 8 9 9 11 10 2 12 1 13
REMARK H PARENT 11 11
REMARK Flexibility Score: inf
ROOT
ATOM      1  C   UNL     1     -35.154  75.219 -27.428  1.00  0.00     0.059 A 
ATOM      2  C   UNL     1     -36.004  75.522 -26.340  1.00  0.00     0.130 A 
ATOM      3  C   UNL     1     -37.376  75.721 -26.557  1.00  0.00     0.093 A 
ATOM      4  C   UNL     1     -37.925  75.608 -27.837  1.00  0.00     0.122 A 
ATOM      5  C   UNL     1     -37.084  75.289 -28.916  1.00  0.00     0.047 A 
ATOM      6  C   UNL     1     -35.717  75.094 -28.711  1.00  0.00     0.019 A 
ENDROOT
BRANCH   1   7
ATOM      7  C   UNL     1     -33.688  75.014 -27.267  1.00  0.00     0.163 C 
ATOM      8  C   UNL     1     -32.678  75.998 -27.772  1.00  0.00     0.093 C 
ATOM      9  O   UNL     1     -33.270  73.976 -26.685  1.00  0.00    -0.294 OA
ENDBRANCH   1   7
BRANCH   2  10
ATOM     10  O   UNL     1     -35.502  75.605 -25.042  1.00  0.00    -0.507 OA
ATOM     11  H   UNL     1     -35.938  75.116 -24.268  1.00  0.00     0.293 HD
ENDBRANCH   2  10
BRANCH   4  12
ATOM     12  O   UNL     1     -39.303  75.818 -27.992  1.00  0.00    -0.497 OA
ATOM     13  C   UNL     1     -40.310  75.112 -27.273  1.00  0.00     0.278 C 
ENDBRANCH   4  12
TORSDOF 3
ENDMDL
MODEL 8
REMARK VINA RESULT:    -4.343      8.897      9.235
REMARK INTER + INTRA:          -5.313
REMARK INTER:                  -5.061
REMARK INTRA:                  -0.251
REMARK UNBOUND:                -0.334
REMARK SMILES COc1ccc(C(C)=O)c(O)c1
REMARK SMILES IDX 6 1 10 2 12 3 3 4 4 5 5 6 7 7 8 8 9 9 11 10 2 12 1 13
REMARK H PARENT 11 11
REMARK Flexibility Score: inf
ROOT
ATOM      1  C   UNL     1     -38.570  75.155 -11.545  1.00  0.00     0.059 A 
ATOM      2  C   UNL     1     -37.812  74.564 -10.508  1.00  0.00     0.130 A 
ATOM      3  C   UNL     1     -38.276  73.400  -9.878  1.00  0.00     0.093 A 
ATOM      4  C   UNL     1     -39.476  72.799 -10.269  1.00  0.00     0.122 A 
ATOM      5  C   UNL     1     -40.221  73.376 -11.312  1.00  0.00     0.047 A 
ATOM      6  C   UNL     1     -39.769  74.537 -11.942  1.00  0.00     0.019 A 
ENDROOT
BRANCH   1   7
ATOM      7  C   UNL     1     -38.141  76.399 -12.242  1.00  0.00     0.163 C 
ATOM      8  C   UNL     1     -38.726  76.830 -13.552  1.00  0.00     0.093 C 
ATOM      9  O   UNL     1     -37.252  77.125 -11.718  1.00  0.00    -0.294 OA
ENDBRANCH   1   7
BRANCH   2  10
ATOM     10  O   UNL     1     -36.591  75.110 -10.114  1.00  0.00    -0.507 OA
ATOM     11  H   UNL     1     -35.798  75.153 -10.743  1.00  0.00     0.293 HD
ENDBRANCH   2  10
BRANCH   4  12
ATOM     12  O   UNL     1     -39.888  71.637  -9.603  1.00  0.00    -0.497 OA
ATOM     13  C   UNL     1     -40.984  70.823 -10.009  1.00  0.00     0.278 C 
ENDBRANCH   4  12
TORSDOF 3
ENDMDL
MODEL 9
REMARK VINA RESULT:    -4.247      8.937      9.465
REMARK INTER + INTRA:          -5.203
REMARK INTER:                  -4.870
REMARK INTRA:                  -0.332
REMARK UNBOUND:                -0.334
REMARK SMILES COc1ccc(C(C)=O)c(O)c1
REMARK SMILES IDX 6 1 10 2 12 3 3 4 4 5 5 6 7 7 8 8 9 9 11 10 2 12 1 13
REMARK H PARENT 11 11
REMARK Flexibility Score: inf
ROOT
ATOM      1  C   UNL     1     -38.538  75.495 -26.158  1.00  0.00     0.059 A 
ATOM      2  C   UNL     1     -38.412  74.489 -27.144  1.00  0.00     0.130 A 
ATOM      3  C   UNL     1     -37.143  74.136 -27.626  1.00  0.00     0.093 A 
ATOM      4  C   UNL     1     -35.989  74.754 -27.134  1.00  0.00     0.122 A 
ATOM      5  C   UNL     1     -36.112  75.741 -26.142  1.00  0.00     0.047 A 
ATOM      6  C   UNL     1     -37.372  76.103 -25.659  1.00  0.00     0.019 A 
ENDROOT
BRANCH   1   7
ATOM      7  C   UNL     1     -39.857  75.928 -25.619  1.00  0.00     0.163 C 
ATOM      8  C   UNL     1     -40.072  76.233 -24.167  1.00  0.00     0.093 C 
ATOM      9  O   UNL     1     -40.837  76.044 -26.404  1.00  0.00    -0.294 OA
ENDBRANCH   1   7
BRANCH   2  10
ATOM     10  O   UNL     1     -39.535  73.822 -27.632  1.00  0.00    -0.507 OA
ATOM     11  H   UNL     1     -39.949  73.042 -27.135  1.00  0.00     0.293 HD
ENDBRANCH   2  10
BRANCH   4  12
ATOM     12  O   UNL     1     -34.749  74.359 -27.654  1.00  0.00    -0.497 OA
ATOM     13  C   UNL     1     -33.635  73.958 -26.861  1.00  0.00     0.278 C 
ENDBRANCH   4  12
TORSDOF 3
ENDMDL
