MODEL 1
REMARK VINA RESULT:    -3.740      0.000      0.000
REMARK INTER + INTRA:          -4.794
REMARK INTER:                  -4.505
REMARK INTRA:                  -0.290
REMARK UNBOUND:                -0.290
REMARK SMILES NC(=O)C[C@@H]([NH3+])C(=O)[O-]
REMARK SMILES IDX 4 1 5 2 6 3 7 7 8 8 9 9 2 10 3 11 1 12
REMARK H PARENT 6 4 6 5 6 6 1 13 1 14
REMARK Flexibility Score: inf
ROOT
ATOM      1  C   UNL     1      -8.614  -2.650   3.921  1.00  0.00     0.171 C 
ENDROOT
BRANCH   1   2
ATOM      2  C   UNL     1      -9.579  -1.531   3.481  1.00  0.00     0.237 C 
BRANCH   2   3
ATOM      3  N   UNL     1     -10.169  -0.844   4.639  1.00  0.00    -0.350 N 
ATOM      4  H   UNL     1      -9.413  -0.482   5.263  1.00  0.00     0.345 HD
ATOM      5  H   UNL     1     -10.772  -0.047   4.329  1.00  0.00     0.345 HD
ATOM      6  H   UNL     1     -10.747  -1.518   5.192  1.00  0.00     0.345 HD
ENDBRANCH   2   3
BRANCH   2   7
ATOM      7  C   UNL     1      -8.845  -0.544   2.613  1.00  0.00     0.100 C 
ATOM      8  O   UNL     1      -9.488   0.279   1.909  1.00  0.00    -0.544 OA
ATOM      9  O   UNL     1      -7.457  -0.545   2.571  1.00  0.00    -0.544 OA
ENDBRANCH   2   7
ENDBRANCH   1   2
BRANCH   1  10
ATOM     10  C   UNL     1      -9.111  -3.360   5.147  1.00  0.00     0.223 C 
ATOM     11  O   UNL     1     -10.306  -3.757   5.202  1.00  0.00    -0.275 OA
ATOM     12  N   UNL     1      -8.231  -3.614   6.242  1.00  0.00    -0.369 N 
ATOM     13  H   UNL     1      -7.236  -3.300   6.207  1.00  0.00     0.159 HD
ATOM     14  H   UNL     1      -8.574  -4.119   7.089  1.00  0.00     0.159 HD
ENDBRANCH   1  10
TORSDOF 4
ENDMDL
MODEL 2
REMARK VINA RESULT:    -3.367      2.548      3.356
REMARK INTER + INTRA:          -4.346
REMARK INTER:                  -4.025
REMARK INTRA:                  -0.321
REMARK UNBOUND:                -0.290
REMARK SMILES NC(=O)C[C@@H]([NH3+])C(=O)[O-]
REMARK SMILES IDX 4 1 5 2 6 3 7 7 8 8 9 9 2 10 3 11 1 12
REMARK H PARENT 6 4 6 5 6 6 1 13 1 14
REMARK Flexibility Score: inf
ROOT
ATOM      1  C   UNL     1     -10.083  -0.466   2.317  1.00  0.00     0.171 C 
ENDROOT
BRANCH   1   2
ATOM      2  C   UNL     1     -10.820   0.302   3.432  1.00  0.00     0.237 C 
BRANCH   2   3
ATOM      3  N   UNL     1     -10.193   0.080   4.742  1.00  0.00    -0.350 N 
ATOM      4  H   UNL     1     -10.811  -0.515   5.339  1.00  0.00     0.345 HD
ATOM      5  H   UNL     1      -9.264  -0.390   4.633  1.00  0.00     0.345 HD
ATOM      6  H   UNL     1     -10.060   0.995   5.231  1.00  0.00     0.345 HD
ENDBRANCH   2   3
BRANCH   2   7
ATOM      7  C   UNL     1     -10.834   1.773   3.109  1.00  0.00     0.100 C 
ATOM      8  O   UNL     1     -11.183   2.165   1.964  1.00  0.00    -0.544 OA
ATOM      9  O   UNL     1     -10.447   2.704   4.065  1.00  0.00    -0.544 OA
ENDBRANCH   2   7
ENDBRANCH   1   2
BRANCH   1  10
ATOM     10  C   UNL     1      -8.718  -0.909   2.758  1.00  0.00     0.223 C 
ATOM     11  O   UNL     1      -8.590  -1.959   3.442  1.00  0.00    -0.275 OA
ATOM     12  N   UNL     1      -7.560  -0.163   2.383  1.00  0.00    -0.369 N 
ATOM     13  H   UNL     1      -7.650   0.703   1.807  1.00  0.00     0.159 HD
ATOM     14  H   UNL     1      -6.610  -0.479   2.679  1.00  0.00     0.159 HD
ENDBRANCH   1  10
TORSDOF 4
ENDMDL
MODEL 3
REMARK VINA RESULT:    -3.362      2.280      4.202
REMARK INTER + INTRA:          -4.340
REMARK INTER:                  -3.868
REMARK INTRA:                  -0.472
REMARK UNBOUND:                -0.290
REMARK SMILES NC(=O)C[C@@H]([NH3+])C(=O)[O-]
REMARK SMILES IDX 4 1 5 2 6 3 7 7 8 8 9 9 2 10 3 11 1 12
REMARK H PARENT 6 4 6 5 6 6 1 13 1 14
REMARK Flexibility Score: inf
ROOT
ATOM      1  C   UNL     1      -9.770  -0.120   1.911  1.00  0.00     0.171 C 
ENDROOT
BRANCH   1   2
ATOM      2  C   UNL     1      -9.240  -0.571   3.287  1.00  0.00     0.237 C 
BRANCH   2   3
ATOM      3  N   UNL     1     -10.022   0.021   4.383  1.00  0.00    -0.350 N 
ATOM      4  H   UNL     1      -9.386   0.517   5.049  1.00  0.00     0.345 HD
ATOM      5  H   UNL     1     -10.728   0.698   4.011  1.00  0.00     0.345 HD
ATOM      6  H   UNL     1     -10.516  -0.734   4.913  1.00  0.00     0.345 HD
ENDBRANCH   2   3
BRANCH   2   7
ATOM      7  C   UNL     1      -9.280  -2.073   3.377  1.00  0.00     0.100 C 
ATOM      8  O   UNL     1      -8.374  -2.694   3.993  1.00  0.00    -0.544 OA
ATOM      9  O   UNL     1     -10.306  -2.784   2.767  1.00  0.00    -0.544 OA
ENDBRANCH   2   7
ENDBRANCH   1   2
BRANCH   1  10
ATOM     10  C   UNL     1     -11.151   0.461   2.011  1.00  0.00     0.223 C 
ATOM     11  O   UNL     1     -11.299   1.699   2.190  1.00  0.00    -0.275 OA
ATOM     12  N   UNL     1     -12.298  -0.377   1.876  1.00  0.00    -0.369 N 
ATOM     13  H   UNL     1     -12.191  -1.403   1.717  1.00  0.00     0.159 HD
ATOM     14  H   UNL     1     -13.258   0.029   1.933  1.00  0.00     0.159 HD
ENDBRANCH   1  10
TORSDOF 4
ENDMDL
MODEL 4
REMARK VINA RESULT:    -3.356      1.932      2.140
REMARK INTER + INTRA:          -4.332
REMARK INTER:                  -4.198
REMARK INTRA:                  -0.134
REMARK UNBOUND:                -0.290
REMARK SMILES NC(=O)C[C@@H]([NH3+])C(=O)[O-]
REMARK SMILES IDX 4 1 5 2 6 3 7 7 8 8 9 9 2 10 3 11 1 12
REMARK H PARENT 6 4 6 5 6 6 1 13 1 14
REMARK Flexibility Score: inf
ROOT
ATOM      1  C   UNL     1      -8.942  -2.329   3.789  1.00  0.00     0.171 C 
ENDROOT
BRANCH   1   2
ATOM      2  C   UNL     1     -10.276  -1.583   3.992  1.00  0.00     0.237 C 
BRANCH   2   3
ATOM      3  N   UNL     1     -10.054  -0.189   4.400  1.00  0.00    -0.350 N 
ATOM      4  H   UNL     1      -9.165   0.169   3.984  1.00  0.00     0.345 HD
ATOM      5  H   UNL     1     -10.849   0.419   4.091  1.00  0.00     0.345 HD
ATOM      6  H   UNL     1      -9.965  -0.134   5.441  1.00  0.00     0.345 HD
ENDBRANCH   2   3
BRANCH   2   7
ATOM      7  C   UNL     1     -11.080  -1.628   2.720  1.00  0.00     0.100 C 
ATOM      8  O   UNL     1     -11.097  -2.674   2.020  1.00  0.00    -0.544 OA
ATOM      9  O   UNL     1     -11.793  -0.511   2.303  1.00  0.00    -0.544 OA
ENDBRANCH   2   7
ENDBRANCH   1   2
BRANCH   1  10
ATOM     10  C   UNL     1      -8.867  -3.571   4.629  1.00  0.00     0.223 C 
ATOM     11  O   UNL     1      -9.312  -4.661   4.179  1.00  0.00    -0.275 OA
ATOM     12  N   UNL     1      -8.268  -3.532   5.924  1.00  0.00    -0.369 N 
ATOM     13  H   UNL     1      -7.886  -2.639   6.306  1.00  0.00     0.159 HD
ATOM     14  H   UNL     1      -8.205  -4.399   6.502  1.00  0.00     0.159 HD
ENDBRANCH   1  10
TORSDOF 4
ENDMDL
MODEL 5
REMARK VINA RESULT:    -3.333      2.461      3.144
REMARK INTER + INTRA:          -4.304
REMARK INTER:                  -3.799
REMARK INTRA:                  -0.505
REMARK UNBOUND:                -0.290
REMARK SMILES NC(=O)C[C@@H]([NH3+])C(=O)[O-]
REMARK SMILES IDX 4 1 5 2 6 3 7 7 8 8 9 9 2 10 3 11 1 12
REMARK H PARENT 6 4 6 5 6 6 1 13 1 14
REMARK Flexibility Score: inf
ROOT
ATOM      1  C   UNL     1     -10.882  -0.184   2.234  1.00  0.00     0.171 C 
ENDROOT
BRANCH   1   2
ATOM      2  C   UNL     1      -9.747   0.217   3.198  1.00  0.00     0.237 C 
BRANCH   2   3
ATOM      3  N   UNL     1     -10.186   0.154   4.599  1.00  0.00    -0.350 N 
ATOM      4  H   UNL     1      -9.438  -0.276   5.189  1.00  0.00     0.345 HD
ATOM      5  H   UNL     1     -10.405   1.111   4.962  1.00  0.00     0.345 HD
ATOM      6  H   UNL     1     -11.039  -0.446   4.676  1.00  0.00     0.345 HD
ENDBRANCH   2   3
BRANCH   2   7
ATOM      7  C   UNL     1      -8.561  -0.686   2.986  1.00  0.00     0.100 C 
ATOM      8  O   UNL     1      -7.525  -0.248   2.421  1.00  0.00    -0.544 OA
ATOM      9  O   UNL     1      -8.609  -2.012   3.398  1.00  0.00    -0.544 OA
ENDBRANCH   2   7
ENDBRANCH   1   2
BRANCH   1  10
ATOM     10  C   UNL     1     -11.881  -1.086   2.899  1.00  0.00     0.223 C 
ATOM     11  O   UNL     1     -12.932  -0.600   3.397  1.00  0.00    -0.275 OA
ATOM     12  N   UNL     1     -11.663  -2.495   2.946  1.00  0.00    -0.369 N 
ATOM     13  H   UNL     1     -10.802  -2.914   2.528  1.00  0.00     0.159 HD
ATOM     14  H   UNL     1     -12.364  -3.123   3.397  1.00  0.00     0.159 HD
ENDBRANCH   1  10
TORSDOF 4
ENDMDL
MODEL 6
REMARK VINA RESULT:    -3.304      1.205      4.052
REMARK INTER + INTRA:          -4.269
REMARK INTER:                  -3.793
REMARK INTRA:                  -0.476
REMARK UNBOUND:                -0.290
REMARK SMILES NC(=O)C[C@@H]([NH3+])C(=O)[O-]
REMARK SMILES IDX 4 1 5 2 6 3 7 7 8 8 9 9 2 10 3 11 1 12
REMARK H PARENT 6 4 6 5 6 6 1 13 1 14
REMARK Flexibility Score: inf
ROOT
ATOM      1  C   UNL     1      -9.819  -2.356   2.854  1.00  0.00     0.171 C 
ENDROOT
BRANCH   1   2
ATOM      2  C   UNL     1      -9.281  -3.495   3.744  1.00  0.00     0.237 C 
BRANCH   2   3
ATOM      3  N   UNL     1      -8.147  -3.044   4.563  1.00  0.00    -0.350 N 
ATOM      4  H   UNL     1      -7.468  -2.512   3.973  1.00  0.00     0.345 HD
ATOM      5  H   UNL     1      -8.476  -2.434   5.348  1.00  0.00     0.345 HD
ATOM      6  H   UNL     1      -7.646  -3.873   4.960  1.00  0.00     0.345 HD
ENDBRANCH   2   3
BRANCH   2   7
ATOM      7  C   UNL     1     -10.386  -4.010   4.628  1.00  0.00     0.100 C 
ATOM      8  O   UNL     1     -10.773  -5.203   4.526  1.00  0.00    -0.544 OA
ATOM      9  O   UNL     1     -10.996  -3.167   5.549  1.00  0.00    -0.544 OA
ENDBRANCH   2   7
ENDBRANCH   1   2
BRANCH   1  10
ATOM     10  C   UNL     1      -9.378  -1.009   3.349  1.00  0.00     0.223 C 
ATOM     11  O   UNL     1      -8.360  -0.460   2.850  1.00  0.00    -0.275 OA
ATOM     12  N   UNL     1     -10.122  -0.333   4.362  1.00  0.00    -0.369 N 
ATOM     13  H   UNL     1     -10.974  -0.771   4.777  1.00  0.00     0.159 HD
ATOM     14  H   UNL     1      -9.822   0.609   4.697  1.00  0.00     0.159 HD
ENDBRANCH   1  10
TORSDOF 4
ENDMDL
MODEL 7
REMARK VINA RESULT:    -3.293      2.245      3.323
REMARK INTER + INTRA:          -4.256
REMARK INTER:                  -3.833
REMARK INTRA:                  -0.423
REMARK UNBOUND:                -0.290
REMARK SMILES NC(=O)C[C@@H]([NH3+])C(=O)[O-]
REMARK SMILES IDX 4 1 5 2 6 3 7 7 8 8 9 9 2 10 3 11 1 12
REMARK H PARENT 6 4 6 5 6 6 1 13 1 14
REMARK Flexibility Score: inf
ROOT
ATOM      1  C   UNL     1     -11.212  -2.109   4.739  1.00  0.00     0.171 C 
ENDROOT
BRANCH   1   2
ATOM      2  C   UNL     1     -10.447  -2.780   3.580  1.00  0.00     0.237 C 
BRANCH   2   3
ATOM      3  N   UNL     1     -10.949  -2.329   2.274  1.00  0.00    -0.350 N 
ATOM      4  H   UNL     1     -10.148  -2.112   1.638  1.00  0.00     0.345 HD
ATOM      5  H   UNL     1     -11.549  -3.064   1.834  1.00  0.00     0.345 HD
ATOM      6  H   UNL     1     -11.510  -1.454   2.394  1.00  0.00     0.345 HD
ENDBRANCH   2   3
BRANCH   2   7
ATOM      7  C   UNL     1      -8.977  -2.476   3.702  1.00  0.00     0.100 C 
ATOM      8  O   UNL     1      -8.248  -3.173   4.456  1.00  0.00    -0.544 OA
ATOM      9  O   UNL     1      -8.420  -1.416   2.997  1.00  0.00    -0.544 OA
ENDBRANCH   2   7
ENDBRANCH   1   2
BRANCH   1  10
ATOM     10  C   UNL     1     -11.440  -0.648   4.480  1.00  0.00     0.223 C 
ATOM     11  O   UNL     1     -12.505  -0.268   3.924  1.00  0.00    -0.275 OA
ATOM     12  N   UNL     1     -10.471   0.318   4.887  1.00  0.00    -0.369 N 
ATOM     13  H   UNL     1      -9.589   0.019   5.359  1.00  0.00     0.159 HD
ATOM     14  H   UNL     1     -10.636   1.335   4.718  1.00  0.00     0.159 HD
ENDBRANCH   1  10
TORSDOF 4
ENDMDL
MODEL 8
REMARK VINA RESULT:    -3.249      1.862      2.441
REMARK INTER + INTRA:          -4.203
REMARK INTER:                  -3.899
REMARK INTRA:                  -0.304
REMARK UNBOUND:                -0.290
REMARK SMILES NC(=O)C[C@@H]([NH3+])C(=O)[O-]
REMARK SMILES IDX 4 1 5 2 6 3 7 7 8 8 9 9 2 10 3 11 1 12
REMARK H PARENT 6 4 6 5 6 6 1 13 1 14
REMARK Flexibility Score: inf
ROOT
ATOM      1  C   UNL     1      -9.632  -2.206   3.809  1.00  0.00     0.171 C 
ENDROOT
BRANCH   1   2
ATOM      2  C   UNL     1      -9.736  -1.857   2.311  1.00  0.00     0.237 C 
BRANCH   2   3
ATOM      3  N   UNL     1     -11.137  -1.778   1.875  1.00  0.00    -0.350 N 
ATOM      4  H   UNL     1     -11.272  -2.335   1.000  1.00  0.00     0.345 HD
ATOM      5  H   UNL     1     -11.778  -2.143   2.618  1.00  0.00     0.345 HD
ATOM      6  H   UNL     1     -11.387  -0.784   1.664  1.00  0.00     0.345 HD
ENDBRANCH   2   3
BRANCH   2   7
ATOM      7  C   UNL     1      -9.039  -0.549   2.048  1.00  0.00     0.100 C 
ATOM      8  O   UNL     1      -7.784  -0.510   1.949  1.00  0.00    -0.544 OA
ATOM      9  O   UNL     1      -9.773   0.625   1.930  1.00  0.00    -0.544 OA
ENDBRANCH   2   7
ENDBRANCH   1   2
BRANCH   1  10
ATOM     10  C   UNL     1     -10.652  -1.465   4.624  1.00  0.00     0.223 C 
ATOM     11  O   UNL     1     -11.634  -2.084   5.115  1.00  0.00    -0.275 OA
ATOM     12  N   UNL     1     -10.502  -0.067   4.871  1.00  0.00    -0.369 N 
ATOM     13  H   UNL     1      -9.688   0.457   4.480  1.00  0.00     0.159 HD
ATOM     14  H   UNL     1     -11.204   0.446   5.448  1.00  0.00     0.159 HD
ENDBRANCH   1  10
TORSDOF 4
ENDMDL
