MODEL 1
REMARK VINA RESULT:    -4.873      0.000      0.000
REMARK INTER + INTRA:          -7.725
REMARK INTER:                  -7.152
REMARK INTRA:                  -0.574
REMARK UNBOUND:                -0.574
REMARK SMILES O=C([O-])CCCCCCCC(=O)[O-]
REMARK SMILES IDX 7 1 6 2 5 3 4 4 2 5 1 6 3 7 8 8 9 9 10 10 11 11 12 12 13 13
REMARK H PARENT
REMARK Flexibility Score: inf
ROOT
ATOM      1  C   UNL     1     105.546 311.190 193.652  1.00  0.00     0.000 C 
ENDROOT
BRANCH   1   2
ATOM      2  C   UNL     1     104.138 311.562 193.156  1.00  0.00     0.000 C 
BRANCH   2   3
ATOM      3  C   UNL     1     104.147 312.772 192.208  1.00  0.00     0.006 C 
BRANCH   3   4
ATOM      4  C   UNL     1     105.542 313.393 192.056  1.00  0.00     0.053 C 
BRANCH   4   5
ATOM      5  C   UNL     1     105.550 314.794 192.582  1.00  0.00     0.041 C 
ATOM      6  O   UNL     1     105.416 315.009 193.815  1.00  0.00    -0.550 OA
ATOM      7  O   UNL     1     105.653 315.865 191.704  1.00  0.00    -0.550 OA
ENDBRANCH   4   5
ENDBRANCH   3   4
ENDBRANCH   2   3
ENDBRANCH   1   2
BRANCH   1   8
ATOM      8  C   UNL     1     105.776 311.555 195.129  1.00  0.00     0.000 C 
BRANCH   8   9
ATOM      9  C   UNL     1     104.574 312.212 195.839  1.00  0.00     0.006 C 
BRANCH   9  10
ATOM     10  C   UNL     1     103.916 311.340 196.920  1.00  0.00     0.053 C 
BRANCH  10  11
ATOM     11  C   UNL     1     103.762 312.076 198.215  1.00  0.00     0.041 C 
ATOM     12  O   UNL     1     103.929 313.323 198.260  1.00  0.00    -0.550 OA
ATOM     13  O   UNL     1     103.401 311.388 199.366  1.00  0.00    -0.550 OA
ENDBRANCH  10  11
ENDBRANCH   9  10
ENDBRANCH   8   9
ENDBRANCH   1   8
TORSDOF 8
ENDMDL
MODEL 2
REMARK VINA RESULT:    -4.825      2.604      3.531
REMARK INTER + INTRA:          -7.655
REMARK INTER:                  -7.308
REMARK INTRA:                  -0.347
REMARK UNBOUND:                -0.574
REMARK SMILES O=C([O-])CCCCCCCC(=O)[O-]
REMARK SMILES IDX 7 1 6 2 5 3 4 4 2 5 1 6 3 7 8 8 9 9 10 10 11 11 12 12 13 13
REMARK H PARENT
REMARK Flexibility Score: inf
ROOT
ATOM      1  C   UNL     1     104.062 312.964 192.175  1.00  0.00     0.000 C 
ENDROOT
BRANCH   1   2
ATOM      2  C   UNL     1     105.314 313.733 191.719  1.00  0.00     0.000 C 
BRANCH   2   3
ATOM      3  C   UNL     1     105.100 314.474 190.389  1.00  0.00     0.006 C 
BRANCH   3   4
ATOM      4  C   UNL     1     103.634 314.861 190.158  1.00  0.00     0.053 C 
BRANCH   4   5
ATOM      5  C   UNL     1     103.306 314.812 188.699  1.00  0.00     0.041 C 
ATOM      6  O   UNL     1     102.343 314.112 188.289  1.00  0.00    -0.550 OA
ATOM      7  O   UNL     1     104.094 315.501 187.786  1.00  0.00    -0.550 OA
ENDBRANCH   4   5
ENDBRANCH   3   4
ENDBRANCH   2   3
ENDBRANCH   1   2
BRANCH   1   8
ATOM      8  C   UNL     1     104.396 311.719 193.017  1.00  0.00     0.000 C 
BRANCH   8   9
ATOM      9  C   UNL     1     105.804 311.711 193.648  1.00  0.00     0.006 C 
BRANCH   9  10
ATOM     10  C   UNL     1     105.823 311.461 195.164  1.00  0.00     0.053 C 
BRANCH  10  11
ATOM     11  C   UNL     1     104.620 312.042 195.842  1.00  0.00     0.041 C 
ATOM     12  O   UNL     1     103.803 311.292 196.436  1.00  0.00    -0.550 OA
ATOM     13  O   UNL     1     104.420 313.416 195.843  1.00  0.00    -0.550 OA
ENDBRANCH  10  11
ENDBRANCH   9  10
ENDBRANCH   8   9
ENDBRANCH   1   8
TORSDOF 8
ENDMDL
MODEL 3
REMARK VINA RESULT:    -4.813     20.326     21.008
REMARK INTER + INTRA:          -7.638
REMARK INTER:                  -7.295
REMARK INTRA:                  -0.343
REMARK UNBOUND:                -0.574
REMARK SMILES O=C([O-])CCCCCCCC(=O)[O-]
REMARK SMILES IDX 7 1 6 2 5 3 4 4 2 5 1 6 3 7 8 8 9 9 10 10 11 11 12 12 13 13
REMARK H PARENT
REMARK Flexibility Score: inf
ROOT
ATOM      1  C   UNL     1      88.121 325.126 193.052  1.00  0.00     0.000 C 
ENDROOT
BRANCH   1   2
ATOM      2  C   UNL     1      86.860 324.378 192.586  1.00  0.00     0.000 C 
BRANCH   2   3
ATOM      3  C   UNL     1      87.118 323.500 191.350  1.00  0.00     0.006 C 
BRANCH   3   4
ATOM      4  C   UNL     1      88.422 323.864 190.629  1.00  0.00     0.053 C 
BRANCH   4   5
ATOM      5  C   UNL     1      88.524 323.124 189.332  1.00  0.00     0.041 C 
ATOM      6  O   UNL     1      87.505 322.583 188.829  1.00  0.00    -0.550 OA
ATOM      7  O   UNL     1      89.756 322.988 188.705  1.00  0.00    -0.550 OA
ENDBRANCH   4   5
ENDBRANCH   3   4
ENDBRANCH   2   3
ENDBRANCH   1   2
BRANCH   1   8
ATOM      8  C   UNL     1      87.803 326.328 193.960  1.00  0.00     0.000 C 
BRANCH   8   9
ATOM      9  C   UNL     1      86.489 326.217 194.761  1.00  0.00     0.006 C 
BRANCH   9  10
ATOM     10  C   UNL     1      86.628 326.523 196.260  1.00  0.00     0.053 C 
BRANCH  10  11
ATOM     11  C   UNL     1      87.902 325.975 196.827  1.00  0.00     0.041 C 
ATOM     12  O   UNL     1      88.087 324.732 196.888  1.00  0.00    -0.550 OA
ATOM     13  O   UNL     1      88.899 326.841 197.258  1.00  0.00    -0.550 OA
ENDBRANCH  10  11
ENDBRANCH   9  10
ENDBRANCH   8   9
ENDBRANCH   1   8
TORSDOF 8
ENDMDL
MODEL 4
REMARK VINA RESULT:    -4.807      2.432      6.414
REMARK INTER + INTRA:          -7.630
REMARK INTER:                  -7.289
REMARK INTRA:                  -0.340
REMARK UNBOUND:                -0.574
REMARK SMILES O=C([O-])CCCCCCCC(=O)[O-]
REMARK SMILES IDX 7 1 6 2 5 3 4 4 2 5 1 6 3 7 8 8 9 9 10 10 11 11 12 12 13 13
REMARK H PARENT
REMARK Flexibility Score: inf
ROOT
ATOM      1  C   UNL     1     104.190 311.876 192.759  1.00  0.00     0.000 C 
ENDROOT
BRANCH   1   2
ATOM      2  C   UNL     1     105.334 311.191 193.526  1.00  0.00     0.000 C 
BRANCH   2   3
ATOM      3  C   UNL     1     105.604 311.844 194.891  1.00  0.00     0.006 C 
BRANCH   3   4
ATOM      4  C   UNL     1     104.392 311.776 195.829  1.00  0.00     0.053 C 
BRANCH   4   5
ATOM      5  C   UNL     1     104.008 313.148 196.286  1.00  0.00     0.041 C 
ATOM      6  O   UNL     1     104.104 313.461 197.501  1.00  0.00    -0.550 OA
ATOM      7  O   UNL     1     103.495 314.065 195.377  1.00  0.00    -0.550 OA
ENDBRANCH   4   5
ENDBRANCH   3   4
ENDBRANCH   2   3
ENDBRANCH   1   2
BRANCH   1   8
ATOM      8  C   UNL     1     104.627 313.183 192.072  1.00  0.00     0.000 C 
BRANCH   8   9
ATOM      9  C   UNL     1     103.889 313.511 190.757  1.00  0.00     0.006 C 
BRANCH   9  10
ATOM     10  C   UNL     1     104.390 314.776 190.043  1.00  0.00     0.053 C 
BRANCH  10  11
ATOM     11  C   UNL     1     103.769 314.937 188.689  1.00  0.00     0.041 C 
ATOM     12  O   UNL     1     104.310 315.677 187.827  1.00  0.00    -0.550 OA
ATOM     13  O   UNL     1     102.609 314.244 188.371  1.00  0.00    -0.550 OA
ENDBRANCH  10  11
ENDBRANCH   9  10
ENDBRANCH   8   9
ENDBRANCH   1   8
TORSDOF 8
ENDMDL
MODEL 5
REMARK VINA RESULT:    -4.795     19.592     20.938
REMARK INTER + INTRA:          -7.611
REMARK INTER:                  -7.325
REMARK INTRA:                  -0.287
REMARK UNBOUND:                -0.574
REMARK SMILES O=C([O-])CCCCCCCC(=O)[O-]
REMARK SMILES IDX 7 1 6 2 5 3 4 4 2 5 1 6 3 7 8 8 9 9 10 10 11 11 12 12 13 13
REMARK H PARENT
REMARK Flexibility Score: inf
ROOT
ATOM      1  C   UNL     1      86.814 323.853 191.793  1.00  0.00     0.000 C 
ENDROOT
BRANCH   1   2
ATOM      2  C   UNL     1      86.772 324.473 193.201  1.00  0.00     0.000 C 
BRANCH   2   3
ATOM      3  C   UNL     1      88.106 325.126 193.597  1.00  0.00     0.006 C 
BRANCH   3   4
ATOM      4  C   UNL     1      87.926 326.537 194.171  1.00  0.00     0.053 C 
BRANCH   4   5
ATOM      5  C   UNL     1      87.877 326.491 195.666  1.00  0.00     0.041 C 
ATOM      6  O   UNL     1      88.943 326.431 196.333  1.00  0.00    -0.550 OA
ATOM      7  O   UNL     1      86.652 326.462 196.320  1.00  0.00    -0.550 OA
ENDBRANCH   4   5
ENDBRANCH   3   4
ENDBRANCH   2   3
ENDBRANCH   1   2
BRANCH   1   8
ATOM      8  C   UNL     1      88.175 324.039 191.097  1.00  0.00     0.000 C 
BRANCH   8   9
ATOM      9  C   UNL     1      88.368 323.220 189.804  1.00  0.00     0.006 C 
BRANCH   9  10
ATOM     10  C   UNL     1      89.491 323.728 188.887  1.00  0.00     0.053 C 
BRANCH  10  11
ATOM     11  C   UNL     1      90.454 322.639 188.525  1.00  0.00     0.041 C 
ATOM     12  O   UNL     1      90.031 321.546 188.067  1.00  0.00    -0.550 OA
ATOM     13  O   UNL     1      91.820 322.846 188.663  1.00  0.00    -0.550 OA
ENDBRANCH  10  11
ENDBRANCH   9  10
ENDBRANCH   8   9
ENDBRANCH   1   8
TORSDOF 8
ENDMDL
MODEL 6
REMARK VINA RESULT:    -4.790     20.126     21.407
REMARK INTER + INTRA:          -7.604
REMARK INTER:                  -7.256
REMARK INTRA:                  -0.348
REMARK UNBOUND:                -0.574
REMARK SMILES O=C([O-])CCCCCCCC(=O)[O-]
REMARK SMILES IDX 7 1 6 2 5 3 4 4 2 5 1 6 3 7 8 8 9 9 10 10 11 11 12 12 13 13
REMARK H PARENT
REMARK Flexibility Score: inf
ROOT
ATOM      1  C   UNL     1      87.947 325.888 193.773  1.00  0.00     0.000 C 
ENDROOT
BRANCH   1   2
ATOM      2  C   UNL     1      86.602 326.140 194.476  1.00  0.00     0.000 C 
BRANCH   2   3
ATOM      3  C   UNL     1      86.762 326.383 195.986  1.00  0.00     0.006 C 
BRANCH   3   4
ATOM      4  C   UNL     1      88.228 326.365 196.435  1.00  0.00     0.053 C 
BRANCH   4   5
ATOM      5  C   UNL     1      88.478 325.212 197.356  1.00  0.00     0.041 C 
ATOM      6  O   UNL     1      88.847 325.416 198.541  1.00  0.00    -0.550 OA
ATOM      7  O   UNL     1      88.351 323.910 196.889  1.00  0.00    -0.550 OA
ENDBRANCH   4   5
ENDBRANCH   3   4
ENDBRANCH   2   3
ENDBRANCH   1   2
BRANCH   1   8
ATOM      8  C   UNL     1      88.032 324.495 193.124  1.00  0.00     0.000 C 
BRANCH   8   9
ATOM      9  C   UNL     1      88.103 324.492 191.582  1.00  0.00     0.006 C 
BRANCH   9  10
ATOM     10  C   UNL     1      87.672 323.171 190.926  1.00  0.00     0.053 C 
BRANCH  10  11
ATOM     11  C   UNL     1      88.187 323.050 189.524  1.00  0.00     0.041 C 
ATOM     12  O   UNL     1      87.655 322.241 188.720  1.00  0.00    -0.550 OA
ATOM     13  O   UNL     1      89.235 323.855 189.097  1.00  0.00    -0.550 OA
ENDBRANCH  10  11
ENDBRANCH   9  10
ENDBRANCH   8   9
ENDBRANCH   1   8
TORSDOF 8
ENDMDL
MODEL 7
REMARK VINA RESULT:    -4.776     20.698     21.306
REMARK INTER + INTRA:          -7.583
REMARK INTER:                  -7.298
REMARK INTRA:                  -0.285
REMARK UNBOUND:                -0.574
REMARK SMILES O=C([O-])CCCCCCCC(=O)[O-]
REMARK SMILES IDX 7 1 6 2 5 3 4 4 2 5 1 6 3 7 8 8 9 9 10 10 11 11 12 12 13 13
REMARK H PARENT
REMARK Flexibility Score: inf
ROOT
ATOM      1  C   UNL     1      88.136 325.886 196.553  1.00  0.00     0.000 C 
ENDROOT
BRANCH   1   2
ATOM      2  C   UNL     1      86.819 326.502 196.050  1.00  0.00     0.000 C 
BRANCH   2   3
ATOM      3  C   UNL     1      86.675 326.419 194.521  1.00  0.00     0.006 C 
BRANCH   3   4
ATOM      4  C   UNL     1      87.984 326.026 193.825  1.00  0.00     0.053 C 
BRANCH   4   5
ATOM      5  C   UNL     1      87.797 324.768 193.036  1.00  0.00     0.041 C 
ATOM      6  O   UNL     1      87.385 323.721 193.600  1.00  0.00    -0.550 OA
ATOM      7  O   UNL     1      88.128 324.739 191.687  1.00  0.00    -0.550 OA
ENDBRANCH   4   5
ENDBRANCH   3   4
ENDBRANCH   2   3
ENDBRANCH   1   2
BRANCH   1   8
ATOM      8  C   UNL     1      88.716 326.624 197.773  1.00  0.00     0.000 C 
BRANCH   8   9
ATOM      9  C   UNL     1      88.990 325.740 199.007  1.00  0.00     0.006 C 
BRANCH   9  10
ATOM     10  C   UNL     1      89.601 326.485 200.204  1.00  0.00     0.053 C 
BRANCH  10  11
ATOM     11  C   UNL     1      88.990 326.056 201.502  1.00  0.00     0.041 C 
ATOM     12  O   UNL     1      88.440 324.928 201.602  1.00  0.00    -0.550 OA
ATOM     13  O   UNL     1      89.058 326.889 202.611  1.00  0.00    -0.550 OA
ENDBRANCH  10  11
ENDBRANCH   9  10
ENDBRANCH   8   9
ENDBRANCH   1   8
TORSDOF 8
ENDMDL
MODEL 8
REMARK VINA RESULT:    -4.774      1.385      1.816
REMARK INTER + INTRA:          -7.581
REMARK INTER:                  -7.237
REMARK INTRA:                  -0.344
REMARK UNBOUND:                -0.574
REMARK SMILES O=C([O-])CCCCCCCC(=O)[O-]
REMARK SMILES IDX 7 1 6 2 5 3 4 4 2 5 1 6 3 7 8 8 9 9 10 10 11 11 12 12 13 13
REMARK H PARENT
REMARK Flexibility Score: inf
ROOT
ATOM      1  C   UNL     1     105.409 311.160 193.592  1.00  0.00     0.000 C 
ENDROOT
BRANCH   1   2
ATOM      2  C   UNL     1     104.271 311.932 192.902  1.00  0.00     0.000 C 
BRANCH   2   3
ATOM      3  C   UNL     1     104.754 313.242 192.257  1.00  0.00     0.006 C 
BRANCH   3   4
ATOM      4  C   UNL     1     103.998 313.579 190.966  1.00  0.00     0.053 C 
BRANCH   4   5
ATOM      5  C   UNL     1     104.763 314.581 190.159  1.00  0.00     0.041 C 
ATOM      6  O   UNL     1     104.187 315.236 189.252  1.00  0.00    -0.550 OA
ATOM      7  O   UNL     1     106.124 314.754 190.376  1.00  0.00    -0.550 OA
ENDBRANCH   4   5
ENDBRANCH   3   4
ENDBRANCH   2   3
ENDBRANCH   1   2
BRANCH   1   8
ATOM      8  C   UNL     1     105.622 311.588 195.055  1.00  0.00     0.000 C 
BRANCH   8   9
ATOM      9  C   UNL     1     104.339 311.675 195.908  1.00  0.00     0.006 C 
BRANCH   9  10
ATOM     10  C   UNL     1     104.035 313.076 196.462  1.00  0.00     0.053 C 
BRANCH  10  11
ATOM     11  C   UNL     1     103.729 313.042 197.929  1.00  0.00     0.041 C 
ATOM     12  O   UNL     1     103.622 314.114 198.579  1.00  0.00    -0.550 OA
ATOM     13  O   UNL     1     103.531 311.826 198.569  1.00  0.00    -0.550 OA
ENDBRANCH  10  11
ENDBRANCH   9  10
ENDBRANCH   8   9
ENDBRANCH   1   8
TORSDOF 8
ENDMDL
MODEL 9
REMARK VINA RESULT:    -4.724      1.514      6.012
REMARK INTER + INTRA:          -7.507
REMARK INTER:                  -7.058
REMARK INTRA:                  -0.449
REMARK UNBOUND:                -0.574
REMARK SMILES O=C([O-])CCCCCCCC(=O)[O-]
REMARK SMILES IDX 7 1 6 2 5 3 4 4 2 5 1 6 3 7 8 8 9 9 10 10 11 11 12 12 13 13
REMARK H PARENT
REMARK Flexibility Score: inf
ROOT
ATOM      1  C   UNL     1     104.218 311.199 193.456  1.00  0.00     0.000 C 
ENDROOT
BRANCH   1   2
ATOM      2  C   UNL     1     103.544 311.487 194.809  1.00  0.00     0.000 C 
BRANCH   2   3
ATOM      3  C   UNL     1     104.553 311.890 195.897  1.00  0.00     0.006 C 
BRANCH   3   4
ATOM      4  C   UNL     1     104.142 313.168 196.639  1.00  0.00     0.053 C 
BRANCH   4   5
ATOM      5  C   UNL     1     103.678 312.841 198.024  1.00  0.00     0.041 C 
ATOM      6  O   UNL     1     103.652 311.645 198.417  1.00  0.00    -0.550 OA
ATOM      7  O   UNL     1     103.227 313.852 198.862  1.00  0.00    -0.550 OA
ENDBRANCH   4   5
ENDBRANCH   3   4
ENDBRANCH   2   3
ENDBRANCH   1   2
BRANCH   1   8
ATOM      8  C   UNL     1     105.572 311.914 193.297  1.00  0.00     0.000 C 
BRANCH   8   9
ATOM      9  C   UNL     1     105.581 313.089 192.296  1.00  0.00     0.006 C 
BRANCH   9  10
ATOM     10  C   UNL     1     104.206 313.434 191.704  1.00  0.00     0.053 C 
BRANCH  10  11
ATOM     11  C   UNL     1     104.325 314.176 190.408  1.00  0.00     0.041 C 
ATOM     12  O   UNL     1     103.404 314.113 189.554  1.00  0.00    -0.550 OA
ATOM     13  O   UNL     1     105.442 314.964 190.160  1.00  0.00    -0.550 OA
ENDBRANCH  10  11
ENDBRANCH   9  10
ENDBRANCH   8   9
ENDBRANCH   1   8
TORSDOF 8
ENDMDL
