MODEL 1
REMARK VINA RESULT:    -2.560      0.000      0.000
REMARK INTER + INTRA:          -2.560
REMARK INTER:                  -2.560
REMARK INTRA:                   0.000
REMARK UNBOUND:                 0.000
REMARK SMILES CC(=O)[O-]
REMARK SMILES IDX 1 1 2 2 3 3 4 4
REMARK H PARENT
REMARK Flexibility Score: inf
ROOT
ATOM      1  C   UNL     1      17.546  10.540   6.362  1.00  0.00     0.063 C 
ATOM      2  C   UNL     1      17.837  11.386   7.556  1.00  0.00     0.038 C 
ATOM      3  O   UNL     1      19.028  11.638   7.876  1.00  0.00    -0.550 OA
ATOM      4  O   UNL     1      16.796  11.851   8.350  1.00  0.00    -0.550 OA
ENDROOT
TORSDOF 0
ENDMDL
MODEL 2
REMARK VINA RESULT:    -2.525     17.552     17.926
REMARK INTER + INTRA:          -2.525
REMARK INTER:                  -2.525
REMARK INTRA:                   0.000
REMARK UNBOUND:                 0.000
REMARK SMILES CC(=O)[O-]
REMARK SMILES IDX 1 1 2 2 3 3 4 4
REMARK H PARENT
REMARK Flexibility Score: inf
ROOT
ATOM      1  C   UNL     1       0.685   8.581   1.110  1.00  0.00     0.063 C 
ATOM      2  C   UNL     1       0.874   8.479   2.586  1.00  0.00     0.038 C 
ATOM      3  O   UNL     1       1.258   9.481   3.245  1.00  0.00    -0.550 OA
ATOM      4  O   UNL     1       0.681   7.264   3.230  1.00  0.00    -0.550 OA
ENDROOT
TORSDOF 0
ENDMDL
MODEL 3
REMARK VINA RESULT:    -2.518      1.381      1.773
REMARK INTER + INTRA:          -2.518
REMARK INTER:                  -2.518
REMARK INTRA:                   0.000
REMARK UNBOUND:                 0.000
REMARK SMILES CC(=O)[O-]
REMARK SMILES IDX 1 1 2 2 3 3 4 4
REMARK H PARENT
REMARK Flexibility Score: inf
ROOT
ATOM      1  C   UNL     1      16.699  11.806   8.127  1.00  0.00     0.063 C 
ATOM      2  C   UNL     1      17.876  11.311   7.357  1.00  0.00     0.038 C 
ATOM      3  O   UNL     1      19.040  11.651   7.694  1.00  0.00    -0.550 OA
ATOM      4  O   UNL     1      17.688  10.519   6.232  1.00  0.00    -0.550 OA
ENDROOT
TORSDOF 0
ENDMDL
MODEL 4
REMARK VINA RESULT:    -2.448     18.034     18.411
REMARK INTER + INTRA:          -2.448
REMARK INTER:                  -2.448
REMARK INTRA:                   0.000
REMARK UNBOUND:                 0.000
REMARK SMILES CC(=O)[O-]
REMARK SMILES IDX 1 1 2 2 3 3 4 4
REMARK H PARENT
REMARK Flexibility Score: inf
ROOT
ATOM      1  C   UNL     1       1.064   8.841   2.985  1.00  0.00     0.063 C 
ATOM      2  C   UNL     1       0.740   8.398   1.599  1.00  0.00     0.038 C 
ATOM      3  O   UNL     1       0.905   9.185   0.629  1.00  0.00    -0.550 OA
ATOM      4  O   UNL     1       0.203   7.136   1.378  1.00  0.00    -0.550 OA
ENDROOT
TORSDOF 0
ENDMDL
MODEL 5
REMARK VINA RESULT:    -2.434      4.639      4.982
REMARK INTER + INTRA:          -2.434
REMARK INTER:                  -2.434
REMARK INTRA:                   0.000
REMARK UNBOUND:                 0.000
REMARK SMILES CC(=O)[O-]
REMARK SMILES IDX 1 1 2 2 3 3 4 4
REMARK H PARENT
REMARK Flexibility Score: inf
ROOT
ATOM      1  C   UNL     1      15.732  10.212   2.075  1.00  0.00     0.063 C 
ATOM      2  C   UNL     1      16.404   9.706   3.306  1.00  0.00     0.038 C 
ATOM      3  O   UNL     1      16.354   8.481   3.595  1.00  0.00    -0.550 OA
ATOM      4  O   UNL     1      17.040  10.591   4.167  1.00  0.00    -0.550 OA
ENDROOT
TORSDOF 0
ENDMDL
MODEL 6
REMARK VINA RESULT:    -2.425      4.953      5.284
REMARK INTER + INTRA:          -2.425
REMARK INTER:                  -2.425
REMARK INTRA:                   0.000
REMARK UNBOUND:                 0.000
REMARK SMILES CC(=O)[O-]
REMARK SMILES IDX 1 1 2 2 3 3 4 4
REMARK H PARENT
REMARK Flexibility Score: inf
ROOT
ATOM      1  C   UNL     1      16.821  10.725   4.151  1.00  0.00     0.063 C 
ATOM      2  C   UNL     1      16.167   9.817   3.165  1.00  0.00     0.038 C 
ATOM      3  O   UNL     1      16.215   8.569   3.327  1.00  0.00    -0.550 OA
ATOM      4  O   UNL     1      15.550  10.342   2.037  1.00  0.00    -0.550 OA
ENDROOT
TORSDOF 0
ENDMDL
MODEL 7
REMARK VINA RESULT:    -2.395     17.984     18.361
REMARK INTER + INTRA:          -2.395
REMARK INTER:                  -2.395
REMARK INTRA:                   0.000
REMARK UNBOUND:                 0.000
REMARK SMILES CC(=O)[O-]
REMARK SMILES IDX 1 1 2 2 3 3 4 4
REMARK H PARENT
REMARK Flexibility Score: inf
ROOT
ATOM      1  C   UNL     1       1.127   8.962   2.978  1.00  0.00     0.063 C 
ATOM      2  C   UNL     1       0.667   7.684   2.362  1.00  0.00     0.038 C 
ATOM      3  O   UNL     1       0.621   6.632   3.051  1.00  0.00    -0.550 OA
ATOM      4  O   UNL     1       0.342   7.639   1.012  1.00  0.00    -0.550 OA
ENDROOT
TORSDOF 0
ENDMDL
MODEL 8
REMARK VINA RESULT:    -2.331     17.691     18.111
REMARK INTER + INTRA:          -2.331
REMARK INTER:                  -2.331
REMARK INTRA:                   0.000
REMARK UNBOUND:                 0.000
REMARK SMILES CC(=O)[O-]
REMARK SMILES IDX 1 1 2 2 3 3 4 4
REMARK H PARENT
REMARK Flexibility Score: inf
ROOT
ATOM      1  C   UNL     1       0.758   6.967   3.017  1.00  0.00     0.063 C 
ATOM      2  C   UNL     1       0.799   8.330   2.414  1.00  0.00     0.038 C 
ATOM      3  O   UNL     1       1.174   9.315   3.103  1.00  0.00    -0.550 OA
ATOM      4  O   UNL     1       0.371   8.527   1.108  1.00  0.00    -0.550 OA
ENDROOT
TORSDOF 0
ENDMDL
MODEL 9
REMARK VINA RESULT:    -2.258     19.384     19.630
REMARK INTER + INTRA:          -2.258
REMARK INTER:                  -2.258
REMARK INTRA:                   0.000
REMARK UNBOUND:                 0.000
REMARK SMILES CC(=O)[O-]
REMARK SMILES IDX 1 1 2 2 3 3 4 4
REMARK H PARENT
REMARK Flexibility Score: inf
ROOT
ATOM      1  C   UNL     1      -0.001   5.116   2.382  1.00  0.00     0.063 C 
ATOM      2  C   UNL     1       0.178   5.810   1.074  1.00  0.00     0.038 C 
ATOM      3  O   UNL     1       0.295   5.140   0.015  1.00  0.00    -0.550 OA
ATOM      4  O   UNL     1       0.273   7.195   1.028  1.00  0.00    -0.550 OA
ENDROOT
TORSDOF 0
ENDMDL
