MODEL 1
REMARK VINA RESULT:    -8.397      0.000      0.000
REMARK INTER + INTRA:          -9.699
REMARK INTER:                  -9.624
REMARK INTRA:                  -0.075
REMARK UNBOUND:                -0.075
REMARK SMILES CC1(C)CC[C@]23CO[C@@]4(C=C[C@@H]5[C@@]6(C)CC[C@@H](O)[C@](C)(CO)[C@H]6CC[C@@]5(C)[C@@]4(C)C[C@H]2O)[C@H]3C1
REMARK SMILES IDX 1 1 2 2 4 3 5 4 6 5 7 6 8 7 9 8 33 9 34 10 10 11 11 12 12 13
REMARK SMILES IDX 13 14 15 15 16 16 17 17 19 18 23 19 24 20 25 21 26 22 28 23
REMARK SMILES IDX 30 24 31 25 29 26 27 27 20 28 14 29 3 30 32 31 21 33 22 34
REMARK SMILES IDX 18 36
REMARK H PARENT 32 32 22 35 18 37
REMARK Flexibility Score: inf
ROOT
ATOM      1  C   UNL     1     111.622  -2.891 114.077  1.00  0.00     0.011 C 
ATOM      2  C   UNL     1     112.272  -4.174 113.621  1.00  0.00    -0.035 C 
ATOM      3  C   UNL     1     113.633  -3.788 112.862  1.00  0.00     0.007 C 
ATOM      4  C   UNL     1     114.464  -5.040 112.475  1.00  0.00     0.013 C 
ATOM      5  C   UNL     1     114.583  -6.156 113.637  1.00  0.00     0.026 C 
ATOM      6  C   UNL     1     115.579  -5.638 114.721  1.00  0.00     0.171 C 
ATOM      7  O   UNL     1     115.200  -6.059 116.033  1.00  0.00    -0.369 OA
ATOM      8  C   UNL     1     114.192  -7.022 115.790  1.00  0.00     0.096 C 
ATOM      9  C   UNL     1     113.352  -6.328 114.562  1.00  0.00     0.037 C 
ATOM     10  C   UNL     1     112.546  -5.002 114.892  1.00  0.00     0.014 C 
ATOM     11  C   UNL     1     113.229  -7.012 116.980  1.00  0.00     0.005 C 
ATOM     12  C   UNL     1     112.697  -8.051 117.548  1.00  0.00    -0.024 C 
ATOM     13  C   UNL     1     113.160  -9.510 117.378  1.00  0.00     0.024 C 
ATOM     14  C   UNL     1     113.002 -10.441 118.698  1.00  0.00    -0.022 C 
ATOM     15  C   UNL     1     111.463 -10.393 119.070  1.00  0.00     0.010 C 
ATOM     16  C   UNL     1     110.648 -11.709 119.442  1.00  0.00     0.033 C 
ATOM     17  C   UNL     1     111.315 -12.928 118.936  1.00  0.00     0.123 C 
ATOM     18  C   UNL     1     112.844 -13.046 119.212  1.00  0.00     0.020 C 
ATOM     19  C   UNL     1     113.651 -11.916 118.459  1.00  0.00     0.006 C 
ATOM     20  C   UNL     1     114.069 -12.206 116.944  1.00  0.00     0.005 C 
ATOM     21  C   UNL     1     114.709 -11.052 116.097  1.00  0.00     0.008 C 
ATOM     22  C   UNL     1     114.550  -9.606 116.639  1.00  0.00    -0.017 C 
ATOM     23  C   UNL     1     114.914  -8.463 115.488  1.00  0.00     0.009 C 
ATOM     24  C   UNL     1     114.585  -8.816 114.013  1.00  0.00     0.043 C 
ATOM     25  C   UNL     1     114.879  -7.582 113.002  1.00  0.00     0.124 C 
ATOM     26  C   UNL     1     116.538  -8.341 115.399  1.00  0.00     0.015 C 
ATOM     27  C   UNL     1     115.582  -9.358 117.779  1.00  0.00     0.013 C 
ATOM     28  C   UNL     1     113.199 -14.558 118.645  1.00  0.00     0.017 C 
ATOM     29  C   UNL     1     113.591  -9.814 120.040  1.00  0.00     0.012 C 
ATOM     30  C   UNL     1     111.358  -4.912 112.588  1.00  0.00     0.011 C 
ENDROOT
BRANCH  25  31
ATOM     31  O   UNL     1     114.127  -7.853 111.907  1.00  0.00    -0.392 OA
ATOM     32  H   UNL     1     113.301  -8.340 112.206  1.00  0.00     0.210 HD
ENDBRANCH  25  31
BRANCH  18  33
ATOM     33  C   UNL     1     113.142 -13.079 120.774  1.00  0.00     0.165 C 
BRANCH  33  34
ATOM     34  O   UNL     1     112.366 -14.151 121.400  1.00  0.00    -0.396 OA
ATOM     35  H   UNL     1     112.871 -15.053 121.275  1.00  0.00     0.210 HD
ENDBRANCH  33  34
ENDBRANCH  18  33
BRANCH  17  36
ATOM     36  O   UNL     1     111.004 -13.126 117.555  1.00  0.00    -0.392 OA
ATOM     37  H   UNL     1     110.490 -12.327 117.199  1.00  0.00     0.210 HD
ENDBRANCH  17  36
TORSDOF 4
ENDMDL
MODEL 2
REMARK VINA RESULT:    -8.378      6.217     12.339
REMARK INTER + INTRA:          -9.677
REMARK INTER:                  -9.683
REMARK INTRA:                   0.006
REMARK UNBOUND:                -0.075
REMARK SMILES CC1(C)CC[C@]23CO[C@@]4(C=C[C@@H]5[C@@]6(C)CC[C@@H](O)[C@](C)(CO)[C@H]6CC[C@@]5(C)[C@@]4(C)C[C@H]2O)[C@H]3C1
REMARK SMILES IDX 1 1 2 2 4 3 5 4 6 5 7 6 8 7 9 8 33 9 34 10 10 11 11 12 12 13
REMARK SMILES IDX 13 14 15 15 16 16 17 17 19 18 23 19 24 20 25 21 26 22 28 23
REMARK SMILES IDX 30 24 31 25 29 26 27 27 20 28 14 29 3 30 32 31 21 33 22 34
REMARK SMILES IDX 18 36
REMARK H PARENT 32 32 22 35 18 37
REMARK Flexibility Score: inf
ROOT
ATOM      1  C   UNL     1     110.965 -23.125 120.280  1.00  0.00     0.011 C 
ATOM      2  C   UNL     1     112.002 -22.030 120.331  1.00  0.00    -0.035 C 
ATOM      3  C   UNL     1     113.399 -22.702 120.750  1.00  0.00     0.007 C 
ATOM      4  C   UNL     1     114.575 -21.691 120.691  1.00  0.00     0.013 C 
ATOM      5  C   UNL     1     114.595 -20.754 119.375  1.00  0.00     0.026 C 
ATOM      6  C   UNL     1     115.069 -21.614 118.162  1.00  0.00     0.171 C 
ATOM      7  O   UNL     1     114.422 -21.222 116.950  1.00  0.00    -0.369 OA
ATOM      8  C   UNL     1     113.788 -20.006 117.296  1.00  0.00     0.096 C 
ATOM      9  C   UNL     1     113.219 -20.337 118.800  1.00  0.00     0.037 C 
ATOM     10  C   UNL     1     112.065 -21.421 118.917  1.00  0.00     0.014 C 
ATOM     11  C   UNL     1     112.536 -19.860 116.426  1.00  0.00     0.005 C 
ATOM     12  C   UNL     1     112.115 -18.769 115.861  1.00  0.00    -0.024 C 
ATOM     13  C   UNL     1     112.934 -17.480 115.662  1.00  0.00     0.024 C 
ATOM     14  C   UNL     1     112.607 -16.659 114.301  1.00  0.00    -0.022 C 
ATOM     15  C   UNL     1     111.061 -16.322 114.369  1.00  0.00     0.010 C 
ATOM     16  C   UNL     1     110.501 -14.873 114.022  1.00  0.00     0.033 C 
ATOM     17  C   UNL     1     111.555 -13.840 114.126  1.00  0.00     0.123 C 
ATOM     18  C   UNL     1     112.913 -14.163 113.435  1.00  0.00     0.020 C 
ATOM     19  C   UNL     1     113.623 -15.398 114.116  1.00  0.00     0.006 C 
ATOM     20  C   UNL     1     114.533 -15.101 115.395  1.00  0.00     0.005 C 
ATOM     21  C   UNL     1     115.111 -16.307 116.214  1.00  0.00     0.008 C 
ATOM     22  C   UNL     1     114.464 -17.699 115.975  1.00  0.00    -0.017 C 
ATOM     23  C   UNL     1     114.881 -18.792 117.156  1.00  0.00     0.009 C 
ATOM     24  C   UNL     1     115.103 -18.236 118.588  1.00  0.00     0.043 C 
ATOM     25  C   UNL     1     115.392 -19.411 119.669  1.00  0.00     0.124 C 
ATOM     26  C   UNL     1     116.382 -19.339 116.824  1.00  0.00     0.015 C 
ATOM     27  C   UNL     1     115.017 -18.314 114.656  1.00  0.00     0.013 C 
ATOM     28  C   UNL     1     113.763 -12.760 113.633  1.00  0.00     0.017 C 
ATOM     29  C   UNL     1     112.602 -17.536 112.969  1.00  0.00     0.012 C 
ATOM     30  C   UNL     1     111.639 -20.986 121.439  1.00  0.00     0.011 C 
ENDROOT
BRANCH  25  31
ATOM     31  O   UNL     1     115.090 -18.853 120.866  1.00  0.00    -0.392 OA
ATOM     32  H   UNL     1     114.762 -19.580 121.477  1.00  0.00     0.210 HD
ENDBRANCH  25  31
BRANCH  18  33
ATOM     33  C   UNL     1     112.725 -14.347 111.866  1.00  0.00     0.165 C 
BRANCH  33  34
ATOM     34  O   UNL     1     111.755 -13.371 111.368  1.00  0.00    -0.396 OA
ATOM     35  H   UNL     1     111.466 -13.641 110.405  1.00  0.00     0.210 HD
ENDBRANCH  33  34
ENDBRANCH  18  33
BRANCH  17  36
ATOM     36  O   UNL     1     111.729 -13.446 115.489  1.00  0.00    -0.392 OA
ATOM     37  H   UNL     1     112.688 -13.611 115.776  1.00  0.00     0.210 HD
ENDBRANCH  17  36
TORSDOF 4
ENDMDL
MODEL 3
REMARK VINA RESULT:    -8.195      3.022      5.741
REMARK INTER + INTRA:          -9.468
REMARK INTER:                  -9.420
REMARK INTRA:                  -0.047
REMARK UNBOUND:                -0.075
REMARK SMILES CC1(C)CC[C@]23CO[C@@]4(C=C[C@@H]5[C@@]6(C)CC[C@@H](O)[C@](C)(CO)[C@H]6CC[C@@]5(C)[C@@]4(C)C[C@H]2O)[C@H]3C1
REMARK SMILES IDX 1 1 2 2 4 3 5 4 6 5 7 6 8 7 9 8 33 9 34 10 10 11 11 12 12 13
REMARK SMILES IDX 13 14 15 15 16 16 17 17 19 18 23 19 24 20 25 21 26 22 28 23
REMARK SMILES IDX 30 24 31 25 29 26 27 27 20 28 14 29 3 30 32 31 21 33 22 34
REMARK SMILES IDX 18 36
REMARK H PARENT 32 32 22 35 18 37
REMARK Flexibility Score: inf
ROOT
ATOM      1  C   UNL     1     116.547  -6.693 116.645  1.00  0.00     0.011 C 
ATOM      2  C   UNL     1     115.505  -7.130 117.645  1.00  0.00    -0.035 C 
ATOM      3  C   UNL     1     114.210  -6.204 117.436  1.00  0.00     0.007 C 
ATOM      4  C   UNL     1     113.015  -6.661 118.314  1.00  0.00     0.013 C 
ATOM      5  C   UNL     1     112.762  -8.257 118.332  1.00  0.00     0.026 C 
ATOM      6  C   UNL     1     112.120  -8.671 116.971  1.00  0.00     0.171 C 
ATOM      7  O   UNL     1     112.555  -9.967 116.553  1.00  0.00    -0.369 OA
ATOM      8  C   UNL     1     113.207 -10.479 117.699  1.00  0.00     0.096 C 
ATOM      9  C   UNL     1     114.018  -9.160 118.245  1.00  0.00     0.037 C 
ATOM     10  C   UNL     1     115.201  -8.610 117.342  1.00  0.00     0.014 C 
ATOM     11  C   UNL     1     114.299 -11.446 117.233  1.00  0.00     0.005 C 
ATOM     12  C   UNL     1     114.597 -12.588 117.773  1.00  0.00    -0.024 C 
ATOM     13  C   UNL     1     113.725 -13.370 118.773  1.00  0.00     0.024 C 
ATOM     14  C   UNL     1     113.810 -14.986 118.645  1.00  0.00    -0.022 C 
ATOM     15  C   UNL     1     115.338 -15.349 118.847  1.00  0.00     0.010 C 
ATOM     16  C   UNL     1     115.799 -16.542 119.794  1.00  0.00     0.033 C 
ATOM     17  C   UNL     1     114.751 -16.899 120.776  1.00  0.00     0.123 C 
ATOM     18  C   UNL     1     113.308 -17.073 120.215  1.00  0.00     0.020 C 
ATOM     19  C   UNL     1     112.747 -15.712 119.644  1.00  0.00     0.006 C 
ATOM     20  C   UNL     1     112.047 -14.719 120.683  1.00  0.00     0.005 C 
ATOM     21  C   UNL     1     111.637 -13.283 120.205  1.00  0.00     0.008 C 
ATOM     22  C   UNL     1     112.271 -12.770 118.884  1.00  0.00    -0.017 C 
ATOM     23  C   UNL     1     112.076 -11.130 118.692  1.00  0.00     0.009 C 
ATOM     24  C   UNL     1     112.072 -10.264 119.980  1.00  0.00     0.043 C 
ATOM     25  C   UNL     1     111.990  -8.676 119.656  1.00  0.00     0.124 C 
ATOM     26  C   UNL     1     110.555 -10.865 118.164  1.00  0.00     0.015 C 
ATOM     27  C   UNL     1     111.529 -13.399 117.668  1.00  0.00     0.013 C 
ATOM     28  C   UNL     1     112.466 -17.596 121.538  1.00  0.00     0.017 C 
ATOM     29  C   UNL     1     113.622 -15.555 117.167  1.00  0.00     0.012 C 
ATOM     30  C   UNL     1     116.015  -6.890 119.105  1.00  0.00     0.011 C 
ENDROOT
BRANCH  25  31
ATOM     31  O   UNL     1     112.466  -8.076 120.773  1.00  0.00    -0.392 OA
ATOM     32  H   UNL     1     113.409  -7.780 120.593  1.00  0.00     0.210 HD
ENDBRANCH  25  31
BRANCH  18  33
ATOM     33  C   UNL     1     113.245 -18.258 119.156  1.00  0.00     0.165 C 
BRANCH  33  34
ATOM     34  O   UNL     1     112.832 -19.493 119.823  1.00  0.00    -0.396 OA
ATOM     35  H   UNL     1     113.325 -19.567 120.737  1.00  0.00     0.210 HD
ENDBRANCH  33  34
ENDBRANCH  18  33
BRANCH  17  36
ATOM     36  O   UNL     1     114.788 -16.002 121.887  1.00  0.00    -0.392 OA
ATOM     37  H   UNL     1     115.145 -15.099 121.591  1.00  0.00     0.210 HD
ENDBRANCH  17  36
TORSDOF 4
ENDMDL
MODEL 4
REMARK VINA RESULT:    -8.096      9.204     12.821
REMARK INTER + INTRA:          -9.354
REMARK INTER:                  -9.278
REMARK INTRA:                  -0.076
REMARK UNBOUND:                -0.075
REMARK SMILES CC1(C)CC[C@]23CO[C@@]4(C=C[C@@H]5[C@@]6(C)CC[C@@H](O)[C@](C)(CO)[C@H]6CC[C@@]5(C)[C@@]4(C)C[C@H]2O)[C@H]3C1
REMARK SMILES IDX 1 1 2 2 4 3 5 4 6 5 7 6 8 7 9 8 33 9 34 10 10 11 11 12 12 13
REMARK SMILES IDX 13 14 15 15 16 16 17 17 19 18 23 19 24 20 25 21 26 22 28 23
REMARK SMILES IDX 30 24 31 25 29 26 27 27 20 28 14 29 3 30 32 31 21 33 22 34
REMARK SMILES IDX 18 36
REMARK H PARENT 32 32 22 35 18 37
REMARK Flexibility Score: inf
ROOT
ATOM      1  C   UNL     1     112.064 -20.686 114.111  1.00  0.00     0.011 C 
ATOM      2  C   UNL     1     113.175 -19.667 114.044  1.00  0.00    -0.035 C 
ATOM      3  C   UNL     1     112.545 -18.234 114.403  1.00  0.00     0.007 C 
ATOM      4  C   UNL     1     113.628 -17.128 114.509  1.00  0.00     0.013 C 
ATOM      5  C   UNL     1     114.952 -17.557 115.330  1.00  0.00     0.026 C 
ATOM      6  C   UNL     1     114.604 -17.579 116.852  1.00  0.00     0.171 C 
ATOM      7  O   UNL     1     115.316 -18.609 117.542  1.00  0.00    -0.369 OA
ATOM      8  C   UNL     1     116.274 -19.037 116.593  1.00  0.00     0.096 C 
ATOM      9  C   UNL     1     115.398 -19.034 115.204  1.00  0.00     0.037 C 
ATOM     10  C   UNL     1     114.229 -20.100 115.081  1.00  0.00     0.014 C 
ATOM     11  C   UNL     1     116.580 -20.514 116.861  1.00  0.00     0.005 C 
ATOM     12  C   UNL     1     117.749 -21.077 116.822  1.00  0.00    -0.024 C 
ATOM     13  C   UNL     1     119.105 -20.345 116.827  1.00  0.00     0.024 C 
ATOM     14  C   UNL     1     120.301 -21.117 117.608  1.00  0.00    -0.022 C 
ATOM     15  C   UNL     1     120.438 -22.523 116.891  1.00  0.00     0.010 C 
ATOM     16  C   UNL     1     121.855 -23.125 116.489  1.00  0.00     0.033 C 
ATOM     17  C   UNL     1     122.893 -22.074 116.403  1.00  0.00     0.123 C 
ATOM     18  C   UNL     1     122.959 -21.068 117.591  1.00  0.00     0.020 C 
ATOM     19  C   UNL     1     121.645 -20.198 117.680  1.00  0.00     0.006 C 
ATOM     20  C   UNL     1     121.581 -18.879 116.781  1.00  0.00     0.005 C 
ATOM     21  C   UNL     1     120.234 -18.081 116.695  1.00  0.00     0.008 C 
ATOM     22  C   UNL     1     118.948 -18.813 117.165  1.00  0.00    -0.017 C 
ATOM     23  C   UNL     1     117.567 -18.032 116.669  1.00  0.00     0.009 C 
ATOM     24  C   UNL     1     117.625 -17.290 115.307  1.00  0.00     0.043 C 
ATOM     25  C   UNL     1     116.189 -16.666 114.881  1.00  0.00     0.124 C 
ATOM     26  C   UNL     1     117.317 -16.770 117.673  1.00  0.00     0.015 C 
ATOM     27  C   UNL     1     118.873 -18.793 118.721  1.00  0.00     0.013 C 
ATOM     28  C   UNL     1     124.291 -20.161 117.222  1.00  0.00     0.017 C 
ATOM     29  C   UNL     1     119.930 -21.630 119.071  1.00  0.00     0.012 C 
ATOM     30  C   UNL     1     113.741 -19.572 112.588  1.00  0.00     0.011 C 
ENDROOT
BRANCH  25  31
ATOM     31  O   UNL     1     116.276 -16.498 113.539  1.00  0.00    -0.392 OA
ATOM     32  H   UNL     1     116.996 -15.823 113.354  1.00  0.00     0.210 HD
ENDBRANCH  25  31
BRANCH  18  33
ATOM     33  C   UNL     1     123.299 -21.815 118.953  1.00  0.00     0.165 C 
BRANCH  33  34
ATOM     34  O   UNL     1     123.753 -20.843 119.948  1.00  0.00    -0.396 OA
ATOM     35  H   UNL     1     124.471 -21.288 120.556  1.00  0.00     0.210 HD
ENDBRANCH  33  34
ENDBRANCH  18  33
BRANCH  17  36
ATOM     36  O   UNL     1     122.817 -21.407 115.141  1.00  0.00    -0.392 OA
ATOM     37  H   UNL     1     123.752 -21.238 114.783  1.00  0.00     0.210 HD
ENDBRANCH  17  36
TORSDOF 4
ENDMDL
MODEL 5
REMARK VINA RESULT:    -8.011      4.023      6.323
REMARK INTER + INTRA:          -9.257
REMARK INTER:                  -9.182
REMARK INTRA:                  -0.075
REMARK UNBOUND:                -0.075
REMARK SMILES CC1(C)CC[C@]23CO[C@@]4(C=C[C@@H]5[C@@]6(C)CC[C@@H](O)[C@](C)(CO)[C@H]6CC[C@@]5(C)[C@@]4(C)C[C@H]2O)[C@H]3C1
REMARK SMILES IDX 1 1 2 2 4 3 5 4 6 5 7 6 8 7 9 8 33 9 34 10 10 11 11 12 12 13
REMARK SMILES IDX 13 14 15 15 16 16 17 17 19 18 23 19 24 20 25 21 26 22 28 23
REMARK SMILES IDX 30 24 31 25 29 26 27 27 20 28 14 29 3 30 32 31 21 33 22 34
REMARK SMILES IDX 18 36
REMARK H PARENT 32 32 22 35 18 37
REMARK Flexibility Score: inf
ROOT
ATOM      1  C   UNL     1     112.318 -13.512 112.734  1.00  0.00     0.011 C 
ATOM      2  C   UNL     1     113.627 -12.779 112.572  1.00  0.00    -0.035 C 
ATOM      3  C   UNL     1     113.426 -11.669 111.430  1.00  0.00     0.007 C 
ATOM      4  C   UNL     1     114.668 -10.752 111.279  1.00  0.00     0.013 C 
ATOM      5  C   UNL     1     115.303 -10.240 112.674  1.00  0.00     0.026 C 
ATOM      6  C   UNL     1     114.369  -9.139 113.268  1.00  0.00     0.171 C 
ATOM      7  O   UNL     1     114.339  -9.184 114.696  1.00  0.00    -0.369 OA
ATOM      8  C   UNL     1     115.399 -10.063 115.018  1.00  0.00     0.096 C 
ATOM      9  C   UNL     1     115.237 -11.224 113.868  1.00  0.00     0.037 C 
ATOM     10  C   UNL     1     113.942 -12.139 113.938  1.00  0.00     0.014 C 
ATOM     11  C   UNL     1     115.051 -10.764 116.335  1.00  0.00     0.005 C 
ATOM     12  C   UNL     1     115.867 -11.011 117.314  1.00  0.00    -0.024 C 
ATOM     13  C   UNL     1     117.256 -10.377 117.515  1.00  0.00     0.024 C 
ATOM     14  C   UNL     1     117.684 -10.130 119.061  1.00  0.00    -0.022 C 
ATOM     15  C   UNL     1     117.627 -11.555 119.750  1.00  0.00     0.010 C 
ATOM     16  C   UNL     1     118.791 -12.073 120.704  1.00  0.00     0.033 C 
ATOM     17  C   UNL     1     120.056 -11.343 120.472  1.00  0.00     0.123 C 
ATOM     18  C   UNL     1     119.956  -9.790 120.401  1.00  0.00     0.020 C 
ATOM     19  C   UNL     1     119.098  -9.326 119.159  1.00  0.00     0.006 C 
ATOM     20  C   UNL     1     119.861  -9.176 117.763  1.00  0.00     0.005 C 
ATOM     21  C   UNL     1     119.026  -8.896 116.465  1.00  0.00     0.008 C 
ATOM     22  C   UNL     1     117.497  -9.161 116.539  1.00  0.00    -0.017 C 
ATOM     23  C   UNL     1     116.797  -9.207 115.032  1.00  0.00     0.009 C 
ATOM     24  C   UNL     1     117.662  -9.763 113.868  1.00  0.00     0.043 C 
ATOM     25  C   UNL     1     116.834  -9.864 112.477  1.00  0.00     0.124 C 
ATOM     26  C   UNL     1     116.592  -7.670 114.527  1.00  0.00     0.015 C 
ATOM     27  C   UNL     1     116.794  -7.974 117.262  1.00  0.00     0.013 C 
ATOM     28  C   UNL     1     121.539  -9.330 120.281  1.00  0.00     0.017 C 
ATOM     29  C   UNL     1     116.590  -9.389 119.953  1.00  0.00     0.012 C 
ATOM     30  C   UNL     1     114.743 -13.758 112.075  1.00  0.00     0.011 C 
ENDROOT
BRANCH  25  31
ATOM     31  O   UNL     1     117.521 -10.767 111.736  1.00  0.00    -0.392 OA
ATOM     32  H   UNL     1     117.995 -10.273 111.000  1.00  0.00     0.210 HD
ENDBRANCH  25  31
BRANCH  18  33
ATOM     33  C   UNL     1     119.426  -9.189 121.775  1.00  0.00     0.165 C 
BRANCH  33  34
ATOM     34  O   UNL     1     120.313  -9.596 122.865  1.00  0.00    -0.396 OA
ATOM     35  H   UNL     1     121.161  -8.991 122.857  1.00  0.00     0.210 HD
ENDBRANCH  33  34
ENDBRANCH  18  33
BRANCH  17  36
ATOM     36  O   UNL     1     120.740 -11.887 119.341  1.00  0.00    -0.392 OA
ATOM     37  H   UNL     1     121.451 -12.541 119.650  1.00  0.00     0.210 HD
ENDBRANCH  17  36
TORSDOF 4
ENDMDL
MODEL 6
REMARK VINA RESULT:    -7.951      3.661      5.194
REMARK INTER + INTRA:          -9.188
REMARK INTER:                  -9.141
REMARK INTRA:                  -0.047
REMARK UNBOUND:                -0.075
REMARK SMILES CC1(C)CC[C@]23CO[C@@]4(C=C[C@@H]5[C@@]6(C)CC[C@@H](O)[C@](C)(CO)[C@H]6CC[C@@]5(C)[C@@]4(C)C[C@H]2O)[C@H]3C1
REMARK SMILES IDX 1 1 2 2 4 3 5 4 6 5 7 6 8 7 9 8 33 9 34 10 10 11 11 12 12 13
REMARK SMILES IDX 13 14 15 15 16 16 17 17 19 18 23 19 24 20 25 21 26 22 28 23
REMARK SMILES IDX 30 24 31 25 29 26 27 27 20 28 14 29 3 30 32 31 21 33 22 34
REMARK SMILES IDX 18 36
REMARK H PARENT 32 32 22 35 18 37
REMARK Flexibility Score: inf
ROOT
ATOM      1  C   UNL     1     122.287  -6.277 114.965  1.00  0.00     0.011 C 
ATOM      2  C   UNL     1     121.066  -6.797 114.247  1.00  0.00    -0.035 C 
ATOM      3  C   UNL     1     121.570  -7.668 112.996  1.00  0.00     0.007 C 
ATOM      4  C   UNL     1     120.397  -8.376 112.266  1.00  0.00     0.013 C 
ATOM      5  C   UNL     1     119.321  -9.080 113.244  1.00  0.00     0.026 C 
ATOM      6  C   UNL     1     119.955 -10.384 113.821  1.00  0.00     0.171 C 
ATOM      7  O   UNL     1     119.523 -10.634 115.161  1.00  0.00    -0.369 OA
ATOM      8  C   UNL     1     118.462  -9.716 115.340  1.00  0.00     0.096 C 
ATOM      9  C   UNL     1     119.046  -8.374 114.595  1.00  0.00     0.037 C 
ATOM     10  C   UNL     1     120.294  -7.657 115.265  1.00  0.00     0.014 C 
ATOM     11  C   UNL     1     118.400  -9.346 116.824  1.00  0.00     0.005 C 
ATOM     12  C   UNL     1     117.325  -9.205 117.538  1.00  0.00    -0.024 C 
ATOM     13  C   UNL     1     115.915  -9.693 117.154  1.00  0.00     0.024 C 
ATOM     14  C   UNL     1     114.997 -10.194 118.396  1.00  0.00    -0.022 C 
ATOM     15  C   UNL     1     114.902  -8.958 119.380  1.00  0.00     0.010 C 
ATOM     16  C   UNL     1     113.520  -8.506 120.028  1.00  0.00     0.033 C 
ATOM     17  C   UNL     1     112.362  -9.014 119.259  1.00  0.00     0.123 C 
ATOM     18  C   UNL     1     112.400 -10.520 118.865  1.00  0.00     0.020 C 
ATOM     19  C   UNL     1     113.589 -10.823 117.870  1.00  0.00     0.006 C 
ATOM     20  C   UNL     1     113.313 -10.591 116.313  1.00  0.00     0.005 C 
ATOM     21  C   UNL     1     114.508 -10.701 115.304  1.00  0.00     0.008 C 
ATOM     22  C   UNL     1     115.942 -10.646 115.898  1.00  0.00    -0.017 C 
ATOM     23  C   UNL     1     117.093 -10.380 114.728  1.00  0.00     0.009 C 
ATOM     24  C   UNL     1     116.681  -9.497 113.519  1.00  0.00     0.043 C 
ATOM     25  C   UNL     1     117.919  -9.218 112.508  1.00  0.00     0.124 C 
ATOM     26  C   UNL     1     117.371 -11.796 113.968  1.00  0.00     0.015 C 
ATOM     27  C   UNL     1     116.311 -12.031 116.505  1.00  0.00     0.013 C 
ATOM     28  C   UNL     1     110.920 -10.749 118.166  1.00  0.00     0.017 C 
ATOM     29  C   UNL     1     115.705 -11.230 119.381  1.00  0.00     0.012 C 
ATOM     30  C   UNL     1     120.223  -5.608 113.676  1.00  0.00     0.011 C 
ENDROOT
BRANCH  25  31
ATOM     31  O   UNL     1     117.555  -8.106 111.824  1.00  0.00    -0.392 OA
ATOM     32  H   UNL     1     118.345  -7.487 111.788  1.00  0.00     0.210 HD
ENDBRANCH  25  31
BRANCH  18  33
ATOM     33  C   UNL     1     112.425 -11.448 120.156  1.00  0.00     0.165 C 
BRANCH  33  34
ATOM     34  O   UNL     1     111.066 -11.884 120.476  1.00  0.00    -0.396 OA
ATOM     35  H   UNL     1     110.438 -11.054 120.490  1.00  0.00     0.210 HD
ENDBRANCH  33  34
ENDBRANCH  18  33
BRANCH  17  36
ATOM     36  O   UNL     1     112.109  -8.172 118.133  1.00  0.00    -0.392 OA
ATOM     37  H   UNL     1     112.960  -7.688 117.865  1.00  0.00     0.210 HD
ENDBRANCH  17  36
TORSDOF 4
ENDMDL
MODEL 7
REMARK VINA RESULT:    -7.871      8.394     13.055
REMARK INTER + INTRA:          -9.096
REMARK INTER:                  -9.040
REMARK INTRA:                  -0.056
REMARK UNBOUND:                -0.075
REMARK SMILES CC1(C)CC[C@]23CO[C@@]4(C=C[C@@H]5[C@@]6(C)CC[C@@H](O)[C@](C)(CO)[C@H]6CC[C@@]5(C)[C@@]4(C)C[C@H]2O)[C@H]3C1
REMARK SMILES IDX 1 1 2 2 4 3 5 4 6 5 7 6 8 7 9 8 33 9 34 10 10 11 11 12 12 13
REMARK SMILES IDX 13 14 15 15 16 16 17 17 19 18 23 19 24 20 25 21 26 22 28 23
REMARK SMILES IDX 30 24 31 25 29 26 27 27 20 28 14 29 3 30 32 31 21 33 22 34
REMARK SMILES IDX 18 36
REMARK H PARENT 32 32 22 35 18 37
REMARK Flexibility Score: inf
ROOT
ATOM      1  C   UNL     1     122.943 -22.889 120.000  1.00  0.00     0.011 C 
ATOM      2  C   UNL     1     122.779 -21.939 118.839  1.00  0.00    -0.035 C 
ATOM      3  C   UNL     1     122.373 -22.808 117.551  1.00  0.00     0.007 C 
ATOM      4  C   UNL     1     122.034 -21.917 116.327  1.00  0.00     0.013 C 
ATOM      5  C   UNL     1     121.097 -20.644 116.658  1.00  0.00     0.026 C 
ATOM      6  C   UNL     1     119.639 -21.149 116.890  1.00  0.00     0.171 C 
ATOM      7  O   UNL     1     118.961 -20.374 117.881  1.00  0.00    -0.369 OA
ATOM      8  C   UNL     1     119.819 -19.265 118.073  1.00  0.00     0.096 C 
ATOM      9  C   UNL     1     121.300 -19.973 118.039  1.00  0.00     0.037 C 
ATOM     10  C   UNL     1     121.663 -20.953 119.234  1.00  0.00     0.014 C 
ATOM     11  C   UNL     1     119.649 -18.777 119.514  1.00  0.00     0.005 C 
ATOM     12  C   UNL     1     119.594 -17.541 119.906  1.00  0.00    -0.024 C 
ATOM     13  C   UNL     1     119.354 -16.316 119.003  1.00  0.00     0.024 C 
ATOM     14  C   UNL     1     118.504 -15.113 119.685  1.00  0.00    -0.022 C 
ATOM     15  C   UNL     1     119.322 -14.693 120.974  1.00  0.00     0.010 C 
ATOM     16  C   UNL     1     119.598 -13.167 121.333  1.00  0.00     0.033 C 
ATOM     17  C   UNL     1     119.459 -12.292 120.148  1.00  0.00     0.123 C 
ATOM     18  C   UNL     1     118.186 -12.505 119.275  1.00  0.00     0.020 C 
ATOM     19  C   UNL     1     118.182 -13.935 118.606  1.00  0.00     0.006 C 
ATOM     20  C   UNL     1     118.959 -14.092 117.218  1.00  0.00     0.005 C 
ATOM     21  C   UNL     1     119.140 -15.524 116.605  1.00  0.00     0.008 C 
ATOM     22  C   UNL     1     118.901 -16.733 117.551  1.00  0.00    -0.017 C 
ATOM     23  C   UNL     1     119.492 -18.151 116.915  1.00  0.00     0.009 C 
ATOM     24  C   UNL     1     120.764 -18.053 116.030  1.00  0.00     0.043 C 
ATOM     25  C   UNL     1     121.307 -19.509 115.565  1.00  0.00     0.124 C 
ATOM     26  C   UNL     1     118.417 -18.692 115.813  1.00  0.00     0.015 C 
ATOM     27  C   UNL     1     117.371 -16.980 117.708  1.00  0.00     0.013 C 
ATOM     28  C   UNL     1     118.303 -11.289 118.162  1.00  0.00     0.017 C 
ATOM     29  C   UNL     1     117.150 -15.564 120.397  1.00  0.00     0.012 C 
ATOM     30  C   UNL     1     124.139 -21.236 118.513  1.00  0.00     0.011 C 
ENDROOT
BRANCH  25  31
ATOM     31  O   UNL     1     122.606 -19.300 115.244  1.00  0.00    -0.392 OA
ATOM     32  H   UNL     1     123.159 -19.426 116.074  1.00  0.00     0.210 HD
ENDBRANCH  25  31
BRANCH  18  33
ATOM     33  C   UNL     1     116.865 -12.211 120.111  1.00  0.00     0.165 C 
BRANCH  33  34
ATOM     34  O   UNL     1     116.601 -10.772 120.125  1.00  0.00    -0.396 OA
ATOM     35  H   UNL     1     117.275 -10.297 119.490  1.00  0.00     0.210 HD
ENDBRANCH  33  34
ENDBRANCH  18  33
BRANCH  17  36
ATOM     36  O   UNL     1     120.655 -12.325 119.366  1.00  0.00    -0.392 OA
ATOM     37  H   UNL     1     121.169 -11.458 119.485  1.00  0.00     0.210 HD
ENDBRANCH  17  36
TORSDOF 4
ENDMDL
MODEL 8
REMARK VINA RESULT:    -7.835      1.742      8.297
REMARK INTER + INTRA:          -9.055
REMARK INTER:                  -8.983
REMARK INTRA:                  -0.073
REMARK UNBOUND:                -0.075
REMARK SMILES CC1(C)CC[C@]23CO[C@@]4(C=C[C@@H]5[C@@]6(C)CC[C@@H](O)[C@](C)(CO)[C@H]6CC[C@@]5(C)[C@@]4(C)C[C@H]2O)[C@H]3C1
REMARK SMILES IDX 1 1 2 2 4 3 5 4 6 5 7 6 8 7 9 8 33 9 34 10 10 11 11 12 12 13
REMARK SMILES IDX 13 14 15 15 16 16 17 17 19 18 23 19 24 20 25 21 26 22 28 23
REMARK SMILES IDX 30 24 31 25 29 26 27 27 20 28 14 29 3 30 32 31 21 33 22 34
REMARK SMILES IDX 18 36
REMARK H PARENT 32 32 22 35 18 37
REMARK Flexibility Score: inf
ROOT
ATOM      1  C   UNL     1     114.478 -15.283 117.122  1.00  0.00     0.011 C 
ATOM      2  C   UNL     1     113.464 -14.190 117.356  1.00  0.00    -0.035 C 
ATOM      3  C   UNL     1     113.033 -14.247 118.902  1.00  0.00     0.007 C 
ATOM      4  C   UNL     1     112.099 -13.071 119.292  1.00  0.00     0.013 C 
ATOM      5  C   UNL     1     112.558 -11.628 118.728  1.00  0.00     0.026 C 
ATOM      6  C   UNL     1     113.783 -11.137 119.561  1.00  0.00     0.171 C 
ATOM      7  O   UNL     1     114.703 -10.391 118.761  1.00  0.00    -0.369 OA
ATOM      8  C   UNL     1     113.987 -10.167 117.561  1.00  0.00     0.096 C 
ATOM      9  C   UNL     1     113.241 -11.613 117.338  1.00  0.00     0.037 C 
ATOM     10  C   UNL     1     114.164 -12.862 117.009  1.00  0.00     0.014 C 
ATOM     11  C   UNL     1     114.999 -10.066 116.417  1.00  0.00     0.005 C 
ATOM     12  C   UNL     1     114.962  -9.223 115.430  1.00  0.00    -0.024 C 
ATOM     13  C   UNL     1     114.104  -7.945 115.364  1.00  0.00     0.024 C 
ATOM     14  C   UNL     1     114.783  -6.698 114.578  1.00  0.00    -0.022 C 
ATOM     15  C   UNL     1     115.088  -7.231 113.118  1.00  0.00     0.010 C 
ATOM     16  C   UNL     1     114.736  -6.376 111.822  1.00  0.00     0.033 C 
ATOM     17  C   UNL     1     113.711  -5.349 112.105  1.00  0.00     0.123 C 
ATOM     18  C   UNL     1     113.933  -4.481 113.381  1.00  0.00     0.020 C 
ATOM     19  C   UNL     1     113.862  -5.359 114.691  1.00  0.00     0.006 C 
ATOM     20  C   UNL     1     112.414  -5.615 115.318  1.00  0.00     0.005 C 
ATOM     21  C   UNL     1     112.268  -6.625 116.509  1.00  0.00     0.008 C 
ATOM     22  C   UNL     1     113.452  -7.599 116.758  1.00  0.00    -0.017 C 
ATOM     23  C   UNL     1     113.030  -8.852 117.766  1.00  0.00     0.009 C 
ATOM     24  C   UNL     1     111.565  -9.359 117.686  1.00  0.00     0.043 C 
ATOM     25  C   UNL     1     111.307 -10.653 118.631  1.00  0.00     0.124 C 
ATOM     26  C   UNL     1     113.057  -8.293 119.298  1.00  0.00     0.015 C 
ATOM     27  C   UNL     1     114.593  -6.854 117.513  1.00  0.00     0.013 C 
ATOM     28  C   UNL     1     112.702  -3.382 113.290  1.00  0.00     0.017 C 
ATOM     29  C   UNL     1     116.275  -6.354 115.023  1.00  0.00     0.012 C 
ATOM     30  C   UNL     1     112.176 -14.451 116.506  1.00  0.00     0.011 C 
ENDROOT
BRANCH  25  31
ATOM     31  O   UNL     1     110.202 -11.239 118.110  1.00  0.00    -0.392 OA
ATOM     32  H   UNL     1     109.557 -10.516 117.847  1.00  0.00     0.210 HD
ENDBRANCH  25  31
BRANCH  18  33
ATOM     33  C   UNL     1     115.280  -3.643 113.273  1.00  0.00     0.165 C 
BRANCH  33  34
ATOM     34  O   UNL     1     115.293  -2.890 112.018  1.00  0.00    -0.396 OA
ATOM     35  H   UNL     1     115.534  -3.535 111.237  1.00  0.00     0.210 HD
ENDBRANCH  33  34
ENDBRANCH  18  33
BRANCH  17  36
ATOM     36  O   UNL     1     112.406  -5.931 112.076  1.00  0.00    -0.392 OA
ATOM     37  H   UNL     1     112.424  -6.794 111.542  1.00  0.00     0.210 HD
ENDBRANCH  17  36
TORSDOF 4
ENDMDL
MODEL 9
REMARK VINA RESULT:    -5.629      2.004      8.100
REMARK INTER + INTRA:          -6.527
REMARK INTER:                  -6.440
REMARK INTRA:                  -0.087
REMARK UNBOUND:                -0.075
REMARK SMILES CC1(C)CC[C@]23CO[C@@]4(C=C[C@@H]5[C@@]6(C)CC[C@@H](O)[C@](C)(CO)[C@H]6CC[C@@]5(C)[C@@]4(C)C[C@H]2O)[C@H]3C1
REMARK SMILES IDX 1 1 2 2 4 3 5 4 6 5 7 6 8 7 9 8 33 9 34 10 10 11 11 12 12 13
REMARK SMILES IDX 13 14 15 15 16 16 17 17 19 18 23 19 24 20 25 21 26 22 28 23
REMARK SMILES IDX 30 24 31 25 29 26 27 27 20 28 14 29 3 30 32 31 21 33 22 34
REMARK SMILES IDX 18 36
REMARK H PARENT 32 32 22 35 18 37
REMARK Flexibility Score: inf
ROOT
ATOM      1  C   UNL     1     113.882 -15.369 114.247  1.00  0.00     0.011 C 
ATOM      2  C   UNL     1     113.120 -14.398 115.116  1.00  0.00    -0.035 C 
ATOM      3  C   UNL     1     113.230 -14.911 116.633  1.00  0.00     0.007 C 
ATOM      4  C   UNL     1     112.605 -13.907 117.638  1.00  0.00     0.013 C 
ATOM      5  C   UNL     1     112.989 -12.360 117.373  1.00  0.00     0.026 C 
ATOM      6  C   UNL     1     114.465 -12.133 117.825  1.00  0.00     0.171 C 
ATOM      7  O   UNL     1     115.132 -11.179 116.995  1.00  0.00    -0.369 OA
ATOM      8  C   UNL     1     114.081 -10.614 116.235  1.00  0.00     0.096 C 
ATOM      9  C   UNL     1     113.163 -11.932 115.894  1.00  0.00     0.037 C 
ATOM     10  C   UNL     1     113.792 -13.024 114.930  1.00  0.00     0.014 C 
ATOM     11  C   UNL     1     114.654 -10.174 114.885  1.00  0.00     0.005 C 
ATOM     12  C   UNL     1     114.372  -9.077 114.250  1.00  0.00    -0.024 C 
ATOM     13  C   UNL     1     113.674  -7.841 114.848  1.00  0.00     0.024 C 
ATOM     14  C   UNL     1     114.171  -6.415 114.253  1.00  0.00    -0.022 C 
ATOM     15  C   UNL     1     113.912  -6.491 112.693  1.00  0.00     0.010 C 
ATOM     16  C   UNL     1     113.233  -5.293 111.895  1.00  0.00     0.033 C 
ATOM     17  C   UNL     1     112.470  -4.399 112.794  1.00  0.00     0.123 C 
ATOM     18  C   UNL     1     113.194  -3.946 114.098  1.00  0.00     0.020 C 
ATOM     19  C   UNL     1     113.479  -5.173 115.050  1.00  0.00     0.006 C 
ATOM     20  C   UNL     1     112.309  -5.609 116.047  1.00  0.00     0.005 C 
ATOM     21  C   UNL     1     112.472  -6.926 116.882  1.00  0.00     0.008 C 
ATOM     22  C   UNL     1     113.567  -7.925 116.419  1.00  0.00    -0.017 C 
ATOM     23  C   UNL     1     113.385  -9.422 117.120  1.00  0.00     0.009 C 
ATOM     24  C   UNL     1     111.936  -9.889 117.421  1.00  0.00     0.043 C 
ATOM     25  C   UNL     1     111.883 -11.405 117.997  1.00  0.00     0.124 C 
ATOM     26  C   UNL     1     113.981  -9.340 118.636  1.00  0.00     0.015 C 
ATOM     27  C   UNL     1     114.964  -7.432 116.901  1.00  0.00     0.013 C 
ATOM     28  C   UNL     1     112.120  -2.875 114.754  1.00  0.00     0.017 C 
ATOM     29  C   UNL     1     115.752  -6.211 114.224  1.00  0.00     0.012 C 
ATOM     30  C   UNL     1     111.602 -14.401 114.735  1.00  0.00     0.011 C 
ENDROOT
BRANCH  25  31
ATOM     31  O   UNL     1     110.614 -11.816 117.755  1.00  0.00    -0.392 OA
ATOM     32  H   UNL     1     110.636 -12.469 116.992  1.00  0.00     0.210 HD
ENDBRANCH  25  31
BRANCH  18  33
ATOM     33  C   UNL     1     114.503  -3.108 113.762  1.00  0.00     0.165 C 
BRANCH  33  34
ATOM     34  O   UNL     1     115.298  -2.928 114.977  1.00  0.00    -0.396 OA
ATOM     35  H   UNL     1     115.549  -1.923 115.074  1.00  0.00     0.210 HD
ENDBRANCH  33  34
ENDBRANCH  18  33
BRANCH  17  36
ATOM     36  O   UNL     1     111.180  -4.952 113.063  1.00  0.00    -0.392 OA
ATOM     37  H   UNL     1     111.232  -5.577 113.861  1.00  0.00     0.210 HD
ENDBRANCH  17  36
TORSDOF 4
ENDMDL
