MODEL 1
REMARK VINA RESULT:    -5.013      0.000      0.000
REMARK INTER + INTRA:         -13.251
REMARK INTER:                 -10.875
REMARK INTRA:                  -2.376
REMARK UNBOUND:                -2.376
REMARK SMILES CCCCCCCCCCCCCCCCCCCCCC(=O)[O-]
REMARK SMILES IDX 12 1 11 2 10 3 9 4 8 5 7 6 6 7 5 8 4 9 3 10 2 11 1 12 13 13
REMARK SMILES IDX 14 14 15 15 16 16 17 17 18 18 19 19 20 20 21 21 22 22 23 23
REMARK SMILES IDX 24 24
REMARK H PARENT
REMARK Flexibility Score: inf
ROOT
ATOM      1  C   UNL     1     -23.128 -29.318  39.640  1.00  0.00     0.000 C 
ENDROOT
BRANCH   1   2
ATOM      2  C   UNL     1     -22.351 -28.154  38.997  1.00  0.00     0.000 C 
BRANCH   2   3
ATOM      3  C   UNL     1     -21.693 -27.185  39.997  1.00  0.00     0.000 C 
BRANCH   3   4
ATOM      4  C   UNL     1     -20.739 -26.150  39.371  1.00  0.00    -0.000 C 
BRANCH   4   5
ATOM      5  C   UNL     1     -20.771 -24.772  40.067  1.00  0.00    -0.000 C 
BRANCH   5   6
ATOM      6  C   UNL     1     -21.904 -24.663  41.101  1.00  0.00    -0.000 C 
BRANCH   6   7
ATOM      7  C   UNL     1     -22.364 -23.212  41.318  1.00  0.00    -0.000 C 
BRANCH   7   8
ATOM      8  C   UNL     1     -22.825 -22.539  40.015  1.00  0.00    -0.000 C 
BRANCH   8   9
ATOM      9  C   UNL     1     -24.321 -22.207  40.067  1.00  0.00    -0.000 C 
BRANCH   9  10
ATOM     10  C   UNL     1     -24.558 -20.832  40.711  1.00  0.00    -0.000 C 
BRANCH  10  11
ATOM     11  C   UNL     1     -25.986 -20.312  40.486  1.00  0.00    -0.003 C 
ATOM     12  C   UNL     1     -27.048 -21.388  40.704  1.00  0.00     0.004 C 
ENDBRANCH  10  11
ENDBRANCH   9  10
ENDBRANCH   8   9
ENDBRANCH   7   8
ENDBRANCH   6   7
ENDBRANCH   5   6
ENDBRANCH   4   5
ENDBRANCH   3   4
ENDBRANCH   2   3
ENDBRANCH   1   2
BRANCH   1  13
ATOM     13  C   UNL     1     -24.582 -29.410  39.148  1.00  0.00     0.000 C 
BRANCH  13  14
ATOM     14  C   UNL     1     -25.601 -29.191  40.276  1.00  0.00     0.000 C 
BRANCH  14  15
ATOM     15  C   UNL     1     -25.720 -27.712  40.682  1.00  0.00     0.000 C 
BRANCH  15  16
ATOM     16  C   UNL     1     -24.966 -27.386  41.982  1.00  0.00     0.000 C 
BRANCH  16  17
ATOM     17  C   UNL     1     -25.140 -25.924  42.448  1.00  0.00     0.000 C 
BRANCH  17  18
ATOM     18  C   UNL     1     -26.183 -25.166  41.609  1.00  0.00     0.000 C 
BRANCH  18  19
ATOM     19  C   UNL     1     -27.404 -24.728  42.434  1.00  0.00     0.000 C 
BRANCH  19  20
ATOM     20  C   UNL     1     -28.240 -25.921  42.933  1.00  0.00     0.006 C 
BRANCH  20  21
ATOM     21  C   UNL     1     -29.732 -25.579  43.039  1.00  0.00     0.053 C 
BRANCH  21  22
ATOM     22  C   UNL     1     -30.334 -25.282  41.700  1.00  0.00     0.041 C 
ATOM     23  O   UNL     1     -30.866 -24.162  41.480  1.00  0.00    -0.550 OA
ATOM     24  O   UNL     1     -30.276 -26.229  40.684  1.00  0.00    -0.550 OA
ENDBRANCH  21  22
ENDBRANCH  20  21
ENDBRANCH  19  20
ENDBRANCH  18  19
ENDBRANCH  17  18
ENDBRANCH  16  17
ENDBRANCH  15  16
ENDBRANCH  14  15
ENDBRANCH  13  14
ENDBRANCH   1  13
TORSDOF 20
ENDMDL
MODEL 2
REMARK VINA RESULT:    -5.010      1.613      3.597
REMARK INTER + INTRA:         -13.245
REMARK INTER:                 -10.174
REMARK INTRA:                  -3.071
REMARK UNBOUND:                -2.376
REMARK SMILES CCCCCCCCCCCCCCCCCCCCCC(=O)[O-]
REMARK SMILES IDX 12 1 11 2 10 3 9 4 8 5 7 6 6 7 5 8 4 9 3 10 2 11 1 12 13 13
REMARK SMILES IDX 14 14 15 15 16 16 17 17 18 18 19 19 20 20 21 21 22 22 23 23
REMARK SMILES IDX 24 24
REMARK H PARENT
REMARK Flexibility Score: inf
ROOT
ATOM      1  C   UNL     1     -21.439 -26.699  40.226  1.00  0.00     0.000 C 
ENDROOT
BRANCH   1   2
ATOM      2  C   UNL     1     -21.609 -25.169  40.167  1.00  0.00     0.000 C 
BRANCH   2   3
ATOM      3  C   UNL     1     -22.324 -24.550  41.383  1.00  0.00     0.000 C 
BRANCH   3   4
ATOM      4  C   UNL     1     -22.706 -23.065  41.229  1.00  0.00    -0.000 C 
BRANCH   4   5
ATOM      5  C   UNL     1     -23.921 -22.827  40.307  1.00  0.00    -0.000 C 
BRANCH   5   6
ATOM      6  C   UNL     1     -24.797 -21.655  40.781  1.00  0.00    -0.000 C 
BRANCH   6   7
ATOM      7  C   UNL     1     -24.074 -20.302  40.679  1.00  0.00    -0.000 C 
BRANCH   7   8
ATOM      8  C   UNL     1     -24.127 -19.711  39.262  1.00  0.00    -0.000 C 
BRANCH   8   9
ATOM      9  C   UNL     1     -22.715 -19.510  38.697  1.00  0.00    -0.000 C 
BRANCH   9  10
ATOM     10  C   UNL     1     -21.648 -19.834  39.754  1.00  0.00    -0.000 C 
BRANCH  10  11
ATOM     11  C   UNL     1     -20.607 -20.846  39.252  1.00  0.00    -0.003 C 
ATOM     12  C   UNL     1     -21.127 -21.710  38.104  1.00  0.00     0.004 C 
ENDBRANCH  10  11
ENDBRANCH   9  10
ENDBRANCH   8   9
ENDBRANCH   7   8
ENDBRANCH   6   7
ENDBRANCH   5   6
ENDBRANCH   4   5
ENDBRANCH   3   4
ENDBRANCH   2   3
ENDBRANCH   1   2
BRANCH   1  13
ATOM     13  C   UNL     1     -21.582 -27.369  38.849  1.00  0.00     0.000 C 
BRANCH  13  14
ATOM     14  C   UNL     1     -22.633 -28.489  38.845  1.00  0.00     0.000 C 
BRANCH  14  15
ATOM     15  C   UNL     1     -22.651 -29.284  40.162  1.00  0.00     0.000 C 
BRANCH  15  16
ATOM     16  C   UNL     1     -24.056 -29.387  40.780  1.00  0.00     0.000 C 
BRANCH  16  17
ATOM     17  C   UNL     1     -25.146 -28.661  39.962  1.00  0.00     0.000 C 
BRANCH  17  18
ATOM     18  C   UNL     1     -25.824 -27.538  40.764  1.00  0.00     0.000 C 
BRANCH  18  19
ATOM     19  C   UNL     1     -24.905 -26.935  41.838  1.00  0.00     0.000 C 
BRANCH  19  20
ATOM     20  C   UNL     1     -25.610 -25.862  42.687  1.00  0.00     0.006 C 
BRANCH  20  21
ATOM     21  C   UNL     1     -26.650 -25.076  41.879  1.00  0.00     0.053 C 
BRANCH  21  22
ATOM     22  C   UNL     1     -27.946 -24.939  42.618  1.00  0.00     0.041 C 
ATOM     23  O   UNL     1     -28.352 -23.803  42.979  1.00  0.00    -0.550 OA
ATOM     24  O   UNL     1     -28.723 -26.063  42.876  1.00  0.00    -0.550 OA
ENDBRANCH  21  22
ENDBRANCH  20  21
ENDBRANCH  19  20
ENDBRANCH  18  19
ENDBRANCH  17  18
ENDBRANCH  16  17
ENDBRANCH  15  16
ENDBRANCH  14  15
ENDBRANCH  13  14
ENDBRANCH   1  13
TORSDOF 20
ENDMDL
MODEL 3
REMARK VINA RESULT:    -4.977      3.806      6.733
REMARK INTER + INTRA:         -13.172
REMARK INTER:                 -10.470
REMARK INTRA:                  -2.703
REMARK UNBOUND:                -2.376
REMARK SMILES CCCCCCCCCCCCCCCCCCCCCC(=O)[O-]
REMARK SMILES IDX 12 1 11 2 10 3 9 4 8 5 7 6 6 7 5 8 4 9 3 10 2 11 1 12 13 13
REMARK SMILES IDX 14 14 15 15 16 16 17 17 18 18 19 19 20 20 21 21 22 22 23 23
REMARK SMILES IDX 24 24
REMARK H PARENT
REMARK Flexibility Score: inf
ROOT
ATOM      1  C   UNL     1     -20.528 -26.338  38.814  1.00  0.00     0.000 C 
ENDROOT
BRANCH   1   2
ATOM      2  C   UNL     1     -21.287 -27.240  37.822  1.00  0.00     0.000 C 
BRANCH   2   3
ATOM      3  C   UNL     1     -22.204 -28.292  38.475  1.00  0.00     0.000 C 
BRANCH   3   4
ATOM      4  C   UNL     1     -22.424 -28.115  39.990  1.00  0.00    -0.000 C 
BRANCH   4   5
ATOM      5  C   UNL     1     -22.872 -29.405  40.709  1.00  0.00    -0.000 C 
BRANCH   5   6
ATOM      6  C   UNL     1     -24.360 -29.376  41.095  1.00  0.00    -0.000 C 
BRANCH   6   7
ATOM      7  C   UNL     1     -25.285 -29.308  39.868  1.00  0.00    -0.000 C 
BRANCH   7   8
ATOM      8  C   UNL     1     -26.291 -28.150  39.952  1.00  0.00    -0.000 C 
BRANCH   8   9
ATOM      9  C   UNL     1     -25.870 -27.132  41.020  1.00  0.00    -0.000 C 
BRANCH   9  10
ATOM     10  C   UNL     1     -27.070 -26.706  41.879  1.00  0.00    -0.000 C 
BRANCH  10  11
ATOM     11  C   UNL     1     -26.749 -25.513  42.792  1.00  0.00    -0.003 C 
ATOM     12  C   UNL     1     -27.086 -24.168  42.150  1.00  0.00     0.004 C 
ENDBRANCH  10  11
ENDBRANCH   9  10
ENDBRANCH   8   9
ENDBRANCH   7   8
ENDBRANCH   6   7
ENDBRANCH   5   6
ENDBRANCH   4   5
ENDBRANCH   3   4
ENDBRANCH   2   3
ENDBRANCH   1   2
BRANCH   1  13
ATOM     13  C   UNL     1     -21.196 -24.966  39.004  1.00  0.00     0.000 C 
BRANCH  13  14
ATOM     14  C   UNL     1     -21.029 -24.423  40.432  1.00  0.00     0.000 C 
BRANCH  14  15
ATOM     15  C   UNL     1     -22.265 -24.685  41.309  1.00  0.00     0.000 C 
BRANCH  15  16
ATOM     16  C   UNL     1     -23.554 -24.084  40.723  1.00  0.00     0.000 C 
BRANCH  16  17
ATOM     17  C   UNL     1     -23.673 -22.559  40.925  1.00  0.00     0.000 C 
BRANCH  17  18
ATOM     18  C   UNL     1     -24.598 -21.904  39.886  1.00  0.00     0.000 C 
BRANCH  18  19
ATOM     19  C   UNL     1     -23.888 -20.822  39.055  1.00  0.00     0.000 C 
BRANCH  19  20
ATOM     20  C   UNL     1     -22.355 -20.911  39.155  1.00  0.00     0.006 C 
BRANCH  20  21
ATOM     21  C   UNL     1     -21.726 -21.511  37.891  1.00  0.00     0.053 C 
BRANCH  21  22
ATOM     22  C   UNL     1     -20.253 -21.244  37.819  1.00  0.00     0.041 C 
ATOM     23  O   UNL     1     -19.473 -21.772  38.654  1.00  0.00    -0.550 OA
ATOM     24  O   UNL     1     -19.739 -20.442  36.807  1.00  0.00    -0.550 OA
ENDBRANCH  21  22
ENDBRANCH  20  21
ENDBRANCH  19  20
ENDBRANCH  18  19
ENDBRANCH  17  18
ENDBRANCH  16  17
ENDBRANCH  15  16
ENDBRANCH  14  15
ENDBRANCH  13  14
ENDBRANCH   1  13
TORSDOF 20
ENDMDL
MODEL 4
REMARK VINA RESULT:    -4.926      2.415      6.567
REMARK INTER + INTRA:         -13.062
REMARK INTER:                 -10.805
REMARK INTRA:                  -2.256
REMARK UNBOUND:                -2.376
REMARK SMILES CCCCCCCCCCCCCCCCCCCCCC(=O)[O-]
REMARK SMILES IDX 12 1 11 2 10 3 9 4 8 5 7 6 6 7 5 8 4 9 3 10 2 11 1 12 13 13
REMARK SMILES IDX 14 14 15 15 16 16 17 17 18 18 19 19 20 20 21 21 22 22 23 23
REMARK SMILES IDX 24 24
REMARK H PARENT
REMARK Flexibility Score: inf
ROOT
ATOM      1  C   UNL     1     -23.797 -22.949  40.670  1.00  0.00     0.000 C 
ENDROOT
BRANCH   1   2
ATOM      2  C   UNL     1     -23.580 -21.424  40.672  1.00  0.00     0.000 C 
BRANCH   2   3
ATOM      3  C   UNL     1     -24.872 -20.587  40.721  1.00  0.00     0.000 C 
BRANCH   3   4
ATOM      4  C   UNL     1     -26.150 -21.334  40.294  1.00  0.00    -0.000 C 
BRANCH   4   5
ATOM      5  C   UNL     1     -27.082 -21.697  41.470  1.00  0.00    -0.000 C 
BRANCH   5   6
ATOM      6  C   UNL     1     -27.462 -23.187  41.480  1.00  0.00    -0.000 C 
BRANCH   6   7
ATOM      7  C   UNL     1     -27.908 -23.670  42.870  1.00  0.00    -0.000 C 
BRANCH   7   8
ATOM      8  C   UNL     1     -27.569 -25.148  43.117  1.00  0.00    -0.000 C 
BRANCH   8   9
ATOM      9  C   UNL     1     -28.006 -26.018  41.932  1.00  0.00    -0.000 C 
BRANCH   9  10
ATOM     10  C   UNL     1     -26.844 -26.888  41.429  1.00  0.00    -0.000 C 
BRANCH  10  11
ATOM     11  C   UNL     1     -25.493 -26.158  41.483  1.00  0.00    -0.003 C 
ATOM     12  C   UNL     1     -24.587 -26.672  42.600  1.00  0.00     0.004 C 
ENDBRANCH  10  11
ENDBRANCH   9  10
ENDBRANCH   8   9
ENDBRANCH   7   8
ENDBRANCH   6   7
ENDBRANCH   5   6
ENDBRANCH   4   5
ENDBRANCH   3   4
ENDBRANCH   2   3
ENDBRANCH   1   2
BRANCH   1  13
ATOM     13  C   UNL     1     -22.509 -23.736  40.968  1.00  0.00     0.000 C 
BRANCH  13  14
ATOM     14  C   UNL     1     -21.639 -23.939  39.718  1.00  0.00     0.000 C 
BRANCH  14  15
ATOM     15  C   UNL     1     -20.350 -24.721  40.019  1.00  0.00     0.000 C 
BRANCH  15  16
ATOM     16  C   UNL     1     -20.516 -26.239  39.839  1.00  0.00     0.000 C 
BRANCH  16  17
ATOM     17  C   UNL     1     -21.059 -26.642  38.451  1.00  0.00     0.000 C 
BRANCH  17  18
ATOM     18  C   UNL     1     -21.884 -27.939  38.503  1.00  0.00     0.000 C 
BRANCH  18  19
ATOM     19  C   UNL     1     -22.693 -28.078  39.802  1.00  0.00     0.000 C 
BRANCH  19  20
ATOM     20  C   UNL     1     -23.177 -29.518  40.047  1.00  0.00     0.006 C 
BRANCH  20  21
ATOM     21  C   UNL     1     -24.707 -29.612  40.118  1.00  0.00     0.053 C 
BRANCH  21  22
ATOM     22  C   UNL     1     -25.304 -30.020  38.807  1.00  0.00     0.041 C 
ATOM     23  O   UNL     1     -26.337 -30.740  38.779  1.00  0.00    -0.550 OA
ATOM     24  O   UNL     1     -24.741 -29.577  37.616  1.00  0.00    -0.550 OA
ENDBRANCH  21  22
ENDBRANCH  20  21
ENDBRANCH  19  20
ENDBRANCH  18  19
ENDBRANCH  17  18
ENDBRANCH  16  17
ENDBRANCH  15  16
ENDBRANCH  14  15
ENDBRANCH  13  14
ENDBRANCH   1  13
TORSDOF 20
ENDMDL
MODEL 5
REMARK VINA RESULT:    -4.924      1.393      2.778
REMARK INTER + INTRA:         -13.057
REMARK INTER:                 -10.506
REMARK INTRA:                  -2.551
REMARK UNBOUND:                -2.376
REMARK SMILES CCCCCCCCCCCCCCCCCCCCCC(=O)[O-]
REMARK SMILES IDX 12 1 11 2 10 3 9 4 8 5 7 6 6 7 5 8 4 9 3 10 2 11 1 12 13 13
REMARK SMILES IDX 14 14 15 15 16 16 17 17 18 18 19 19 20 20 21 21 22 22 23 23
REMARK SMILES IDX 24 24
REMARK H PARENT
REMARK Flexibility Score: inf
ROOT
ATOM      1  C   UNL     1     -20.980 -26.805  38.159  1.00  0.00     0.000 C 
ENDROOT
BRANCH   1   2
ATOM      2  C   UNL     1     -20.312 -26.380  39.480  1.00  0.00     0.000 C 
BRANCH   2   3
ATOM      3  C   UNL     1     -20.025 -24.872  39.604  1.00  0.00     0.000 C 
BRANCH   3   4
ATOM      4  C   UNL     1     -21.274 -23.973  39.678  1.00  0.00    -0.000 C 
BRANCH   4   5
ATOM      5  C   UNL     1     -22.300 -24.420  40.741  1.00  0.00    -0.000 C 
BRANCH   5   6
ATOM      6  C   UNL     1     -23.125 -23.245  41.293  1.00  0.00    -0.000 C 
BRANCH   6   7
ATOM      7  C   UNL     1     -24.052 -22.628  40.233  1.00  0.00    -0.000 C 
BRANCH   7   8
ATOM      8  C   UNL     1     -24.599 -21.256  40.656  1.00  0.00    -0.000 C 
BRANCH   8   9
ATOM      9  C   UNL     1     -23.588 -20.143  40.353  1.00  0.00    -0.000 C 
BRANCH   9  10
ATOM     10  C   UNL     1     -22.956 -20.336  38.966  1.00  0.00    -0.000 C 
BRANCH  10  11
ATOM     11  C   UNL     1     -21.421 -20.356  39.014  1.00  0.00    -0.003 C 
ATOM     12  C   UNL     1     -20.867 -20.021  40.398  1.00  0.00     0.004 C 
ENDBRANCH  10  11
ENDBRANCH   9  10
ENDBRANCH   8   9
ENDBRANCH   7   8
ENDBRANCH   6   7
ENDBRANCH   5   6
ENDBRANCH   4   5
ENDBRANCH   3   4
ENDBRANCH   2   3
ENDBRANCH   1   2
BRANCH   1  13
ATOM     13  C   UNL     1     -21.937 -27.997  38.330  1.00  0.00     0.000 C 
BRANCH  13  14
ATOM     14  C   UNL     1     -22.458 -28.132  39.768  1.00  0.00     0.000 C 
BRANCH  14  15
ATOM     15  C   UNL     1     -23.465 -29.285  39.924  1.00  0.00     0.000 C 
BRANCH  15  16
ATOM     16  C   UNL     1     -24.354 -29.138  41.170  1.00  0.00     0.000 C 
BRANCH  16  17
ATOM     17  C   UNL     1     -24.515 -27.679  41.647  1.00  0.00     0.000 C 
BRANCH  17  18
ATOM     18  C   UNL     1     -25.729 -26.987  41.004  1.00  0.00     0.000 C 
BRANCH  18  19
ATOM     19  C   UNL     1     -25.938 -25.553  41.517  1.00  0.00     0.000 C 
BRANCH  19  20
ATOM     20  C   UNL     1     -26.869 -25.492  42.740  1.00  0.00     0.006 C 
BRANCH  20  21
ATOM     21  C   UNL     1     -28.158 -26.297  42.529  1.00  0.00     0.053 C 
BRANCH  21  22
ATOM     22  C   UNL     1     -29.380 -25.438  42.642  1.00  0.00     0.041 C 
ATOM     23  O   UNL     1     -29.362 -24.253  42.216  1.00  0.00    -0.550 OA
ATOM     24  O   UNL     1     -30.549 -25.958  43.184  1.00  0.00    -0.550 OA
ENDBRANCH  21  22
ENDBRANCH  20  21
ENDBRANCH  19  20
ENDBRANCH  18  19
ENDBRANCH  17  18
ENDBRANCH  16  17
ENDBRANCH  15  16
ENDBRANCH  14  15
ENDBRANCH  13  14
ENDBRANCH   1  13
TORSDOF 20
ENDMDL
MODEL 6
REMARK VINA RESULT:    -4.897      2.379      6.269
REMARK INTER + INTRA:         -13.000
REMARK INTER:                 -10.447
REMARK INTRA:                  -2.553
REMARK UNBOUND:                -2.376
REMARK SMILES CCCCCCCCCCCCCCCCCCCCCC(=O)[O-]
REMARK SMILES IDX 12 1 11 2 10 3 9 4 8 5 7 6 6 7 5 8 4 9 3 10 2 11 1 12 13 13
REMARK SMILES IDX 14 14 15 15 16 16 17 17 18 18 19 19 20 20 21 21 22 22 23 23
REMARK SMILES IDX 24 24
REMARK H PARENT
REMARK Flexibility Score: inf
ROOT
ATOM      1  C   UNL     1     -23.200 -22.085  40.379  1.00  0.00     0.000 C 
ENDROOT
BRANCH   1   2
ATOM      2  C   UNL     1     -24.704 -22.069  40.713  1.00  0.00     0.000 C 
BRANCH   2   3
ATOM      3  C   UNL     1     -25.313 -23.449  41.020  1.00  0.00     0.000 C 
BRANCH   3   4
ATOM      4  C   UNL     1     -24.289 -24.568  41.293  1.00  0.00    -0.000 C 
BRANCH   4   5
ATOM      5  C   UNL     1     -24.884 -25.791  42.024  1.00  0.00    -0.000 C 
BRANCH   5   6
ATOM      6  C   UNL     1     -25.869 -26.579  41.145  1.00  0.00    -0.000 C 
BRANCH   6   7
ATOM      7  C   UNL     1     -27.266 -26.686  41.779  1.00  0.00    -0.000 C 
BRANCH   7   8
ATOM      8  C   UNL     1     -27.451 -25.726  42.964  1.00  0.00    -0.000 C 
BRANCH   8   9
ATOM      9  C   UNL     1     -28.635 -24.780  42.726  1.00  0.00    -0.000 C 
BRANCH   9  10
ATOM     10  C   UNL     1     -28.258 -23.331  43.068  1.00  0.00    -0.000 C 
BRANCH  10  11
ATOM     11  C   UNL     1     -29.096 -22.303  42.292  1.00  0.00    -0.003 C 
ATOM     12  C   UNL     1     -30.600 -22.520  42.457  1.00  0.00     0.004 C 
ENDBRANCH  10  11
ENDBRANCH   9  10
ENDBRANCH   8   9
ENDBRANCH   7   8
ENDBRANCH   6   7
ENDBRANCH   5   6
ENDBRANCH   4   5
ENDBRANCH   3   4
ENDBRANCH   2   3
ENDBRANCH   1   2
BRANCH   1  13
ATOM     13  C   UNL     1     -22.925 -22.115  38.866  1.00  0.00     0.000 C 
BRANCH  13  14
ATOM     14  C   UNL     1     -21.754 -23.038  38.499  1.00  0.00     0.000 C 
BRANCH  14  15
ATOM     15  C   UNL     1     -20.859 -23.364  39.706  1.00  0.00     0.000 C 
BRANCH  15  16
ATOM     16  C   UNL     1     -20.254 -24.776  39.640  1.00  0.00     0.000 C 
BRANCH  16  17
ATOM     17  C   UNL     1     -21.311 -25.898  39.555  1.00  0.00     0.000 C 
BRANCH  17  18
ATOM     18  C   UNL     1     -21.097 -26.809  38.334  1.00  0.00     0.000 C 
BRANCH  18  19
ATOM     19  C   UNL     1     -21.862 -28.138  38.441  1.00  0.00     0.000 C 
BRANCH  19  20
ATOM     20  C   UNL     1     -22.840 -28.163  39.629  1.00  0.00     0.006 C 
BRANCH  20  21
ATOM     21  C   UNL     1     -23.409 -29.565  39.881  1.00  0.00     0.053 C 
BRANCH  21  22
ATOM     22  C   UNL     1     -24.758 -29.743  39.253  1.00  0.00     0.041 C 
ATOM     23  O   UNL     1     -25.777 -29.897  39.977  1.00  0.00    -0.550 OA
ATOM     24  O   UNL     1     -24.893 -29.701  37.871  1.00  0.00    -0.550 OA
ENDBRANCH  21  22
ENDBRANCH  20  21
ENDBRANCH  19  20
ENDBRANCH  18  19
ENDBRANCH  17  18
ENDBRANCH  16  17
ENDBRANCH  15  16
ENDBRANCH  14  15
ENDBRANCH  13  14
ENDBRANCH   1  13
TORSDOF 20
ENDMDL
MODEL 7
REMARK VINA RESULT:    -4.880      6.118     10.041
REMARK INTER + INTRA:         -12.963
REMARK INTER:                 -11.179
REMARK INTRA:                  -1.784
REMARK UNBOUND:                -2.376
REMARK SMILES CCCCCCCCCCCCCCCCCCCCCC(=O)[O-]
REMARK SMILES IDX 12 1 11 2 10 3 9 4 8 5 7 6 6 7 5 8 4 9 3 10 2 11 1 12 13 13
REMARK SMILES IDX 14 14 15 15 16 16 17 17 18 18 19 19 20 20 21 21 22 22 23 23
REMARK SMILES IDX 24 24
REMARK H PARENT
REMARK Flexibility Score: inf
ROOT
ATOM      1  C   UNL     1     -20.766 -25.855  38.856  1.00  0.00     0.000 C 
ENDROOT
BRANCH   1   2
ATOM      2  C   UNL     1     -21.648 -27.033  39.312  1.00  0.00     0.000 C 
BRANCH   2   3
ATOM      3  C   UNL     1     -21.885 -28.116  38.242  1.00  0.00     0.000 C 
BRANCH   3   4
ATOM      4  C   UNL     1     -23.203 -28.899  38.388  1.00  0.00    -0.000 C 
BRANCH   4   5
ATOM      5  C   UNL     1     -23.527 -29.308  39.841  1.00  0.00    -0.000 C 
BRANCH   5   6
ATOM      6  C   UNL     1     -25.038 -29.454  40.087  1.00  0.00    -0.000 C 
BRANCH   6   7
ATOM      7  C   UNL     1     -25.681 -28.152  40.593  1.00  0.00    -0.000 C 
BRANCH   7   8
ATOM      8  C   UNL     1     -24.764 -27.377  41.551  1.00  0.00    -0.000 C 
BRANCH   8   9
ATOM      9  C   UNL     1     -25.487 -26.158  42.138  1.00  0.00    -0.000 C 
BRANCH   9  10
ATOM     10  C   UNL     1     -25.070 -24.869  41.414  1.00  0.00    -0.000 C 
BRANCH  10  11
ATOM     11  C   UNL     1     -23.546 -24.680  41.373  1.00  0.00    -0.003 C 
ATOM     12  C   UNL     1     -23.121 -23.472  40.540  1.00  0.00     0.004 C 
ENDBRANCH  10  11
ENDBRANCH   9  10
ENDBRANCH   8   9
ENDBRANCH   7   8
ENDBRANCH   6   7
ENDBRANCH   5   6
ENDBRANCH   4   5
ENDBRANCH   3   4
ENDBRANCH   2   3
ENDBRANCH   1   2
BRANCH   1  13
ATOM     13  C   UNL     1     -19.626 -25.547  39.842  1.00  0.00     0.000 C 
BRANCH  13  14
ATOM     14  C   UNL     1     -18.237 -25.789  39.231  1.00  0.00     0.000 C 
BRANCH  14  15
ATOM     15  C   UNL     1     -18.300 -26.615  37.935  1.00  0.00     0.000 C 
BRANCH  15  16
ATOM     16  C   UNL     1     -16.910 -27.012  37.410  1.00  0.00     0.000 C 
BRANCH  16  17
ATOM     17  C   UNL     1     -16.244 -25.924  36.540  1.00  0.00     0.000 C 
BRANCH  17  18
ATOM     18  C   UNL     1     -15.444 -26.523  35.371  1.00  0.00     0.000 C 
BRANCH  18  19
ATOM     19  C   UNL     1     -15.873 -27.960  35.030  1.00  0.00     0.000 C 
BRANCH  19  20
ATOM     20  C   UNL     1     -14.684 -28.936  34.980  1.00  0.00     0.006 C 
BRANCH  20  21
ATOM     21  C   UNL     1     -15.122 -30.364  34.629  1.00  0.00     0.053 C 
BRANCH  21  22
ATOM     22  C   UNL     1     -15.363 -31.193  35.853  1.00  0.00     0.041 C 
ATOM     23  O   UNL     1     -14.862 -32.344  35.946  1.00  0.00    -0.550 OA
ATOM     24  O   UNL     1     -16.111 -30.679  36.905  1.00  0.00    -0.550 OA
ENDBRANCH  21  22
ENDBRANCH  20  21
ENDBRANCH  19  20
ENDBRANCH  18  19
ENDBRANCH  17  18
ENDBRANCH  16  17
ENDBRANCH  15  16
ENDBRANCH  14  15
ENDBRANCH  13  14
ENDBRANCH   1  13
TORSDOF 20
ENDMDL
MODEL 8
REMARK VINA RESULT:    -4.867      2.798      6.080
REMARK INTER + INTRA:         -12.934
REMARK INTER:                 -10.732
REMARK INTRA:                  -2.202
REMARK UNBOUND:                -2.376
REMARK SMILES CCCCCCCCCCCCCCCCCCCCCC(=O)[O-]
REMARK SMILES IDX 12 1 11 2 10 3 9 4 8 5 7 6 6 7 5 8 4 9 3 10 2 11 1 12 13 13
REMARK SMILES IDX 14 14 15 15 16 16 17 17 18 18 19 19 20 20 21 21 22 22 23 23
REMARK SMILES IDX 24 24
REMARK H PARENT
REMARK Flexibility Score: inf
ROOT
ATOM      1  C   UNL     1     -21.073 -26.538  39.847  1.00  0.00     0.000 C 
ENDROOT
BRANCH   1   2
ATOM      2  C   UNL     1     -21.144 -27.061  38.399  1.00  0.00     0.000 C 
BRANCH   2   3
ATOM      3  C   UNL     1     -22.213 -28.142  38.154  1.00  0.00     0.000 C 
BRANCH   3   4
ATOM      4  C   UNL     1     -22.700 -28.876  39.417  1.00  0.00    -0.000 C 
BRANCH   4   5
ATOM      5  C   UNL     1     -24.147 -29.405  39.312  1.00  0.00    -0.000 C 
BRANCH   5   6
ATOM      6  C   UNL     1     -25.133 -28.594  40.169  1.00  0.00    -0.000 C 
BRANCH   6   7
ATOM      7  C   UNL     1     -24.478 -28.024  41.438  1.00  0.00    -0.000 C 
BRANCH   7   8
ATOM      8  C   UNL     1     -24.467 -26.487  41.456  1.00  0.00    -0.000 C 
BRANCH   8   9
ATOM      9  C   UNL     1     -25.332 -25.945  42.601  1.00  0.00    -0.000 C 
BRANCH   9  10
ATOM     10  C   UNL     1     -26.597 -25.262  42.059  1.00  0.00    -0.000 C 
BRANCH  10  11
ATOM     11  C   UNL     1     -27.839 -25.553  42.915  1.00  0.00    -0.003 C 
ATOM     12  C   UNL     1     -28.984 -26.164  42.109  1.00  0.00     0.004 C 
ENDBRANCH  10  11
ENDBRANCH   9  10
ENDBRANCH   8   9
ENDBRANCH   7   8
ENDBRANCH   6   7
ENDBRANCH   5   6
ENDBRANCH   4   5
ENDBRANCH   3   4
ENDBRANCH   2   3
ENDBRANCH   1   2
BRANCH   1  13
ATOM     13  C   UNL     1     -20.282 -25.225  39.969  1.00  0.00     0.000 C 
BRANCH  13  14
ATOM     14  C   UNL     1     -21.188 -23.985  39.913  1.00  0.00     0.000 C 
BRANCH  14  15
ATOM     15  C   UNL     1     -22.103 -23.869  41.143  1.00  0.00     0.000 C 
BRANCH  15  16
ATOM     16  C   UNL     1     -22.695 -22.460  41.317  1.00  0.00     0.000 C 
BRANCH  16  17
ATOM     17  C   UNL     1     -24.118 -22.311  40.737  1.00  0.00     0.000 C 
BRANCH  17  18
ATOM     18  C   UNL     1     -24.106 -21.755  39.303  1.00  0.00     0.000 C 
BRANCH  18  19
ATOM     19  C   UNL     1     -23.682 -20.278  39.241  1.00  0.00     0.000 C 
BRANCH  19  20
ATOM     20  C   UNL     1     -24.761 -19.329  39.791  1.00  0.00     0.006 C 
BRANCH  20  21
ATOM     21  C   UNL     1     -24.173 -18.259  40.720  1.00  0.00     0.053 C 
BRANCH  21  22
ATOM     22  C   UNL     1     -24.171 -18.700  42.151  1.00  0.00     0.041 C 
ATOM     23  O   UNL     1     -23.162 -19.280  42.633  1.00  0.00    -0.550 OA
ATOM     24  O   UNL     1     -25.269 -18.439  42.963  1.00  0.00    -0.550 OA
ENDBRANCH  21  22
ENDBRANCH  20  21
ENDBRANCH  19  20
ENDBRANCH  18  19
ENDBRANCH  17  18
ENDBRANCH  16  17
ENDBRANCH  15  16
ENDBRANCH  14  15
ENDBRANCH  13  14
ENDBRANCH   1  13
TORSDOF 20
ENDMDL
MODEL 9
REMARK VINA RESULT:    -4.851      1.517      4.900
REMARK INTER + INTRA:         -12.900
REMARK INTER:                 -10.262
REMARK INTRA:                  -2.638
REMARK UNBOUND:                -2.376
REMARK SMILES CCCCCCCCCCCCCCCCCCCCCC(=O)[O-]
REMARK SMILES IDX 12 1 11 2 10 3 9 4 8 5 7 6 6 7 5 8 4 9 3 10 2 11 1 12 13 13
REMARK SMILES IDX 14 14 15 15 16 16 17 17 18 18 19 19 20 20 21 21 22 22 23 23
REMARK SMILES IDX 24 24
REMARK H PARENT
REMARK Flexibility Score: inf
ROOT
ATOM      1  C   UNL     1     -20.753 -26.480  38.710  1.00  0.00     0.000 C 
ENDROOT
BRANCH   1   2
ATOM      2  C   UNL     1     -21.483 -27.433  37.744  1.00  0.00     0.000 C 
BRANCH   2   3
ATOM      3  C   UNL     1     -22.353 -28.505  38.427  1.00  0.00     0.000 C 
BRANCH   3   4
ATOM      4  C   UNL     1     -23.668 -28.839  37.698  1.00  0.00    -0.000 C 
BRANCH   4   5
ATOM      5  C   UNL     1     -24.795 -29.323  38.636  1.00  0.00    -0.000 C 
BRANCH   5   6
ATOM      6  C   UNL     1     -24.474 -29.070  40.118  1.00  0.00    -0.000 C 
BRANCH   6   7
ATOM      7  C   UNL     1     -25.227 -27.855  40.685  1.00  0.00    -0.000 C 
BRANCH   7   8
ATOM      8  C   UNL     1     -24.616 -27.344  41.999  1.00  0.00    -0.000 C 
BRANCH   8   9
ATOM      9  C   UNL     1     -24.706 -25.815  42.089  1.00  0.00    -0.000 C 
BRANCH   9  10
ATOM     10  C   UNL     1     -26.032 -25.306  41.502  1.00  0.00    -0.000 C 
BRANCH  10  11
ATOM     11  C   UNL     1     -27.126 -25.143  42.568  1.00  0.00    -0.003 C 
ATOM     12  C   UNL     1     -28.195 -26.232  42.491  1.00  0.00     0.004 C 
ENDBRANCH  10  11
ENDBRANCH   9  10
ENDBRANCH   8   9
ENDBRANCH   7   8
ENDBRANCH   6   7
ENDBRANCH   5   6
ENDBRANCH   4   5
ENDBRANCH   3   4
ENDBRANCH   2   3
ENDBRANCH   1   2
BRANCH   1  13
ATOM     13  C   UNL     1     -21.372 -26.468  40.118  1.00  0.00     0.000 C 
BRANCH  13  14
ATOM     14  C   UNL     1     -21.343 -25.073  40.761  1.00  0.00     0.000 C 
BRANCH  14  15
ATOM     15  C   UNL     1     -22.241 -24.066  40.024  1.00  0.00     0.000 C 
BRANCH  15  16
ATOM     16  C   UNL     1     -22.230 -22.670  40.668  1.00  0.00     0.000 C 
BRANCH  16  17
ATOM     17  C   UNL     1     -23.638 -22.130  41.000  1.00  0.00     0.000 C 
BRANCH  17  18
ATOM     18  C   UNL     1     -24.197 -21.236  39.881  1.00  0.00     0.000 C 
BRANCH  18  19
ATOM     19  C   UNL     1     -25.693 -21.474  39.620  1.00  0.00     0.000 C 
BRANCH  19  20
ATOM     20  C   UNL     1     -26.473 -21.800  40.906  1.00  0.00     0.006 C 
BRANCH  20  21
ATOM     21  C   UNL     1     -27.169 -20.564  41.491  1.00  0.00     0.053 C 
BRANCH  21  22
ATOM     22  C   UNL     1     -28.661 -20.669  41.404  1.00  0.00     0.041 C 
ATOM     23  O   UNL     1     -29.203 -21.771  41.124  1.00  0.00    -0.550 OA
ATOM     24  O   UNL     1     -29.454 -19.558  41.667  1.00  0.00    -0.550 OA
ENDBRANCH  21  22
ENDBRANCH  20  21
ENDBRANCH  19  20
ENDBRANCH  18  19
ENDBRANCH  17  18
ENDBRANCH  16  17
ENDBRANCH  15  16
ENDBRANCH  14  15
ENDBRANCH  13  14
ENDBRANCH   1  13
TORSDOF 20
ENDMDL
