MODEL 1
REMARK VINA RESULT:    -3.428      0.000      0.000
REMARK INTER + INTRA:          -4.085
REMARK INTER:                  -4.029
REMARK INTRA:                  -0.056
REMARK UNBOUND:                -0.056
REMARK SMILES CCCCC(=O)[O-]
REMARK SMILES IDX 4 1 5 2 6 3 7 4 3 5 2 6 1 7
REMARK H PARENT
REMARK Flexibility Score: inf
ROOT
ATOM      1  C   UNL     1      -7.812  15.380 -12.083  1.00  0.00     0.053 C 
ENDROOT
BRANCH   1   2
ATOM      2  C   UNL     1      -8.684  16.588 -12.230  1.00  0.00     0.041 C 
ATOM      3  O   UNL     1      -8.340  17.685 -11.716  1.00  0.00    -0.550 OA
ATOM      4  O   UNL     1      -9.863  16.510 -12.959  1.00  0.00    -0.550 OA
ENDBRANCH   1   2
BRANCH   1   5
ATOM      5  C   UNL     1      -7.276  14.891 -13.438  1.00  0.00     0.006 C 
BRANCH   5   6
ATOM      6  C   UNL     1      -7.482  13.387 -13.691  1.00  0.00    -0.003 C 
ATOM      7  C   UNL     1      -8.540  13.104 -14.757  1.00  0.00     0.004 C 
ENDBRANCH   5   6
ENDBRANCH   1   5
TORSDOF 3
ENDMDL
MODEL 2
REMARK VINA RESULT:    -3.425      0.156      1.233
REMARK INTER + INTRA:          -4.082
REMARK INTER:                  -4.037
REMARK INTRA:                  -0.045
REMARK UNBOUND:                -0.056
REMARK SMILES CCCCC(=O)[O-]
REMARK SMILES IDX 4 1 5 2 6 3 7 4 3 5 2 6 1 7
REMARK H PARENT
REMARK Flexibility Score: inf
ROOT
ATOM      1  C   UNL     1      -7.897  15.336 -12.230  1.00  0.00     0.053 C 
ENDROOT
BRANCH   1   2
ATOM      2  C   UNL     1      -8.755  16.559 -12.330  1.00  0.00     0.041 C 
ATOM      3  O   UNL     1      -9.873  16.505 -12.909  1.00  0.00    -0.550 OA
ATOM      4  O   UNL     1      -8.334  17.752 -11.758  1.00  0.00    -0.550 OA
ENDBRANCH   1   2
BRANCH   1   5
ATOM      5  C   UNL     1      -7.420  14.855 -13.609  1.00  0.00     0.006 C 
BRANCH   5   6
ATOM      6  C   UNL     1      -7.565  13.339 -13.833  1.00  0.00    -0.003 C 
ATOM      7  C   UNL     1      -8.629  12.991 -14.873  1.00  0.00     0.004 C 
ENDBRANCH   5   6
ENDBRANCH   1   5
TORSDOF 3
ENDMDL
MODEL 3
REMARK VINA RESULT:    -3.269      1.934      2.494
REMARK INTER + INTRA:          -3.898
REMARK INTER:                  -3.768
REMARK INTRA:                  -0.130
REMARK UNBOUND:                -0.056
REMARK SMILES CCCCC(=O)[O-]
REMARK SMILES IDX 4 1 5 2 6 3 7 4 3 5 2 6 1 7
REMARK H PARENT
REMARK Flexibility Score: inf
ROOT
ATOM      1  C   UNL     1      -8.100  14.612 -13.492  1.00  0.00     0.053 C 
ENDROOT
BRANCH   1   2
ATOM      2  C   UNL     1      -7.433  15.144 -12.262  1.00  0.00     0.041 C 
ATOM      3  O   UNL     1      -7.057  16.345 -12.212  1.00  0.00    -0.550 OA
ATOM      4  O   UNL     1      -7.254  14.322 -11.157  1.00  0.00    -0.550 OA
ENDBRANCH   1   2
BRANCH   1   5
ATOM      5  C   UNL     1      -7.584  13.214 -13.866  1.00  0.00     0.006 C 
BRANCH   5   6
ATOM      6  C   UNL     1      -6.162  13.203 -14.456  1.00  0.00    -0.003 C 
ATOM      7  C   UNL     1      -5.161  12.456 -13.577  1.00  0.00     0.004 C 
ENDBRANCH   5   6
ENDBRANCH   1   5
TORSDOF 3
ENDMDL
MODEL 4
REMARK VINA RESULT:    -3.092      2.449      3.913
REMARK INTER + INTRA:          -3.690
REMARK INTER:                  -3.629
REMARK INTRA:                  -0.061
REMARK UNBOUND:                -0.056
REMARK SMILES CCCCC(=O)[O-]
REMARK SMILES IDX 4 1 5 2 6 3 7 4 3 5 2 6 1 7
REMARK H PARENT
REMARK Flexibility Score: inf
ROOT
ATOM      1  C   UNL     1      -8.703  16.255 -12.101  1.00  0.00     0.053 C 
ENDROOT
BRANCH   1   2
ATOM      2  C   UNL     1      -7.539  15.317 -12.162  1.00  0.00     0.041 C 
ATOM      3  O   UNL     1      -6.788  15.301 -13.173  1.00  0.00    -0.550 OA
ATOM      4  O   UNL     1      -7.263  14.480 -11.088  1.00  0.00    -0.550 OA
ENDBRANCH   1   2
BRANCH   1   5
ATOM      5  C   UNL     1      -8.711  17.238 -13.282  1.00  0.00     0.006 C 
BRANCH   5   6
ATOM      6  C   UNL     1      -8.356  18.686 -12.898  1.00  0.00    -0.003 C 
ATOM      7  C   UNL     1      -7.415  19.353 -13.901  1.00  0.00     0.004 C 
ENDBRANCH   5   6
ENDBRANCH   1   5
TORSDOF 3
ENDMDL
MODEL 5
REMARK VINA RESULT:    -3.038      1.245      1.978
REMARK INTER + INTRA:          -3.627
REMARK INTER:                  -3.525
REMARK INTRA:                  -0.102
REMARK UNBOUND:                -0.056
REMARK SMILES CCCCC(=O)[O-]
REMARK SMILES IDX 4 1 5 2 6 3 7 4 3 5 2 6 1 7
REMARK H PARENT
REMARK Flexibility Score: inf
ROOT
ATOM      1  C   UNL     1      -7.410  15.408 -13.827  1.00  0.00     0.053 C 
ENDROOT
BRANCH   1   2
ATOM      2  C   UNL     1      -7.965  15.884 -12.522  1.00  0.00     0.041 C 
ATOM      3  O   UNL     1      -9.135  16.347 -12.461  1.00  0.00    -0.550 OA
ATOM      4  O   UNL     1      -7.203  15.789 -11.365  1.00  0.00    -0.550 OA
ENDBRANCH   1   2
BRANCH   1   5
ATOM      5  C   UNL     1      -8.148  14.165 -14.346  1.00  0.00     0.006 C 
BRANCH   5   6
ATOM      6  C   UNL     1      -7.548  12.830 -13.867  1.00  0.00    -0.003 C 
ATOM      7  C   UNL     1      -6.034  12.896 -13.672  1.00  0.00     0.004 C 
ENDBRANCH   5   6
ENDBRANCH   1   5
TORSDOF 3
ENDMDL
MODEL 6
REMARK VINA RESULT:    -2.960      1.407      1.715
REMARK INTER + INTRA:          -3.535
REMARK INTER:                  -3.423
REMARK INTRA:                  -0.112
REMARK UNBOUND:                -0.056
REMARK SMILES CCCCC(=O)[O-]
REMARK SMILES IDX 4 1 5 2 6 3 7 4 3 5 2 6 1 7
REMARK H PARENT
REMARK Flexibility Score: inf
ROOT
ATOM      1  C   UNL     1      -8.887  16.523 -12.622  1.00  0.00     0.053 C 
ENDROOT
BRANCH   1   2
ATOM      2  C   UNL     1      -8.222  17.506 -13.534  1.00  0.00     0.041 C 
ATOM      3  O   UNL     1      -7.429  18.367 -13.070  1.00  0.00    -0.550 OA
ATOM      4  O   UNL     1      -8.454  17.453 -14.902  1.00  0.00    -0.550 OA
ENDBRANCH   1   2
BRANCH   1   5
ATOM      5  C   UNL     1      -7.913  15.439 -12.138  1.00  0.00     0.006 C 
BRANCH   5   6
ATOM      6  C   UNL     1      -7.238  14.646 -13.273  1.00  0.00    -0.003 C 
ATOM      7  C   UNL     1      -8.237  13.876 -14.135  1.00  0.00     0.004 C 
ENDBRANCH   5   6
ENDBRANCH   1   5
TORSDOF 3
ENDMDL
MODEL 7
REMARK VINA RESULT:    -2.902      2.993      4.657
REMARK INTER + INTRA:          -3.466
REMARK INTER:                  -3.440
REMARK INTRA:                  -0.027
REMARK UNBOUND:                -0.056
REMARK SMILES CCCCC(=O)[O-]
REMARK SMILES IDX 4 1 5 2 6 3 7 4 3 5 2 6 1 7
REMARK H PARENT
REMARK Flexibility Score: inf
ROOT
ATOM      1  C   UNL     1      -8.395  18.676 -12.794  1.00  0.00     0.053 C 
ENDROOT
BRANCH   1   2
ATOM      2  C   UNL     1      -8.557  17.206 -12.564  1.00  0.00     0.041 C 
ATOM      3  O   UNL     1      -7.635  16.543 -12.020  1.00  0.00    -0.550 OA
ATOM      4  O   UNL     1      -9.740  16.572 -12.922  1.00  0.00    -0.550 OA
ENDBRANCH   1   2
BRANCH   1   5
ATOM      5  C   UNL     1      -7.444  18.973 -13.963  1.00  0.00     0.006 C 
BRANCH   5   6
ATOM      6  C   UNL     1      -6.985  20.440 -14.045  1.00  0.00    -0.003 C 
ATOM      7  C   UNL     1      -6.539  20.999 -12.694  1.00  0.00     0.004 C 
ENDBRANCH   5   6
ENDBRANCH   1   5
TORSDOF 3
ENDMDL
MODEL 8
REMARK VINA RESULT:    -2.877      2.334      3.986
REMARK INTER + INTRA:          -3.437
REMARK INTER:                  -3.333
REMARK INTRA:                  -0.104
REMARK UNBOUND:                -0.056
REMARK SMILES CCCCC(=O)[O-]
REMARK SMILES IDX 4 1 5 2 6 3 7 4 3 5 2 6 1 7
REMARK H PARENT
REMARK Flexibility Score: inf
ROOT
ATOM      1  C   UNL     1      -9.162  17.060 -12.952  1.00  0.00     0.053 C 
ENDROOT
BRANCH   1   2
ATOM      2  C   UNL     1      -8.287  15.856 -12.797  1.00  0.00     0.041 C 
ATOM      3  O   UNL     1      -8.498  14.825 -13.489  1.00  0.00    -0.550 OA
ATOM      4  O   UNL     1      -7.218  15.882 -11.910  1.00  0.00    -0.550 OA
ENDBRANCH   1   2
BRANCH   1   5
ATOM      5  C   UNL     1      -8.421  18.358 -12.596  1.00  0.00     0.006 C 
BRANCH   5   6
ATOM      6  C   UNL     1      -7.883  19.131 -13.814  1.00  0.00    -0.003 C 
ATOM      7  C   UNL     1      -6.414  18.831 -14.105  1.00  0.00     0.004 C 
ENDBRANCH   5   6
ENDBRANCH   1   5
TORSDOF 3
ENDMDL
MODEL 9
REMARK VINA RESULT:    -2.821      2.553      3.642
REMARK INTER + INTRA:          -3.372
REMARK INTER:                  -3.285
REMARK INTRA:                  -0.087
REMARK UNBOUND:                -0.056
REMARK SMILES CCCCC(=O)[O-]
REMARK SMILES IDX 4 1 5 2 6 3 7 4 3 5 2 6 1 7
REMARK H PARENT
REMARK Flexibility Score: inf
ROOT
ATOM      1  C   UNL     1      -7.597  14.843 -13.751  1.00  0.00     0.053 C 
ENDROOT
BRANCH   1   2
ATOM      2  C   UNL     1      -6.907  14.043 -12.690  1.00  0.00     0.041 C 
ATOM      3  O   UNL     1      -6.028  13.197 -13.003  1.00  0.00    -0.550 OA
ATOM      4  O   UNL     1      -7.214  14.252 -11.352  1.00  0.00    -0.550 OA
ENDBRANCH   1   2
BRANCH   1   5
ATOM      5  C   UNL     1      -7.121  16.303 -13.769  1.00  0.00     0.006 C 
BRANCH   5   6
ATOM      6  C   UNL     1      -8.242  17.334 -13.548  1.00  0.00    -0.003 C 
ATOM      7  C   UNL     1      -9.279  16.873 -12.524  1.00  0.00     0.004 C 
ENDBRANCH   5   6
ENDBRANCH   1   5
TORSDOF 3
ENDMDL
