MODEL 1
REMARK VINA RESULT:    -2.886      0.000      0.000
REMARK INTER + INTRA:          -8.175
REMARK INTER:                  -5.418
REMARK INTRA:                  -2.757
REMARK UNBOUND:                -2.757
REMARK SMILES CCCCCCCCC=CCCCCCCCC(=O)[O-]
REMARK SMILES IDX 10 1 9 2 11 3 12 4 13 5 14 6 15 7 16 8 17 9 18 10 19 11
REMARK SMILES IDX 20 12 8 13 7 14 6 15 5 16 4 17 3 18 2 19 1 20
REMARK H PARENT
REMARK Flexibility Score: inf
ROOT
ATOM      1  C   UNL     1       9.069 -17.624   9.219  1.00  0.00    -0.031 C 
ATOM      2  C   UNL     1       8.203 -16.638   8.916  1.00  0.00    -0.031 C 
ENDROOT
BRANCH   1   3
ATOM      3  C   UNL     1       9.739 -18.517   8.206  1.00  0.00     0.027 C 
BRANCH   3   4
ATOM      4  C   UNL     1      11.249 -18.257   8.173  1.00  0.00     0.004 C 
BRANCH   4   5
ATOM      5  C   UNL     1      11.865 -18.764   6.861  1.00  0.00     0.000 C 
BRANCH   5   6
ATOM      6  C   UNL     1      12.295 -17.620   5.929  1.00  0.00     0.000 C 
BRANCH   6   7
ATOM      7  C   UNL     1      11.608 -17.687   4.553  1.00  0.00     0.000 C 
BRANCH   7   8
ATOM      8  C   UNL     1      10.243 -16.983   4.540  1.00  0.00     0.006 C 
BRANCH   8   9
ATOM      9  C   UNL     1       9.070 -17.971   4.531  1.00  0.00     0.053 C 
BRANCH   9  10
ATOM     10  C   UNL     1       8.541 -18.140   3.142  1.00  0.00     0.041 C 
ATOM     11  O   UNL     1       8.931 -17.379   2.218  1.00  0.00    -0.550 OA
ATOM     12  O   UNL     1       7.653 -19.170   2.856  1.00  0.00    -0.550 OA
ENDBRANCH   9  10
ENDBRANCH   8   9
ENDBRANCH   7   8
ENDBRANCH   6   7
ENDBRANCH   5   6
ENDBRANCH   4   5
ENDBRANCH   3   4
ENDBRANCH   1   3
BRANCH   2  13
ATOM     13  C   UNL     1       7.839 -16.222   7.511  1.00  0.00     0.027 C 
BRANCH  13  14
ATOM     14  C   UNL     1       8.596 -14.957   7.060  1.00  0.00     0.004 C 
BRANCH  14  15
ATOM     15  C   UNL     1       9.689 -14.504   8.043  1.00  0.00     0.000 C 
BRANCH  15  16
ATOM     16  C   UNL     1      11.108 -14.716   7.497  1.00  0.00     0.000 C 
BRANCH  16  17
ATOM     17  C   UNL     1      12.150 -14.621   8.618  1.00  0.00    -0.000 C 
BRANCH  17  18
ATOM     18  C   UNL     1      11.485 -14.739   9.998  1.00  0.00    -0.000 C 
BRANCH  18  19
ATOM     19  C   UNL     1      12.146 -13.835  11.050  1.00  0.00    -0.003 C 
ATOM     20  C   UNL     1      12.014 -12.349  10.720  1.00  0.00     0.004 C 
ENDBRANCH  18  19
ENDBRANCH  17  18
ENDBRANCH  16  17
ENDBRANCH  15  16
ENDBRANCH  14  15
ENDBRANCH  13  14
ENDBRANCH   2  13
TORSDOF 15
ENDMDL
MODEL 2
REMARK VINA RESULT:    -2.749      3.340      5.767
REMARK INTER + INTRA:          -7.917
REMARK INTER:                  -5.644
REMARK INTRA:                  -2.273
REMARK UNBOUND:                -2.757
REMARK SMILES CCCCCCCCC=CCCCCCCCC(=O)[O-]
REMARK SMILES IDX 10 1 9 2 11 3 12 4 13 5 14 6 15 7 16 8 17 9 18 10 19 11
REMARK SMILES IDX 20 12 8 13 7 14 6 15 5 16 4 17 3 18 2 19 1 20
REMARK H PARENT
REMARK Flexibility Score: inf
ROOT
ATOM      1  C   UNL     1       7.609 -15.960   7.456  1.00  0.00    -0.031 C 
ATOM      2  C   UNL     1       8.531 -15.011   7.205  1.00  0.00    -0.031 C 
ENDROOT
BRANCH   1   3
ATOM      3  C   UNL     1       7.812 -17.125   8.390  1.00  0.00     0.027 C 
BRANCH   3   4
ATOM      4  C   UNL     1       6.663 -18.131   8.255  1.00  0.00     0.004 C 
BRANCH   4   5
ATOM      5  C   UNL     1       5.323 -17.408   8.051  1.00  0.00     0.000 C 
BRANCH   5   6
ATOM      6  C   UNL     1       4.287 -18.279   7.324  1.00  0.00     0.000 C 
BRANCH   6   7
ATOM      7  C   UNL     1       4.924 -19.193   6.261  1.00  0.00     0.000 C 
BRANCH   7   8
ATOM      8  C   UNL     1       3.972 -19.490   5.091  1.00  0.00     0.006 C 
BRANCH   8   9
ATOM      9  C   UNL     1       2.854 -18.448   4.962  1.00  0.00     0.053 C 
BRANCH   9  10
ATOM     10  C   UNL     1       2.447 -18.294   3.531  1.00  0.00     0.041 C 
ATOM     11  O   UNL     1       1.354 -18.770   3.129  1.00  0.00    -0.550 OA
ATOM     12  O   UNL     1       3.253 -17.582   2.651  1.00  0.00    -0.550 OA
ENDBRANCH   9  10
ENDBRANCH   8   9
ENDBRANCH   7   8
ENDBRANCH   6   7
ENDBRANCH   5   6
ENDBRANCH   4   5
ENDBRANCH   3   4
ENDBRANCH   1   3
BRANCH   2  13
ATOM     13  C   UNL     1       9.875 -14.922   7.887  1.00  0.00     0.027 C 
BRANCH  13  14
ATOM     14  C   UNL     1      11.047 -15.091   6.898  1.00  0.00     0.004 C 
BRANCH  14  15
ATOM     15  C   UNL     1      10.607 -15.471   5.474  1.00  0.00     0.000 C 
BRANCH  15  16
ATOM     16  C   UNL     1      11.539 -16.496   4.814  1.00  0.00     0.000 C 
BRANCH  16  17
ATOM     17  C   UNL     1      10.758 -17.727   4.338  1.00  0.00    -0.000 C 
BRANCH  17  18
ATOM     18  C   UNL     1       9.244 -17.475   4.403  1.00  0.00    -0.000 C 
BRANCH  18  19
ATOM     19  C   UNL     1       8.475 -18.655   5.016  1.00  0.00    -0.003 C 
ATOM     20  C   UNL     1       9.318 -19.459   6.005  1.00  0.00     0.004 C 
ENDBRANCH  18  19
ENDBRANCH  17  18
ENDBRANCH  16  17
ENDBRANCH  15  16
ENDBRANCH  14  15
ENDBRANCH  13  14
ENDBRANCH   2  13
TORSDOF 15
ENDMDL
MODEL 3
REMARK VINA RESULT:    -2.748      3.931      7.341
REMARK INTER + INTRA:          -7.915
REMARK INTER:                  -6.035
REMARK INTRA:                  -1.880
REMARK UNBOUND:                -2.757
REMARK SMILES CCCCCCCCC=CCCCCCCCC(=O)[O-]
REMARK SMILES IDX 10 1 9 2 11 3 12 4 13 5 14 6 15 7 16 8 17 9 18 10 19 11
REMARK SMILES IDX 20 12 8 13 7 14 6 15 5 16 4 17 3 18 2 19 1 20
REMARK H PARENT
REMARK Flexibility Score: inf
ROOT
ATOM      1  C   UNL     1       8.503 -18.677   3.045  1.00  0.00    -0.031 C 
ATOM      2  C   UNL     1       7.619 -19.518   3.614  1.00  0.00    -0.031 C 
ENDROOT
BRANCH   1   3
ATOM      3  C   UNL     1       9.108 -17.478   3.731  1.00  0.00     0.027 C 
BRANCH   3   4
ATOM      4  C   UNL     1      10.465 -17.838   4.346  1.00  0.00     0.004 C 
BRANCH   4   5
ATOM      5  C   UNL     1      10.784 -16.930   5.543  1.00  0.00     0.000 C 
BRANCH   5   6
ATOM      6  C   UNL     1       9.995 -15.611   5.510  1.00  0.00     0.000 C 
BRANCH   6   7
ATOM      7  C   UNL     1       9.565 -15.143   6.912  1.00  0.00     0.000 C 
BRANCH   7   8
ATOM      8  C   UNL     1       8.058 -15.316   7.156  1.00  0.00     0.006 C 
BRANCH   8   9
ATOM      9  C   UNL     1       7.690 -16.743   7.583  1.00  0.00     0.053 C 
BRANCH   9  10
ATOM     10  C   UNL     1       6.665 -16.713   8.672  1.00  0.00     0.041 C 
ATOM     11  O   UNL     1       7.009 -16.887   9.871  1.00  0.00    -0.550 OA
ATOM     12  O   UNL     1       5.336 -16.444   8.369  1.00  0.00    -0.550 OA
ENDBRANCH   9  10
ENDBRANCH   8   9
ENDBRANCH   7   8
ENDBRANCH   6   7
ENDBRANCH   5   6
ENDBRANCH   4   5
ENDBRANCH   3   4
ENDBRANCH   1   3
BRANCH   2  13
ATOM     13  C   UNL     1       7.165 -19.440   5.051  1.00  0.00     0.027 C 
BRANCH  13  14
ATOM     14  C   UNL     1       5.738 -19.990   5.247  1.00  0.00     0.004 C 
BRANCH  14  15
ATOM     15  C   UNL     1       5.001 -19.388   6.455  1.00  0.00     0.000 C 
BRANCH  15  16
ATOM     16  C   UNL     1       3.473 -19.474   6.327  1.00  0.00     0.000 C 
BRANCH  16  17
ATOM     17  C   UNL     1       2.915 -18.263   5.569  1.00  0.00    -0.000 C 
BRANCH  17  18
ATOM     18  C   UNL     1       2.347 -18.683   4.205  1.00  0.00    -0.000 C 
BRANCH  18  19
ATOM     19  C   UNL     1       2.866 -17.806   3.055  1.00  0.00    -0.003 C 
ATOM     20  C   UNL     1       3.998 -18.467   2.270  1.00  0.00     0.004 C 
ENDBRANCH  18  19
ENDBRANCH  17  18
ENDBRANCH  16  17
ENDBRANCH  15  16
ENDBRANCH  14  15
ENDBRANCH  13  14
ENDBRANCH   2  13
TORSDOF 15
ENDMDL
MODEL 4
REMARK VINA RESULT:    -2.723      3.590      5.901
REMARK INTER + INTRA:          -7.867
REMARK INTER:                  -6.045
REMARK INTRA:                  -1.822
REMARK UNBOUND:                -2.757
REMARK SMILES CCCCCCCCC=CCCCCCCCC(=O)[O-]
REMARK SMILES IDX 10 1 9 2 11 3 12 4 13 5 14 6 15 7 16 8 17 9 18 10 19 11
REMARK SMILES IDX 20 12 8 13 7 14 6 15 5 16 4 17 3 18 2 19 1 20
REMARK H PARENT
REMARK Flexibility Score: inf
ROOT
ATOM      1  C   UNL     1       6.224 -17.591   8.137  1.00  0.00    -0.031 C 
ATOM      2  C   UNL     1       7.201 -16.902   8.758  1.00  0.00    -0.031 C 
ENDROOT
BRANCH   1   3
ATOM      3  C   UNL     1       6.455 -18.771   7.227  1.00  0.00     0.027 C 
BRANCH   3   4
ATOM      4  C   UNL     1       5.150 -19.178   6.534  1.00  0.00     0.004 C 
BRANCH   4   5
ATOM      5  C   UNL     1       3.965 -18.361   7.069  1.00  0.00     0.000 C 
BRANCH   5   6
ATOM      6  C   UNL     1       3.005 -17.912   5.956  1.00  0.00     0.000 C 
BRANCH   6   7
ATOM      7  C   UNL     1       2.136 -19.066   5.424  1.00  0.00     0.000 C 
BRANCH   7   8
ATOM      8  C   UNL     1       2.006 -19.049   3.893  1.00  0.00     0.006 C 
BRANCH   8   9
ATOM      9  C   UNL     1       2.979 -18.067   3.229  1.00  0.00     0.053 C 
BRANCH   9  10
ATOM     10  C   UNL     1       3.892 -18.790   2.290  1.00  0.00     0.041 C 
ATOM     11  O   UNL     1       3.511 -19.060   1.121  1.00  0.00    -0.550 OA
ATOM     12  O   UNL     1       5.180 -19.121   2.690  1.00  0.00    -0.550 OA
ENDBRANCH   9  10
ENDBRANCH   8   9
ENDBRANCH   7   8
ENDBRANCH   6   7
ENDBRANCH   5   6
ENDBRANCH   4   5
ENDBRANCH   3   4
ENDBRANCH   1   3
BRANCH   2  13
ATOM     13  C   UNL     1       8.666 -17.261   8.708  1.00  0.00     0.027 C 
BRANCH  13  14
ATOM     14  C   UNL     1       9.570 -16.019   8.575  1.00  0.00     0.004 C 
BRANCH  14  15
ATOM     15  C   UNL     1       8.918 -14.857   7.806  1.00  0.00     0.000 C 
BRANCH  15  16
ATOM     16  C   UNL     1       8.941 -15.060   6.284  1.00  0.00     0.000 C 
BRANCH  16  17
ATOM     17  C   UNL     1      10.328 -15.510   5.808  1.00  0.00    -0.000 C 
BRANCH  17  18
ATOM     18  C   UNL     1      10.214 -16.485   4.626  1.00  0.00    -0.000 C 
BRANCH  18  19
ATOM     19  C   UNL     1       9.153 -17.571   4.858  1.00  0.00    -0.003 C 
ATOM     20  C   UNL     1       8.749 -18.289   3.571  1.00  0.00     0.004 C 
ENDBRANCH  18  19
ENDBRANCH  17  18
ENDBRANCH  16  17
ENDBRANCH  15  16
ENDBRANCH  14  15
ENDBRANCH  13  14
ENDBRANCH   2  13
TORSDOF 15
ENDMDL
MODEL 5
REMARK VINA RESULT:    -2.707      4.069      7.541
REMARK INTER + INTRA:          -7.837
REMARK INTER:                  -6.059
REMARK INTRA:                  -1.778
REMARK UNBOUND:                -2.757
REMARK SMILES CCCCCCCCC=CCCCCCCCC(=O)[O-]
REMARK SMILES IDX 10 1 9 2 11 3 12 4 13 5 14 6 15 7 16 8 17 9 18 10 19 11
REMARK SMILES IDX 20 12 8 13 7 14 6 15 5 16 4 17 3 18 2 19 1 20
REMARK H PARENT
REMARK Flexibility Score: inf
ROOT
ATOM      1  C   UNL     1       7.850 -20.138   4.388  1.00  0.00    -0.031 C 
ATOM      2  C   UNL     1       7.222 -20.299   5.568  1.00  0.00    -0.031 C 
ENDROOT
BRANCH   1   3
ATOM      3  C   UNL     1       7.410 -19.182   3.308  1.00  0.00     0.027 C 
BRANCH   3   4
ATOM      4  C   UNL     1       8.507 -18.150   3.023  1.00  0.00     0.004 C 
BRANCH   4   5
ATOM      5  C   UNL     1       9.677 -18.307   4.006  1.00  0.00     0.000 C 
BRANCH   5   6
ATOM      6  C   UNL     1      10.261 -16.956   4.449  1.00  0.00     0.000 C 
BRANCH   6   7
ATOM      7  C   UNL     1      10.239 -16.775   5.978  1.00  0.00     0.000 C 
BRANCH   7   8
ATOM      8  C   UNL     1       8.903 -17.205   6.604  1.00  0.00     0.006 C 
BRANCH   8   9
ATOM      9  C   UNL     1       8.550 -16.392   7.856  1.00  0.00     0.053 C 
BRANCH   9  10
ATOM     10  C   UNL     1       8.741 -14.930   7.600  1.00  0.00     0.041 C 
ATOM     11  O   UNL     1       9.712 -14.319   8.118  1.00  0.00    -0.550 OA
ATOM     12  O   UNL     1       7.876 -14.255   6.749  1.00  0.00    -0.550 OA
ENDBRANCH   9  10
ENDBRANCH   8   9
ENDBRANCH   7   8
ENDBRANCH   6   7
ENDBRANCH   5   6
ENDBRANCH   4   5
ENDBRANCH   3   4
ENDBRANCH   1   3
BRANCH   2  13
ATOM     13  C   UNL     1       6.036 -19.485   6.025  1.00  0.00     0.027 C 
BRANCH  13  14
ATOM     14  C   UNL     1       4.694 -20.122   5.612  1.00  0.00     0.004 C 
BRANCH  14  15
ATOM     15  C   UNL     1       3.472 -19.507   6.316  1.00  0.00     0.000 C 
BRANCH  15  16
ATOM     16  C   UNL     1       2.892 -18.302   5.562  1.00  0.00     0.000 C 
BRANCH  16  17
ATOM     17  C   UNL     1       2.269 -18.734   4.228  1.00  0.00    -0.000 C 
BRANCH  17  18
ATOM     18  C   UNL     1       2.775 -17.855   3.075  1.00  0.00    -0.000 C 
BRANCH  18  19
ATOM     19  C   UNL     1       3.940 -18.500   2.310  1.00  0.00    -0.003 C 
ATOM     20  C   UNL     1       3.472 -19.387   1.157  1.00  0.00     0.004 C 
ENDBRANCH  18  19
ENDBRANCH  17  18
ENDBRANCH  16  17
ENDBRANCH  15  16
ENDBRANCH  14  15
ENDBRANCH  13  14
ENDBRANCH   2  13
TORSDOF 15
ENDMDL
MODEL 6
REMARK VINA RESULT:    -2.694      4.333      7.419
REMARK INTER + INTRA:          -7.814
REMARK INTER:                  -5.972
REMARK INTRA:                  -1.842
REMARK UNBOUND:                -2.757
REMARK SMILES CCCCCCCCC=CCCCCCCCC(=O)[O-]
REMARK SMILES IDX 10 1 9 2 11 3 12 4 13 5 14 6 15 7 16 8 17 9 18 10 19 11
REMARK SMILES IDX 20 12 8 13 7 14 6 15 5 16 4 17 3 18 2 19 1 20
REMARK H PARENT
REMARK Flexibility Score: inf
ROOT
ATOM      1  C   UNL     1       6.380 -19.991   3.854  1.00  0.00    -0.031 C 
ATOM      2  C   UNL     1       5.103 -19.887   3.441  1.00  0.00    -0.031 C 
ENDROOT
BRANCH   1   3
ATOM      3  C   UNL     1       7.518 -19.145   3.340  1.00  0.00     0.027 C 
BRANCH   3   4
ATOM      4  C   UNL     1       8.480 -18.788   4.478  1.00  0.00     0.004 C 
BRANCH   4   5
ATOM      5  C   UNL     1       9.384 -17.610   4.084  1.00  0.00     0.000 C 
BRANCH   5   6
ATOM      6  C   UNL     1       9.587 -16.611   5.233  1.00  0.00     0.000 C 
BRANCH   6   7
ATOM      7  C   UNL     1       9.058 -17.141   6.579  1.00  0.00     0.000 C 
BRANCH   7   8
ATOM      8  C   UNL     1       8.193 -16.110   7.320  1.00  0.00     0.006 C 
BRANCH   8   9
ATOM      9  C   UNL     1       8.815 -14.707   7.316  1.00  0.00     0.053 C 
BRANCH   9  10
ATOM     10  C   UNL     1      10.031 -14.674   8.185  1.00  0.00     0.041 C 
ATOM     11  O   UNL     1       9.925 -14.831   9.430  1.00  0.00    -0.550 OA
ATOM     12  O   UNL     1      11.289 -14.519   7.615  1.00  0.00    -0.550 OA
ENDBRANCH   9  10
ENDBRANCH   8   9
ENDBRANCH   7   8
ENDBRANCH   6   7
ENDBRANCH   5   6
ENDBRANCH   4   5
ENDBRANCH   3   4
ENDBRANCH   1   3
BRANCH   2  13
ATOM     13  C   UNL     1       4.601 -18.850   2.465  1.00  0.00     0.027 C 
BRANCH  13  14
ATOM     14  C   UNL     1       3.063 -18.730   2.476  1.00  0.00     0.004 C 
BRANCH  14  15
ATOM     15  C   UNL     1       2.490 -18.224   3.811  1.00  0.00     0.000 C 
BRANCH  15  16
ATOM     16  C   UNL     1       1.649 -19.281   4.540  1.00  0.00     0.000 C 
BRANCH  16  17
ATOM     17  C   UNL     1       2.095 -19.431   5.999  1.00  0.00    -0.000 C 
BRANCH  17  18
ATOM     18  C   UNL     1       3.227 -18.447   6.332  1.00  0.00    -0.000 C 
BRANCH  18  19
ATOM     19  C   UNL     1       4.090 -18.918   7.512  1.00  0.00    -0.003 C 
ATOM     20  C   UNL     1       5.588 -18.774   7.244  1.00  0.00     0.004 C 
ENDBRANCH  18  19
ENDBRANCH  17  18
ENDBRANCH  16  17
ENDBRANCH  15  16
ENDBRANCH  14  15
ENDBRANCH  13  14
ENDBRANCH   2  13
TORSDOF 15
ENDMDL
MODEL 7
REMARK VINA RESULT:    -2.692      3.663      6.795
REMARK INTER + INTRA:          -7.809
REMARK INTER:                  -5.713
REMARK INTRA:                  -2.096
REMARK UNBOUND:                -2.757
REMARK SMILES CCCCCCCCC=CCCCCCCCC(=O)[O-]
REMARK SMILES IDX 10 1 9 2 11 3 12 4 13 5 14 6 15 7 16 8 17 9 18 10 19 11
REMARK SMILES IDX 20 12 8 13 7 14 6 15 5 16 4 17 3 18 2 19 1 20
REMARK H PARENT
REMARK Flexibility Score: inf
ROOT
ATOM      1  C   UNL     1       7.223 -18.409   8.577  1.00  0.00    -0.031 C 
ATOM      2  C   UNL     1       7.070 -19.357   7.633  1.00  0.00    -0.031 C 
ENDROOT
BRANCH   1   3
ATOM      3  C   UNL     1       6.288 -17.243   8.778  1.00  0.00     0.027 C 
BRANCH   3   4
ATOM      4  C   UNL     1       6.704 -16.060   7.897  1.00  0.00     0.004 C 
BRANCH   4   5
ATOM      5  C   UNL     1       8.234 -15.935   7.833  1.00  0.00     0.000 C 
BRANCH   5   6
ATOM      6  C   UNL     1       8.704 -15.007   6.702  1.00  0.00     0.000 C 
BRANCH   6   7
ATOM      7  C   UNL     1       9.584 -15.733   5.668  1.00  0.00     0.000 C 
BRANCH   7   8
ATOM      8  C   UNL     1       9.680 -17.244   5.932  1.00  0.00     0.006 C 
BRANCH   8   9
ATOM      9  C   UNL     1       8.954 -18.076   4.868  1.00  0.00     0.053 C 
BRANCH   9  10
ATOM     10  C   UNL     1       9.538 -17.817   3.515  1.00  0.00     0.041 C 
ATOM     11  O   UNL     1       8.799 -17.437   2.569  1.00  0.00    -0.550 OA
ATOM     12  O   UNL     1      10.906 -17.948   3.312  1.00  0.00    -0.550 OA
ENDBRANCH   9  10
ENDBRANCH   8   9
ENDBRANCH   7   8
ENDBRANCH   6   7
ENDBRANCH   5   6
ENDBRANCH   4   5
ENDBRANCH   3   4
ENDBRANCH   1   3
BRANCH   2  13
ATOM     13  C   UNL     1       5.894 -19.445   6.691  1.00  0.00     0.027 C 
BRANCH  13  14
ATOM     14  C   UNL     1       4.730 -20.267   7.282  1.00  0.00     0.004 C 
BRANCH  14  15
ATOM     15  C   UNL     1       3.492 -19.425   7.634  1.00  0.00     0.000 C 
BRANCH  15  16
ATOM     16  C   UNL     1       3.124 -18.416   6.536  1.00  0.00     0.000 C 
BRANCH  16  17
ATOM     17  C   UNL     1       2.000 -18.958   5.644  1.00  0.00    -0.000 C 
BRANCH  17  18
ATOM     18  C   UNL     1       2.525 -19.285   4.237  1.00  0.00    -0.000 C 
BRANCH  18  19
ATOM     19  C   UNL     1       2.922 -18.028   3.449  1.00  0.00    -0.003 C 
ATOM     20  C   UNL     1       3.739 -18.347   2.198  1.00  0.00     0.004 C 
ENDBRANCH  18  19
ENDBRANCH  17  18
ENDBRANCH  16  17
ENDBRANCH  15  16
ENDBRANCH  14  15
ENDBRANCH  13  14
ENDBRANCH   2  13
TORSDOF 15
ENDMDL
MODEL 8
REMARK VINA RESULT:    -2.683      3.599      6.570
REMARK INTER + INTRA:          -7.793
REMARK INTER:                  -4.671
REMARK INTRA:                  -3.122
REMARK UNBOUND:                -2.757
REMARK SMILES CCCCCCCCC=CCCCCCCCC(=O)[O-]
REMARK SMILES IDX 10 1 9 2 11 3 12 4 13 5 14 6 15 7 16 8 17 9 18 10 19 11
REMARK SMILES IDX 20 12 8 13 7 14 6 15 5 16 4 17 3 18 2 19 1 20
REMARK H PARENT
REMARK Flexibility Score: inf
ROOT
ATOM      1  C   UNL     1       8.638 -18.147   7.872  1.00  0.00    -0.031 C 
ATOM      2  C   UNL     1       9.837 -18.735   7.695  1.00  0.00    -0.031 C 
ENDROOT
BRANCH   1   3
ATOM      3  C   UNL     1       8.429 -16.816   8.550  1.00  0.00     0.027 C 
BRANCH   3   4
ATOM      4  C   UNL     1       7.964 -15.764   7.537  1.00  0.00     0.004 C 
BRANCH   4   5
ATOM      5  C   UNL     1       8.988 -14.626   7.418  1.00  0.00     0.000 C 
BRANCH   5   6
ATOM      6  C   UNL     1       9.975 -14.595   8.596  1.00  0.00     0.000 C 
BRANCH   6   7
ATOM      7  C   UNL     1      11.434 -14.409   8.140  1.00  0.00     0.000 C 
BRANCH   7   8
ATOM      8  C   UNL     1      12.432 -14.498   9.305  1.00  0.00     0.006 C 
BRANCH   8   9
ATOM      9  C   UNL     1      11.800 -14.125  10.653  1.00  0.00     0.053 C 
BRANCH   9  10
ATOM     10  C   UNL     1      12.313 -12.800  11.120  1.00  0.00     0.041 C 
ATOM     11  O   UNL     1      12.425 -12.562  12.351  1.00  0.00    -0.550 OA
ATOM     12  O   UNL     1      12.715 -11.845  10.195  1.00  0.00    -0.550 OA
ENDBRANCH   9  10
ENDBRANCH   8   9
ENDBRANCH   7   8
ENDBRANCH   6   7
ENDBRANCH   5   6
ENDBRANCH   4   5
ENDBRANCH   3   4
ENDBRANCH   1   3
BRANCH   2  13
ATOM     13  C   UNL     1      11.160 -18.111   8.071  1.00  0.00     0.027 C 
BRANCH  13  14
ATOM     14  C   UNL     1      12.275 -18.452   7.061  1.00  0.00     0.004 C 
BRANCH  14  15
ATOM     15  C   UNL     1      12.927 -17.216   6.417  1.00  0.00     0.000 C 
BRANCH  15  16
ATOM     16  C   UNL     1      12.515 -17.019   4.951  1.00  0.00     0.000 C 
BRANCH  16  17
ATOM     17  C   UNL     1      11.496 -15.881   4.813  1.00  0.00    -0.000 C 
BRANCH  17  18
ATOM     18  C   UNL     1      10.079 -16.434   4.596  1.00  0.00    -0.000 C 
BRANCH  18  19
ATOM     19  C   UNL     1      10.084 -17.848   3.995  1.00  0.00    -0.003 C 
ATOM     20  C   UNL     1       8.734 -18.551   4.127  1.00  0.00     0.004 C 
ENDBRANCH  18  19
ENDBRANCH  17  18
ENDBRANCH  16  17
ENDBRANCH  15  16
ENDBRANCH  14  15
ENDBRANCH  13  14
ENDBRANCH   2  13
TORSDOF 15
ENDMDL
MODEL 9
REMARK VINA RESULT:    -2.681      1.445      2.894
REMARK INTER + INTRA:          -7.790
REMARK INTER:                  -4.655
REMARK INTRA:                  -3.135
REMARK UNBOUND:                -2.757
REMARK SMILES CCCCCCCCC=CCCCCCCCC(=O)[O-]
REMARK SMILES IDX 10 1 9 2 11 3 12 4 13 5 14 6 15 7 16 8 17 9 18 10 19 11
REMARK SMILES IDX 20 12 8 13 7 14 6 15 5 16 4 17 3 18 2 19 1 20
REMARK H PARENT
REMARK Flexibility Score: inf
ROOT
ATOM      1  C   UNL     1       8.127 -15.159   7.512  1.00  0.00    -0.031 C 
ATOM      2  C   UNL     1       8.908 -14.977   6.431  1.00  0.00    -0.031 C 
ENDROOT
BRANCH   1   3
ATOM      3  C   UNL     1       7.669 -16.502   8.022  1.00  0.00     0.027 C 
BRANCH   3   4
ATOM      4  C   UNL     1       8.547 -16.961   9.192  1.00  0.00     0.004 C 
BRANCH   4   5
ATOM      5  C   UNL     1       9.174 -18.333   8.902  1.00  0.00     0.000 C 
BRANCH   5   6
ATOM      6  C   UNL     1       8.551 -19.020   7.676  1.00  0.00     0.000 C 
BRANCH   6   7
ATOM      7  C   UNL     1       9.595 -19.752   6.814  1.00  0.00     0.000 C 
BRANCH   7   8
ATOM      8  C   UNL     1       9.317 -19.618   5.309  1.00  0.00     0.006 C 
BRANCH   8   9
ATOM      9  C   UNL     1       7.854 -19.267   5.009  1.00  0.00     0.053 C 
BRANCH   9  10
ATOM     10  C   UNL     1       7.578 -19.386   3.544  1.00  0.00     0.041 C 
ATOM     11  O   UNL     1       8.499 -19.187   2.708  1.00  0.00    -0.550 OA
ATOM     12  O   UNL     1       6.317 -19.764   3.102  1.00  0.00    -0.550 OA
ENDBRANCH   9  10
ENDBRANCH   8   9
ENDBRANCH   7   8
ENDBRANCH   6   7
ENDBRANCH   5   6
ENDBRANCH   4   5
ENDBRANCH   3   4
ENDBRANCH   1   3
BRANCH   2  13
ATOM     13  C   UNL     1       9.516 -16.093   5.616  1.00  0.00     0.027 C 
BRANCH  13  14
ATOM     14  C   UNL     1      10.551 -15.578   4.596  1.00  0.00     0.004 C 
BRANCH  14  15
ATOM     15  C   UNL     1      12.009 -15.862   4.995  1.00  0.00     0.000 C 
BRANCH  15  16
ATOM     16  C   UNL     1      12.140 -17.008   6.008  1.00  0.00     0.000 C 
BRANCH  16  17
ATOM     17  C   UNL     1      12.968 -16.577   7.225  1.00  0.00    -0.000 C 
BRANCH  17  18
ATOM     18  C   UNL     1      12.059 -16.086   8.362  1.00  0.00    -0.000 C 
BRANCH  18  19
ATOM     19  C   UNL     1      12.022 -14.555   8.468  1.00  0.00    -0.003 C 
ATOM     20  C   UNL     1      11.048 -14.059   9.536  1.00  0.00     0.004 C 
ENDBRANCH  18  19
ENDBRANCH  17  18
ENDBRANCH  16  17
ENDBRANCH  15  16
ENDBRANCH  14  15
ENDBRANCH  13  14
ENDBRANCH   2  13
TORSDOF 15
ENDMDL
