MODEL 1
REMARK VINA RESULT:    -5.559      0.000      0.000
REMARK INTER + INTRA:          -6.337
REMARK INTER:                  -6.208
REMARK INTRA:                  -0.128
REMARK UNBOUND:                -0.128
REMARK SMILES O=C([O-])C=Cc1ccccc1
REMARK SMILES IDX 4 1 5 2 2 3 1 4 3 5 6 6 7 7 11 8 8 9 10 10 9 11
REMARK H PARENT
REMARK Flexibility Score: inf
ROOT
ATOM      1  C   UNL     1      15.689  74.562  70.494  1.00  0.00     0.025 C 
ATOM      2  C   UNL     1      15.704  75.046  71.743  1.00  0.00     0.010 C 
ENDROOT
BRANCH   1   3
ATOM      3  C   UNL     1      14.464  74.016  69.887  1.00  0.00     0.064 C 
ATOM      4  O   UNL     1      13.381  74.652  69.993  1.00  0.00    -0.545 OA
ATOM      5  O   UNL     1      14.479  72.808  69.198  1.00  0.00    -0.545 OA
ENDBRANCH   1   3
BRANCH   2   6
ATOM      6  C   UNL     1      16.902  75.612  72.422  1.00  0.00    -0.026 A 
ATOM      7  C   UNL     1      16.948  77.003  72.634  1.00  0.00     0.008 A 
ATOM      8  C   UNL     1      17.991  74.826  72.859  1.00  0.00     0.008 A 
ATOM      9  C   UNL     1      18.048  77.592  73.265  1.00  0.00     0.001 A 
ATOM     10  C   UNL     1      19.087  75.423  73.490  1.00  0.00     0.001 A 
ATOM     11  C   UNL     1      19.116  76.804  73.693  1.00  0.00     0.000 A 
ENDBRANCH   2   6
TORSDOF 2
ENDMDL
MODEL 2
REMARK VINA RESULT:    -5.458      1.158      1.835
REMARK INTER + INTRA:          -6.224
REMARK INTER:                  -6.094
REMARK INTRA:                  -0.131
REMARK UNBOUND:                -0.128
REMARK SMILES O=C([O-])C=Cc1ccccc1
REMARK SMILES IDX 4 1 5 2 2 3 1 4 3 5 6 6 7 7 11 8 8 9 10 10 9 11
REMARK H PARENT
REMARK Flexibility Score: inf
ROOT
ATOM      1  C   UNL     1      15.030  75.706  70.353  1.00  0.00     0.025 C 
ATOM      2  C   UNL     1      15.235  75.762  71.676  1.00  0.00     0.010 C 
ENDROOT
BRANCH   1   3
ATOM      3  C   UNL     1      13.699  75.438  69.784  1.00  0.00     0.064 C 
ATOM      4  O   UNL     1      12.680  75.532  70.518  1.00  0.00    -0.545 OA
ATOM      5  O   UNL     1      13.547  75.082  68.448  1.00  0.00    -0.545 OA
ENDBRANCH   1   3
BRANCH   2   6
ATOM      6  C   UNL     1      16.550  76.027  72.323  1.00  0.00    -0.026 A 
ATOM      7  C   UNL     1      17.373  74.927  72.628  1.00  0.00     0.008 A 
ATOM      8  C   UNL     1      17.010  77.323  72.645  1.00  0.00     0.008 A 
ATOM      9  C   UNL     1      18.618  75.112  73.235  1.00  0.00     0.001 A 
ATOM     10  C   UNL     1      18.257  77.502  73.252  1.00  0.00     0.001 A 
ATOM     11  C   UNL     1      19.060  76.398  73.548  1.00  0.00     0.000 A 
ENDBRANCH   2   6
TORSDOF 2
ENDMDL
MODEL 3
REMARK VINA RESULT:    -5.287      3.081      5.398
REMARK INTER + INTRA:          -6.034
REMARK INTER:                  -5.899
REMARK INTRA:                  -0.134
REMARK UNBOUND:                -0.128
REMARK SMILES O=C([O-])C=Cc1ccccc1
REMARK SMILES IDX 4 1 5 2 2 3 1 4 3 5 6 6 7 7 11 8 8 9 10 10 9 11
REMARK H PARENT
REMARK Flexibility Score: inf
ROOT
ATOM      1  C   UNL     1      17.267  75.540  72.434  1.00  0.00     0.025 C 
ATOM      2  C   UNL     1      16.547  74.625  71.769  1.00  0.00     0.010 C 
ENDROOT
BRANCH   1   3
ATOM      3  C   UNL     1      18.432  75.165  73.253  1.00  0.00     0.064 C 
ATOM      4  O   UNL     1      18.812  73.965  73.281  1.00  0.00    -0.545 OA
ATOM      5  O   UNL     1      19.121  76.116  73.999  1.00  0.00    -0.545 OA
ENDBRANCH   1   3
BRANCH   2   6
ATOM      6  C   UNL     1      15.360  74.928  70.924  1.00  0.00    -0.026 A 
ATOM      7  C   UNL     1      15.015  74.012  69.913  1.00  0.00     0.008 A 
ATOM      8  C   UNL     1      14.567  76.086  71.085  1.00  0.00     0.008 A 
ATOM      9  C   UNL     1      13.911  74.243  69.086  1.00  0.00     0.001 A 
ATOM     10  C   UNL     1      13.464  76.310  70.255  1.00  0.00     0.001 A 
ATOM     11  C   UNL     1      13.136  75.390  69.257  1.00  0.00     0.000 A 
ENDBRANCH   2   6
TORSDOF 2
ENDMDL
MODEL 4
REMARK VINA RESULT:    -5.238      3.084      5.141
REMARK INTER + INTRA:          -5.979
REMARK INTER:                  -5.836
REMARK INTRA:                  -0.143
REMARK UNBOUND:                -0.128
REMARK SMILES O=C([O-])C=Cc1ccccc1
REMARK SMILES IDX 4 1 5 2 2 3 1 4 3 5 6 6 7 7 11 8 8 9 10 10 9 11
REMARK H PARENT
REMARK Flexibility Score: inf
ROOT
ATOM      1  C   UNL     1      17.347  75.485  72.460  1.00  0.00     0.025 C 
ATOM      2  C   UNL     1      16.691  74.563  71.743  1.00  0.00     0.010 C 
ENDROOT
BRANCH   1   3
ATOM      3  C   UNL     1      18.550  75.150  73.239  1.00  0.00     0.064 C 
ATOM      4  O   UNL     1      19.121  76.044  73.919  1.00  0.00    -0.545 OA
ATOM      5  O   UNL     1      19.071  73.860  73.239  1.00  0.00    -0.545 OA
ENDBRANCH   1   3
BRANCH   2   6
ATOM      6  C   UNL     1      15.470  74.828  70.932  1.00  0.00    -0.026 A 
ATOM      7  C   UNL     1      14.621  75.876  71.335  1.00  0.00     0.008 A 
ATOM      8  C   UNL     1      15.123  74.082  69.784  1.00  0.00     0.008 A 
ATOM      9  C   UNL     1      13.460  76.171  70.615  1.00  0.00     0.001 A 
ATOM     10  C   UNL     1      13.960  74.383  69.068  1.00  0.00     0.001 A 
ATOM     11  C   UNL     1      13.129  75.427  69.483  1.00  0.00     0.000 A 
ENDBRANCH   2   6
TORSDOF 2
ENDMDL
MODEL 5
REMARK VINA RESULT:    -4.688     18.696     20.288
REMARK INTER + INTRA:          -5.365
REMARK INTER:                  -5.223
REMARK INTRA:                  -0.141
REMARK UNBOUND:                -0.128
REMARK SMILES O=C([O-])C=Cc1ccccc1
REMARK SMILES IDX 4 1 5 2 2 3 1 4 3 5 6 6 7 7 11 8 8 9 10 10 9 11
REMARK H PARENT
REMARK Flexibility Score: inf
ROOT
ATOM      1  C   UNL     1       4.529  85.770  62.517  1.00  0.00     0.025 C 
ATOM      2  C   UNL     1       3.618  86.747  62.415  1.00  0.00     0.010 C 
ENDROOT
BRANCH   1   3
ATOM      3  C   UNL     1       4.277  84.553  63.306  1.00  0.00     0.064 C 
ATOM      4  O   UNL     1       4.097  83.455  62.715  1.00  0.00    -0.545 OA
ATOM      5  O   UNL     1       4.235  84.593  64.696  1.00  0.00    -0.545 OA
ENDBRANCH   1   3
BRANCH   2   6
ATOM      6  C   UNL     1       3.801  88.003  61.638  1.00  0.00    -0.026 A 
ATOM      7  C   UNL     1       4.638  87.967  60.507  1.00  0.00     0.008 A 
ATOM      8  C   UNL     1       3.180  89.226  61.979  1.00  0.00     0.008 A 
ATOM      9  C   UNL     1       4.850  89.115  59.738  1.00  0.00     0.001 A 
ATOM     10  C   UNL     1       3.396  90.370  61.204  1.00  0.00     0.001 A 
ATOM     11  C   UNL     1       4.230  90.315  60.085  1.00  0.00     0.000 A 
ENDBRANCH   2   6
TORSDOF 2
ENDMDL
MODEL 6
REMARK VINA RESULT:    -4.448     11.524     12.536
REMARK INTER + INTRA:          -5.096
REMARK INTER:                  -4.964
REMARK INTRA:                  -0.132
REMARK UNBOUND:                -0.128
REMARK SMILES O=C([O-])C=Cc1ccccc1
REMARK SMILES IDX 4 1 5 2 2 3 1 4 3 5 6 6 7 7 11 8 8 9 10 10 9 11
REMARK H PARENT
REMARK Flexibility Score: inf
ROOT
ATOM      1  C   UNL     1       7.959  78.683  63.933  1.00  0.00     0.025 C 
ATOM      2  C   UNL     1       6.924  77.899  64.264  1.00  0.00     0.010 C 
ENDROOT
BRANCH   1   3
ATOM      3  C   UNL     1       8.292  78.977  62.530  1.00  0.00     0.064 C 
ATOM      4  O   UNL     1       9.485  79.230  62.214  1.00  0.00    -0.545 OA
ATOM      5  O   UNL     1       7.311  78.979  61.543  1.00  0.00    -0.545 OA
ENDBRANCH   1   3
BRANCH   2   6
ATOM      6  C   UNL     1       6.527  77.558  65.659  1.00  0.00    -0.026 A 
ATOM      7  C   UNL     1       5.651  76.474  65.852  1.00  0.00     0.008 A 
ATOM      8  C   UNL     1       6.984  78.267  66.791  1.00  0.00     0.008 A 
ATOM      9  C   UNL     1       5.242  76.107  67.138  1.00  0.00     0.001 A 
ATOM     10  C   UNL     1       6.572  77.894  68.074  1.00  0.00     0.001 A 
ATOM     11  C   UNL     1       5.702  76.816  68.248  1.00  0.00     0.000 A 
ENDBRANCH   2   6
TORSDOF 2
ENDMDL
MODEL 7
REMARK VINA RESULT:    -4.437     11.953     13.772
REMARK INTER + INTRA:          -5.084
REMARK INTER:                  -4.940
REMARK INTRA:                  -0.144
REMARK UNBOUND:                -0.128
REMARK SMILES O=C([O-])C=Cc1ccccc1
REMARK SMILES IDX 4 1 5 2 2 3 1 4 3 5 6 6 7 7 11 8 8 9 10 10 9 11
REMARK H PARENT
REMARK Flexibility Score: inf
ROOT
ATOM      1  C   UNL     1       3.118  79.871  68.240  1.00  0.00     0.025 C 
ATOM      2  C   UNL     1       4.402  79.558  68.461  1.00  0.00     0.010 C 
ENDROOT
BRANCH   1   3
ATOM      3  C   UNL     1       2.300  80.555  69.255  1.00  0.00     0.064 C 
ATOM      4  O   UNL     1       1.796  81.679  68.992  1.00  0.00    -0.545 OA
ATOM      5  O   UNL     1       2.074  79.983  70.502  1.00  0.00    -0.545 OA
ENDBRANCH   1   3
BRANCH   2   6
ATOM      6  C   UNL     1       5.289  78.867  67.485  1.00  0.00    -0.026 A 
ATOM      7  C   UNL     1       4.851  78.760  66.152  1.00  0.00     0.008 A 
ATOM      8  C   UNL     1       6.543  78.316  67.830  1.00  0.00     0.008 A 
ATOM      9  C   UNL     1       5.639  78.121  65.190  1.00  0.00     0.001 A 
ATOM     10  C   UNL     1       7.327  77.679  66.862  1.00  0.00     0.001 A 
ATOM     11  C   UNL     1       6.876  77.581  65.544  1.00  0.00     0.000 A 
ENDBRANCH   2   6
TORSDOF 2
ENDMDL
MODEL 8
REMARK VINA RESULT:    -4.342     18.281     20.024
REMARK INTER + INTRA:          -4.978
REMARK INTER:                  -4.836
REMARK INTRA:                  -0.142
REMARK UNBOUND:                -0.128
REMARK SMILES O=C([O-])C=Cc1ccccc1
REMARK SMILES IDX 4 1 5 2 2 3 1 4 3 5 6 6 7 7 11 8 8 9 10 10 9 11
REMARK H PARENT
REMARK Flexibility Score: inf
ROOT
ATOM      1  C   UNL     1       3.461  88.176  61.810  1.00  0.00     0.025 C 
ATOM      2  C   UNL     1       4.069  86.991  61.959  1.00  0.00     0.010 C 
ENDROOT
BRANCH   1   3
ATOM      3  C   UNL     1       3.974  89.200  60.885  1.00  0.00     0.064 C 
ATOM      4  O   UNL     1       4.849  88.887  60.035  1.00  0.00    -0.545 OA
ATOM      5  O   UNL     1       3.508  90.510  60.933  1.00  0.00    -0.545 OA
ENDBRANCH   1   3
BRANCH   2   6
ATOM      6  C   UNL     1       3.610  85.909  62.874  1.00  0.00    -0.026 A 
ATOM      7  C   UNL     1       2.229  85.644  62.946  1.00  0.00     0.008 A 
ATOM      8  C   UNL     1       4.487  85.140  63.670  1.00  0.00     0.008 A 
ATOM      9  C   UNL     1       1.738  84.642  63.788  1.00  0.00     0.001 A 
ATOM     10  C   UNL     1       3.989  84.139  64.508  1.00  0.00     0.001 A 
ATOM     11  C   UNL     1       2.616  83.889  64.568  1.00  0.00     0.000 A 
ENDBRANCH   2   6
TORSDOF 2
ENDMDL
MODEL 9
REMARK VINA RESULT:    -4.277     11.282     13.006
REMARK INTER + INTRA:          -4.905
REMARK INTER:                  -4.768
REMARK INTRA:                  -0.138
REMARK UNBOUND:                -0.128
REMARK SMILES O=C([O-])C=Cc1ccccc1
REMARK SMILES IDX 4 1 5 2 2 3 1 4 3 5 6 6 7 7 11 8 8 9 10 10 9 11
REMARK H PARENT
REMARK Flexibility Score: inf
ROOT
ATOM      1  C   UNL     1       6.606  77.469  66.787  1.00  0.00     0.025 C 
ATOM      2  C   UNL     1       6.152  77.212  65.553  1.00  0.00     0.010 C 
ENDROOT
BRANCH   1   3
ATOM      3  C   UNL     1       6.222  76.642  67.943  1.00  0.00     0.064 C 
ATOM      4  O   UNL     1       7.010  75.754  68.362  1.00  0.00    -0.545 OA
ATOM      5  O   UNL     1       5.000  76.825  68.583  1.00  0.00    -0.545 OA
ENDBRANCH   1   3
BRANCH   2   6
ATOM      6  C   UNL     1       6.496  78.002  64.339  1.00  0.00    -0.026 A 
ATOM      7  C   UNL     1       7.833  78.406  64.168  1.00  0.00     0.008 A 
ATOM      8  C   UNL     1       5.551  78.365  63.354  1.00  0.00     0.008 A 
ATOM      9  C   UNL     1       8.217  79.150  63.049  1.00  0.00     0.001 A 
ATOM     10  C   UNL     1       5.942  79.109  62.237  1.00  0.00     0.001 A 
ATOM     11  C   UNL     1       7.273  79.502  62.084  1.00  0.00     0.000 A 
ENDBRANCH   2   6
TORSDOF 2
ENDMDL
