MODEL 1
REMARK VINA RESULT:    -4.020      0.000      0.000
REMARK INTER + INTRA:          -6.601
REMARK INTER:                  -6.136
REMARK INTRA:                  -0.466
REMARK UNBOUND:                -0.466
REMARK SMILES CC1=CCC[C@@H](C)C(=O)C[C@H](C(C)C)C(=O)C1
REMARK SMILES IDX 8 1 9 2 6 3 7 4 5 5 4 6 3 7 2 8 1 9 10 11 11 12 15 13 16 14
REMARK SMILES IDX 17 15 12 17 13 18 14 19
REMARK H PARENT
REMARK Flexibility Score: 70.00
ROOT
ATOM      1  C   UNL     1       4.767   4.347 108.263  1.00  0.00     0.136 C 
ATOM      2  O   UNL     1       4.034   4.755 109.152  1.00  0.00    -0.299 OA
ENDROOT
BRANCH   1   3
ATOM      3  C   UNL     1       4.264   4.461 106.820  1.00  0.00     0.053 C 
ATOM      4  C   UNL     1       3.306   3.313 106.489  1.00  0.00     0.016 C 
BRANCH   3   5
ATOM      5  C   UNL     1       5.480   4.451 105.931  1.00  0.00     0.015 C 
BRANCH   5   6
ATOM      6  C   UNL     1       5.999   3.240 105.195  1.00  0.00     0.028 C 
BRANCH   6   7
ATOM      7  C   UNL     1       7.518   3.346 105.110  1.00  0.00    -0.028 C 
ATOM      8  C   UNL     1       8.461   2.499 105.643  1.00  0.00    -0.070 CG0
ATOM      9  C   UNL     1       9.899   2.779 105.279  1.00  0.00     0.039 C 
ATOM     10  G   UNL     1       8.191   1.314 106.593  1.00  0.00     0.000 G0
ENDBRANCH   6   7
ENDBRANCH   5   6
ENDBRANCH   3   5
ENDBRANCH   1   3
BRANCH   1  11
ATOM     11  C   UNL     1       6.096   3.656 108.661  1.00  0.00     0.087 C 
BRANCH  11  12
ATOM     12  C   UNL     1       6.296   2.095 108.443  1.00  0.00     0.066 C 
BRANCH  12  13
ATOM     13  C   UNL     1       7.743   1.705 108.020  1.00  0.00     0.140 C 
ATOM     14  O   UNL     1       8.606   1.747 108.885  1.00  0.00    -0.299 OA
BRANCH  13  15
ATOM     15  C   UNL     1       8.194   1.311 106.601  1.00  0.00     0.106 CG0
ATOM     16  G   UNL     1       8.486   2.505 105.668  1.00  0.00     0.000 G0
ENDBRANCH  13  15
ENDBRANCH  12  13
BRANCH  12  17
ATOM     17  C   UNL     1       5.613   1.176 109.514  1.00  0.00    -0.006 C 
ATOM     18  C   UNL     1       5.313   1.939 110.819  1.00  0.00     0.008 C 
ATOM     19  C   UNL     1       4.271   0.609 109.003  1.00  0.00     0.008 C 
ENDBRANCH  12  17
ENDBRANCH  11  12
ENDBRANCH   1  11
TORSDOF 1
ENDMDL
MODEL 2
REMARK VINA RESULT:    -3.989      1.817      2.437
REMARK INTER + INTRA:          -6.553
REMARK INTER:                  -5.967
REMARK INTRA:                  -0.587
REMARK UNBOUND:                -0.466
REMARK SMILES CC1=CCC[C@@H](C)C(=O)C[C@H](C(C)C)C(=O)C1
REMARK SMILES IDX 8 1 9 2 6 3 7 4 5 5 4 6 3 7 2 8 1 9 10 11 11 12 15 13 16 14
REMARK SMILES IDX 17 15 12 17 13 18 14 19
REMARK H PARENT
REMARK Flexibility Score: 70.00
ROOT
ATOM      1  C   UNL     1       4.552   4.742 108.610  1.00  0.00     0.136 C 
ATOM      2  O   UNL     1       4.029   5.080 109.662  1.00  0.00    -0.299 OA
ENDROOT
BRANCH   1   3
ATOM      3  C   UNL     1       3.834   5.118 107.309  1.00  0.00     0.053 C 
ATOM      4  C   UNL     1       3.238   6.525 107.407  1.00  0.00     0.016 C 
BRANCH   3   5
ATOM      5  C   UNL     1       2.772   4.073 107.079  1.00  0.00     0.015 C 
BRANCH   5   6
ATOM      6  C   UNL     1       2.900   2.914 106.122  1.00  0.00     0.028 C 
BRANCH   6   7
ATOM      7  C   UNL     1       3.920   3.286 105.050  1.00  0.00    -0.028 C 
ATOM      8  C   UNL     1       5.128   2.690 104.783  1.00  0.00    -0.070 CG0
ATOM      9  C   UNL     1       5.870   3.188 103.565  1.00  0.00     0.039 C 
ATOM     10  G   UNL     1       5.807   1.585 105.619  1.00  0.00     0.000 G0
ENDBRANCH   6   7
ENDBRANCH   5   6
ENDBRANCH   3   5
ENDBRANCH   1   3
BRANCH   1  11
ATOM     11  C   UNL     1       5.836   3.878 108.668  1.00  0.00     0.087 C 
BRANCH  11  12
ATOM     12  C   UNL     1       5.801   2.343 108.262  1.00  0.00     0.066 C 
BRANCH  12  13
ATOM     13  C   UNL     1       6.499   2.040 106.904  1.00  0.00     0.140 C 
ATOM     14  O   UNL     1       7.706   2.226 106.845  1.00  0.00    -0.299 OA
BRANCH  13  15
ATOM     15  C   UNL     1       5.801   1.567 105.615  1.00  0.00     0.106 CG0
ATOM     16  G   UNL     1       5.148   2.696 104.790  1.00  0.00     0.000 G0
ENDBRANCH  13  15
ENDBRANCH  12  13
BRANCH  12  17
ATOM     17  C   UNL     1       6.084   1.334 109.429  1.00  0.00    -0.006 C 
ATOM     18  C   UNL     1       5.357   1.739 110.727  1.00  0.00     0.008 C 
ATOM     19  C   UNL     1       5.612  -0.092 109.074  1.00  0.00     0.008 C 
ENDBRANCH  12  17
ENDBRANCH  11  12
ENDBRANCH   1  11
TORSDOF 1
ENDMDL
MODEL 3
REMARK VINA RESULT:    -3.955      2.063      4.611
REMARK INTER + INTRA:          -6.502
REMARK INTER:                  -6.048
REMARK INTRA:                  -0.454
REMARK UNBOUND:                -0.466
REMARK SMILES CC1=CCC[C@@H](C)C(=O)C[C@H](C(C)C)C(=O)C1
REMARK SMILES IDX 8 1 9 2 6 3 7 4 5 5 4 6 3 7 2 8 1 9 10 11 11 12 15 13 16 14
REMARK SMILES IDX 17 15 12 17 13 18 14 19
REMARK H PARENT
REMARK Flexibility Score: 70.00
ROOT
ATOM      1  C   UNL     1       6.309   3.482 106.244  1.00  0.00     0.136 C 
ATOM      2  O   UNL     1       5.562   2.768 105.592  1.00  0.00    -0.299 OA
ENDROOT
BRANCH   1   3
ATOM      3  C   UNL     1       7.794   3.108 106.281  1.00  0.00     0.053 C 
ATOM      4  C   UNL     1       8.400   3.156 104.876  1.00  0.00     0.016 C 
BRANCH   3   5
ATOM      5  C   UNL     1       7.882   1.730 106.884  1.00  0.00     0.015 C 
BRANCH   5   6
ATOM      6  C   UNL     1       8.299   1.437 108.304  1.00  0.00     0.028 C 
BRANCH   6   7
ATOM      7  C   UNL     1       7.060   1.021 109.091  1.00  0.00    -0.028 C 
ATOM      8  C   UNL     1       6.162   1.824 109.751  1.00  0.00    -0.070 CG0
ATOM      9  C   UNL     1       4.946   1.142 110.331  1.00  0.00     0.039 C 
ATOM     10  G   UNL     1       6.292   3.345 109.978  1.00  0.00     0.000 G0
ENDBRANCH   6   7
ENDBRANCH   5   6
ENDBRANCH   3   5
ENDBRANCH   1   3
BRANCH   1  11
ATOM     11  C   UNL     1       5.691   4.644 107.061  1.00  0.00     0.087 C 
BRANCH  11  12
ATOM     12  C   UNL     1       4.519   4.373 108.099  1.00  0.00     0.066 C 
BRANCH  12  13
ATOM     13  C   UNL     1       5.016   4.158 109.559  1.00  0.00     0.140 C 
ATOM     14  O   UNL     1       4.376   4.697 110.450  1.00  0.00    -0.299 OA
BRANCH  13  15
ATOM     15  C   UNL     1       6.266   3.362 109.980  1.00  0.00     0.106 CG0
ATOM     16  G   UNL     1       6.158   1.838 109.758  1.00  0.00     0.000 G0
ENDBRANCH  13  15
ENDBRANCH  12  13
BRANCH  12  17
ATOM     17  C   UNL     1       3.246   5.272 107.923  1.00  0.00    -0.006 C 
ATOM     18  C   UNL     1       3.611   6.765 107.800  1.00  0.00     0.008 C 
ATOM     19  C   UNL     1       2.455   4.894 106.653  1.00  0.00     0.008 C 
ENDBRANCH  12  17
ENDBRANCH  11  12
ENDBRANCH   1  11
TORSDOF 1
ENDMDL
MODEL 4
REMARK VINA RESULT:    -3.886      2.851      4.230
REMARK INTER + INTRA:          -6.397
REMARK INTER:                  -5.921
REMARK INTRA:                  -0.476
REMARK UNBOUND:                -0.466
REMARK SMILES CC1=CCC[C@@H](C)C(=O)C[C@H](C(C)C)C(=O)C1
REMARK SMILES IDX 8 1 9 2 6 3 7 4 5 5 4 6 3 7 2 8 1 9 10 11 11 12 15 13 16 14
REMARK SMILES IDX 17 15 12 17 13 18 14 19
REMARK H PARENT
REMARK Flexibility Score: 70.00
ROOT
ATOM      1  C   UNL     1       3.036   3.887 106.779  1.00  0.00     0.136 C 
ATOM      2  O   UNL     1       2.823   4.407 105.694  1.00  0.00    -0.299 OA
ENDROOT
BRANCH   1   3
ATOM      3  C   UNL     1       3.508   4.795 107.920  1.00  0.00     0.053 C 
ATOM      4  C   UNL     1       3.584   6.252 107.455  1.00  0.00     0.016 C 
BRANCH   3   5
ATOM      5  C   UNL     1       4.851   4.277 108.364  1.00  0.00     0.015 C 
BRANCH   5   6
ATOM      6  C   UNL     1       5.138   3.684 109.722  1.00  0.00     0.028 C 
BRANCH   6   7
ATOM      7  C   UNL     1       6.253   2.654 109.569  1.00  0.00    -0.028 C 
ATOM      8  C   UNL     1       6.165   1.371 109.084  1.00  0.00    -0.070 CG0
ATOM      9  C   UNL     1       7.466   0.623 108.918  1.00  0.00     0.039 C 
ATOM     10  G   UNL     1       4.867   0.619 108.720  1.00  0.00     0.000 G0
ENDBRANCH   6   7
ENDBRANCH   5   6
ENDBRANCH   3   5
ENDBRANCH   1   3
BRANCH   1  11
ATOM     11  C   UNL     1       2.914   2.347 106.896  1.00  0.00     0.087 C 
BRANCH  11  12
ATOM     12  C   UNL     1       3.995   1.394 106.228  1.00  0.00     0.066 C 
BRANCH  12  13
ATOM     13  C   UNL     1       4.636   0.383 107.224  1.00  0.00     0.140 C 
ATOM     14  O   UNL     1       4.966  -0.705 106.777  1.00  0.00    -0.299 OA
BRANCH  13  15
ATOM     15  C   UNL     1       4.855   0.616 108.732  1.00  0.00     0.106 CG0
ATOM     16  G   UNL     1       6.167   1.348 109.082  1.00  0.00     0.000 G0
ENDBRANCH  13  15
ENDBRANCH  12  13
BRANCH  12  17
ATOM     17  C   UNL     1       3.610   0.830 104.816  1.00  0.00    -0.006 C 
ATOM     18  C   UNL     1       2.106   0.507 104.718  1.00  0.00     0.008 C 
ATOM     19  C   UNL     1       3.929   1.841 103.694  1.00  0.00     0.008 C 
ENDBRANCH  12  17
ENDBRANCH  11  12
ENDBRANCH   1  11
TORSDOF 1
ENDMDL
MODEL 5
REMARK VINA RESULT:    -3.758      2.310      4.457
REMARK INTER + INTRA:          -6.201
REMARK INTER:                  -5.742
REMARK INTRA:                  -0.460
REMARK UNBOUND:                -0.466
REMARK SMILES CC1=CCC[C@@H](C)C(=O)C[C@H](C(C)C)C(=O)C1
REMARK SMILES IDX 8 1 9 2 6 3 7 4 5 5 4 6 3 7 2 8 1 9 10 11 11 12 15 13 16 14
REMARK SMILES IDX 17 15 12 17 13 18 14 19
REMARK H PARENT
REMARK Flexibility Score: 70.00
ROOT
ATOM      1  C   UNL     1       3.021   3.086 106.244  1.00  0.00     0.136 C 
ATOM      2  O   UNL     1       2.887   2.042 106.865  1.00  0.00    -0.299 OA
ENDROOT
BRANCH   1   3
ATOM      3  C   UNL     1       2.648   4.389 106.958  1.00  0.00     0.053 C 
ATOM      4  C   UNL     1       2.409   5.512 105.945  1.00  0.00     0.016 C 
BRANCH   3   5
ATOM      5  C   UNL     1       3.781   4.712 107.898  1.00  0.00     0.015 C 
BRANCH   5   6
ATOM      6  C   UNL     1       5.231   4.812 107.494  1.00  0.00     0.028 C 
BRANCH   6   7
ATOM      7  C   UNL     1       5.936   3.526 107.918  1.00  0.00    -0.028 C 
ATOM      8  C   UNL     1       6.813   2.758 107.192  1.00  0.00    -0.070 CG0
ATOM      9  C   UNL     1       7.465   1.608 107.922  1.00  0.00     0.039 C 
ATOM     10  G   UNL     1       7.171   2.942 105.702  1.00  0.00     0.000 G0
ENDBRANCH   6   7
ENDBRANCH   5   6
ENDBRANCH   3   5
ENDBRANCH   1   3
BRANCH   1  11
ATOM     11  C   UNL     1       3.456   3.010 104.759  1.00  0.00     0.087 C 
BRANCH  11  12
ATOM     12  C   UNL     1       4.885   3.533 104.304  1.00  0.00     0.066 C 
BRANCH  12  13
ATOM     13  C   UNL     1       6.054   2.590 104.713  1.00  0.00     0.140 C 
ATOM     14  O   UNL     1       6.062   1.469 104.227  1.00  0.00    -0.299 OA
BRANCH  13  15
ATOM     15  C   UNL     1       7.182   2.928 105.708  1.00  0.00     0.106 CG0
ATOM     16  G   UNL     1       6.800   2.746 107.192  1.00  0.00     0.000 G0
ENDBRANCH  13  15
ENDBRANCH  12  13
BRANCH  12  17
ATOM     17  C   UNL     1       4.950   4.133 102.856  1.00  0.00    -0.006 C 
ATOM     18  C   UNL     1       3.662   3.846 102.058  1.00  0.00     0.008 C 
ATOM     19  C   UNL     1       5.132   5.666 102.884  1.00  0.00     0.008 C 
ENDBRANCH  12  17
ENDBRANCH  11  12
ENDBRANCH   1  11
TORSDOF 1
ENDMDL
MODEL 6
REMARK VINA RESULT:    -3.660      2.609      4.804
REMARK INTER + INTRA:          -6.051
REMARK INTER:                  -5.610
REMARK INTRA:                  -0.441
REMARK UNBOUND:                -0.466
REMARK SMILES CC1=CCC[C@@H](C)C(=O)C[C@H](C(C)C)C(=O)C1
REMARK SMILES IDX 8 1 9 2 6 3 7 4 5 5 4 6 3 7 2 8 1 9 10 11 11 12 15 13 16 14
REMARK SMILES IDX 17 15 12 17 13 18 14 19
REMARK H PARENT
REMARK Flexibility Score: 70.00
ROOT
ATOM      1  C   UNL     1       5.699   1.220 109.115  1.00  0.00     0.136 C 
ATOM      2  O   UNL     1       6.033   0.624 110.128  1.00  0.00    -0.299 OA
ENDROOT
BRANCH   1   3
ATOM      3  C   UNL     1       6.599   2.365 108.636  1.00  0.00     0.053 C 
ATOM      4  C   UNL     1       8.076   1.991 108.786  1.00  0.00     0.016 C 
BRANCH   3   5
ATOM      5  C   UNL     1       6.240   3.575 109.459  1.00  0.00     0.015 C 
BRANCH   5   6
ATOM      6  C   UNL     1       4.973   4.379 109.300  1.00  0.00     0.028 C 
BRANCH   6   7
ATOM      7  C   UNL     1       4.873   4.833 107.846  1.00  0.00    -0.028 C 
ATOM      8  C   UNL     1       3.981   4.420 106.886  1.00  0.00    -0.070 CG0
ATOM      9  C   UNL     1       4.030   5.148 105.564  1.00  0.00     0.039 C 
ATOM     10  G   UNL     1       2.958   3.272 107.022  1.00  0.00     0.000 G0
ENDBRANCH   6   7
ENDBRANCH   5   6
ENDBRANCH   3   5
ENDBRANCH   1   3
BRANCH   1  11
ATOM     11  C   UNL     1       4.350   0.847 108.451  1.00  0.00     0.087 C 
BRANCH  11  12
ATOM     12  C   UNL     1       4.204   0.821 106.869  1.00  0.00     0.066 C 
BRANCH  12  13
ATOM     13  C   UNL     1       3.311   1.965 106.306  1.00  0.00     0.140 C 
ATOM     14  O   UNL     1       2.888   1.831 105.167  1.00  0.00    -0.299 OA
BRANCH  13  15
ATOM     15  C   UNL     1       2.944   3.269 107.039  1.00  0.00     0.106 CG0
ATOM     16  G   UNL     1       3.979   4.403 106.882  1.00  0.00     0.000 G0
ENDBRANCH  13  15
ENDBRANCH  12  13
BRANCH  12  17
ATOM     17  C   UNL     1       5.524   0.516 106.079  1.00  0.00    -0.006 C 
ATOM     18  C   UNL     1       5.329  -0.612 105.047  1.00  0.00     0.008 C 
ATOM     19  C   UNL     1       6.021   1.756 105.305  1.00  0.00     0.008 C 
ENDBRANCH  12  17
ENDBRANCH  11  12
ENDBRANCH   1  11
TORSDOF 1
ENDMDL
MODEL 7
REMARK VINA RESULT:    -3.603      2.711      4.112
REMARK INTER + INTRA:          -5.965
REMARK INTER:                  -5.507
REMARK INTRA:                  -0.459
REMARK UNBOUND:                -0.466
REMARK SMILES CC1=CCC[C@@H](C)C(=O)C[C@H](C(C)C)C(=O)C1
REMARK SMILES IDX 8 1 9 2 6 3 7 4 5 5 4 6 3 7 2 8 1 9 10 11 11 12 15 13 16 14
REMARK SMILES IDX 17 15 12 17 13 18 14 19
REMARK H PARENT
REMARK Flexibility Score: 70.00
ROOT
ATOM      1  C   UNL     1       3.714   0.781 106.172  1.00  0.00     0.136 C 
ATOM      2  O   UNL     1       4.293  -0.294 106.130  1.00  0.00    -0.299 OA
ENDROOT
BRANCH   1   3
ATOM      3  C   UNL     1       3.168   1.344 104.856  1.00  0.00     0.053 C 
ATOM      4  C   UNL     1       2.272   0.317 104.159  1.00  0.00     0.016 C 
BRANCH   3   5
ATOM      5  C   UNL     1       4.360   1.715 104.011  1.00  0.00     0.015 C 
BRANCH   5   6
ATOM      6  C   UNL     1       4.804   3.128 103.722  1.00  0.00     0.028 C 
BRANCH   6   7
ATOM      7  C   UNL     1       3.845   4.084 104.424  1.00  0.00    -0.028 C 
ATOM      8  C   UNL     1       4.034   4.766 105.602  1.00  0.00    -0.070 CG0
ATOM      9  C   UNL     1       2.960   5.756 105.987  1.00  0.00     0.039 C 
ATOM     10  G   UNL     1       5.219   4.597 106.575  1.00  0.00     0.000 G0
ENDBRANCH   6   7
ENDBRANCH   5   6
ENDBRANCH   3   5
ENDBRANCH   1   3
BRANCH   1  11
ATOM     11  C   UNL     1       3.664   1.540 107.522  1.00  0.00     0.087 C 
BRANCH  11  12
ATOM     12  C   UNL     1       4.948   2.291 108.079  1.00  0.00     0.066 C 
BRANCH  12  13
ATOM     13  C   UNL     1       4.904   3.835 107.882  1.00  0.00     0.140 C 
ATOM     14  O   UNL     1       4.546   4.508 108.838  1.00  0.00    -0.299 OA
BRANCH  13  15
ATOM     15  C   UNL     1       5.230   4.589 106.579  1.00  0.00     0.106 CG0
ATOM     16  G   UNL     1       4.033   4.754 105.619  1.00  0.00     0.000 G0
ENDBRANCH  13  15
ENDBRANCH  12  13
BRANCH  12  17
ATOM     17  C   UNL     1       5.473   1.782 109.467  1.00  0.00    -0.006 C 
ATOM     18  C   UNL     1       4.617   0.623 110.014  1.00  0.00     0.008 C 
ATOM     19  C   UNL     1       6.924   1.266 109.372  1.00  0.00     0.008 C 
ENDBRANCH  12  17
ENDBRANCH  11  12
ENDBRANCH   1  11
TORSDOF 1
ENDMDL
MODEL 8
REMARK VINA RESULT:    -3.546      2.956      3.521
REMARK INTER + INTRA:          -5.877
REMARK INTER:                  -5.493
REMARK INTRA:                  -0.385
REMARK UNBOUND:                -0.466
REMARK SMILES CC1=CCC[C@@H](C)C(=O)C[C@H](C(C)C)C(=O)C1
REMARK SMILES IDX 8 1 9 2 6 3 7 4 5 5 4 6 3 7 2 8 1 9 10 11 11 12 15 13 16 14
REMARK SMILES IDX 17 15 12 17 13 18 14 19
REMARK H PARENT
REMARK Flexibility Score: 70.00
ROOT
ATOM      1  C   UNL     1       4.856   4.172 108.608  1.00  0.00     0.136 C 
ATOM      2  O   UNL     1       4.579   4.205 109.798  1.00  0.00    -0.299 OA
ENDROOT
BRANCH   1   3
ATOM      3  C   UNL     1       4.502   5.401 107.764  1.00  0.00     0.053 C 
ATOM      4  C   UNL     1       3.205   6.045 108.262  1.00  0.00     0.016 C 
BRANCH   3   5
ATOM      5  C   UNL     1       4.383   4.932 106.337  1.00  0.00     0.015 C 
BRANCH   5   6
ATOM      6  C   UNL     1       3.113   4.422 105.702  1.00  0.00     0.028 C 
BRANCH   6   7
ATOM      7  C   UNL     1       3.492   3.487 104.557  1.00  0.00    -0.028 C 
ATOM      8  C   UNL     1       3.450   2.114 104.531  1.00  0.00    -0.070 CG0
ATOM      9  C   UNL     1       3.753   1.456 103.207  1.00  0.00     0.039 C 
ATOM     10  G   UNL     1       3.150   1.186 105.728  1.00  0.00     0.000 G0
ENDBRANCH   6   7
ENDBRANCH   5   6
ENDBRANCH   3   5
ENDBRANCH   1   3
BRANCH   1  11
ATOM     11  C   UNL     1       5.445   2.864 108.023  1.00  0.00     0.087 C 
BRANCH  11  12
ATOM     12  C   UNL     1       4.610   1.513 108.054  1.00  0.00     0.066 C 
BRANCH  12  13
ATOM     13  C   UNL     1       4.364   0.899 106.645  1.00  0.00     0.140 C 
ATOM     14  O   UNL     1       5.224   0.150 106.206  1.00  0.00    -0.299 OA
BRANCH  13  15
ATOM     15  C   UNL     1       3.152   1.182 105.735  1.00  0.00     0.106 CG0
ATOM     16  G   UNL     1       3.451   2.117 104.545  1.00  0.00     0.000 G0
ENDBRANCH  13  15
ENDBRANCH  12  13
BRANCH  12  17
ATOM     17  C   UNL     1       5.005   0.508 109.191  1.00  0.00    -0.006 C 
ATOM     18  C   UNL     1       6.125   1.068 110.090  1.00  0.00     0.008 C 
ATOM     19  C   UNL     1       3.806   0.190 110.110  1.00  0.00     0.008 C 
ENDBRANCH  12  17
ENDBRANCH  11  12
ENDBRANCH   1  11
TORSDOF 1
ENDMDL
MODEL 9
REMARK VINA RESULT:    -3.537      1.960      3.845
REMARK INTER + INTRA:          -5.863
REMARK INTER:                  -5.283
REMARK INTRA:                  -0.581
REMARK UNBOUND:                -0.466
REMARK SMILES CC1=CCC[C@@H](C)C(=O)C[C@H](C(C)C)C(=O)C1
REMARK SMILES IDX 8 1 9 2 6 3 7 4 5 5 4 6 3 7 2 8 1 9 10 11 11 12 15 13 16 14
REMARK SMILES IDX 17 15 12 17 13 18 14 19
REMARK H PARENT
REMARK Flexibility Score: 70.00
ROOT
ATOM      1  C   UNL     1       6.655   4.024 105.286  1.00  0.00     0.136 C 
ATOM      2  O   UNL     1       7.870   4.158 105.276  1.00  0.00    -0.299 OA
ENDROOT
BRANCH   1   3
ATOM      3  C   UNL     1       6.027   3.172 104.178  1.00  0.00     0.053 C 
ATOM      4  C   UNL     1       4.710   3.790 103.701  1.00  0.00     0.016 C 
BRANCH   3   5
ATOM      5  C   UNL     1       5.825   1.792 104.749  1.00  0.00     0.015 C 
BRANCH   5   6
ATOM      6  C   UNL     1       6.882   1.000 105.478  1.00  0.00     0.028 C 
BRANCH   6   7
ATOM      7  C   UNL     1       6.244   0.374 106.715  1.00  0.00    -0.028 C 
ATOM      8  C   UNL     1       6.127   0.910 107.975  1.00  0.00    -0.070 CG0
ATOM      9  C   UNL     1       5.320   0.114 108.973  1.00  0.00     0.039 C 
ATOM     10  G   UNL     1       6.761   2.227 108.470  1.00  0.00     0.000 G0
ENDBRANCH   6   7
ENDBRANCH   5   6
ENDBRANCH   3   5
ENDBRANCH   1   3
BRANCH   1  11
ATOM     11  C   UNL     1       5.835   4.802 106.346  1.00  0.00     0.087 C 
BRANCH  11  12
ATOM     12  C   UNL     1       4.938   4.029 107.405  1.00  0.00     0.066 C 
BRANCH  12  13
ATOM     13  C   UNL     1       5.751   3.413 108.581  1.00  0.00     0.140 C 
ATOM     14  O   UNL     1       5.608   3.920 109.683  1.00  0.00    -0.299 OA
BRANCH  13  15
ATOM     15  C   UNL     1       6.753   2.247 108.473  1.00  0.00     0.106 CG0
ATOM     16  G   UNL     1       6.138   0.920 107.980  1.00  0.00     0.000 G0
ENDBRANCH  13  15
ENDBRANCH  12  13
BRANCH  12  17
ATOM     17  C   UNL     1       3.592   4.738 107.787  1.00  0.00    -0.006 C 
ATOM     18  C   UNL     1       3.741   6.272 107.823  1.00  0.00     0.008 C 
ATOM     19  C   UNL     1       2.473   4.418 106.773  1.00  0.00     0.008 C 
ENDBRANCH  12  17
ENDBRANCH  11  12
ENDBRANCH   1  11
TORSDOF 1
ENDMDL
