MODEL 1
REMARK VINA RESULT:     2.722      0.000      0.000
REMARK INTER + INTRA:           3.117
REMARK INTER:                   3.677
REMARK INTRA:                  -0.560
REMARK UNBOUND:                -0.560
REMARK SMILES C=CC(C)=CCC=C(C)CCC=C(C)C
REMARK SMILES IDX 8 1 7 2 9 3 10 4 11 5 12 6 14 7 13 8 15 9 6 10 5 11 3 12
REMARK SMILES IDX 4 13 2 14 1 15
REMARK H PARENT
REMARK Flexibility Score: inf
ROOT
ATOM      1  C   UNL     1     135.521 140.287 163.056  1.00  0.00    -0.077 C 
ATOM      2  C   UNL     1     135.170 139.168 162.383  1.00  0.00    -0.024 C 
ATOM      3  C   UNL     1     135.971 140.243 164.497  1.00  0.00     0.039 C 
ENDROOT
BRANCH   1   4
ATOM      4  C   UNL     1     135.470 141.623 162.342  1.00  0.00     0.034 C 
BRANCH   4   5
ATOM      5  C   UNL     1     136.781 141.928 161.602  1.00  0.00     0.032 C 
BRANCH   5   6
ATOM      6  C   UNL     1     136.559 142.849 160.426  1.00  0.00    -0.028 C 
ATOM      7  C   UNL     1     139.006 143.145 159.976  1.00  0.00     0.039 C 
ATOM      8  C   UNL     1     137.546 143.378 159.668  1.00  0.00    -0.080 C 
ATOM      9  C   UNL     1     137.162 144.241 158.494  1.00  0.00     0.039 C 
ENDBRANCH   5   6
ENDBRANCH   4   5
ENDBRANCH   1   4
BRANCH   2  10
ATOM     10  C   UNL     1     135.185 137.779 162.972  1.00  0.00     0.055 C 
BRANCH  10  11
ATOM     11  C   UNL     1     135.149 136.717 161.904  1.00  0.00    -0.020 C 
ATOM     12  C   UNL     1     136.171 135.891 161.599  1.00  0.00    -0.055 C 
ATOM     13  C   UNL     1     135.993 134.911 160.465  1.00  0.00     0.044 C 
BRANCH  12  14
ATOM     14  C   UNL     1     137.468 135.951 162.330  1.00  0.00    -0.005 C 
ATOM     15  C   UNL     1     138.214 134.875 162.582  1.00  0.00     0.009 C 
ENDBRANCH  12  14
ENDBRANCH  10  11
ENDBRANCH   2  10
TORSDOF 6
ENDMDL
MODEL 2
REMARK VINA RESULT:     4.788      2.630      5.682
REMARK INTER + INTRA:           5.907
REMARK INTER:                   5.764
REMARK INTRA:                   0.143
REMARK UNBOUND:                -0.560
REMARK SMILES C=CC(C)=CCC=C(C)CCC=C(C)C
REMARK SMILES IDX 8 1 7 2 9 3 10 4 11 5 12 6 14 7 13 8 15 9 6 10 5 11 3 12
REMARK SMILES IDX 4 13 2 14 1 15
REMARK H PARENT
REMARK Flexibility Score: inf
ROOT
ATOM      1  C   UNL     1     135.188 139.665 162.783  1.00  0.00    -0.077 C 
ATOM      2  C   UNL     1     134.995 138.743 163.753  1.00  0.00    -0.024 C 
ATOM      3  C   UNL     1     135.716 141.047 163.089  1.00  0.00     0.039 C 
ENDROOT
BRANCH   1   4
ATOM      4  C   UNL     1     134.875 139.300 161.345  1.00  0.00     0.034 C 
BRANCH   4   5
ATOM      5  C   UNL     1     135.035 137.795 161.088  1.00  0.00     0.032 C 
BRANCH   5   6
ATOM      6  C   UNL     1     136.361 137.278 161.594  1.00  0.00    -0.028 C 
ATOM      7  C   UNL     1     135.654 134.876 161.501  1.00  0.00     0.039 C 
ATOM      8  C   UNL     1     136.663 135.970 161.755  1.00  0.00    -0.080 C 
ATOM      9  C   UNL     1     138.050 135.608 162.221  1.00  0.00     0.039 C 
ENDBRANCH   5   6
ENDBRANCH   4   5
ENDBRANCH   1   4
BRANCH   2  10
ATOM     10  C   UNL     1     135.277 138.974 165.217  1.00  0.00     0.055 C 
BRANCH  10  11
ATOM     11  C   UNL     1     136.650 139.553 165.439  1.00  0.00    -0.020 C 
ATOM     12  C   UNL     1     137.633 138.963 166.150  1.00  0.00    -0.055 C 
ATOM     13  C   UNL     1     138.940 139.696 166.321  1.00  0.00     0.044 C 
BRANCH  12  14
ATOM     14  C   UNL     1     137.442 137.630 166.788  1.00  0.00    -0.005 C 
ATOM     15  C   UNL     1     137.129 137.475 168.075  1.00  0.00     0.009 C 
ENDBRANCH  12  14
ENDBRANCH  10  11
ENDBRANCH   2  10
TORSDOF 6
ENDMDL
