MODEL 1
REMARK VINA RESULT:    -2.817      0.000      0.000
REMARK INTER + INTRA:          -4.917
REMARK INTER:                  -4.300
REMARK INTRA:                  -0.617
REMARK UNBOUND:                -0.617
REMARK SMILES O=C([O-])CCCCCCCCC(=O)[O-]
REMARK SMILES IDX 7 1 6 2 5 3 4 4 2 5 1 6 3 7 8 8 9 9 10 10 11 11 12 12 13 13
REMARK SMILES IDX 14 14
REMARK H PARENT
REMARK Flexibility Score: inf
ROOT
ATOM      1  C   UNL     1     -21.806  15.226 -22.124  1.00  0.00     0.000 C 
ENDROOT
BRANCH   1   2
ATOM      2  C   UNL     1     -22.165  14.670 -23.509  1.00  0.00     0.000 C 
BRANCH   2   3
ATOM      3  C   UNL     1     -21.636  13.243 -23.742  1.00  0.00     0.006 C 
BRANCH   3   4
ATOM      4  C   UNL     1     -20.595  13.138 -24.870  1.00  0.00     0.053 C 
BRANCH   4   5
ATOM      5  C   UNL     1     -19.191  13.340 -24.385  1.00  0.00     0.041 C 
ATOM      6  O   UNL     1     -18.378  12.378 -24.373  1.00  0.00    -0.550 OA
ATOM      7  O   UNL     1     -18.771  14.599 -23.975  1.00  0.00    -0.550 OA
ENDBRANCH   4   5
ENDBRANCH   3   4
ENDBRANCH   2   3
ENDBRANCH   1   2
BRANCH   1   8
ATOM      8  C   UNL     1     -21.119  14.158 -21.264  1.00  0.00     0.000 C 
BRANCH   8   9
ATOM      9  C   UNL     1     -20.009  14.774 -20.404  1.00  0.00     0.000 C 
BRANCH   9  10
ATOM     10  C   UNL     1     -19.900  14.060 -19.051  1.00  0.00     0.006 C 
BRANCH  10  11
ATOM     11  C   UNL     1     -21.287  13.754 -18.478  1.00  0.00     0.053 C 
BRANCH  11  12
ATOM     12  C   UNL     1     -21.196  12.691 -17.427  1.00  0.00     0.041 C 
ATOM     13  O   UNL     1     -20.350  11.765 -17.535  1.00  0.00    -0.550 OA
ATOM     14  O   UNL     1     -22.011  12.753 -16.305  1.00  0.00    -0.550 OA
ENDBRANCH  11  12
ENDBRANCH  10  11
ENDBRANCH   9  10
ENDBRANCH   8   9
ENDBRANCH   1   8
TORSDOF 9
ENDMDL
MODEL 2
REMARK VINA RESULT:    -2.798      2.240      3.177
REMARK INTER + INTRA:          -4.888
REMARK INTER:                  -3.976
REMARK INTRA:                  -0.912
REMARK UNBOUND:                -0.617
REMARK SMILES O=C([O-])CCCCCCCCC(=O)[O-]
REMARK SMILES IDX 7 1 6 2 5 3 4 4 2 5 1 6 3 7 8 8 9 9 10 10 11 11 12 12 13 13
REMARK SMILES IDX 14 14
REMARK H PARENT
REMARK Flexibility Score: inf
ROOT
ATOM      1  C   UNL     1     -21.755  13.128 -23.568  1.00  0.00     0.000 C 
ENDROOT
BRANCH   1   2
ATOM      2  C   UNL     1     -20.832  12.869 -24.767  1.00  0.00     0.000 C 
BRANCH   2   3
ATOM      3  C   UNL     1     -19.343  13.087 -24.440  1.00  0.00     0.006 C 
BRANCH   3   4
ATOM      4  C   UNL     1     -18.726  14.318 -25.125  1.00  0.00     0.053 C 
BRANCH   4   5
ATOM      5  C   UNL     1     -17.413  14.720 -24.524  1.00  0.00     0.041 C 
ATOM      6  O   UNL     1     -16.385  14.018 -24.718  1.00  0.00    -0.550 OA
ATOM      7  O   UNL     1     -17.317  15.886 -23.775  1.00  0.00    -0.550 OA
ENDBRANCH   4   5
ENDBRANCH   3   4
ENDBRANCH   2   3
ENDBRANCH   1   2
BRANCH   1   8
ATOM      8  C   UNL     1     -22.243  14.582 -23.554  1.00  0.00     0.000 C 
BRANCH   8   9
ATOM      9  C   UNL     1     -21.765  15.311 -22.293  1.00  0.00     0.000 C 
BRANCH   9  10
ATOM     10  C   UNL     1     -20.935  14.380 -21.400  1.00  0.00     0.006 C 
BRANCH  10  11
ATOM     11  C   UNL     1     -19.630  15.054 -20.966  1.00  0.00     0.053 C 
BRANCH  11  12
ATOM     12  C   UNL     1     -18.657  14.035 -20.461  1.00  0.00     0.041 C 
ATOM     13  O   UNL     1     -18.805  13.530 -19.318  1.00  0.00    -0.550 OA
ATOM     14  O   UNL     1     -17.616  13.606 -21.274  1.00  0.00    -0.550 OA
ENDBRANCH  11  12
ENDBRANCH  10  11
ENDBRANCH   9  10
ENDBRANCH   8   9
ENDBRANCH   1   8
TORSDOF 9
ENDMDL
MODEL 3
REMARK VINA RESULT:    -2.798      1.390      5.795
REMARK INTER + INTRA:          -4.887
REMARK INTER:                  -4.112
REMARK INTRA:                  -0.775
REMARK UNBOUND:                -0.617
REMARK SMILES O=C([O-])CCCCCCCCC(=O)[O-]
REMARK SMILES IDX 7 1 6 2 5 3 4 4 2 5 1 6 3 7 8 8 9 9 10 10 11 11 12 12 13 13
REMARK SMILES IDX 14 14
REMARK H PARENT
REMARK Flexibility Score: inf
ROOT
ATOM      1  C   UNL     1     -22.224  14.631 -23.459  1.00  0.00     0.000 C 
ENDROOT
BRANCH   1   2
ATOM      2  C   UNL     1     -21.628  15.249 -22.187  1.00  0.00     0.000 C 
BRANCH   2   3
ATOM      3  C   UNL     1     -21.057  14.199 -21.216  1.00  0.00     0.006 C 
BRANCH   3   4
ATOM      4  C   UNL     1     -20.285  14.800 -20.028  1.00  0.00     0.053 C 
BRANCH   4   5
ATOM      5  C   UNL     1     -20.670  14.187 -18.716  1.00  0.00     0.041 C 
ATOM      6  O   UNL     1     -21.530  13.268 -18.672  1.00  0.00    -0.550 OA
ATOM      7  O   UNL     1     -20.057  14.610 -17.544  1.00  0.00    -0.550 OA
ENDBRANCH   4   5
ENDBRANCH   3   4
ENDBRANCH   2   3
ENDBRANCH   1   2
BRANCH   1   8
ATOM      8  C   UNL     1     -21.852  13.147 -23.576  1.00  0.00     0.000 C 
BRANCH   8   9
ATOM      9  C   UNL     1     -20.968  12.896 -24.803  1.00  0.00     0.000 C 
BRANCH   9  10
ATOM     10  C   UNL     1     -19.481  13.010 -24.443  1.00  0.00     0.006 C 
BRANCH  10  11
ATOM     11  C   UNL     1     -18.862  14.267 -25.062  1.00  0.00     0.053 C 
BRANCH  11  12
ATOM     12  C   UNL     1     -17.836  14.851 -24.141  1.00  0.00     0.041 C 
ATOM     13  O   UNL     1     -16.985  15.668 -24.579  1.00  0.00    -0.550 OA
ATOM     14  O   UNL     1     -17.853  14.532 -22.790  1.00  0.00    -0.550 OA
ENDBRANCH  11  12
ENDBRANCH  10  11
ENDBRANCH   9  10
ENDBRANCH   8   9
ENDBRANCH   1   8
TORSDOF 9
ENDMDL
MODEL 4
REMARK VINA RESULT:    -2.771      3.102      4.209
REMARK INTER + INTRA:          -4.846
REMARK INTER:                  -4.040
REMARK INTRA:                  -0.806
REMARK UNBOUND:                -0.617
REMARK SMILES O=C([O-])CCCCCCCCC(=O)[O-]
REMARK SMILES IDX 7 1 6 2 5 3 4 4 2 5 1 6 3 7 8 8 9 9 10 10 11 11 12 12 13 13
REMARK SMILES IDX 14 14
REMARK H PARENT
REMARK Flexibility Score: inf
ROOT
ATOM      1  C   UNL     1     -19.758  13.667 -24.744  1.00  0.00     0.000 C 
ENDROOT
BRANCH   1   2
ATOM      2  C   UNL     1     -21.081  12.888 -24.738  1.00  0.00     0.000 C 
BRANCH   2   3
ATOM      3  C   UNL     1     -22.003  13.275 -23.567  1.00  0.00     0.006 C 
BRANCH   3   4
ATOM      4  C   UNL     1     -21.993  14.776 -23.232  1.00  0.00     0.053 C 
BRANCH   4   5
ATOM      5  C   UNL     1     -23.367  15.375 -23.207  1.00  0.00     0.041 C 
ATOM      6  O   UNL     1     -24.270  14.925 -23.961  1.00  0.00    -0.550 OA
ATOM      7  O   UNL     1     -23.659  16.411 -22.328  1.00  0.00    -0.550 OA
ENDBRANCH   4   5
ENDBRANCH   3   4
ENDBRANCH   2   3
ENDBRANCH   1   2
BRANCH   1   8
ATOM      8  C   UNL     1     -18.592  12.773 -24.303  1.00  0.00     0.000 C 
BRANCH   8   9
ATOM      9  C   UNL     1     -17.627  13.537 -23.390  1.00  0.00     0.000 C 
BRANCH   9  10
ATOM     10  C   UNL     1     -18.382  14.529 -22.497  1.00  0.00     0.006 C 
BRANCH  10  11
ATOM     11  C   UNL     1     -18.670  13.921 -21.121  1.00  0.00     0.053 C 
BRANCH  11  12
ATOM     12  C   UNL     1     -18.996  14.996 -20.132  1.00  0.00     0.041 C 
ATOM     13  O   UNL     1     -18.179  15.285 -19.219  1.00  0.00    -0.550 OA
ATOM     14  O   UNL     1     -20.180  15.712 -20.248  1.00  0.00    -0.550 OA
ENDBRANCH  11  12
ENDBRANCH  10  11
ENDBRANCH   9  10
ENDBRANCH   8   9
ENDBRANCH   1   8
TORSDOF 9
ENDMDL
MODEL 5
REMARK VINA RESULT:    -2.693     14.050     15.856
REMARK INTER + INTRA:          -4.727
REMARK INTER:                  -3.961
REMARK INTRA:                  -0.766
REMARK UNBOUND:                -0.617
REMARK SMILES O=C([O-])CCCCCCCCC(=O)[O-]
REMARK SMILES IDX 7 1 6 2 5 3 4 4 2 5 1 6 3 7 8 8 9 9 10 10 11 11 12 12 13 13
REMARK SMILES IDX 14 14
REMARK H PARENT
REMARK Flexibility Score: inf
ROOT
ATOM      1  C   UNL     1     -24.374  30.010 -18.552  1.00  0.00     0.000 C 
ENDROOT
BRANCH   1   2
ATOM      2  C   UNL     1     -24.924  29.465 -17.226  1.00  0.00     0.000 C 
BRANCH   2   3
ATOM      3  C   UNL     1     -23.932  28.540 -16.496  1.00  0.00     0.006 C 
BRANCH   3   4
ATOM      4  C   UNL     1     -23.801  27.142 -17.127  1.00  0.00     0.053 C 
BRANCH   4   5
ATOM      5  C   UNL     1     -22.495  26.945 -17.834  1.00  0.00     0.041 C 
ATOM      6  O   UNL     1     -22.324  25.951 -18.589  1.00  0.00    -0.550 OA
ATOM      7  O   UNL     1     -21.474  27.876 -17.684  1.00  0.00    -0.550 OA
ENDBRANCH   4   5
ENDBRANCH   3   4
ENDBRANCH   2   3
ENDBRANCH   1   2
BRANCH   1   8
ATOM      8  C   UNL     1     -25.046  29.324 -19.749  1.00  0.00     0.000 C 
BRANCH   8   9
ATOM      9  C   UNL     1     -24.848  30.139 -21.032  1.00  0.00     0.000 C 
BRANCH   9  10
ATOM     10  C   UNL     1     -23.671  29.597 -21.853  1.00  0.00     0.006 C 
BRANCH  10  11
ATOM     11  C   UNL     1     -23.413  28.121 -21.534  1.00  0.00     0.053 C 
BRANCH  11  12
ATOM     12  C   UNL     1     -21.943  27.840 -21.516  1.00  0.00     0.041 C 
ATOM     13  O   UNL     1     -21.157  28.617 -20.915  1.00  0.00    -0.550 OA
ATOM     14  O   UNL     1     -21.448  26.692 -22.121  1.00  0.00    -0.550 OA
ENDBRANCH  11  12
ENDBRANCH  10  11
ENDBRANCH   9  10
ENDBRANCH   8   9
ENDBRANCH   1   8
TORSDOF 9
ENDMDL
MODEL 6
REMARK VINA RESULT:    -2.681     14.050     15.732
REMARK INTER + INTRA:          -4.708
REMARK INTER:                  -3.895
REMARK INTRA:                  -0.813
REMARK UNBOUND:                -0.617
REMARK SMILES O=C([O-])CCCCCCCCC(=O)[O-]
REMARK SMILES IDX 7 1 6 2 5 3 4 4 2 5 1 6 3 7 8 8 9 9 10 10 11 11 12 12 13 13
REMARK SMILES IDX 14 14
REMARK H PARENT
REMARK Flexibility Score: inf
ROOT
ATOM      1  C   UNL     1     -24.839  29.999 -21.001  1.00  0.00     0.000 C 
ENDROOT
BRANCH   1   2
ATOM      2  C   UNL     1     -24.865  29.180 -19.703  1.00  0.00     0.000 C 
BRANCH   2   3
ATOM      3  C   UNL     1     -24.376  29.974 -18.478  1.00  0.00     0.006 C 
BRANCH   3   4
ATOM      4  C   UNL     1     -24.996  29.516 -17.147  1.00  0.00     0.053 C 
BRANCH   4   5
ATOM      5  C   UNL     1     -24.417  28.226 -16.651  1.00  0.00     0.041 C 
ATOM      6  O   UNL     1     -23.300  28.212 -16.069  1.00  0.00    -0.550 OA
ATOM      7  O   UNL     1     -25.125  27.040 -16.805  1.00  0.00    -0.550 OA
ENDBRANCH   4   5
ENDBRANCH   3   4
ENDBRANCH   2   3
ENDBRANCH   1   2
BRANCH   1   8
ATOM      8  C   UNL     1     -23.622  29.630 -21.860  1.00  0.00     0.000 C 
BRANCH   8   9
ATOM      9  C   UNL     1     -23.005  28.305 -21.400  1.00  0.00     0.000 C 
BRANCH   9  10
ATOM     10  C   UNL     1     -21.535  28.490 -21.004  1.00  0.00     0.006 C 
BRANCH  10  11
ATOM     11  C   UNL     1     -21.302  28.068 -19.550  1.00  0.00     0.053 C 
BRANCH  11  12
ATOM     12  C   UNL     1     -21.428  26.583 -19.409  1.00  0.00     0.041 C 
ATOM     13  O   UNL     1     -20.754  25.818 -20.146  1.00  0.00    -0.550 OA
ATOM     14  O   UNL     1     -22.253  26.046 -18.430  1.00  0.00    -0.550 OA
ENDBRANCH  11  12
ENDBRANCH  10  11
ENDBRANCH   9  10
ENDBRANCH   8   9
ENDBRANCH   1   8
TORSDOF 9
ENDMDL
MODEL 7
REMARK VINA RESULT:    -2.680      2.742      3.804
REMARK INTER + INTRA:          -4.708
REMARK INTER:                  -3.729
REMARK INTRA:                  -0.979
REMARK UNBOUND:                -0.617
REMARK SMILES O=C([O-])CCCCCCCCC(=O)[O-]
REMARK SMILES IDX 7 1 6 2 5 3 4 4 2 5 1 6 3 7 8 8 9 9 10 10 11 11 12 12 13 13
REMARK SMILES IDX 14 14
REMARK H PARENT
REMARK Flexibility Score: inf
ROOT
ATOM      1  C   UNL     1     -20.819  14.126 -25.087  1.00  0.00     0.000 C 
ENDROOT
BRANCH   1   2
ATOM      2  C   UNL     1     -20.106  12.804 -24.766  1.00  0.00     0.000 C 
BRANCH   2   3
ATOM      3  C   UNL     1     -18.614  12.989 -24.432  1.00  0.00     0.006 C 
BRANCH   3   4
ATOM      4  C   UNL     1     -18.100  14.424 -24.639  1.00  0.00     0.053 C 
BRANCH   4   5
ATOM      5  C   UNL     1     -17.735  15.101 -23.353  1.00  0.00     0.041 C 
ATOM      6  O   UNL     1     -17.749  14.458 -22.270  1.00  0.00    -0.550 OA
ATOM      7  O   UNL     1     -17.349  16.436 -23.354  1.00  0.00    -0.550 OA
ENDBRANCH   4   5
ENDBRANCH   3   4
ENDBRANCH   2   3
ENDBRANCH   1   2
BRANCH   1   8
ATOM      8  C   UNL     1     -21.915  14.425 -24.056  1.00  0.00     0.000 C 
BRANCH   8   9
ATOM      9  C   UNL     1     -21.826  13.464 -22.864  1.00  0.00     0.000 C 
BRANCH   9  10
ATOM     10  C   UNL     1     -21.195  14.153 -21.647  1.00  0.00     0.006 C 
BRANCH  10  11
ATOM     11  C   UNL     1     -21.409  15.669 -21.702  1.00  0.00     0.053 C 
BRANCH  11  12
ATOM     12  C   UNL     1     -20.381  16.373 -20.872  1.00  0.00     0.041 C 
ATOM     13  O   UNL     1     -20.025  15.893 -19.765  1.00  0.00    -0.550 OA
ATOM     14  O   UNL     1     -19.780  17.532 -21.346  1.00  0.00    -0.550 OA
ENDBRANCH  11  12
ENDBRANCH  10  11
ENDBRANCH   9  10
ENDBRANCH   8   9
ENDBRANCH   1   8
TORSDOF 9
ENDMDL
MODEL 8
REMARK VINA RESULT:    -2.675     14.444     15.964
REMARK INTER + INTRA:          -4.700
REMARK INTER:                  -3.672
REMARK INTRA:                  -1.028
REMARK UNBOUND:                -0.617
REMARK SMILES O=C([O-])CCCCCCCCC(=O)[O-]
REMARK SMILES IDX 7 1 6 2 5 3 4 4 2 5 1 6 3 7 8 8 9 9 10 10 11 11 12 12 13 13
REMARK SMILES IDX 14 14
REMARK H PARENT
REMARK Flexibility Score: inf
ROOT
ATOM      1  C   UNL     1     -21.948  28.513 -21.233  1.00  0.00     0.000 C 
ENDROOT
BRANCH   1   2
ATOM      2  C   UNL     1     -23.264  28.664 -22.009  1.00  0.00     0.000 C 
BRANCH   2   3
ATOM      3  C   UNL     1     -24.509  28.600 -21.104  1.00  0.00     0.006 C 
BRANCH   3   4
ATOM      4  C   UNL     1     -24.712  29.851 -20.232  1.00  0.00     0.053 C 
BRANCH   4   5
ATOM      5  C   UNL     1     -24.569  29.567 -18.768  1.00  0.00     0.041 C 
ATOM      6  O   UNL     1     -24.595  28.381 -18.345  1.00  0.00    -0.550 OA
ATOM      7  O   UNL     1     -24.376  30.611 -17.871  1.00  0.00    -0.550 OA
ENDBRANCH   4   5
ENDBRANCH   3   4
ENDBRANCH   2   3
ENDBRANCH   1   2
BRANCH   1   8
ATOM      8  C   UNL     1     -21.924  27.200 -20.441  1.00  0.00     0.000 C 
BRANCH   8   9
ATOM      9  C   UNL     1     -21.180  27.372 -19.112  1.00  0.00     0.000 C 
BRANCH   9  10
ATOM     10  C   UNL     1     -20.982  28.856 -18.779  1.00  0.00     0.006 C 
BRANCH  10  11
ATOM     11  C   UNL     1     -19.547  29.129 -18.318  1.00  0.00     0.053 C 
BRANCH  11  12
ATOM     12  C   UNL     1     -18.576  28.803 -19.410  1.00  0.00     0.041 C 
ATOM     13  O   UNL     1     -18.593  29.453 -20.487  1.00  0.00    -0.550 OA
ATOM     14  O   UNL     1     -17.620  27.814 -19.217  1.00  0.00    -0.550 OA
ENDBRANCH  11  12
ENDBRANCH  10  11
ENDBRANCH   9  10
ENDBRANCH   8   9
ENDBRANCH   1   8
TORSDOF 9
ENDMDL
MODEL 9
REMARK VINA RESULT:    -2.607      2.800      5.703
REMARK INTER + INTRA:          -4.596
REMARK INTER:                  -3.655
REMARK INTRA:                  -0.941
REMARK UNBOUND:                -0.617
REMARK SMILES O=C([O-])CCCCCCCCC(=O)[O-]
REMARK SMILES IDX 7 1 6 2 5 3 4 4 2 5 1 6 3 7 8 8 9 9 10 10 11 11 12 12 13 13
REMARK SMILES IDX 14 14
REMARK H PARENT
REMARK Flexibility Score: inf
ROOT
ATOM      1  C   UNL     1     -21.575  14.742 -23.174  1.00  0.00     0.000 C 
ENDROOT
BRANCH   1   2
ATOM      2  C   UNL     1     -21.392  14.828 -21.652  1.00  0.00     0.000 C 
BRANCH   2   3
ATOM      3  C   UNL     1     -20.046  14.253 -21.173  1.00  0.00     0.006 C 
BRANCH   3   4
ATOM      4  C   UNL     1     -18.842  15.172 -21.445  1.00  0.00     0.053 C 
BRANCH   4   5
ATOM      5  C   UNL     1     -19.049  16.566 -20.937  1.00  0.00     0.041 C 
ATOM      6  O   UNL     1     -19.177  16.780 -19.702  1.00  0.00    -0.550 OA
ATOM      7  O   UNL     1     -19.070  17.635 -21.825  1.00  0.00    -0.550 OA
ENDBRANCH   4   5
ENDBRANCH   3   4
ENDBRANCH   2   3
ENDBRANCH   1   2
BRANCH   1   8
ATOM      8  C   UNL     1     -21.991  13.328 -23.599  1.00  0.00     0.000 C 
BRANCH   8   9
ATOM      9  C   UNL     1     -21.132  12.828 -24.765  1.00  0.00     0.000 C 
BRANCH   9  10
ATOM     10  C   UNL     1     -19.861  13.673 -24.915  1.00  0.00     0.006 C 
BRANCH  10  11
ATOM     11  C   UNL     1     -18.628  12.901 -24.437  1.00  0.00     0.053 C 
BRANCH  11  12
ATOM     12  C   UNL     1     -17.393  13.731 -24.604  1.00  0.00     0.041 C 
ATOM     13  O   UNL     1     -16.260  13.184 -24.622  1.00  0.00    -0.550 OA
ATOM     14  O   UNL     1     -17.498  15.103 -24.788  1.00  0.00    -0.550 OA
ENDBRANCH  11  12
ENDBRANCH  10  11
ENDBRANCH   9  10
ENDBRANCH   8   9
ENDBRANCH   1   8
TORSDOF 9
ENDMDL
