MODEL 1
REMARK VINA RESULT:    -4.622      0.000      0.000
REMARK INTER + INTRA:          -5.350
REMARK INTER:                  -5.297
REMARK INTRA:                  -0.052
REMARK UNBOUND:                -0.052
REMARK SMILES O=C([O-])c1cc(O)c(O)c(O)c1
REMARK SMILES IDX 4 1 5 2 12 3 6 4 10 5 8 6 2 7 1 8 3 9 7 10 11 12 9 14
REMARK H PARENT 7 11 11 13 9 15
REMARK Flexibility Score: inf
ROOT
ATOM      1  C   UNL     1     -59.068  26.592 -14.611  1.00  0.00     0.005 A 
ATOM      2  C   UNL     1     -57.873  25.861 -14.508  1.00  0.00     0.060 A 
ATOM      3  C   UNL     1     -59.256  27.442 -15.714  1.00  0.00     0.060 A 
ATOM      4  C   UNL     1     -56.880  25.977 -15.491  1.00  0.00     0.162 A 
ATOM      5  C   UNL     1     -58.266  27.561 -16.701  1.00  0.00     0.162 A 
ATOM      6  C   UNL     1     -57.075  26.826 -16.588  1.00  0.00     0.200 A 
ENDROOT
BRANCH   1   7
ATOM      7  C   UNL     1     -60.112  26.466 -13.569  1.00  0.00     0.072 C 
ATOM      8  O   UNL     1     -61.277  26.901 -13.773  1.00  0.00    -0.545 OA
ATOM      9  O   UNL     1     -59.822  25.866 -12.349  1.00  0.00    -0.545 OA
ENDBRANCH   1   7
BRANCH   4  10
ATOM     10  O   UNL     1     -55.696  25.250 -15.385  1.00  0.00    -0.504 OA
ATOM     11  H   UNL     1     -55.130  25.276 -14.544  1.00  0.00     0.293 HD
ENDBRANCH   4  10
BRANCH   5  12
ATOM     12  O   UNL     1     -58.463  28.407 -17.791  1.00  0.00    -0.504 OA
ATOM     13  H   UNL     1     -59.389  28.584 -18.166  1.00  0.00     0.293 HD
ENDBRANCH   5  12
BRANCH   6  14
ATOM     14  O   UNL     1     -56.076  26.927 -17.557  1.00  0.00    -0.502 OA
ATOM     15  H   UNL     1     -55.538  26.124 -17.862  1.00  0.00     0.293 HD
ENDBRANCH   6  14
TORSDOF 4
ENDMDL
MODEL 2
REMARK VINA RESULT:    -4.601      0.022      2.421
REMARK INTER + INTRA:          -5.326
REMARK INTER:                  -5.273
REMARK INTRA:                  -0.052
REMARK UNBOUND:                -0.052
REMARK SMILES O=C([O-])c1cc(O)c(O)c(O)c1
REMARK SMILES IDX 4 1 5 2 12 3 6 4 10 5 8 6 2 7 1 8 3 9 7 10 11 12 9 14
REMARK H PARENT 7 11 11 13 9 15
REMARK Flexibility Score: inf
ROOT
ATOM      1  C   UNL     1     -59.062  26.588 -14.607  1.00  0.00     0.005 A 
ATOM      2  C   UNL     1     -59.243  27.438 -15.710  1.00  0.00     0.060 A 
ATOM      3  C   UNL     1     -57.870  25.851 -14.501  1.00  0.00     0.060 A 
ATOM      4  C   UNL     1     -58.250  27.549 -16.695  1.00  0.00     0.162 A 
ATOM      5  C   UNL     1     -56.874  25.959 -15.481  1.00  0.00     0.162 A 
ATOM      6  C   UNL     1     -57.065  26.811 -16.582  1.00  0.00     0.200 A 
ENDROOT
BRANCH   1   7
ATOM      7  C   UNL     1     -60.114  26.475 -13.571  1.00  0.00     0.072 C 
ATOM      8  O   UNL     1     -61.270  26.931 -13.780  1.00  0.00    -0.545 OA
ATOM      9  O   UNL     1     -59.841  25.865 -12.353  1.00  0.00    -0.545 OA
ENDBRANCH   1   7
BRANCH   4  10
ATOM     10  O   UNL     1     -58.434  28.392 -17.788  1.00  0.00    -0.504 OA
ATOM     11  H   UNL     1     -58.753  29.348 -17.674  1.00  0.00     0.293 HD
ENDBRANCH   4  10
BRANCH   5  12
ATOM     12  O   UNL     1     -55.696  25.222 -15.366  1.00  0.00    -0.504 OA
ATOM     13  H   UNL     1     -55.450  24.745 -14.506  1.00  0.00     0.293 HD
ENDBRANCH   5  12
BRANCH   6  14
ATOM     14  O   UNL     1     -56.088  26.935 -17.570  1.00  0.00    -0.502 OA
ATOM     15  H   UNL     1     -56.198  26.528 -18.491  1.00  0.00     0.293 HD
ENDBRANCH   6  14
TORSDOF 4
ENDMDL
MODEL 3
REMARK VINA RESULT:    -4.264      1.575      3.060
REMARK INTER + INTRA:          -4.939
REMARK INTER:                  -4.890
REMARK INTRA:                  -0.050
REMARK UNBOUND:                -0.052
REMARK SMILES O=C([O-])c1cc(O)c(O)c(O)c1
REMARK SMILES IDX 4 1 5 2 12 3 6 4 10 5 8 6 2 7 1 8 3 9 7 10 11 12 9 14
REMARK H PARENT 7 11 11 13 9 15
REMARK Flexibility Score: inf
ROOT
ATOM      1  C   UNL     1     -57.112  25.248 -14.632  1.00  0.00     0.005 A 
ATOM      2  C   UNL     1     -56.273  25.573 -15.711  1.00  0.00     0.060 A 
ATOM      3  C   UNL     1     -58.356  25.891 -14.517  1.00  0.00     0.060 A 
ATOM      4  C   UNL     1     -56.670  26.526 -16.660  1.00  0.00     0.162 A 
ATOM      5  C   UNL     1     -58.758  26.844 -15.464  1.00  0.00     0.162 A 
ATOM      6  C   UNL     1     -57.911  27.162 -16.539  1.00  0.00     0.200 A 
ENDROOT
BRANCH   1   7
ATOM      7  C   UNL     1     -56.687  24.242 -13.633  1.00  0.00     0.072 C 
ATOM      8  O   UNL     1     -55.479  24.152 -13.287  1.00  0.00    -0.545 OA
ATOM      9  O   UNL     1     -57.616  23.380 -13.061  1.00  0.00    -0.545 OA
ENDBRANCH   1   7
BRANCH   4  10
ATOM     10  O   UNL     1     -55.834  26.844 -17.728  1.00  0.00    -0.504 OA
ATOM     11  H   UNL     1     -56.087  27.552 -18.409  1.00  0.00     0.293 HD
ENDBRANCH   4  10
BRANCH   5  12
ATOM     12  O   UNL     1     -59.995  27.476 -15.340  1.00  0.00    -0.504 OA
ATOM     13  H   UNL     1     -60.793  27.005 -14.930  1.00  0.00     0.293 HD
ENDBRANCH   5  12
BRANCH   6  14
ATOM     14  O   UNL     1     -58.289  28.106 -17.494  1.00  0.00    -0.502 OA
ATOM     15  H   UNL     1     -58.208  27.929 -18.488  1.00  0.00     0.293 HD
ENDBRANCH   6  14
TORSDOF 4
ENDMDL
MODEL 4
REMARK VINA RESULT:    -4.251      1.494      3.327
REMARK INTER + INTRA:          -4.924
REMARK INTER:                  -4.873
REMARK INTRA:                  -0.051
REMARK UNBOUND:                -0.052
REMARK SMILES O=C([O-])c1cc(O)c(O)c(O)c1
REMARK SMILES IDX 4 1 5 2 12 3 6 4 10 5 8 6 2 7 1 8 3 9 7 10 11 12 9 14
REMARK H PARENT 7 11 11 13 9 15
REMARK Flexibility Score: inf
ROOT
ATOM      1  C   UNL     1     -57.189  25.315 -14.703  1.00  0.00     0.005 A 
ATOM      2  C   UNL     1     -58.415  25.988 -14.567  1.00  0.00     0.060 A 
ATOM      3  C   UNL     1     -56.348  25.639 -15.781  1.00  0.00     0.060 A 
ATOM      4  C   UNL     1     -58.795  26.969 -15.494  1.00  0.00     0.162 A 
ATOM      5  C   UNL     1     -56.723  26.620 -16.710  1.00  0.00     0.162 A 
ATOM      6  C   UNL     1     -57.951  27.287 -16.565  1.00  0.00     0.200 A 
ENDROOT
BRANCH   1   7
ATOM      7  C   UNL     1     -56.794  24.279 -13.722  1.00  0.00     0.072 C 
ATOM      8  O   UNL     1     -55.577  24.051 -13.487  1.00  0.00    -0.545 OA
ATOM      9  O   UNL     1     -57.760  23.543 -13.046  1.00  0.00    -0.545 OA
ENDBRANCH   1   7
BRANCH   4  10
ATOM     10  O   UNL     1     -60.012  27.633 -15.355  1.00  0.00    -0.504 OA
ATOM     11  H   UNL     1     -60.830  27.170 -14.977  1.00  0.00     0.293 HD
ENDBRANCH   4  10
BRANCH   5  12
ATOM     12  O   UNL     1     -55.881  26.934 -17.775  1.00  0.00    -0.504 OA
ATOM     13  H   UNL     1     -54.893  27.116 -17.636  1.00  0.00     0.293 HD
ENDBRANCH   5  12
BRANCH   6  14
ATOM     14  O   UNL     1     -58.346  28.267 -17.476  1.00  0.00    -0.502 OA
ATOM     15  H   UNL     1     -57.731  29.023 -17.755  1.00  0.00     0.293 HD
ENDBRANCH   6  14
TORSDOF 4
ENDMDL
MODEL 5
REMARK VINA RESULT:    -4.172      8.967      9.812
REMARK INTER + INTRA:          -4.834
REMARK INTER:                  -4.781
REMARK INTRA:                  -0.053
REMARK UNBOUND:                -0.052
REMARK SMILES O=C([O-])c1cc(O)c(O)c(O)c1
REMARK SMILES IDX 4 1 5 2 12 3 6 4 10 5 8 6 2 7 1 8 3 9 7 10 11 12 9 14
REMARK H PARENT 7 11 11 13 9 15
REMARK Flexibility Score: inf
ROOT
ATOM      1  C   UNL     1     -59.894  17.036 -17.944  1.00  0.00     0.005 A 
ATOM      2  C   UNL     1     -60.453  18.036 -17.131  1.00  0.00     0.060 A 
ATOM      3  C   UNL     1     -58.512  17.053 -18.194  1.00  0.00     0.060 A 
ATOM      4  C   UNL     1     -59.644  19.038 -16.576  1.00  0.00     0.162 A 
ATOM      5  C   UNL     1     -57.698  18.052 -17.641  1.00  0.00     0.162 A 
ATOM      6  C   UNL     1     -58.267  19.048 -16.829  1.00  0.00     0.200 A 
ENDROOT
BRANCH   1   7
ATOM      7  C   UNL     1     -60.754  15.981 -18.528  1.00  0.00     0.072 C 
ATOM      8  O   UNL     1     -62.008  16.052 -18.432  1.00  0.00    -0.545 OA
ATOM      9  O   UNL     1     -60.189  14.897 -19.189  1.00  0.00    -0.545 OA
ENDBRANCH   1   7
BRANCH   4  10
ATOM     10  O   UNL     1     -60.203  20.027 -15.770  1.00  0.00    -0.504 OA
ATOM     11  H   UNL     1     -60.385  20.960 -16.122  1.00  0.00     0.293 HD
ENDBRANCH   4  10
BRANCH   5  12
ATOM     12  O   UNL     1     -56.327  18.060 -17.896  1.00  0.00    -0.504 OA
ATOM     13  H   UNL     1     -55.652  18.266 -17.168  1.00  0.00     0.293 HD
ENDBRANCH   5  12
BRANCH   6  14
ATOM     14  O   UNL     1     -57.478  20.052 -16.267  1.00  0.00    -0.502 OA
ATOM     15  H   UNL     1     -57.722  21.033 -16.339  1.00  0.00     0.293 HD
ENDBRANCH   6  14
TORSDOF 4
ENDMDL
MODEL 6
REMARK VINA RESULT:    -4.156      8.998      9.696
REMARK INTER + INTRA:          -4.816
REMARK INTER:                  -4.763
REMARK INTRA:                  -0.052
REMARK UNBOUND:                -0.052
REMARK SMILES O=C([O-])c1cc(O)c(O)c(O)c1
REMARK SMILES IDX 4 1 5 2 12 3 6 4 10 5 8 6 2 7 1 8 3 9 7 10 11 12 9 14
REMARK H PARENT 7 11 11 13 9 15
REMARK Flexibility Score: inf
ROOT
ATOM      1  C   UNL     1     -59.837  16.983 -17.943  1.00  0.00     0.005 A 
ATOM      2  C   UNL     1     -58.461  17.009 -18.227  1.00  0.00     0.060 A 
ATOM      3  C   UNL     1     -60.384  17.985 -17.125  1.00  0.00     0.060 A 
ATOM      4  C   UNL     1     -57.644  18.020 -17.702  1.00  0.00     0.162 A 
ATOM      5  C   UNL     1     -59.572  19.000 -16.598  1.00  0.00     0.162 A 
ATOM      6  C   UNL     1     -58.197  19.016 -16.887  1.00  0.00     0.200 A 
ENDROOT
BRANCH   1   7
ATOM      7  C   UNL     1     -60.694  15.912 -18.501  1.00  0.00     0.072 C 
ATOM      8  O   UNL     1     -61.949  16.002 -18.444  1.00  0.00    -0.545 OA
ATOM      9  O   UNL     1     -60.125  14.791 -19.094  1.00  0.00    -0.545 OA
ENDBRANCH   1   7
BRANCH   4  10
ATOM     10  O   UNL     1     -56.281  18.042 -17.986  1.00  0.00    -0.504 OA
ATOM     11  H   UNL     1     -55.592  17.727 -17.312  1.00  0.00     0.293 HD
ENDBRANCH   4  10
BRANCH   5  12
ATOM     12  O   UNL     1     -60.125  19.989 -15.787  1.00  0.00    -0.504 OA
ATOM     13  H   UNL     1     -59.717  20.232 -14.891  1.00  0.00     0.293 HD
ENDBRANCH   5  12
BRANCH   6  14
ATOM     14  O   UNL     1     -57.369  20.015 -16.375  1.00  0.00    -0.502 OA
ATOM     15  H   UNL     1     -57.718  20.744 -15.764  1.00  0.00     0.293 HD
ENDBRANCH   6  14
TORSDOF 4
ENDMDL
MODEL 7
REMARK VINA RESULT:    -4.102      8.791      9.953
REMARK INTER + INTRA:          -4.753
REMARK INTER:                  -4.703
REMARK INTRA:                  -0.051
REMARK UNBOUND:                -0.052
REMARK SMILES O=C([O-])c1cc(O)c(O)c(O)c1
REMARK SMILES IDX 4 1 5 2 12 3 6 4 10 5 8 6 2 7 1 8 3 9 7 10 11 12 9 14
REMARK H PARENT 7 11 11 13 9 15
REMARK Flexibility Score: inf
ROOT
ATOM      1  C   UNL     1     -58.248  18.359 -17.516  1.00  0.00     0.005 A 
ATOM      2  C   UNL     1     -58.436  17.146 -18.199  1.00  0.00     0.060 A 
ATOM      3  C   UNL     1     -59.329  18.922 -16.817  1.00  0.00     0.060 A 
ATOM      4  C   UNL     1     -59.683  16.506 -18.186  1.00  0.00     0.162 A 
ATOM      5  C   UNL     1     -60.579  18.286 -16.799  1.00  0.00     0.162 A 
ATOM      6  C   UNL     1     -60.755  17.074 -17.487  1.00  0.00     0.200 A 
ENDROOT
BRANCH   1   7
ATOM      7  C   UNL     1     -56.929  19.030 -17.534  1.00  0.00     0.072 C 
ATOM      8  O   UNL     1     -56.563  19.752 -16.568  1.00  0.00    -0.545 OA
ATOM      9  O   UNL     1     -56.074  18.874 -18.619  1.00  0.00    -0.545 OA
ENDBRANCH   1   7
BRANCH   4  10
ATOM     10  O   UNL     1     -59.864  15.303 -18.866  1.00  0.00    -0.504 OA
ATOM     11  H   UNL     1     -60.732  14.785 -18.807  1.00  0.00     0.293 HD
ENDBRANCH   4  10
BRANCH   5  12
ATOM     12  O   UNL     1     -61.644  18.854 -16.103  1.00  0.00    -0.504 OA
ATOM     13  H   UNL     1     -61.845  18.602 -15.141  1.00  0.00     0.293 HD
ENDBRANCH   5  12
BRANCH   6  14
ATOM     14  O   UNL     1     -61.988  16.421 -17.484  1.00  0.00    -0.502 OA
ATOM     15  H   UNL     1     -62.335  15.920 -18.293  1.00  0.00     0.293 HD
ENDBRANCH   6  14
TORSDOF 4
ENDMDL
MODEL 8
REMARK VINA RESULT:    -4.048      8.888     10.161
REMARK INTER + INTRA:          -4.692
REMARK INTER:                  -4.640
REMARK INTRA:                  -0.052
REMARK UNBOUND:                -0.052
REMARK SMILES O=C([O-])c1cc(O)c(O)c(O)c1
REMARK SMILES IDX 4 1 5 2 12 3 6 4 10 5 8 6 2 7 1 8 3 9 7 10 11 12 9 14
REMARK H PARENT 7 11 11 13 9 15
REMARK Flexibility Score: inf
ROOT
ATOM      1  C   UNL     1     -58.326  18.279 -17.608  1.00  0.00     0.005 A 
ATOM      2  C   UNL     1     -59.379  18.841 -16.868  1.00  0.00     0.060 A 
ATOM      3  C   UNL     1     -58.539  17.068 -18.287  1.00  0.00     0.060 A 
ATOM      4  C   UNL     1     -60.626  18.203 -16.805  1.00  0.00     0.162 A 
ATOM      5  C   UNL     1     -59.785  16.426 -18.229  1.00  0.00     0.162 A 
ATOM      6  C   UNL     1     -60.831  16.996 -17.485  1.00  0.00     0.200 A 
ENDROOT
BRANCH   1   7
ATOM      7  C   UNL     1     -57.011  18.958 -17.670  1.00  0.00     0.072 C 
ATOM      8  O   UNL     1     -56.688  19.808 -16.798  1.00  0.00    -0.545 OA
ATOM      9  O   UNL     1     -56.115  18.667 -18.692  1.00  0.00    -0.545 OA
ENDBRANCH   1   7
BRANCH   4  10
ATOM     10  O   UNL     1     -61.667  18.765 -16.069  1.00  0.00    -0.504 OA
ATOM     11  H   UNL     1     -62.458  19.209 -16.521  1.00  0.00     0.293 HD
ENDBRANCH   4  10
BRANCH   5  12
ATOM     12  O   UNL     1     -59.985  15.224 -18.906  1.00  0.00    -0.504 OA
ATOM     13  H   UNL     1     -60.844  14.694 -18.805  1.00  0.00     0.293 HD
ENDBRANCH   5  12
BRANCH   6  14
ATOM     14  O   UNL     1     -62.079  16.377 -17.412  1.00  0.00    -0.502 OA
ATOM     15  H   UNL     1     -62.430  15.972 -16.552  1.00  0.00     0.293 HD
ENDBRANCH   6  14
TORSDOF 4
ENDMDL
MODEL 9
REMARK VINA RESULT:    -3.998      9.424     10.639
REMARK INTER + INTRA:          -4.634
REMARK INTER:                  -4.584
REMARK INTRA:                  -0.050
REMARK UNBOUND:                -0.052
REMARK SMILES O=C([O-])c1cc(O)c(O)c(O)c1
REMARK SMILES IDX 4 1 5 2 12 3 6 4 10 5 8 6 2 7 1 8 3 9 7 10 11 12 9 14
REMARK H PARENT 7 11 11 13 9 15
REMARK Flexibility Score: inf
ROOT
ATOM      1  C   UNL     1     -58.573  16.745 -18.189  1.00  0.00     0.005 A 
ATOM      2  C   UNL     1     -58.299  17.934 -17.492  1.00  0.00     0.060 A 
ATOM      3  C   UNL     1     -59.884  16.240 -18.189  1.00  0.00     0.060 A 
ATOM      4  C   UNL     1     -59.319  18.607 -16.804  1.00  0.00     0.162 A 
ATOM      5  C   UNL     1     -60.908  16.911 -17.504  1.00  0.00     0.162 A 
ATOM      6  C   UNL     1     -60.623  18.098 -16.809  1.00  0.00     0.200 A 
ENDROOT
BRANCH   1   7
ATOM      7  C   UNL     1     -57.491  16.039 -18.912  1.00  0.00     0.072 C 
ATOM      8  O   UNL     1     -57.744  15.373 -19.952  1.00  0.00    -0.545 OA
ATOM      9  O   UNL     1     -56.180  16.099 -18.454  1.00  0.00    -0.545 OA
ENDBRANCH   1   7
BRANCH   4  10
ATOM     10  O   UNL     1     -59.043  19.786 -16.114  1.00  0.00    -0.504 OA
ATOM     11  H   UNL     1     -58.855  20.655 -16.600  1.00  0.00     0.293 HD
ENDBRANCH   4  10
BRANCH   5  12
ATOM     12  O   UNL     1     -62.205  16.400 -17.511  1.00  0.00    -0.504 OA
ATOM     13  H   UNL     1     -62.867  16.621 -16.775  1.00  0.00     0.293 HD
ENDBRANCH   5  12
BRANCH   6  14
ATOM     14  O   UNL     1     -61.625  18.783 -16.121  1.00  0.00    -0.502 OA
ATOM     15  H   UNL     1     -61.547  19.005 -15.135  1.00  0.00     0.293 HD
ENDBRANCH   6  14
TORSDOF 4
ENDMDL
