MODEL 1
REMARK VINA RESULT:    -7.141      0.000      0.000
REMARK INTER + INTRA:          -9.030
REMARK INTER:                  -8.602
REMARK INTRA:                  -0.428
REMARK UNBOUND:                -0.428
REMARK SMILES O=c1c(O)c(-c2ccc(O)cc2O)oc2cc(O)cc(O)c12
REMARK SMILES IDX 5 1 3 2 2 3 1 4 22 5 20 6 19 7 17 8 16 9 15 10 14 11 6 12
REMARK SMILES IDX 8 13 7 14 9 15 11 16 12 17 10 18 13 20 4 22 21 24 18 26
REMARK H PARENT 10 19 13 21 4 23 21 25 18 27
REMARK Flexibility Score: inf
ROOT
ATOM      1  C   UNL     1      19.626  -3.290  22.362  1.00  0.00     0.184 A 
ATOM      2  C   UNL     1      19.549  -2.620  21.130  1.00  0.00     0.208 A 
ATOM      3  C   UNL     1      18.990  -1.333  21.088  1.00  0.00     0.238 A 
ATOM      4  O   UNL     1      18.974  -0.715  19.992  1.00  0.00    -0.285 OA
ATOM      5  C   UNL     1      18.495  -0.741  22.276  1.00  0.00     0.111 A 
ATOM      6  C   UNL     1      17.871   0.540  22.344  1.00  0.00     0.134 A 
ATOM      7  C   UNL     1      17.536   1.079  23.592  1.00  0.00     0.093 A 
ATOM      8  C   UNL     1      17.742   0.355  24.769  1.00  0.00     0.123 A 
ATOM      9  C   UNL     1      18.297  -0.921  24.708  1.00  0.00     0.094 A 
ATOM     10  C   UNL     1      18.675  -1.471  23.481  1.00  0.00     0.146 A 
ATOM     11  O   UNL     1      19.210  -2.686  23.468  1.00  0.00    -0.451 OA
ENDROOT
BRANCH   1  12
ATOM     12  C   UNL     1      20.183  -4.659  22.474  1.00  0.00     0.063 A 
ATOM     13  C   UNL     1      22.098  -6.161  22.487  1.00  0.00     0.047 A 
ATOM     14  C   UNL     1      21.573  -4.870  22.408  1.00  0.00     0.020 A 
ATOM     15  C   UNL     1      21.243  -7.262  22.620  1.00  0.00     0.119 A 
ATOM     16  C   UNL     1      19.861  -7.064  22.672  1.00  0.00     0.093 A 
ATOM     17  C   UNL     1      19.324  -5.770  22.597  1.00  0.00     0.130 A 
BRANCH  15  18
ATOM     18  O   UNL     1      21.757  -8.554  22.699  1.00  0.00    -0.508 OA
ATOM     19  H   UNL     1      22.704  -8.730  23.011  1.00  0.00     0.293 HD
ENDBRANCH  15  18
BRANCH  17  20
ATOM     20  O   UNL     1      17.943  -5.587  22.658  1.00  0.00    -0.507 OA
ATOM     21  H   UNL     1      17.530  -4.663  22.695  1.00  0.00     0.293 HD
ENDBRANCH  17  20
ENDBRANCH   1  12
BRANCH   2  22
ATOM     22  O   UNL     1      20.056  -3.219  19.973  1.00  0.00    -0.502 OA
ATOM     23  H   UNL     1      20.627  -2.714  19.305  1.00  0.00     0.293 HD
ENDBRANCH   2  22
BRANCH   6  24
ATOM     24  O   UNL     1      17.536   1.306  21.224  1.00  0.00    -0.507 OA
ATOM     25  H   UNL     1      18.157   1.956  20.764  1.00  0.00     0.293 HD
ENDBRANCH   6  24
BRANCH   8  26
ATOM     26  O   UNL     1      17.391   0.893  26.006  1.00  0.00    -0.508 OA
ATOM     27  H   UNL     1      16.817   0.378  26.663  1.00  0.00     0.293 HD
ENDBRANCH   8  26
TORSDOF 6
ENDMDL
MODEL 2
REMARK VINA RESULT:    -7.016      1.737      6.896
REMARK INTER + INTRA:          -8.879
REMARK INTER:                  -8.441
REMARK INTRA:                  -0.439
REMARK UNBOUND:                -0.428
REMARK SMILES O=c1c(O)c(-c2ccc(O)cc2O)oc2cc(O)cc(O)c12
REMARK SMILES IDX 5 1 3 2 2 3 1 4 22 5 20 6 19 7 17 8 16 9 15 10 14 11 6 12
REMARK SMILES IDX 8 13 7 14 9 15 11 16 12 17 10 18 13 20 4 22 21 24 18 26
REMARK H PARENT 10 19 13 21 4 23 21 25 18 27
REMARK Flexibility Score: inf
ROOT
ATOM      1  C   UNL     1      19.637  -3.965  21.944  1.00  0.00     0.184 A 
ATOM      2  C   UNL     1      20.969  -4.321  22.206  1.00  0.00     0.208 A 
ATOM      3  C   UNL     1      21.278  -5.666  22.461  1.00  0.00     0.238 A 
ATOM      4  O   UNL     1      22.481  -5.988  22.640  1.00  0.00    -0.285 OA
ATOM      5  C   UNL     1      20.246  -6.637  22.469  1.00  0.00     0.111 A 
ATOM      6  C   UNL     1      20.438  -8.022  22.755  1.00  0.00     0.134 A 
ATOM      7  C   UNL     1      19.366  -8.911  22.609  1.00  0.00     0.093 A 
ATOM      8  C   UNL     1      18.095  -8.455  22.251  1.00  0.00     0.123 A 
ATOM      9  C   UNL     1      17.884  -7.096  22.028  1.00  0.00     0.094 A 
ATOM     10  C   UNL     1      18.942  -6.190  22.130  1.00  0.00     0.146 A 
ATOM     11  O   UNL     1      18.700  -4.905  21.898  1.00  0.00    -0.451 OA
ENDROOT
BRANCH   1  12
ATOM     12  C   UNL     1      19.237  -2.561  21.691  1.00  0.00     0.063 A 
ATOM     13  C   UNL     1      18.509  -0.393  22.524  1.00  0.00     0.047 A 
ATOM     14  C   UNL     1      18.911  -1.708  22.762  1.00  0.00     0.020 A 
ATOM     15  C   UNL     1      18.415   0.089  21.212  1.00  0.00     0.119 A 
ATOM     16  C   UNL     1      18.724  -0.754  20.142  1.00  0.00     0.093 A 
ATOM     17  C   UNL     1      19.132  -2.077  20.371  1.00  0.00     0.130 A 
BRANCH  15  18
ATOM     18  O   UNL     1      18.014   1.399  20.965  1.00  0.00    -0.508 OA
ATOM     19  H   UNL     1      17.035   1.655  20.921  1.00  0.00     0.293 HD
ENDBRANCH  15  18
BRANCH  17  20
ATOM     20  O   UNL     1      19.443  -2.904  19.292  1.00  0.00    -0.507 OA
ATOM     21  H   UNL     1      20.319  -2.816  18.790  1.00  0.00     0.293 HD
ENDBRANCH  17  20
ENDBRANCH   1  12
BRANCH   2  22
ATOM     22  O   UNL     1      21.973  -3.348  22.180  1.00  0.00    -0.502 OA
ATOM     23  H   UNL     1      22.530  -3.165  21.354  1.00  0.00     0.293 HD
ENDBRANCH   2  22
BRANCH   6  24
ATOM     24  O   UNL     1      21.643  -8.566  23.207  1.00  0.00    -0.507 OA
ATOM     25  H   UNL     1      22.006  -8.462  24.143  1.00  0.00     0.293 HD
ENDBRANCH   6  24
BRANCH   8  26
ATOM     26  O   UNL     1      17.030  -9.345  22.124  1.00  0.00    -0.508 OA
ATOM     27  H   UNL     1      16.132  -9.048  21.762  1.00  0.00     0.293 HD
ENDBRANCH   8  26
TORSDOF 6
ENDMDL
MODEL 3
REMARK VINA RESULT:    -6.712     11.785     13.807
REMARK INTER + INTRA:          -8.513
REMARK INTER:                  -8.494
REMARK INTRA:                  -0.019
REMARK UNBOUND:                -0.428
REMARK SMILES O=c1c(O)c(-c2ccc(O)cc2O)oc2cc(O)cc(O)c12
REMARK SMILES IDX 5 1 3 2 2 3 1 4 22 5 20 6 19 7 17 8 16 9 15 10 14 11 6 12
REMARK SMILES IDX 8 13 7 14 9 15 11 16 12 17 10 18 13 20 4 22 21 24 18 26
REMARK H PARENT 10 19 13 21 4 23 21 25 18 27
REMARK Flexibility Score: inf
ROOT
ATOM      1  C   UNL     1      22.777   6.602  14.463  1.00  0.00     0.184 A 
ATOM      2  C   UNL     1      22.376   7.512  13.471  1.00  0.00     0.208 A 
ATOM      3  C   UNL     1      21.616   7.047  12.387  1.00  0.00     0.238 A 
ATOM      4  O   UNL     1      21.213   7.876  11.530  1.00  0.00    -0.285 OA
ATOM      5  C   UNL     1      21.283   5.673  12.298  1.00  0.00     0.111 A 
ATOM      6  C   UNL     1      20.551   5.084  11.223  1.00  0.00     0.134 A 
ATOM      7  C   UNL     1      20.169   3.739  11.304  1.00  0.00     0.093 A 
ATOM      8  C   UNL     1      20.548   2.946  12.389  1.00  0.00     0.123 A 
ATOM      9  C   UNL     1      21.313   3.497  13.415  1.00  0.00     0.094 A 
ATOM     10  C   UNL     1      21.678   4.844  13.381  1.00  0.00     0.146 A 
ATOM     11  O   UNL     1      22.398   5.332  14.384  1.00  0.00    -0.451 OA
ENDROOT
BRANCH   1  12
ATOM     12  C   UNL     1      23.600   7.021  15.622  1.00  0.00     0.063 A 
ATOM     13  C   UNL     1      24.169   8.672  17.318  1.00  0.00     0.047 A 
ATOM     14  C   UNL     1      23.377   8.264  16.243  1.00  0.00     0.020 A 
ATOM     15  C   UNL     1      25.204   7.850  17.781  1.00  0.00     0.119 A 
ATOM     16  C   UNL     1      25.442   6.621  17.163  1.00  0.00     0.093 A 
ATOM     17  C   UNL     1      24.649   6.200  16.084  1.00  0.00     0.130 A 
BRANCH  15  18
ATOM     18  O   UNL     1      26.000   8.249  18.852  1.00  0.00    -0.508 OA
ATOM     19  H   UNL     1      26.059   9.218  19.138  1.00  0.00     0.293 HD
ENDBRANCH  15  18
BRANCH  17  20
ATOM     20  O   UNL     1      24.895   4.967  15.481  1.00  0.00    -0.507 OA
ATOM     21  H   UNL     1      24.239   4.555  14.827  1.00  0.00     0.293 HD
ENDBRANCH  17  20
ENDBRANCH   1  12
BRANCH   2  22
ATOM     22  O   UNL     1      22.706   8.866  13.587  1.00  0.00    -0.502 OA
ATOM     23  H   UNL     1      22.013   9.579  13.778  1.00  0.00     0.293 HD
ENDBRANCH   2  22
BRANCH   6  24
ATOM     24  O   UNL     1      20.202   5.763  10.052  1.00  0.00    -0.507 OA
ATOM     25  H   UNL     1      19.917   6.730  10.011  1.00  0.00     0.293 HD
ENDBRANCH   6  24
BRANCH   8  26
ATOM     26  O   UNL     1      20.177   1.604  12.454  1.00  0.00    -0.508 OA
ATOM     27  H   UNL     1      20.868   0.867  12.520  1.00  0.00     0.293 HD
ENDBRANCH   8  26
TORSDOF 6
ENDMDL
MODEL 4
REMARK VINA RESULT:    -6.560     10.611     12.010
REMARK INTER + INTRA:          -8.330
REMARK INTER:                  -8.119
REMARK INTRA:                  -0.210
REMARK UNBOUND:                -0.428
REMARK SMILES O=c1c(O)c(-c2ccc(O)cc2O)oc2cc(O)cc(O)c12
REMARK SMILES IDX 5 1 3 2 2 3 1 4 22 5 20 6 19 7 17 8 16 9 15 10 14 11 6 12
REMARK SMILES IDX 8 13 7 14 9 15 11 16 12 17 10 18 13 20 4 22 21 24 18 26
REMARK H PARENT 10 19 13 21 4 23 21 25 18 27
REMARK Flexibility Score: inf
ROOT
ATOM      1  C   UNL     1      22.656   3.958  13.691  1.00  0.00     0.184 A 
ATOM      2  C   UNL     1      21.887   4.946  13.055  1.00  0.00     0.208 A 
ATOM      3  C   UNL     1      22.040   6.285  13.448  1.00  0.00     0.238 A 
ATOM      4  O   UNL     1      21.390   7.173  12.837  1.00  0.00    -0.285 OA
ATOM      5  C   UNL     1      22.944   6.617  14.486  1.00  0.00     0.111 A 
ATOM      6  C   UNL     1      23.149   7.935  14.993  1.00  0.00     0.134 A 
ATOM      7  C   UNL     1      24.162   8.163  15.933  1.00  0.00     0.093 A 
ATOM      8  C   UNL     1      24.932   7.110  16.432  1.00  0.00     0.123 A 
ATOM      9  C   UNL     1      24.699   5.811  15.987  1.00  0.00     0.094 A 
ATOM     10  C   UNL     1      23.721   5.557  15.023  1.00  0.00     0.146 A 
ATOM     11  O   UNL     1      23.540   4.305  14.618  1.00  0.00    -0.451 OA
ENDROOT
BRANCH   1  12
ATOM     12  C   UNL     1      22.528   2.523  13.342  1.00  0.00     0.063 A 
ATOM     13  C   UNL     1      23.484   0.486  12.414  1.00  0.00     0.047 A 
ATOM     14  C   UNL     1      23.610   1.831  12.768  1.00  0.00     0.020 A 
ATOM     15  C   UNL     1      22.271  -0.184  12.617  1.00  0.00     0.119 A 
ATOM     16  C   UNL     1      21.187   0.498  13.173  1.00  0.00     0.093 A 
ATOM     17  C   UNL     1      21.305   1.849  13.536  1.00  0.00     0.130 A 
BRANCH  15  18
ATOM     18  O   UNL     1      22.134  -1.525  12.266  1.00  0.00    -0.508 OA
ATOM     19  H   UNL     1      21.982  -1.809  11.306  1.00  0.00     0.293 HD
ENDBRANCH  15  18
BRANCH  17  20
ATOM     20  O   UNL     1      20.216   2.515  14.097  1.00  0.00    -0.507 OA
ATOM     21  H   UNL     1      19.523   2.980  13.522  1.00  0.00     0.293 HD
ENDBRANCH  17  20
ENDBRANCH   1  12
BRANCH   2  22
ATOM     22  O   UNL     1      21.011   4.597  12.023  1.00  0.00    -0.502 OA
ATOM     23  H   UNL     1      20.890   5.169  11.196  1.00  0.00     0.293 HD
ENDBRANCH   2  22
BRANCH   6  24
ATOM     24  O   UNL     1      22.375   9.040  14.629  1.00  0.00    -0.507 OA
ATOM     25  H   UNL     1      21.873   9.130  13.759  1.00  0.00     0.293 HD
ENDBRANCH   6  24
BRANCH   8  26
ATOM     26  O   UNL     1      25.927   7.344  17.380  1.00  0.00    -0.508 OA
ATOM     27  H   UNL     1      25.814   7.064  18.346  1.00  0.00     0.293 HD
ENDBRANCH   8  26
TORSDOF 6
ENDMDL
MODEL 5
REMARK VINA RESULT:    -6.539     12.091     15.133
REMARK INTER + INTRA:          -8.305
REMARK INTER:                  -7.837
REMARK INTRA:                  -0.468
REMARK UNBOUND:                -0.428
REMARK SMILES O=c1c(O)c(-c2ccc(O)cc2O)oc2cc(O)cc(O)c12
REMARK SMILES IDX 5 1 3 2 2 3 1 4 22 5 20 6 19 7 17 8 16 9 15 10 14 11 6 12
REMARK SMILES IDX 8 13 7 14 9 15 11 16 12 17 10 18 13 20 4 22 21 24 18 26
REMARK H PARENT 10 19 13 21 4 23 21 25 18 27
REMARK Flexibility Score: inf
ROOT
ATOM      1  C   UNL     1      21.333   6.984  12.435  1.00  0.00     0.184 A 
ATOM      2  C   UNL     1      21.262   5.614  12.737  1.00  0.00     0.208 A 
ATOM      3  C   UNL     1      22.008   5.115  13.816  1.00  0.00     0.238 A 
ATOM      4  O   UNL     1      21.898   3.898  14.117  1.00  0.00    -0.285 OA
ATOM      5  C   UNL     1      22.832   5.989  14.567  1.00  0.00     0.111 A 
ATOM      6  C   UNL     1      23.662   5.585  15.656  1.00  0.00     0.134 A 
ATOM      7  C   UNL     1      24.336   6.557  16.407  1.00  0.00     0.093 A 
ATOM      8  C   UNL     1      24.260   7.910  16.068  1.00  0.00     0.123 A 
ATOM      9  C   UNL     1      23.500   8.308  14.971  1.00  0.00     0.094 A 
ATOM     10  C   UNL     1      22.788   7.366  14.225  1.00  0.00     0.146 A 
ATOM     11  O   UNL     1      22.066   7.789  13.194  1.00  0.00    -0.451 OA
ENDROOT
BRANCH   1  12
ATOM     12  C   UNL     1      20.590   7.572  11.296  1.00  0.00     0.063 A 
ATOM     13  C   UNL     1      20.443   8.109   8.926  1.00  0.00     0.047 A 
ATOM     14  C   UNL     1      21.129   7.532   9.996  1.00  0.00     0.020 A 
ATOM     15  C   UNL     1      19.215   8.747   9.139  1.00  0.00     0.119 A 
ATOM     16  C   UNL     1      18.678   8.804  10.427  1.00  0.00     0.093 A 
ATOM     17  C   UNL     1      19.358   8.224  11.509  1.00  0.00     0.130 A 
BRANCH  15  18
ATOM     18  O   UNL     1      18.523   9.327   8.078  1.00  0.00    -0.508 OA
ATOM     19  H   UNL     1      18.909  10.103   7.555  1.00  0.00     0.293 HD
ENDBRANCH  15  18
BRANCH  17  20
ATOM     20  O   UNL     1      18.806   8.283  12.788  1.00  0.00    -0.507 OA
ATOM     21  H   UNL     1      18.079   7.642  13.083  1.00  0.00     0.293 HD
ENDBRANCH  17  20
ENDBRANCH   1  12
BRANCH   2  22
ATOM     22  O   UNL     1      20.432   4.773  11.990  1.00  0.00    -0.502 OA
ATOM     23  H   UNL     1      20.776   3.938  11.531  1.00  0.00     0.293 HD
ENDBRANCH   2  22
BRANCH   6  24
ATOM     24  O   UNL     1      23.879   4.254  16.020  1.00  0.00    -0.507 OA
ATOM     25  H   UNL     1      24.452   3.955  16.794  1.00  0.00     0.293 HD
ENDBRANCH   6  24
BRANCH   8  26
ATOM     26  O   UNL     1      24.947   8.868  16.812  1.00  0.00    -0.508 OA
ATOM     27  H   UNL     1      24.476   9.680  17.193  1.00  0.00     0.293 HD
ENDBRANCH   8  26
TORSDOF 6
ENDMDL
MODEL 6
REMARK VINA RESULT:    -6.509     12.289     14.375
REMARK INTER + INTRA:          -8.269
REMARK INTER:                  -7.911
REMARK INTRA:                  -0.358
REMARK UNBOUND:                -0.428
REMARK SMILES O=c1c(O)c(-c2ccc(O)cc2O)oc2cc(O)cc(O)c12
REMARK SMILES IDX 5 1 3 2 2 3 1 4 22 5 20 6 19 7 17 8 16 9 15 10 14 11 6 12
REMARK SMILES IDX 8 13 7 14 9 15 11 16 12 17 10 18 13 20 4 22 21 24 18 26
REMARK H PARENT 10 19 13 21 4 23 21 25 18 27
REMARK Flexibility Score: inf
ROOT
ATOM      1  C   UNL     1      21.364   5.446  11.227  1.00  0.00     0.184 A 
ATOM      2  C   UNL     1      21.333   5.769   9.861  1.00  0.00     0.208 A 
ATOM      3  C   UNL     1      20.568   6.868   9.438  1.00  0.00     0.238 A 
ATOM      4  O   UNL     1      20.589   7.186   8.221  1.00  0.00    -0.285 OA
ATOM      5  C   UNL     1      19.828   7.617  10.385  1.00  0.00     0.111 A 
ATOM      6  C   UNL     1      18.987   8.725  10.063  1.00  0.00     0.134 A 
ATOM      7  C   UNL     1      18.404   9.470  11.095  1.00  0.00     0.093 A 
ATOM      8  C   UNL     1      18.578   9.109  12.433  1.00  0.00     0.123 A 
ATOM      9  C   UNL     1      19.349   7.994  12.754  1.00  0.00     0.094 A 
ATOM     10  C   UNL     1      19.973   7.252  11.749  1.00  0.00     0.146 A 
ATOM     11  O   UNL     1      20.709   6.203  12.099  1.00  0.00    -0.451 OA
ENDROOT
BRANCH   1  12
ATOM     12  C   UNL     1      22.131   4.286  11.739  1.00  0.00     0.063 A 
ATOM     13  C   UNL     1      24.250   3.127  12.042  1.00  0.00     0.047 A 
ATOM     14  C   UNL     1      23.528   4.231  11.584  1.00  0.00     0.020 A 
ATOM     15  C   UNL     1      23.585   2.055  12.651  1.00  0.00     0.119 A 
ATOM     16  C   UNL     1      22.197   2.094  12.796  1.00  0.00     0.093 A 
ATOM     17  C   UNL     1      21.463   3.200  12.343  1.00  0.00     0.130 A 
BRANCH  15  18
ATOM     18  O   UNL     1      24.296   0.949  13.110  1.00  0.00    -0.508 OA
ATOM     19  H   UNL     1      25.143   1.051  13.655  1.00  0.00     0.293 HD
ENDBRANCH  15  18
BRANCH  17  20
ATOM     20  O   UNL     1      20.078   3.228  12.502  1.00  0.00    -0.507 OA
ATOM     21  H   UNL     1      19.650   3.335  13.414  1.00  0.00     0.293 HD
ENDBRANCH  17  20
ENDBRANCH   1  12
BRANCH   2  22
ATOM     22  O   UNL     1      22.082   5.023   8.947  1.00  0.00    -0.502 OA
ATOM     23  H   UNL     1      23.075   4.858   9.064  1.00  0.00     0.293 HD
ENDBRANCH   2  22
BRANCH   6  24
ATOM     24  O   UNL     1      18.674   9.114   8.758  1.00  0.00    -0.507 OA
ATOM     25  H   UNL     1      18.984   9.970   8.322  1.00  0.00     0.293 HD
ENDBRANCH   6  24
BRANCH   8  26
ATOM     26  O   UNL     1      17.981   9.847  13.453  1.00  0.00    -0.508 OA
ATOM     27  H   UNL     1      17.701  10.811  13.315  1.00  0.00     0.293 HD
ENDBRANCH   8  26
TORSDOF 6
ENDMDL
MODEL 7
REMARK VINA RESULT:    -6.498     10.848     12.323
REMARK INTER + INTRA:          -8.255
REMARK INTER:                  -7.812
REMARK INTRA:                  -0.444
REMARK UNBOUND:                -0.428
REMARK SMILES O=c1c(O)c(-c2ccc(O)cc2O)oc2cc(O)cc(O)c12
REMARK SMILES IDX 5 1 3 2 2 3 1 4 22 5 20 6 19 7 17 8 16 9 15 10 14 11 6 12
REMARK SMILES IDX 8 13 7 14 9 15 11 16 12 17 10 18 13 20 4 22 21 24 18 26
REMARK H PARENT 10 19 13 21 4 23 21 25 18 27
REMARK Flexibility Score: inf
ROOT
ATOM      1  C   UNL     1      22.914   5.160  14.645  1.00  0.00     0.184 A 
ATOM      2  C   UNL     1      22.446   6.322  14.010  1.00  0.00     0.208 A 
ATOM      3  C   UNL     1      22.759   7.574  14.563  1.00  0.00     0.238 A 
ATOM      4  O   UNL     1      22.384   8.613  13.960  1.00  0.00    -0.285 OA
ATOM      5  C   UNL     1      23.520   7.647  15.756  1.00  0.00     0.111 A 
ATOM      6  C   UNL     1      23.862   8.859  16.426  1.00  0.00     0.134 A 
ATOM      7  C   UNL     1      24.726   8.818  17.527  1.00  0.00     0.093 A 
ATOM      8  C   UNL     1      25.208   7.604  18.021  1.00  0.00     0.123 A 
ATOM      9  C   UNL     1      24.832   6.410  17.409  1.00  0.00     0.094 A 
ATOM     10  C   UNL     1      24.000   6.421  16.287  1.00  0.00     0.146 A 
ATOM     11  O   UNL     1      23.676   5.262  15.727  1.00  0.00    -0.451 OA
ENDROOT
BRANCH   1  12
ATOM     12  C   UNL     1      22.601   3.807  14.128  1.00  0.00     0.063 A 
ATOM     13  C   UNL     1      20.986   2.039  13.690  1.00  0.00     0.047 A 
ATOM     14  C   UNL     1      21.279   3.324  14.151  1.00  0.00     0.020 A 
ATOM     15  C   UNL     1      22.009   1.213  13.210  1.00  0.00     0.119 A 
ATOM     16  C   UNL     1      23.326   1.678  13.196  1.00  0.00     0.093 A 
ATOM     17  C   UNL     1      23.631   2.969  13.655  1.00  0.00     0.130 A 
BRANCH  15  18
ATOM     18  O   UNL     1      21.727  -0.071  12.748  1.00  0.00    -0.508 OA
ATOM     19  H   UNL     1      21.578  -0.843  13.386  1.00  0.00     0.293 HD
ENDBRANCH  15  18
BRANCH  17  20
ATOM     20  O   UNL     1      24.949   3.422  13.628  1.00  0.00    -0.507 OA
ATOM     21  H   UNL     1      25.209   4.272  13.142  1.00  0.00     0.293 HD
ENDBRANCH  17  20
ENDBRANCH   1  12
BRANCH   2  22
ATOM     22  O   UNL     1      21.708   6.226  12.827  1.00  0.00    -0.502 OA
ATOM     23  H   UNL     1      22.034   5.701  12.024  1.00  0.00     0.293 HD
ENDBRANCH   2  22
BRANCH   6  24
ATOM     24  O   UNL     1      23.362  10.115  16.071  1.00  0.00    -0.507 OA
ATOM     25  H   UNL     1      23.925  10.942  15.937  1.00  0.00     0.293 HD
ENDBRANCH   6  24
BRANCH   8  26
ATOM     26  O   UNL     1      26.054   7.572  19.127  1.00  0.00    -0.508 OA
ATOM     27  H   UNL     1      25.827   7.029  19.953  1.00  0.00     0.293 HD
ENDBRANCH   8  26
TORSDOF 6
ENDMDL
MODEL 8
REMARK VINA RESULT:    -6.445     10.264     11.179
REMARK INTER + INTRA:          -8.192
REMARK INTER:                  -7.914
REMARK INTRA:                  -0.278
REMARK UNBOUND:                -0.428
REMARK SMILES O=c1c(O)c(-c2ccc(O)cc2O)oc2cc(O)cc(O)c12
REMARK SMILES IDX 5 1 3 2 2 3 1 4 22 5 20 6 19 7 17 8 16 9 15 10 14 11 6 12
REMARK SMILES IDX 8 13 7 14 9 15 11 16 12 17 10 18 13 20 4 22 21 24 18 26
REMARK H PARENT 10 19 13 21 4 23 21 25 18 27
REMARK Flexibility Score: inf
ROOT
ATOM      1  C   UNL     1      24.019  -0.481  12.614  1.00  0.00     0.184 A 
ATOM      2  C   UNL     1      22.666  -0.511  12.237  1.00  0.00     0.208 A 
ATOM      3  C   UNL     1      21.798   0.474  12.732  1.00  0.00     0.238 A 
ATOM      4  O   UNL     1      20.600   0.474  12.347  1.00  0.00    -0.285 OA
ATOM      5  C   UNL     1      22.289   1.466  13.616  1.00  0.00     0.111 A 
ATOM      6  C   UNL     1      21.491   2.489  14.210  1.00  0.00     0.134 A 
ATOM      7  C   UNL     1      22.108   3.493  14.967  1.00  0.00     0.093 A 
ATOM      8  C   UNL     1      23.484   3.474  15.204  1.00  0.00     0.123 A 
ATOM      9  C   UNL     1      24.263   2.447  14.677  1.00  0.00     0.094 A 
ATOM     10  C   UNL     1      23.682   1.452  13.888  1.00  0.00     0.146 A 
ATOM     11  O   UNL     1      24.463   0.497  13.395  1.00  0.00    -0.451 OA
ENDROOT
BRANCH   1  12
ATOM     12  C   UNL     1      24.984  -1.503  12.148  1.00  0.00     0.063 A 
ATOM     13  C   UNL     1      26.890  -2.130  10.769  1.00  0.00     0.047 A 
ATOM     14  C   UNL     1      25.995  -1.162  11.230  1.00  0.00     0.020 A 
ATOM     15  C   UNL     1      26.781  -3.455  11.207  1.00  0.00     0.119 A 
ATOM     16  C   UNL     1      25.772  -3.806  12.107  1.00  0.00     0.093 A 
ATOM     17  C   UNL     1      24.871  -2.840  12.579  1.00  0.00     0.130 A 
BRANCH  15  18
ATOM     18  O   UNL     1      27.668  -4.428  10.752  1.00  0.00    -0.508 OA
ATOM     19  H   UNL     1      28.499  -4.184  10.227  1.00  0.00     0.293 HD
ENDBRANCH  15  18
BRANCH  17  20
ATOM     20  O   UNL     1      23.873  -3.205  13.483  1.00  0.00    -0.507 OA
ATOM     21  H   UNL     1      23.144  -3.863  13.234  1.00  0.00     0.293 HD
ENDBRANCH  17  20
ENDBRANCH   1  12
BRANCH   2  22
ATOM     22  O   UNL     1      22.207  -1.493  11.353  1.00  0.00    -0.502 OA
ATOM     23  H   UNL     1      22.592  -2.430  11.334  1.00  0.00     0.293 HD
ENDBRANCH   2  22
BRANCH   6  24
ATOM     24  O   UNL     1      20.098   2.548  14.112  1.00  0.00    -0.507 OA
ATOM     25  H   UNL     1      19.585   3.278  13.642  1.00  0.00     0.293 HD
ENDBRANCH   6  24
BRANCH   8  26
ATOM     26  O   UNL     1      24.087   4.469  15.971  1.00  0.00    -0.508 OA
ATOM     27  H   UNL     1      23.944   4.525  16.973  1.00  0.00     0.293 HD
ENDBRANCH   8  26
TORSDOF 6
ENDMDL
MODEL 9
REMARK VINA RESULT:    -6.386      9.685     10.900
REMARK INTER + INTRA:          -8.121
REMARK INTER:                  -7.651
REMARK INTRA:                  -0.470
REMARK UNBOUND:                -0.428
REMARK SMILES O=c1c(O)c(-c2ccc(O)cc2O)oc2cc(O)cc(O)c12
REMARK SMILES IDX 5 1 3 2 2 3 1 4 22 5 20 6 19 7 17 8 16 9 15 10 14 11 6 12
REMARK SMILES IDX 8 13 7 14 9 15 11 16 12 17 10 18 13 20 4 22 21 24 18 26
REMARK H PARENT 10 19 13 21 4 23 21 25 18 27
REMARK Flexibility Score: inf
ROOT
ATOM      1  C   UNL     1      24.161  -1.468  13.047  1.00  0.00     0.184 A 
ATOM      2  C   UNL     1      25.297  -0.648  13.141  1.00  0.00     0.208 A 
ATOM      3  C   UNL     1      25.137   0.746  13.094  1.00  0.00     0.238 A 
ATOM      4  O   UNL     1      26.152   1.477  13.234  1.00  0.00    -0.285 OA
ATOM      5  C   UNL     1      23.844   1.302  12.934  1.00  0.00     0.111 A 
ATOM      6  C   UNL     1      23.569   2.699  12.834  1.00  0.00     0.134 A 
ATOM      7  C   UNL     1      22.240   3.140  12.806  1.00  0.00     0.093 A 
ATOM      8  C   UNL     1      21.179   2.231  12.810  1.00  0.00     0.123 A 
ATOM      9  C   UNL     1      21.439   0.863  12.848  1.00  0.00     0.094 A 
ATOM     10  C   UNL     1      22.753   0.394  12.913  1.00  0.00     0.146 A 
ATOM     11  O   UNL     1      22.956  -0.917  12.960  1.00  0.00    -0.451 OA
ENDROOT
BRANCH   1  12
ATOM     12  C   UNL     1      24.260  -2.946  13.066  1.00  0.00     0.063 A 
ATOM     13  C   UNL     1      24.866  -5.033  11.969  1.00  0.00     0.047 A 
ATOM     14  C   UNL     1      24.796  -3.638  11.964  1.00  0.00     0.020 A 
ATOM     15  C   UNL     1      24.391  -5.758  13.069  1.00  0.00     0.119 A 
ATOM     16  C   UNL     1      23.844  -5.080  14.161  1.00  0.00     0.093 A 
ATOM     17  C   UNL     1      23.773  -3.679  14.167  1.00  0.00     0.130 A 
BRANCH  15  18
ATOM     18  O   UNL     1      24.455  -7.149  13.082  1.00  0.00    -0.508 OA
ATOM     19  H   UNL     1      24.501  -7.669  13.950  1.00  0.00     0.293 HD
ENDBRANCH  15  18
BRANCH  17  20
ATOM     20  O   UNL     1      23.231  -3.017  15.268  1.00  0.00    -0.507 OA
ATOM     21  H   UNL     1      23.382  -3.347  16.215  1.00  0.00     0.293 HD
ENDBRANCH  17  20
ENDBRANCH   1  12
BRANCH   2  22
ATOM     22  O   UNL     1      26.562  -1.218  13.311  1.00  0.00    -0.502 OA
ATOM     23  H   UNL     1      26.831  -2.088  12.866  1.00  0.00     0.293 HD
ENDBRANCH   2  22
BRANCH   6  24
ATOM     24  O   UNL     1      24.555   3.683  12.731  1.00  0.00    -0.507 OA
ATOM     25  H   UNL     1      24.819   4.314  13.473  1.00  0.00     0.293 HD
ENDBRANCH   6  24
BRANCH   8  26
ATOM     26  O   UNL     1      19.860   2.679  12.766  1.00  0.00    -0.508 OA
ATOM     27  H   UNL     1      19.449   3.193  13.536  1.00  0.00     0.293 HD
ENDBRANCH   8  26
TORSDOF 6
ENDMDL
