MODEL 1
REMARK VINA RESULT:    -4.220      0.000      0.000
REMARK INTER + INTRA:          -8.821
REMARK INTER:                  -7.674
REMARK INTRA:                  -1.147
REMARK UNBOUND:                -1.147
REMARK SMILES CCCCCCCCCCCCCCCC(=O)[O-]
REMARK SMILES IDX 9 1 10 2 11 3 12 4 13 5 14 6 15 7 16 8 17 9 18 10 8 11 7 12
REMARK SMILES IDX 6 13 5 14 4 15 3 16 2 17 1 18
REMARK H PARENT
REMARK Flexibility Score: inf
ROOT
ATOM      1  C   UNL     1      -3.468   7.888  -6.896  1.00  0.00     0.000 C 
ENDROOT
BRANCH   1   2
ATOM      2  C   UNL     1      -3.679   7.981  -8.415  1.00  0.00     0.000 C 
BRANCH   2   3
ATOM      3  C   UNL     1      -4.258   9.338  -8.852  1.00  0.00     0.000 C 
BRANCH   3   4
ATOM      4  C   UNL     1      -5.769   9.281  -9.140  1.00  0.00     0.000 C 
BRANCH   4   5
ATOM      5  C   UNL     1      -6.675   9.262  -7.896  1.00  0.00     0.000 C 
BRANCH   5   6
ATOM      6  C   UNL     1      -7.631   8.058  -7.866  1.00  0.00     0.006 C 
BRANCH   6   7
ATOM      7  C   UNL     1      -7.139   6.907  -8.755  1.00  0.00     0.053 C 
BRANCH   7   8
ATOM      8  C   UNL     1      -7.258   5.582  -8.065  1.00  0.00     0.041 C 
ATOM      9  O   UNL     1      -6.354   4.715  -8.195  1.00  0.00    -0.550 OA
ATOM     10  O   UNL     1      -8.382   5.295  -7.300  1.00  0.00    -0.550 OA
ENDBRANCH   7   8
ENDBRANCH   6   7
ENDBRANCH   5   6
ENDBRANCH   4   5
ENDBRANCH   3   4
ENDBRANCH   2   3
ENDBRANCH   1   2
BRANCH   1  11
ATOM     11  C   UNL     1      -4.413   6.877  -6.222  1.00  0.00     0.000 C 
BRANCH  11  12
ATOM     12  C   UNL     1      -3.714   5.532  -5.929  1.00  0.00    -0.000 C 
BRANCH  12  13
ATOM     13  C   UNL     1      -3.360   5.336  -4.445  1.00  0.00    -0.000 C 
BRANCH  13  14
ATOM     14  C   UNL     1      -2.480   4.098  -4.200  1.00  0.00    -0.000 C 
BRANCH  14  15
ATOM     15  C   UNL     1      -2.901   3.308  -2.951  1.00  0.00    -0.000 C 
BRANCH  15  16
ATOM     16  C   UNL     1      -1.698   2.752  -2.171  1.00  0.00    -0.000 C 
BRANCH  16  17
ATOM     17  C   UNL     1      -0.725   1.971  -3.068  1.00  0.00    -0.003 C 
ATOM     18  C   UNL     1      -1.204   0.551  -3.368  1.00  0.00     0.004 C 
ENDBRANCH  16  17
ENDBRANCH  15  16
ENDBRANCH  14  15
ENDBRANCH  13  14
ENDBRANCH  12  13
ENDBRANCH  11  12
ENDBRANCH   1  11
TORSDOF 14
ENDMDL
MODEL 2
REMARK VINA RESULT:    -4.164      0.804      1.587
REMARK INTER + INTRA:          -8.719
REMARK INTER:                  -7.485
REMARK INTRA:                  -1.234
REMARK UNBOUND:                -1.147
REMARK SMILES CCCCCCCCCCCCCCCC(=O)[O-]
REMARK SMILES IDX 9 1 10 2 11 3 12 4 13 5 14 6 15 7 16 8 17 9 18 10 8 11 7 12
REMARK SMILES IDX 6 13 5 14 4 15 3 16 2 17 1 18
REMARK H PARENT
REMARK Flexibility Score: inf
ROOT
ATOM      1  C   UNL     1      -4.091   7.976  -8.579  1.00  0.00     0.000 C 
ENDROOT
BRANCH   1   2
ATOM      2  C   UNL     1      -4.190   9.431  -9.063  1.00  0.00     0.000 C 
BRANCH   2   3
ATOM      3  C   UNL     1      -5.640   9.868  -9.334  1.00  0.00     0.000 C 
BRANCH   3   4
ATOM      4  C   UNL     1      -6.516   9.860  -8.067  1.00  0.00     0.000 C 
BRANCH   4   5
ATOM      5  C   UNL     1      -7.880   9.162  -8.216  1.00  0.00     0.000 C 
BRANCH   5   6
ATOM      6  C   UNL     1      -7.761   7.709  -8.706  1.00  0.00     0.006 C 
BRANCH   6   7
ATOM      7  C   UNL     1      -7.645   6.714  -7.543  1.00  0.00     0.053 C 
BRANCH   7   8
ATOM      8  C   UNL     1      -7.484   5.306  -8.030  1.00  0.00     0.041 C 
ATOM      9  O   UNL     1      -6.337   4.842  -8.262  1.00  0.00    -0.550 OA
ATOM     10  O   UNL     1      -8.604   4.515  -8.254  1.00  0.00    -0.550 OA
ENDBRANCH   7   8
ENDBRANCH   6   7
ENDBRANCH   5   6
ENDBRANCH   4   5
ENDBRANCH   3   4
ENDBRANCH   2   3
ENDBRANCH   1   2
BRANCH   1  11
ATOM     11  C   UNL     1      -3.427   7.851  -7.196  1.00  0.00     0.000 C 
BRANCH  11  12
ATOM     12  C   UNL     1      -4.305   7.066  -6.197  1.00  0.00    -0.000 C 
BRANCH  12  13
ATOM     13  C   UNL     1      -3.844   5.615  -5.983  1.00  0.00    -0.000 C 
BRANCH  13  14
ATOM     14  C   UNL     1      -3.428   5.330  -4.530  1.00  0.00    -0.000 C 
BRANCH  14  15
ATOM     15  C   UNL     1      -2.652   4.011  -4.383  1.00  0.00    -0.000 C 
BRANCH  15  16
ATOM     16  C   UNL     1      -2.805   3.390  -2.984  1.00  0.00    -0.000 C 
BRANCH  16  17
ATOM     17  C   UNL     1      -1.543   2.635  -2.534  1.00  0.00    -0.003 C 
ATOM     18  C   UNL     1      -0.789   3.352  -1.415  1.00  0.00     0.004 C 
ENDBRANCH  16  17
ENDBRANCH  15  16
ENDBRANCH  14  15
ENDBRANCH  13  14
ENDBRANCH  12  13
ENDBRANCH  11  12
ENDBRANCH   1  11
TORSDOF 14
ENDMDL
MODEL 3
REMARK VINA RESULT:    -4.020      3.016      7.200
REMARK INTER + INTRA:          -8.458
REMARK INTER:                  -7.290
REMARK INTRA:                  -1.168
REMARK UNBOUND:                -1.147
REMARK SMILES CCCCCCCCCCCCCCCC(=O)[O-]
REMARK SMILES IDX 9 1 10 2 11 3 12 4 13 5 14 6 15 7 16 8 17 9 18 10 8 11 7 12
REMARK SMILES IDX 6 13 5 14 4 15 3 16 2 17 1 18
REMARK H PARENT
REMARK Flexibility Score: inf
ROOT
ATOM      1  C   UNL     1      -3.943   8.058  -8.531  1.00  0.00     0.000 C 
ENDROOT
BRANCH   1   2
ATOM      2  C   UNL     1      -3.395   7.851  -7.110  1.00  0.00     0.000 C 
BRANCH   2   3
ATOM      3  C   UNL     1      -4.317   6.977  -6.242  1.00  0.00     0.000 C 
BRANCH   3   4
ATOM      4  C   UNL     1      -3.746   5.570  -5.988  1.00  0.00     0.000 C 
BRANCH   4   5
ATOM      5  C   UNL     1      -3.400   5.256  -4.521  1.00  0.00     0.000 C 
BRANCH   5   6
ATOM      6  C   UNL     1      -2.567   3.973  -4.362  1.00  0.00     0.006 C 
BRANCH   6   7
ATOM      7  C   UNL     1      -2.753   3.329  -2.981  1.00  0.00     0.053 C 
BRANCH   7   8
ATOM      8  C   UNL     1      -1.465   2.782  -2.445  1.00  0.00     0.041 C 
ATOM      9  O   UNL     1      -0.965   3.254  -1.391  1.00  0.00    -0.550 OA
ATOM     10  O   UNL     1      -0.804   1.767  -3.127  1.00  0.00    -0.550 OA
ENDBRANCH   7   8
ENDBRANCH   6   7
ENDBRANCH   5   6
ENDBRANCH   4   5
ENDBRANCH   3   4
ENDBRANCH   2   3
ENDBRANCH   1   2
BRANCH   1  11
ATOM     11  C   UNL     1      -4.151   9.543  -8.880  1.00  0.00     0.000 C 
BRANCH  11  12
ATOM     12  C   UNL     1      -5.641   9.889  -9.088  1.00  0.00    -0.000 C 
BRANCH  12  13
ATOM     13  C   UNL     1      -6.571   9.251  -8.044  1.00  0.00    -0.000 C 
BRANCH  13  14
ATOM     14  C   UNL     1      -7.964   8.922  -8.607  1.00  0.00    -0.000 C 
BRANCH  14  15
ATOM     15  C   UNL     1      -8.198   7.411  -8.769  1.00  0.00    -0.000 C 
BRANCH  15  16
ATOM     16  C   UNL     1      -7.450   6.582  -7.712  1.00  0.00    -0.000 C 
BRANCH  16  17
ATOM     17  C   UNL     1      -7.128   5.160  -8.199  1.00  0.00    -0.003 C 
ATOM     18  C   UNL     1      -8.085   4.675  -9.287  1.00  0.00     0.004 C 
ENDBRANCH  16  17
ENDBRANCH  15  16
ENDBRANCH  14  15
ENDBRANCH  13  14
ENDBRANCH  12  13
ENDBRANCH  11  12
ENDBRANCH   1  11
TORSDOF 14
ENDMDL
MODEL 4
REMARK VINA RESULT:    -4.001      1.023      1.566
REMARK INTER + INTRA:          -8.423
REMARK INTER:                  -7.483
REMARK INTRA:                  -0.940
REMARK UNBOUND:                -1.147
REMARK SMILES CCCCCCCCCCCCCCCC(=O)[O-]
REMARK SMILES IDX 9 1 10 2 11 3 12 4 13 5 14 6 15 7 16 8 17 9 18 10 8 11 7 12
REMARK SMILES IDX 6 13 5 14 4 15 3 16 2 17 1 18
REMARK H PARENT
REMARK Flexibility Score: inf
ROOT
ATOM      1  C   UNL     1      -5.440   7.529  -6.403  1.00  0.00     0.000 C 
ENDROOT
BRANCH   1   2
ATOM      2  C   UNL     1      -5.744   8.469  -7.580  1.00  0.00     0.000 C 
BRANCH   2   3
ATOM      3  C   UNL     1      -7.184   9.008  -7.551  1.00  0.00     0.000 C 
BRANCH   3   4
ATOM      4  C   UNL     1      -7.839   9.048  -8.944  1.00  0.00     0.000 C 
BRANCH   4   5
ATOM      5  C   UNL     1      -8.716   7.833  -9.293  1.00  0.00     0.000 C 
BRANCH   5   6
ATOM      6  C   UNL     1      -7.947   6.731 -10.041  1.00  0.00     0.006 C 
BRANCH   6   7
ATOM      7  C   UNL     1      -8.263   5.332  -9.496  1.00  0.00     0.053 C 
BRANCH   7   8
ATOM      8  C   UNL     1      -7.601   5.087  -8.175  1.00  0.00     0.041 C 
ATOM      9  O   UNL     1      -6.427   4.638  -8.127  1.00  0.00    -0.550 OA
ATOM     10  O   UNL     1      -8.294   5.329  -6.994  1.00  0.00    -0.550 OA
ENDBRANCH   7   8
ENDBRANCH   6   7
ENDBRANCH   5   6
ENDBRANCH   4   5
ENDBRANCH   3   4
ENDBRANCH   2   3
ENDBRANCH   1   2
BRANCH   1  11
ATOM     11  C   UNL     1      -3.958   7.116  -6.337  1.00  0.00     0.000 C 
BRANCH  11  12
ATOM     12  C   UNL     1      -3.785   5.623  -5.981  1.00  0.00    -0.000 C 
BRANCH  12  13
ATOM     13  C   UNL     1      -3.389   5.384  -4.514  1.00  0.00    -0.000 C 
BRANCH  13  14
ATOM     14  C   UNL     1      -2.528   4.124  -4.327  1.00  0.00    -0.000 C 
BRANCH  14  15
ATOM     15  C   UNL     1      -2.868   3.358  -3.038  1.00  0.00    -0.000 C 
BRANCH  15  16
ATOM     16  C   UNL     1      -1.613   2.902  -2.275  1.00  0.00    -0.000 C 
BRANCH  16  17
ATOM     17  C   UNL     1      -0.704   1.998  -3.123  1.00  0.00    -0.003 C 
ATOM     18  C   UNL     1      -1.287   0.601  -3.335  1.00  0.00     0.004 C 
ENDBRANCH  16  17
ENDBRANCH  15  16
ENDBRANCH  14  15
ENDBRANCH  13  14
ENDBRANCH  12  13
ENDBRANCH  11  12
ENDBRANCH   1  11
TORSDOF 14
ENDMDL
MODEL 5
REMARK VINA RESULT:    -3.921      0.604      1.464
REMARK INTER + INTRA:          -8.278
REMARK INTER:                  -7.218
REMARK INTRA:                  -1.060
REMARK UNBOUND:                -1.147
REMARK SMILES CCCCCCCCCCCCCCCC(=O)[O-]
REMARK SMILES IDX 9 1 10 2 11 3 12 4 13 5 14 6 15 7 16 8 17 9 18 10 8 11 7 12
REMARK SMILES IDX 6 13 5 14 4 15 3 16 2 17 1 18
REMARK H PARENT
REMARK Flexibility Score: inf
ROOT
ATOM      1  C   UNL     1      -4.533   6.984  -6.224  1.00  0.00     0.000 C 
ENDROOT
BRANCH   1   2
ATOM      2  C   UNL     1      -3.640   7.943  -7.025  1.00  0.00     0.000 C 
BRANCH   2   3
ATOM      3  C   UNL     1      -3.957   7.930  -8.531  1.00  0.00     0.000 C 
BRANCH   3   4
ATOM      4  C   UNL     1      -4.843   9.112  -8.968  1.00  0.00     0.000 C 
BRANCH   4   5
ATOM      5  C   UNL     1      -6.346   8.800  -9.079  1.00  0.00     0.000 C 
BRANCH   5   6
ATOM      6  C   UNL     1      -6.635   7.301  -9.264  1.00  0.00     0.006 C 
BRANCH   6   7
ATOM      7  C   UNL     1      -7.799   6.823  -8.383  1.00  0.00     0.053 C 
BRANCH   7   8
ATOM      8  C   UNL     1      -7.570   5.436  -7.864  1.00  0.00     0.041 C 
ATOM      9  O   UNL     1      -8.394   4.912  -7.071  1.00  0.00    -0.550 OA
ATOM     10  O   UNL     1      -6.430   4.734  -8.236  1.00  0.00    -0.550 OA
ENDBRANCH   7   8
ENDBRANCH   6   7
ENDBRANCH   5   6
ENDBRANCH   4   5
ENDBRANCH   3   4
ENDBRANCH   2   3
ENDBRANCH   1   2
BRANCH   1  11
ATOM     11  C   UNL     1      -3.885   5.605  -6.007  1.00  0.00     0.000 C 
BRANCH  11  12
ATOM     12  C   UNL     1      -3.354   5.430  -4.567  1.00  0.00    -0.000 C 
BRANCH  12  13
ATOM     13  C   UNL     1      -2.591   4.113  -4.350  1.00  0.00    -0.000 C 
BRANCH  13  14
ATOM     14  C   UNL     1      -2.949   3.428  -3.021  1.00  0.00    -0.000 C 
BRANCH  14  15
ATOM     15  C   UNL     1      -1.724   2.828  -2.313  1.00  0.00    -0.000 C 
BRANCH  15  16
ATOM     16  C   UNL     1      -0.658   2.325  -3.302  1.00  0.00    -0.000 C 
BRANCH  16  17
ATOM     17  C   UNL     1      -0.474   0.801  -3.245  1.00  0.00    -0.003 C 
ATOM     18  C   UNL     1      -1.788   0.037  -3.413  1.00  0.00     0.004 C 
ENDBRANCH  16  17
ENDBRANCH  15  16
ENDBRANCH  14  15
ENDBRANCH  13  14
ENDBRANCH  12  13
ENDBRANCH  11  12
ENDBRANCH   1  11
TORSDOF 14
ENDMDL
MODEL 6
REMARK VINA RESULT:    -3.836      3.442      6.993
REMARK INTER + INTRA:          -8.123
REMARK INTER:                  -7.304
REMARK INTRA:                  -0.818
REMARK UNBOUND:                -1.147
REMARK SMILES CCCCCCCCCCCCCCCC(=O)[O-]
REMARK SMILES IDX 9 1 10 2 11 3 12 4 13 5 14 6 15 7 16 8 17 9 18 10 8 11 7 12
REMARK SMILES IDX 6 13 5 14 4 15 3 16 2 17 1 18
REMARK H PARENT
REMARK Flexibility Score: inf
ROOT
ATOM      1  C   UNL     1      -5.341   8.301  -8.137  1.00  0.00     0.000 C 
ENDROOT
BRANCH   1   2
ATOM      2  C   UNL     1      -4.228   7.851  -7.177  1.00  0.00     0.000 C 
BRANCH   2   3
ATOM      3  C   UNL     1      -4.505   6.471  -6.554  1.00  0.00     0.000 C 
BRANCH   3   4
ATOM      4  C   UNL     1      -3.714   6.230  -5.255  1.00  0.00     0.000 C 
BRANCH   4   5
ATOM      5  C   UNL     1      -3.273   4.775  -5.014  1.00  0.00     0.000 C 
BRANCH   5   6
ATOM      6  C   UNL     1      -2.619   4.565  -3.639  1.00  0.00     0.006 C 
BRANCH   6   7
ATOM      7  C   UNL     1      -2.732   3.111  -3.159  1.00  0.00     0.053 C 
BRANCH   7   8
ATOM      8  C   UNL     1      -1.456   2.629  -2.541  1.00  0.00     0.041 C 
ATOM      9  O   UNL     1      -1.018   3.164  -1.489  1.00  0.00    -0.550 OA
ATOM     10  O   UNL     1      -0.735   1.605  -3.143  1.00  0.00    -0.550 OA
ENDBRANCH   7   8
ENDBRANCH   6   7
ENDBRANCH   5   6
ENDBRANCH   4   5
ENDBRANCH   3   4
ENDBRANCH   2   3
ENDBRANCH   1   2
BRANCH   1  11
ATOM     11  C   UNL     1      -6.738   8.253  -7.494  1.00  0.00     0.000 C 
BRANCH  11  12
ATOM     12  C   UNL     1      -7.738   7.428  -8.334  1.00  0.00    -0.000 C 
BRANCH  12  13
ATOM     13  C   UNL     1      -7.245   6.007  -8.653  1.00  0.00    -0.000 C 
BRANCH  13  14
ATOM     14  C   UNL     1      -7.698   4.971  -7.610  1.00  0.00    -0.000 C 
BRANCH  14  15
ATOM     15  C   UNL     1      -9.222   4.772  -7.594  1.00  0.00    -0.000 C 
BRANCH  15  16
ATOM     16  C   UNL     1      -9.797   4.731  -6.168  1.00  0.00    -0.000 C 
BRANCH  16  17
ATOM     17  C   UNL     1      -9.713   3.331  -5.540  1.00  0.00    -0.003 C 
ATOM     18  C   UNL     1     -10.096   3.320  -4.060  1.00  0.00     0.004 C 
ENDBRANCH  16  17
ENDBRANCH  15  16
ENDBRANCH  14  15
ENDBRANCH  13  14
ENDBRANCH  12  13
ENDBRANCH  11  12
ENDBRANCH   1  11
TORSDOF 14
ENDMDL
MODEL 7
REMARK VINA RESULT:    -3.807      2.988      7.477
REMARK INTER + INTRA:          -8.069
REMARK INTER:                  -6.820
REMARK INTRA:                  -1.249
REMARK UNBOUND:                -1.147
REMARK SMILES CCCCCCCCCCCCCCCC(=O)[O-]
REMARK SMILES IDX 9 1 10 2 11 3 12 4 13 5 14 6 15 7 16 8 17 9 18 10 8 11 7 12
REMARK SMILES IDX 6 13 5 14 4 15 3 16 2 17 1 18
REMARK H PARENT
REMARK Flexibility Score: inf
ROOT
ATOM      1  C   UNL     1      -3.339   7.485  -7.612  1.00  0.00     0.000 C 
ENDROOT
BRANCH   1   2
ATOM      2  C   UNL     1      -4.118   7.053  -6.359  1.00  0.00     0.000 C 
BRANCH   2   3
ATOM      3  C   UNL     1      -3.871   5.582  -5.985  1.00  0.00     0.000 C 
BRANCH   3   4
ATOM      4  C   UNL     1      -3.432   5.400  -4.520  1.00  0.00     0.000 C 
BRANCH   4   5
ATOM      5  C   UNL     1      -2.523   4.187  -4.252  1.00  0.00     0.000 C 
BRANCH   5   6
ATOM      6  C   UNL     1      -2.946   3.382  -3.013  1.00  0.00     0.006 C 
BRANCH   6   7
ATOM      7  C   UNL     1      -1.748   2.734  -2.305  1.00  0.00     0.053 C 
BRANCH   7   8
ATOM      8  C   UNL     1      -0.998   1.810  -3.215  1.00  0.00     0.041 C 
ATOM      9  O   UNL     1      -1.307   0.592  -3.277  1.00  0.00    -0.550 OA
ATOM     10  O   UNL     1       0.062   2.291  -3.975  1.00  0.00    -0.550 OA
ENDBRANCH   7   8
ENDBRANCH   6   7
ENDBRANCH   5   6
ENDBRANCH   4   5
ENDBRANCH   3   4
ENDBRANCH   2   3
ENDBRANCH   1   2
BRANCH   1  11
ATOM     11  C   UNL     1      -3.880   8.785  -8.232  1.00  0.00     0.000 C 
BRANCH  11  12
ATOM     12  C   UNL     1      -4.341   8.587  -9.692  1.00  0.00    -0.000 C 
BRANCH  12  13
ATOM     13  C   UNL     1      -5.801   9.006  -9.936  1.00  0.00    -0.000 C 
BRANCH  13  14
ATOM     14  C   UNL     1      -6.437   9.691  -8.716  1.00  0.00    -0.000 C 
BRANCH  14  15
ATOM     15  C   UNL     1      -7.678   8.947  -8.197  1.00  0.00    -0.000 C 
BRANCH  15  16
ATOM     16  C   UNL     1      -7.325   7.613  -7.517  1.00  0.00    -0.000 C 
BRANCH  16  17
ATOM     17  C   UNL     1      -7.773   6.396  -8.341  1.00  0.00    -0.003 C 
ATOM     18  C   UNL     1      -6.763   5.250  -8.306  1.00  0.00     0.004 C 
ENDBRANCH  16  17
ENDBRANCH  15  16
ENDBRANCH  14  15
ENDBRANCH  13  14
ENDBRANCH  12  13
ENDBRANCH  11  12
ENDBRANCH   1  11
TORSDOF 14
ENDMDL
MODEL 8
REMARK VINA RESULT:    -3.691      3.272      6.077
REMARK INTER + INTRA:          -7.860
REMARK INTER:                  -6.950
REMARK INTRA:                  -0.910
REMARK UNBOUND:                -1.147
REMARK SMILES CCCCCCCCCCCCCCCC(=O)[O-]
REMARK SMILES IDX 9 1 10 2 11 3 12 4 13 5 14 6 15 7 16 8 17 9 18 10 8 11 7 12
REMARK SMILES IDX 6 13 5 14 4 15 3 16 2 17 1 18
REMARK H PARENT
REMARK Flexibility Score: inf
ROOT
ATOM      1  C   UNL     1      -7.827   8.666  -8.058  1.00  0.00     0.000 C 
ENDROOT
BRANCH   1   2
ATOM      2  C   UNL     1      -6.705   9.704  -8.215  1.00  0.00     0.000 C 
BRANCH   2   3
ATOM      3  C   UNL     1      -6.189   9.805  -9.661  1.00  0.00     0.000 C 
BRANCH   3   4
ATOM      4  C   UNL     1      -4.655   9.715  -9.758  1.00  0.00     0.000 C 
BRANCH   4   5
ATOM      5  C   UNL     1      -3.932   9.364  -8.445  1.00  0.00     0.000 C 
BRANCH   5   6
ATOM      6  C   UNL     1      -3.878   7.851  -8.176  1.00  0.00     0.006 C 
BRANCH   6   7
ATOM      7  C   UNL     1      -3.317   7.530  -6.783  1.00  0.00     0.053 C 
BRANCH   7   8
ATOM      8  C   UNL     1      -4.053   6.398  -6.134  1.00  0.00     0.041 C 
ATOM      9  O   UNL     1      -4.760   5.621  -6.827  1.00  0.00    -0.550 OA
ATOM     10  O   UNL     1      -3.980   6.219  -4.758  1.00  0.00    -0.550 OA
ENDBRANCH   7   8
ENDBRANCH   6   7
ENDBRANCH   5   6
ENDBRANCH   4   5
ENDBRANCH   3   4
ENDBRANCH   2   3
ENDBRANCH   1   2
BRANCH   1  11
ATOM     11  C   UNL     1      -8.567   8.383  -9.378  1.00  0.00     0.000 C 
BRANCH  11  12
ATOM     12  C   UNL     1      -8.565   6.881  -9.736  1.00  0.00    -0.000 C 
BRANCH  12  13
ATOM     13  C   UNL     1      -9.735   6.100  -9.116  1.00  0.00    -0.000 C 
BRANCH  13  14
ATOM     14  C   UNL     1      -9.467   4.588  -9.035  1.00  0.00    -0.000 C 
BRANCH  14  15
ATOM     15  C   UNL     1      -9.949   3.970  -7.712  1.00  0.00    -0.000 C 
BRANCH  15  16
ATOM     16  C   UNL     1      -9.270   4.601  -6.484  1.00  0.00    -0.000 C 
BRANCH  16  17
ATOM     17  C   UNL     1     -10.061   4.364  -5.188  1.00  0.00    -0.003 C 
ATOM     18  C   UNL     1      -9.920   2.938  -4.658  1.00  0.00     0.004 C 
ENDBRANCH  16  17
ENDBRANCH  15  16
ENDBRANCH  14  15
ENDBRANCH  13  14
ENDBRANCH  12  13
ENDBRANCH  11  12
ENDBRANCH   1  11
TORSDOF 14
ENDMDL
MODEL 9
REMARK VINA RESULT:    -3.372      1.416      2.552
REMARK INTER + INTRA:          -7.279
REMARK INTER:                  -6.231
REMARK INTRA:                  -1.047
REMARK UNBOUND:                -1.147
REMARK SMILES CCCCCCCCCCCCCCCC(=O)[O-]
REMARK SMILES IDX 9 1 10 2 11 3 12 4 13 5 14 6 15 7 16 8 17 9 18 10 8 11 7 12
REMARK SMILES IDX 6 13 5 14 4 15 3 16 2 17 1 18
REMARK H PARENT
REMARK Flexibility Score: inf
ROOT
ATOM      1  C   UNL     1      -3.794   5.739  -6.070  1.00  0.00     0.000 C 
ENDROOT
BRANCH   1   2
ATOM      2  C   UNL     1      -4.280   7.178  -6.305  1.00  0.00     0.000 C 
BRANCH   2   3
ATOM      3  C   UNL     1      -3.526   7.880  -7.447  1.00  0.00     0.000 C 
BRANCH   3   4
ATOM      4  C   UNL     1      -4.422   8.831  -8.262  1.00  0.00     0.000 C 
BRANCH   4   5
ATOM      5  C   UNL     1      -4.665   8.413  -9.724  1.00  0.00     0.000 C 
BRANCH   5   6
ATOM      6  C   UNL     1      -5.404   7.070  -9.849  1.00  0.00     0.006 C 
BRANCH   6   7
ATOM      7  C   UNL     1      -6.805   7.119  -9.223  1.00  0.00     0.053 C 
BRANCH   7   8
ATOM      8  C   UNL     1      -7.011   6.014  -8.234  1.00  0.00     0.041 C 
ATOM      9  O   UNL     1      -6.485   4.886  -8.422  1.00  0.00    -0.550 OA
ATOM     10  O   UNL     1      -7.809   6.222  -7.115  1.00  0.00    -0.550 OA
ENDBRANCH   7   8
ENDBRANCH   6   7
ENDBRANCH   5   6
ENDBRANCH   4   5
ENDBRANCH   3   4
ENDBRANCH   2   3
ENDBRANCH   1   2
BRANCH   1  11
ATOM     11  C   UNL     1      -3.438   5.463  -4.598  1.00  0.00     0.000 C 
BRANCH  11  12
ATOM     12  C   UNL     1      -2.616   4.166  -4.431  1.00  0.00    -0.000 C 
BRANCH  12  13
ATOM     13  C   UNL     1      -3.008   3.346  -3.191  1.00  0.00    -0.000 C 
BRANCH  13  14
ATOM     14  C   UNL     1      -2.049   2.175  -2.923  1.00  0.00    -0.000 C 
BRANCH  14  15
ATOM     15  C   UNL     1      -0.729   2.625  -2.274  1.00  0.00    -0.000 C 
BRANCH  15  16
ATOM     16  C   UNL     1      -0.952   3.505  -1.033  1.00  0.00    -0.000 C 
BRANCH  16  17
ATOM     17  C   UNL     1       0.161   4.547  -0.843  1.00  0.00    -0.003 C 
ATOM     18  C   UNL     1      -0.359   5.984  -0.871  1.00  0.00     0.004 C 
ENDBRANCH  16  17
ENDBRANCH  15  16
ENDBRANCH  14  15
ENDBRANCH  13  14
ENDBRANCH  12  13
ENDBRANCH  11  12
ENDBRANCH   1  11
TORSDOF 14
ENDMDL
