MODEL 1
REMARK VINA RESULT:    -3.224      0.000      0.000
REMARK INTER + INTRA:          -6.688
REMARK INTER:                  -5.862
REMARK INTRA:                  -0.825
REMARK UNBOUND:                -0.825
REMARK SMILES CCCCCCCCCCCCCC[C@@H](C)C(=O)[O-]
REMARK SMILES IDX 9 1 10 2 11 3 12 4 13 5 14 6 15 7 16 8 17 9 18 10 19 11 8 12
REMARK SMILES IDX 7 13 6 14 5 15 4 16 3 17 2 18 1 19
REMARK H PARENT
REMARK Flexibility Score: inf
ROOT
ATOM      1  C   UNL     1     -20.753   2.223   7.750  1.00  0.00     0.000 C 
ENDROOT
BRANCH   1   2
ATOM      2  C   UNL     1     -21.604   2.515   8.992  1.00  0.00     0.000 C 
BRANCH   2   3
ATOM      3  C   UNL     1     -21.441   1.407  10.043  1.00  0.00     0.000 C 
BRANCH   3   4
ATOM      4  C   UNL     1     -21.190   1.962  11.454  1.00  0.00     0.000 C 
BRANCH   4   5
ATOM      5  C   UNL     1     -21.747   1.050  12.558  1.00  0.00     0.001 C 
BRANCH   5   6
ATOM      6  C   UNL     1     -20.682   0.778  13.633  1.00  0.00     0.009 C 
BRANCH   6   7
ATOM      7  C   UNL     1     -20.832  -0.615  14.282  1.00  0.00     0.032 C 
ATOM      8  C   UNL     1     -22.151  -0.759  15.053  1.00  0.00     0.014 C 
BRANCH   7   9
ATOM      9  C   UNL     1     -20.750  -1.679  13.222  1.00  0.00     0.044 C 
ATOM     10  O   UNL     1     -21.375  -2.763  13.365  1.00  0.00    -0.550 OA
ATOM     11  O   UNL     1     -19.987  -1.473  12.078  1.00  0.00    -0.550 OA
ENDBRANCH   7   9
ENDBRANCH   6   7
ENDBRANCH   5   6
ENDBRANCH   4   5
ENDBRANCH   3   4
ENDBRANCH   2   3
ENDBRANCH   1   2
BRANCH   1  12
ATOM     12  C   UNL     1     -20.039   0.872   7.876  1.00  0.00     0.000 C 
BRANCH  12  13
ATOM     13  C   UNL     1     -20.587  -0.138   6.860  1.00  0.00    -0.000 C 
BRANCH  13  14
ATOM     14  C   UNL     1     -20.345  -1.580   7.331  1.00  0.00    -0.000 C 
BRANCH  14  15
ATOM     15  C   UNL     1     -20.032  -1.676   8.836  1.00  0.00    -0.000 C 
BRANCH  15  16
ATOM     16  C   UNL     1     -19.323  -2.971   9.272  1.00  0.00    -0.000 C 
BRANCH  16  17
ATOM     17  C   UNL     1     -19.289  -4.036   8.167  1.00  0.00    -0.000 C 
BRANCH  17  18
ATOM     18  C   UNL     1     -19.296  -5.448   8.766  1.00  0.00    -0.003 C 
ATOM     19  C   UNL     1     -20.722  -5.952   8.974  1.00  0.00     0.004 C 
ENDBRANCH  17  18
ENDBRANCH  16  17
ENDBRANCH  15  16
ENDBRANCH  14  15
ENDBRANCH  13  14
ENDBRANCH  12  13
ENDBRANCH   1  12
TORSDOF 14
ENDMDL
MODEL 2
REMARK VINA RESULT:    -2.939      1.824      5.412
REMARK INTER + INTRA:          -6.169
REMARK INTER:                  -5.189
REMARK INTRA:                  -0.980
REMARK UNBOUND:                -0.825
REMARK SMILES CCCCCCCCCCCCCC[C@@H](C)C(=O)[O-]
REMARK SMILES IDX 9 1 10 2 11 3 12 4 13 5 14 6 15 7 16 8 17 9 18 10 19 11 8 12
REMARK SMILES IDX 7 13 6 14 5 15 4 16 3 17 2 18 1 19
REMARK H PARENT
REMARK Flexibility Score: inf
ROOT
ATOM      1  C   UNL     1     -20.581  -1.409   7.817  1.00  0.00     0.000 C 
ENDROOT
BRANCH   1   2
ATOM      2  C   UNL     1     -19.662  -2.614   8.048  1.00  0.00     0.000 C 
BRANCH   2   3
ATOM      3  C   UNL     1     -19.310  -2.759   9.536  1.00  0.00     0.000 C 
BRANCH   3   4
ATOM      4  C   UNL     1     -19.929  -1.650  10.402  1.00  0.00     0.000 C 
BRANCH   4   5
ATOM      5  C   UNL     1     -20.715  -2.203  11.602  1.00  0.00     0.001 C 
BRANCH   5   6
ATOM      6  C   UNL     1     -20.285  -1.508  12.905  1.00  0.00     0.009 C 
BRANCH   6   7
ATOM      7  C   UNL     1     -21.424  -0.690  13.548  1.00  0.00     0.032 C 
ATOM      8  C   UNL     1     -21.546  -0.948  15.057  1.00  0.00     0.014 C 
BRANCH   7   9
ATOM      9  C   UNL     1     -21.194   0.777  13.306  1.00  0.00     0.044 C 
ATOM     10  O   UNL     1     -21.520   1.294  12.204  1.00  0.00    -0.550 OA
ATOM     11  O   UNL     1     -20.622   1.570  14.294  1.00  0.00    -0.550 OA
ENDBRANCH   7   9
ENDBRANCH   6   7
ENDBRANCH   5   6
ENDBRANCH   4   5
ENDBRANCH   3   4
ENDBRANCH   2   3
ENDBRANCH   1   2
BRANCH   1  12
ATOM     12  C   UNL     1     -20.038  -0.507   6.702  1.00  0.00     0.000 C 
BRANCH  12  13
ATOM     13  C   UNL     1     -19.576   0.844   7.261  1.00  0.00    -0.000 C 
BRANCH  13  14
ATOM     14  C   UNL     1     -20.775   1.752   7.569  1.00  0.00    -0.000 C 
BRANCH  14  15
ATOM     15  C   UNL     1     -21.095   1.834   9.073  1.00  0.00    -0.000 C 
BRANCH  15  16
ATOM     16  C   UNL     1     -21.900   3.075   9.501  1.00  0.00    -0.000 C 
BRANCH  16  17
ATOM     17  C   UNL     1     -21.821   4.221   8.482  1.00  0.00    -0.000 C 
BRANCH  17  18
ATOM     18  C   UNL     1     -21.771   5.581   9.188  1.00  0.00    -0.003 C 
ATOM     19  C   UNL     1     -20.387   5.847   9.774  1.00  0.00     0.004 C 
ENDBRANCH  17  18
ENDBRANCH  16  17
ENDBRANCH  15  16
ENDBRANCH  14  15
ENDBRANCH  13  14
ENDBRANCH  12  13
ENDBRANCH   1  12
TORSDOF 14
ENDMDL
MODEL 3
REMARK VINA RESULT:    -2.821      0.515      1.412
REMARK INTER + INTRA:          -5.956
REMARK INTER:                  -5.075
REMARK INTRA:                  -0.881
REMARK UNBOUND:                -0.825
REMARK SMILES CCCCCCCCCCCCCC[C@@H](C)C(=O)[O-]
REMARK SMILES IDX 9 1 10 2 11 3 12 4 13 5 14 6 15 7 16 8 17 9 18 10 19 11 8 12
REMARK SMILES IDX 7 13 6 14 5 15 4 16 3 17 2 18 1 19
REMARK H PARENT
REMARK Flexibility Score: inf
ROOT
ATOM      1  C   UNL     1     -20.094   0.934   7.832  1.00  0.00     0.000 C 
ENDROOT
BRANCH   1   2
ATOM      2  C   UNL     1     -20.994   2.171   7.923  1.00  0.00     0.000 C 
BRANCH   2   3
ATOM      3  C   UNL     1     -21.439   2.422   9.372  1.00  0.00     0.000 C 
BRANCH   3   4
ATOM      4  C   UNL     1     -21.264   1.185  10.268  1.00  0.00     0.000 C 
BRANCH   4   5
ATOM      5  C   UNL     1     -21.122   1.544  11.755  1.00  0.00     0.001 C 
BRANCH   5   6
ATOM      6  C   UNL     1     -21.862   0.526  12.638  1.00  0.00     0.009 C 
BRANCH   6   7
ATOM      7  C   UNL     1     -20.907  -0.301  13.524  1.00  0.00     0.032 C 
ATOM      8  C   UNL     1     -21.472  -0.532  14.932  1.00  0.00     0.014 C 
BRANCH   7   9
ATOM      9  C   UNL     1     -20.630  -1.627  12.869  1.00  0.00     0.044 C 
ATOM     10  O   UNL     1     -19.774  -1.712  11.949  1.00  0.00    -0.550 OA
ATOM     11  O   UNL     1     -21.315  -2.767  13.276  1.00  0.00    -0.550 OA
ENDBRANCH   7   9
ENDBRANCH   6   7
ENDBRANCH   5   6
ENDBRANCH   4   5
ENDBRANCH   3   4
ENDBRANCH   2   3
ENDBRANCH   1   2
BRANCH   1  12
ATOM     12  C   UNL     1     -20.614  -0.050   6.777  1.00  0.00     0.000 C 
BRANCH  12  13
ATOM     13  C   UNL     1     -20.344  -1.500   7.194  1.00  0.00    -0.000 C 
BRANCH  13  14
ATOM     14  C   UNL     1     -19.922  -1.580   8.668  1.00  0.00    -0.000 C 
BRANCH  14  15
ATOM     15  C   UNL     1     -19.931  -3.018   9.219  1.00  0.00    -0.000 C 
BRANCH  15  16
ATOM     16  C   UNL     1     -18.917  -3.972   8.562  1.00  0.00    -0.000 C 
BRANCH  16  17
ATOM     17  C   UNL     1     -19.466  -5.394   8.377  1.00  0.00    -0.000 C 
BRANCH  17  18
ATOM     18  C   UNL     1     -20.432  -5.761   9.510  1.00  0.00    -0.003 C 
ATOM     19  C   UNL     1     -21.651  -6.508   8.976  1.00  0.00     0.004 C 
ENDBRANCH  17  18
ENDBRANCH  16  17
ENDBRANCH  15  16
ENDBRANCH  14  15
ENDBRANCH  13  14
ENDBRANCH  12  13
ENDBRANCH   1  12
TORSDOF 14
ENDMDL
MODEL 4
REMARK VINA RESULT:    -2.686      2.102      4.770
REMARK INTER + INTRA:          -5.710
REMARK INTER:                  -4.436
REMARK INTRA:                  -1.274
REMARK UNBOUND:                -0.825
REMARK SMILES CCCCCCCCCCCCCC[C@@H](C)C(=O)[O-]
REMARK SMILES IDX 9 1 10 2 11 3 12 4 13 5 14 6 15 7 16 8 17 9 18 10 19 11 8 12
REMARK SMILES IDX 7 13 6 14 5 15 4 16 3 17 2 18 1 19
REMARK H PARENT
REMARK Flexibility Score: inf
ROOT
ATOM      1  C   UNL     1     -21.559  -0.401  13.739  1.00  0.00     0.000 C 
ENDROOT
BRANCH   1   2
ATOM      2  C   UNL     1     -20.843   0.943  13.913  1.00  0.00     0.000 C 
BRANCH   2   3
ATOM      3  C   UNL     1     -21.086   1.857  12.703  1.00  0.00     0.000 C 
BRANCH   3   4
ATOM      4  C   UNL     1     -21.790   1.130  11.545  1.00  0.00     0.000 C 
BRANCH   4   5
ATOM      5  C   UNL     1     -21.421   1.709  10.170  1.00  0.00     0.001 C 
BRANCH   5   6
ATOM      6  C   UNL     1     -20.739   0.647   9.293  1.00  0.00     0.009 C 
BRANCH   6   7
ATOM      7  C   UNL     1     -20.972   0.880   7.785  1.00  0.00     0.032 C 
ATOM      8  C   UNL     1     -20.300   2.166   7.284  1.00  0.00     0.014 C 
BRANCH   7   9
ATOM      9  C   UNL     1     -20.451  -0.296   7.005  1.00  0.00     0.044 C 
ATOM     10  O   UNL     1     -21.112  -1.368   6.959  1.00  0.00    -0.550 OA
ATOM     11  O   UNL     1     -19.239  -0.209   6.329  1.00  0.00    -0.550 OA
ENDBRANCH   7   9
ENDBRANCH   6   7
ENDBRANCH   5   6
ENDBRANCH   4   5
ENDBRANCH   3   4
ENDBRANCH   2   3
ENDBRANCH   1   2
BRANCH   1  12
ATOM     12  C   UNL     1     -20.552  -1.551  13.616  1.00  0.00     0.000 C 
BRANCH  12  13
ATOM     13  C   UNL     1     -20.772  -2.341  12.321  1.00  0.00    -0.000 C 
BRANCH  13  14
ATOM     14  C   UNL     1     -19.731  -1.958  11.258  1.00  0.00    -0.000 C 
BRANCH  14  15
ATOM     15  C   UNL     1     -20.011  -2.597   9.886  1.00  0.00    -0.000 C 
BRANCH  15  16
ATOM     16  C   UNL     1     -18.824  -3.355   9.266  1.00  0.00    -0.000 C 
BRANCH  16  17
ATOM     17  C   UNL     1     -19.250  -4.346   8.174  1.00  0.00    -0.000 C 
BRANCH  17  18
ATOM     18  C   UNL     1     -19.454  -5.750   8.755  1.00  0.00    -0.003 C 
ATOM     19  C   UNL     1     -20.918  -5.991   9.113  1.00  0.00     0.004 C 
ENDBRANCH  17  18
ENDBRANCH  16  17
ENDBRANCH  15  16
ENDBRANCH  14  15
ENDBRANCH  13  14
ENDBRANCH  12  13
ENDBRANCH   1  12
TORSDOF 14
ENDMDL
MODEL 5
REMARK VINA RESULT:    -2.599      2.015      5.631
REMARK INTER + INTRA:          -5.551
REMARK INTER:                  -4.611
REMARK INTRA:                  -0.941
REMARK UNBOUND:                -0.825
REMARK SMILES CCCCCCCCCCCCCC[C@@H](C)C(=O)[O-]
REMARK SMILES IDX 9 1 10 2 11 3 12 4 13 5 14 6 15 7 16 8 17 9 18 10 19 11 8 12
REMARK SMILES IDX 7 13 6 14 5 15 4 16 3 17 2 18 1 19
REMARK H PARENT
REMARK Flexibility Score: inf
ROOT
ATOM      1  C   UNL     1     -20.612  -0.847   8.230  1.00  0.00     0.000 C 
ENDROOT
BRANCH   1   2
ATOM      2  C   UNL     1     -19.696  -2.059   8.023  1.00  0.00     0.000 C 
BRANCH   2   3
ATOM      3  C   UNL     1     -19.601  -2.901   9.304  1.00  0.00     0.000 C 
BRANCH   3   4
ATOM      4  C   UNL     1     -19.381  -2.044  10.561  1.00  0.00     0.000 C 
BRANCH   4   5
ATOM      5  C   UNL     1     -20.629  -1.970  11.454  1.00  0.00     0.001 C 
BRANCH   5   6
ATOM      6  C   UNL     1     -20.246  -1.626  12.903  1.00  0.00     0.009 C 
BRANCH   6   7
ATOM      7  C   UNL     1     -21.355  -0.847  13.643  1.00  0.00     0.032 C 
ATOM      8  C   UNL     1     -21.479  -1.269  15.114  1.00  0.00     0.014 C 
BRANCH   7   9
ATOM      9  C   UNL     1     -21.075   0.629  13.565  1.00  0.00     0.044 C 
ATOM     10  O   UNL     1     -20.485   1.211  14.514  1.00  0.00    -0.550 OA
ATOM     11  O   UNL     1     -21.465   1.359  12.448  1.00  0.00    -0.550 OA
ENDBRANCH   7   9
ENDBRANCH   6   7
ENDBRANCH   5   6
ENDBRANCH   4   5
ENDBRANCH   3   4
ENDBRANCH   2   3
ENDBRANCH   1   2
BRANCH   1  12
ATOM     12  C   UNL     1     -20.425   0.184   7.109  1.00  0.00     0.000 C 
BRANCH  12  13
ATOM     13  C   UNL     1     -20.588   1.612   7.641  1.00  0.00    -0.000 C 
BRANCH  13  14
ATOM     14  C   UNL     1     -21.007   1.606   9.118  1.00  0.00    -0.000 C 
BRANCH  14  15
ATOM     15  C   UNL     1     -21.814   2.854   9.519  1.00  0.00    -0.000 C 
BRANCH  15  16
ATOM     16  C   UNL     1     -21.859   3.969   8.458  1.00  0.00    -0.000 C 
BRANCH  16  17
ATOM     17  C   UNL     1     -21.875   5.377   9.069  1.00  0.00    -0.000 C 
BRANCH  17  18
ATOM     18  C   UNL     1     -20.465   5.979   9.097  1.00  0.00    -0.003 C 
ATOM     19  C   UNL     1     -19.887   5.965  10.509  1.00  0.00     0.004 C 
ENDBRANCH  17  18
ENDBRANCH  16  17
ENDBRANCH  15  16
ENDBRANCH  14  15
ENDBRANCH  13  14
ENDBRANCH  12  13
ENDBRANCH   1  12
TORSDOF 14
ENDMDL
MODEL 6
REMARK VINA RESULT:    -2.435      2.776      6.960
REMARK INTER + INTRA:          -5.253
REMARK INTER:                  -4.272
REMARK INTRA:                  -0.981
REMARK UNBOUND:                -0.825
REMARK SMILES CCCCCCCCCCCCCC[C@@H](C)C(=O)[O-]
REMARK SMILES IDX 9 1 10 2 11 3 12 4 13 5 14 6 15 7 16 8 17 9 18 10 19 11 8 12
REMARK SMILES IDX 7 13 6 14 5 15 4 16 3 17 2 18 1 19
REMARK H PARENT
REMARK Flexibility Score: inf
ROOT
ATOM      1  C   UNL     1     -20.444  -0.405  13.699  1.00  0.00     0.000 C 
ENDROOT
BRANCH   1   2
ATOM      2  C   UNL     1     -21.150  -1.760  13.572  1.00  0.00     0.000 C 
BRANCH   2   3
ATOM      3  C   UNL     1     -20.690  -2.503  12.309  1.00  0.00     0.000 C 
BRANCH   3   4
ATOM      4  C   UNL     1     -19.751  -1.658  11.433  1.00  0.00     0.000 C 
BRANCH   4   5
ATOM      5  C   UNL     1     -19.867  -1.999   9.939  1.00  0.00     0.001 C 
BRANCH   5   6
ATOM      6  C   UNL     1     -20.340  -0.778   9.133  1.00  0.00     0.009 C 
BRANCH   6   7
ATOM      7  C   UNL     1     -19.943  -0.856   7.644  1.00  0.00     0.032 C 
ATOM      8  C   UNL     1     -20.651  -2.005   6.912  1.00  0.00     0.014 C 
BRANCH   7   9
ATOM      9  C   UNL     1     -20.264   0.447   6.965  1.00  0.00     0.044 C 
ATOM     10  O   UNL     1     -21.112   0.483   6.034  1.00  0.00    -0.550 OA
ATOM     11  O   UNL     1     -19.630   1.620   7.360  1.00  0.00    -0.550 OA
ENDBRANCH   7   9
ENDBRANCH   6   7
ENDBRANCH   5   6
ENDBRANCH   4   5
ENDBRANCH   3   4
ENDBRANCH   2   3
ENDBRANCH   1   2
BRANCH   1  12
ATOM     12  C   UNL     1     -21.449   0.751  13.621  1.00  0.00     0.000 C 
BRANCH  12  13
ATOM     13  C   UNL     1     -21.111   1.699  12.466  1.00  0.00    -0.000 C 
BRANCH  13  14
ATOM     14  C   UNL     1     -21.889   1.321  11.197  1.00  0.00    -0.000 C 
BRANCH  14  15
ATOM     15  C   UNL     1     -21.425   2.100   9.953  1.00  0.00    -0.000 C 
BRANCH  15  16
ATOM     16  C   UNL     1     -22.409   3.171   9.450  1.00  0.00    -0.000 C 
BRANCH  16  17
ATOM     17  C   UNL     1     -21.755   4.192   8.508  1.00  0.00    -0.000 C 
BRANCH  17  18
ATOM     18  C   UNL     1     -21.767   5.595   9.125  1.00  0.00    -0.003 C 
ATOM     19  C   UNL     1     -20.411   5.942   9.734  1.00  0.00     0.004 C 
ENDBRANCH  17  18
ENDBRANCH  16  17
ENDBRANCH  15  16
ENDBRANCH  14  15
ENDBRANCH  13  14
ENDBRANCH  12  13
ENDBRANCH   1  12
TORSDOF 14
ENDMDL
MODEL 7
REMARK VINA RESULT:    -2.315      5.554      8.930
REMARK INTER + INTRA:          -5.035
REMARK INTER:                  -4.398
REMARK INTRA:                  -0.637
REMARK UNBOUND:                -0.825
REMARK SMILES CCCCCCCCCCCCCC[C@@H](C)C(=O)[O-]
REMARK SMILES IDX 9 1 10 2 11 3 12 4 13 5 14 6 15 7 16 8 17 9 18 10 19 11 8 12
REMARK SMILES IDX 7 13 6 14 5 15 4 16 3 17 2 18 1 19
REMARK H PARENT
REMARK Flexibility Score: inf
ROOT
ATOM      1  C   UNL     1     -21.048   5.290   9.880  1.00  0.00     0.000 C 
ENDROOT
BRANCH   1   2
ATOM      2  C   UNL     1     -21.873   4.593   8.792  1.00  0.00     0.000 C 
BRANCH   2   3
ATOM      3  C   UNL     1     -21.622   3.078   8.797  1.00  0.00     0.000 C 
BRANCH   3   4
ATOM      4  C   UNL     1     -20.903   2.592   7.529  1.00  0.00     0.000 C 
BRANCH   4   5
ATOM      5  C   UNL     1     -20.090   1.309   7.761  1.00  0.00     0.001 C 
BRANCH   5   6
ATOM      6  C   UNL     1     -20.653   0.511   8.948  1.00  0.00     0.009 C 
BRANCH   6   7
ATOM      7  C   UNL     1     -20.742  -1.003   8.661  1.00  0.00     0.032 C 
ATOM      8  C   UNL     1     -20.252  -1.357   7.250  1.00  0.00     0.014 C 
BRANCH   7   9
ATOM      9  C   UNL     1     -19.934  -1.760   9.679  1.00  0.00     0.044 C 
ATOM     10  O   UNL     1     -19.267  -2.771   9.332  1.00  0.00    -0.550 OA
ATOM     11  O   UNL     1     -19.917  -1.350  11.007  1.00  0.00    -0.550 OA
ENDBRANCH   7   9
ENDBRANCH   6   7
ENDBRANCH   5   6
ENDBRANCH   4   5
ENDBRANCH   3   4
ENDBRANCH   2   3
ENDBRANCH   1   2
BRANCH   1  12
ATOM     12  C   UNL     1     -20.030   6.258   9.266  1.00  0.00     0.000 C 
BRANCH  12  13
ATOM     13  C   UNL     1     -18.936   6.623  10.276  1.00  0.00    -0.000 C 
BRANCH  13  14
ATOM     14  C   UNL     1     -18.253   7.944   9.895  1.00  0.00    -0.000 C 
BRANCH  14  15
ATOM     15  C   UNL     1     -16.718   7.875   9.986  1.00  0.00    -0.000 C 
BRANCH  15  16
ATOM     16  C   UNL     1     -15.998   9.233   9.896  1.00  0.00    -0.000 C 
BRANCH  16  17
ATOM     17  C   UNL     1     -15.433   9.702  11.244  1.00  0.00    -0.000 C 
BRANCH  17  18
ATOM     18  C   UNL     1     -14.498  10.904  11.059  1.00  0.00    -0.003 C 
ATOM     19  C   UNL     1     -13.881  10.913   9.663  1.00  0.00     0.004 C 
ENDBRANCH  17  18
ENDBRANCH  16  17
ENDBRANCH  15  16
ENDBRANCH  14  15
ENDBRANCH  13  14
ENDBRANCH  12  13
ENDBRANCH   1  12
TORSDOF 14
ENDMDL
MODEL 8
REMARK VINA RESULT:    -1.960      1.875      5.543
REMARK INTER + INTRA:          -4.389
REMARK INTER:                  -3.078
REMARK INTRA:                  -1.311
REMARK UNBOUND:                -0.825
REMARK SMILES CCCCCCCCCCCCCC[C@@H](C)C(=O)[O-]
REMARK SMILES IDX 9 1 10 2 11 3 12 4 13 5 14 6 15 7 16 8 17 9 18 10 19 11 8 12
REMARK SMILES IDX 7 13 6 14 5 15 4 16 3 17 2 18 1 19
REMARK H PARENT
REMARK Flexibility Score: inf
ROOT
ATOM      1  C   UNL     1     -20.056   0.970   7.857  1.00  0.00     0.000 C 
ENDROOT
BRANCH   1   2
ATOM      2  C   UNL     1     -20.335  -0.061   6.758  1.00  0.00     0.000 C 
BRANCH   2   3
ATOM      3  C   UNL     1     -20.345  -1.486   7.330  1.00  0.00     0.000 C 
BRANCH   3   4
ATOM      4  C   UNL     1     -19.924  -1.534   8.808  1.00  0.00     0.000 C 
BRANCH   4   5
ATOM      5  C   UNL     1     -19.221  -2.847   9.182  1.00  0.00     0.001 C 
BRANCH   5   6
ATOM      6  C   UNL     1     -20.236  -3.893   9.671  1.00  0.00     0.009 C 
BRANCH   6   7
ATOM      7  C   UNL     1     -20.335  -5.113   8.731  1.00  0.00     0.032 C 
ATOM      8  C   UNL     1     -18.993  -5.844   8.583  1.00  0.00     0.014 C 
BRANCH   7   9
ATOM      9  C   UNL     1     -21.373  -6.070   9.250  1.00  0.00     0.044 C 
ATOM     10  O   UNL     1     -21.741  -6.013  10.454  1.00  0.00    -0.550 OA
ATOM     11  O   UNL     1     -21.934  -7.022   8.406  1.00  0.00    -0.550 OA
ENDBRANCH   7   9
ENDBRANCH   6   7
ENDBRANCH   5   6
ENDBRANCH   4   5
ENDBRANCH   3   4
ENDBRANCH   2   3
ENDBRANCH   1   2
BRANCH   1  12
ATOM     12  C   UNL     1     -20.822   2.274   7.598  1.00  0.00     0.000 C 
BRANCH  12  13
ATOM     13  C   UNL     1     -21.477   2.794   8.883  1.00  0.00    -0.000 C 
BRANCH  13  14
ATOM     14  C   UNL     1     -21.759   1.644   9.862  1.00  0.00    -0.000 C 
BRANCH  14  15
ATOM     15  C   UNL     1     -21.107   1.856  11.240  1.00  0.00    -0.000 C 
BRANCH  15  16
ATOM     16  C   UNL     1     -21.842   1.190  12.417  1.00  0.00    -0.000 C 
BRANCH  16  17
ATOM     17  C   UNL     1     -20.896   0.757  13.546  1.00  0.00    -0.000 C 
BRANCH  17  18
ATOM     18  C   UNL     1     -21.141  -0.706  13.937  1.00  0.00    -0.003 C 
ATOM     19  C   UNL     1     -20.677  -1.656  12.837  1.00  0.00     0.004 C 
ENDBRANCH  17  18
ENDBRANCH  16  17
ENDBRANCH  15  16
ENDBRANCH  14  15
ENDBRANCH  13  14
ENDBRANCH  12  13
ENDBRANCH   1  12
TORSDOF 14
ENDMDL
MODEL 9
REMARK VINA RESULT:    -1.946      1.891      5.355
REMARK INTER + INTRA:          -4.363
REMARK INTER:                  -3.168
REMARK INTRA:                  -1.195
REMARK UNBOUND:                -0.825
REMARK SMILES CCCCCCCCCCCCCC[C@@H](C)C(=O)[O-]
REMARK SMILES IDX 9 1 10 2 11 3 12 4 13 5 14 6 15 7 16 8 17 9 18 10 19 11 8 12
REMARK SMILES IDX 7 13 6 14 5 15 4 16 3 17 2 18 1 19
REMARK H PARENT
REMARK Flexibility Score: inf
ROOT
ATOM      1  C   UNL     1     -21.196   2.713   8.332  1.00  0.00     0.000 C 
ENDROOT
BRANCH   1   2
ATOM      2  C   UNL     1     -20.309   1.510   7.993  1.00  0.00     0.000 C 
BRANCH   2   3
ATOM      3  C   UNL     1     -20.677   0.923   6.622  1.00  0.00     0.000 C 
BRANCH   3   4
ATOM      4  C   UNL     1     -20.981  -0.582   6.684  1.00  0.00     0.000 C 
BRANCH   4   5
ATOM      5  C   UNL     1     -20.351  -1.265   7.908  1.00  0.00     0.001 C 
BRANCH   5   6
ATOM      6  C   UNL     1     -19.978  -2.722   7.592  1.00  0.00     0.009 C 
BRANCH   6   7
ATOM      7  C   UNL     1     -19.150  -3.383   8.714  1.00  0.00     0.032 C 
ATOM      8  C   UNL     1     -19.416  -2.745  10.085  1.00  0.00     0.014 C 
BRANCH   7   9
ATOM      9  C   UNL     1     -19.462  -4.853   8.775  1.00  0.00     0.044 C 
ATOM     10  O   UNL     1     -18.638  -5.694   8.328  1.00  0.00    -0.550 OA
ATOM     11  O   UNL     1     -20.660  -5.294   9.326  1.00  0.00    -0.550 OA
ENDBRANCH   7   9
ENDBRANCH   6   7
ENDBRANCH   5   6
ENDBRANCH   4   5
ENDBRANCH   3   4
ENDBRANCH   2   3
ENDBRANCH   1   2
BRANCH   1  12
ATOM     12  C   UNL     1     -21.977   2.475   9.630  1.00  0.00     0.000 C 
BRANCH  12  13
ATOM     13  C   UNL     1     -21.324   1.372  10.472  1.00  0.00    -0.000 C 
BRANCH  13  14
ATOM     14  C   UNL     1     -21.912   1.342  11.891  1.00  0.00    -0.000 C 
BRANCH  14  15
ATOM     15  C   UNL     1     -20.898   1.761  12.970  1.00  0.00    -0.000 C 
BRANCH  15  16
ATOM     16  C   UNL     1     -20.920   0.907  14.251  1.00  0.00    -0.000 C 
BRANCH  16  17
ATOM     17  C   UNL     1     -21.549  -0.477  14.038  1.00  0.00    -0.000 C 
BRANCH  17  18
ATOM     18  C   UNL     1     -20.565  -1.426  13.342  1.00  0.00    -0.003 C 
ATOM     19  C   UNL     1     -21.202  -2.788  13.083  1.00  0.00     0.004 C 
ENDBRANCH  17  18
ENDBRANCH  16  17
ENDBRANCH  15  16
ENDBRANCH  14  15
ENDBRANCH  13  14
ENDBRANCH  12  13
ENDBRANCH   1  12
TORSDOF 14
ENDMDL
