MODEL 1
REMARK VINA RESULT:    -7.196      0.000      0.000
REMARK INTER + INTRA:         -15.556
REMARK INTER:                 -12.665
REMARK INTRA:                  -2.891
REMARK UNBOUND:                -2.891
REMARK SMILES COc1cc(-c2[o+]c3cc(O)cc(O[C@@H]4O[C@@H](CO)[C@@H](O)[C@@H](O)[C@@H]4O)c3cc2O[C@H]2O[C@H](CO)[C@H](O)[C@H](O)[C@@H]2O)ccc1O
REMARK SMILES IDX 6 1 28 2 27 3 26 4 13 5 12 6 10 7 9 8 8 9 7 10 5 11 3 12
REMARK SMILES IDX 43 13 4 14 42 15 41 16 2 17 1 18 44 19 29 21 30 22 39 23
REMARK SMILES IDX 31 24 37 25 32 26 35 27 40 28 38 30 33 32 34 33 36 35 14 37
REMARK SMILES IDX 15 38 24 39 16 40 22 41 17 42 20 43 25 44 23 46 18 48 19 49
REMARK SMILES IDX 21 51 11 53
REMARK H PARENT 44 20 40 29 38 31 34 34 36 36 25 45 23 47 19 50 21 52 11 54
REMARK Flexibility Score: inf
ROOT
ATOM      1  C   UNL     1      -0.448 -23.098  28.376  1.00  0.00     0.402 A 
ATOM      2  C   UNL     1      -0.859 -21.780  28.099  1.00  0.00     0.229 A 
ATOM      3  C   UNL     1      -0.814 -21.349  26.744  1.00  0.00     0.079 A 
ATOM      4  C   UNL     1       0.236 -21.855  25.991  1.00  0.00     0.126 A 
ATOM      5  C   UNL     1       0.758 -21.153  24.894  1.00  0.00     0.143 A 
ATOM      6  C   UNL     1       1.984 -21.578  24.325  1.00  0.00     0.094 A 
ATOM      7  C   UNL     1       2.661 -22.682  24.833  1.00  0.00     0.128 A 
ATOM      8  C   UNL     1       2.100 -23.444  25.865  1.00  0.00     0.162 A 
ATOM      9  C   UNL     1       0.912 -23.009  26.482  1.00  0.00     0.368 A 
ATOM     10  O   UNL     1       0.460 -23.642  27.585  1.00  0.00    -0.202 OA
ENDROOT
BRANCH   1  11
ATOM     11  C   UNL     1      -1.051 -23.913  29.469  1.00  0.00     0.087 A 
ATOM     12  C   UNL     1      -1.601 -24.197  31.815  1.00  0.00     0.161 A 
ATOM     13  C   UNL     1      -1.842 -25.572  31.566  1.00  0.00     0.157 A 
ATOM     14  C   UNL     1      -1.156 -23.367  30.745  1.00  0.00     0.068 A 
ATOM     15  C   UNL     1      -1.646 -26.116  30.279  1.00  0.00     0.051 A 
ATOM     16  C   UNL     1      -1.289 -25.276  29.225  1.00  0.00     0.022 A 
BRANCH  12  17
ATOM     17  O   UNL     1      -1.755 -23.703  33.127  1.00  0.00    -0.493 OA
ATOM     18  C   UNL     1      -2.796 -22.768  33.458  1.00  0.00     0.278 C 
ENDBRANCH  12  17
BRANCH  13  19
ATOM     19  O   UNL     1      -2.274 -26.353  32.624  1.00  0.00    -0.504 OA
ATOM     20  H   UNL     1      -2.561 -25.953  33.501  1.00  0.00     0.293 HD
ENDBRANCH  13  19
ENDBRANCH   1  11
BRANCH   2  21
ATOM     21  O   UNL     1      -0.963 -20.814  29.115  1.00  0.00    -0.452 OA
BRANCH  21  22
ATOM     22  C   UNL     1       0.259 -20.201  29.654  1.00  0.00     0.339 C 
ATOM     23  C   UNL     1      -0.016 -18.988  30.577  1.00  0.00     0.214 C 
ATOM     24  O   UNL     1       1.199 -19.989  28.604  1.00  0.00    -0.332 OA
ATOM     25  C   UNL     1       1.333 -18.668  31.255  1.00  0.00     0.180 C 
ATOM     26  C   UNL     1       2.030 -18.862  28.750  1.00  0.00     0.179 C 
ATOM     27  C   UNL     1       2.509 -18.604  30.196  1.00  0.00     0.177 C 
BRANCH  23  28
ATOM     28  O   UNL     1      -1.038 -19.319  31.511  1.00  0.00    -0.384 OA
ATOM     29  H   UNL     1      -0.651 -19.909  32.229  1.00  0.00     0.211 HD
ENDBRANCH  23  28
BRANCH  25  30
ATOM     30  O   UNL     1       1.576 -19.667  32.215  1.00  0.00    -0.387 OA
ATOM     31  H   UNL     1       1.631 -19.201  33.108  1.00  0.00     0.211 HD
ENDBRANCH  25  30
BRANCH  26  32
ATOM     32  C   UNL     1       3.214 -19.021  27.789  1.00  0.00     0.191 C 
BRANCH  32  33
ATOM     33  O   UNL     1       3.505 -20.360  27.521  1.00  0.00    -0.394 OA
ATOM     34  H   UNL     1       4.369 -20.527  27.964  1.00  0.00     0.210 HD
ENDBRANCH  32  33
ENDBRANCH  26  32
BRANCH  27  35
ATOM     35  O   UNL     1       3.578 -19.438  30.563  1.00  0.00    -0.387 OA
ATOM     36  H   UNL     1       3.535 -20.245  29.951  1.00  0.00     0.211 HD
ENDBRANCH  27  35
ENDBRANCH  21  22
ENDBRANCH   2  21
BRANCH   5  37
ATOM     37  O   UNL     1       0.166 -19.987  24.468  1.00  0.00    -0.461 OA
BRANCH  37  38
ATOM     38  C   UNL     1       0.621 -18.663  24.824  1.00  0.00     0.339 C 
ATOM     39  C   UNL     1       0.295 -17.614  23.721  1.00  0.00     0.214 C 
ATOM     40  O   UNL     1       0.208 -18.238  26.122  1.00  0.00    -0.332 OA
ATOM     41  C   UNL     1       0.022 -16.188  24.285  1.00  0.00     0.180 C 
ATOM     42  C   UNL     1      -1.080 -17.635  26.144  1.00  0.00     0.179 C 
ATOM     43  C   UNL     1      -1.063 -16.274  25.418  1.00  0.00     0.177 C 
BRANCH  39  44
ATOM     44  O   UNL     1      -0.731 -18.098  22.915  1.00  0.00    -0.384 OA
ATOM     45  H   UNL     1      -0.360 -18.731  22.247  1.00  0.00     0.211 HD
ENDBRANCH  39  44
BRANCH  41  46
ATOM     46  O   UNL     1       1.213 -15.626  24.810  1.00  0.00    -0.387 OA
ATOM     47  H   UNL     1       1.120 -15.624  25.807  1.00  0.00     0.211 HD
ENDBRANCH  41  46
BRANCH  42  48
ATOM     48  C   UNL     1      -1.589 -17.601  27.605  1.00  0.00     0.191 C 
BRANCH  48  49
ATOM     49  O   UNL     1      -2.666 -18.488  27.777  1.00  0.00    -0.394 OA
ATOM     50  H   UNL     1      -2.433 -19.115  28.509  1.00  0.00     0.210 HD
ENDBRANCH  48  49
ENDBRANCH  42  48
BRANCH  43  51
ATOM     51  O   UNL     1      -0.932 -15.203  26.339  1.00  0.00    -0.387 OA
ATOM     52  H   UNL     1      -0.626 -15.540  27.199  1.00  0.00     0.211 HD
ENDBRANCH  43  51
ENDBRANCH  37  38
ENDBRANCH   5  37
BRANCH   7  53
ATOM     53  O   UNL     1       3.913 -22.976  24.326  1.00  0.00    -0.507 OA
ATOM     54  H   UNL     1       4.074 -23.062  23.325  1.00  0.00     0.293 HD
ENDBRANCH   7  53
TORSDOF 18
ENDMDL
MODEL 2
REMARK VINA RESULT:    -7.139      2.079      2.929
REMARK INTER + INTRA:         -15.455
REMARK INTER:                 -12.528
REMARK INTRA:                  -2.927
REMARK UNBOUND:                -2.891
REMARK SMILES COc1cc(-c2[o+]c3cc(O)cc(O[C@@H]4O[C@@H](CO)[C@@H](O)[C@@H](O)[C@@H]4O)c3cc2O[C@H]2O[C@H](CO)[C@H](O)[C@H](O)[C@@H]2O)ccc1O
REMARK SMILES IDX 6 1 28 2 27 3 26 4 13 5 12 6 10 7 9 8 8 9 7 10 5 11 3 12
REMARK SMILES IDX 43 13 4 14 42 15 41 16 2 17 1 18 44 19 29 21 30 22 39 23
REMARK SMILES IDX 31 24 37 25 32 26 35 27 40 28 38 30 33 32 34 33 36 35 14 37
REMARK SMILES IDX 15 38 24 39 16 40 22 41 17 42 20 43 25 44 23 46 18 48 19 49
REMARK SMILES IDX 21 51 11 53
REMARK H PARENT 44 20 40 29 38 31 34 34 36 36 25 45 23 47 19 50 21 52 11 54
REMARK Flexibility Score: inf
ROOT
ATOM      1  C   UNL     1      -0.319 -21.920  28.201  1.00  0.00     0.402 A 
ATOM      2  C   UNL     1      -1.024 -20.725  28.444  1.00  0.00     0.229 A 
ATOM      3  C   UNL     1      -1.191 -19.829  27.352  1.00  0.00     0.079 A 
ATOM      4  C   UNL     1      -0.128 -19.766  26.462  1.00  0.00     0.126 A 
ATOM      5  C   UNL     1       0.133 -18.611  25.710  1.00  0.00     0.143 A 
ATOM      6  C   UNL     1       1.367 -18.503  25.020  1.00  0.00     0.094 A 
ATOM      7  C   UNL     1       2.305 -19.529  25.072  1.00  0.00     0.128 A 
ATOM      8  C   UNL     1       2.011 -20.723  25.741  1.00  0.00     0.162 A 
ATOM      9  C   UNL     1       0.818 -20.832  26.479  1.00  0.00     0.368 A 
ATOM     10  O   UNL     1       0.610 -21.911  27.261  1.00  0.00    -0.202 OA
ENDROOT
BRANCH   1  11
ATOM     11  C   UNL     1      -0.637 -23.194  28.907  1.00  0.00     0.087 A 
ATOM     12  C   UNL     1      -0.127 -25.521  29.366  1.00  0.00     0.161 A 
ATOM     13  C   UNL     1      -1.423 -25.668  29.924  1.00  0.00     0.157 A 
ATOM     14  C   UNL     1       0.248 -24.264  28.809  1.00  0.00     0.068 A 
ATOM     15  C   UNL     1      -2.331 -24.588  29.933  1.00  0.00     0.051 A 
ATOM     16  C   UNL     1      -1.921 -23.342  29.459  1.00  0.00     0.022 A 
BRANCH  12  17
ATOM     17  O   UNL     1       0.730 -26.640  29.327  1.00  0.00    -0.493 OA
ATOM     18  C   UNL     1       1.935 -26.633  28.541  1.00  0.00     0.278 C 
ENDBRANCH  12  17
BRANCH  13  19
ATOM     19  O   UNL     1      -1.759 -26.901  30.458  1.00  0.00    -0.504 OA
ATOM     20  H   UNL     1      -2.643 -27.341  30.268  1.00  0.00     0.293 HD
ENDBRANCH  13  19
ENDBRANCH   1  11
BRANCH   2  21
ATOM     21  O   UNL     1      -1.240 -20.251  29.749  1.00  0.00    -0.452 OA
BRANCH  21  22
ATOM     22  C   UNL     1      -0.097 -19.782  30.545  1.00  0.00     0.339 C 
ATOM     23  C   UNL     1       0.389 -18.366  30.149  1.00  0.00     0.214 C 
ATOM     24  O   UNL     1       0.903 -20.796  30.600  1.00  0.00    -0.332 OA
ATOM     25  C   UNL     1       1.380 -17.944  31.254  1.00  0.00     0.180 C 
ATOM     26  C   UNL     1       2.232 -20.336  30.663  1.00  0.00     0.179 C 
ATOM     27  C   UNL     1       2.435 -19.088  31.549  1.00  0.00     0.177 C 
BRANCH  23  28
ATOM     28  O   UNL     1      -0.726 -17.488  30.044  1.00  0.00    -0.384 OA
ATOM     29  H   UNL     1      -1.129 -17.355  30.957  1.00  0.00     0.211 HD
ENDBRANCH  23  28
BRANCH  25  30
ATOM     30  O   UNL     1       0.632 -17.642  32.407  1.00  0.00    -0.387 OA
ATOM     31  H   UNL     1      -0.240 -17.247  32.090  1.00  0.00     0.211 HD
ENDBRANCH  25  30
BRANCH  26  32
ATOM     32  C   UNL     1       3.114 -21.501  31.127  1.00  0.00     0.191 C 
BRANCH  32  33
ATOM     33  O   UNL     1       2.413 -22.416  31.915  1.00  0.00    -0.394 OA
ATOM     34  H   UNL     1       2.069 -21.890  32.673  1.00  0.00     0.210 HD
ENDBRANCH  32  33
ENDBRANCH  26  32
BRANCH  27  35
ATOM     35  O   UNL     1       2.481 -19.405  32.918  1.00  0.00    -0.387 OA
ATOM     36  H   UNL     1       3.382 -19.839  33.081  1.00  0.00     0.211 HD
ENDBRANCH  27  35
ENDBRANCH  21  22
ENDBRANCH   2  21
BRANCH   5  37
ATOM     37  O   UNL     1      -0.728 -17.540  25.756  1.00  0.00    -0.461 OA
BRANCH  37  38
ATOM     38  C   UNL     1      -0.374 -16.228  26.249  1.00  0.00     0.339 C 
ATOM     39  C   UNL     1      -0.481 -15.138  25.145  1.00  0.00     0.214 C 
ATOM     40  O   UNL     1      -1.051 -15.859  27.450  1.00  0.00    -0.332 OA
ATOM     41  C   UNL     1      -0.884 -13.737  25.695  1.00  0.00     0.180 C 
ATOM     42  C   UNL     1      -2.325 -15.265  27.230  1.00  0.00     0.179 C 
ATOM     43  C   UNL     1      -2.178 -13.875  26.576  1.00  0.00     0.177 C 
BRANCH  39  44
ATOM     44  O   UNL     1      -1.313 -15.594  24.126  1.00  0.00    -0.384 OA
ATOM     45  H   UNL     1      -0.959 -15.295  23.248  1.00  0.00     0.211 HD
ENDBRANCH  39  44
BRANCH  41  46
ATOM     46  O   UNL     1       0.165 -13.190  26.475  1.00  0.00    -0.387 OA
ATOM     47  H   UNL     1       1.003 -13.677  26.221  1.00  0.00     0.211 HD
ENDBRANCH  41  46
BRANCH  42  48
ATOM     48  C   UNL     1      -3.124 -15.293  28.554  1.00  0.00     0.191 C 
BRANCH  48  49
ATOM     49  O   UNL     1      -2.286 -15.010  29.647  1.00  0.00    -0.394 OA
ATOM     50  H   UNL     1      -1.410 -15.442  29.481  1.00  0.00     0.210 HD
ENDBRANCH  48  49
ENDBRANCH  42  48
BRANCH  43  51
ATOM     51  O   UNL     1      -2.254 -12.842  27.545  1.00  0.00    -0.387 OA
ATOM     52  H   UNL     1      -2.254 -13.225  28.439  1.00  0.00     0.211 HD
ENDBRANCH  43  51
ENDBRANCH  37  38
ENDBRANCH   5  37
BRANCH   7  53
ATOM     53  O   UNL     1       3.540 -19.320  24.490  1.00  0.00    -0.507 OA
ATOM     54  H   UNL     1       4.328 -19.936  24.678  1.00  0.00     0.293 HD
ENDBRANCH   7  53
TORSDOF 18
ENDMDL
MODEL 3
REMARK VINA RESULT:    -7.103      3.259      7.103
REMARK INTER + INTRA:         -15.391
REMARK INTER:                 -12.881
REMARK INTRA:                  -2.510
REMARK UNBOUND:                -2.891
REMARK SMILES COc1cc(-c2[o+]c3cc(O)cc(O[C@@H]4O[C@@H](CO)[C@@H](O)[C@@H](O)[C@@H]4O)c3cc2O[C@H]2O[C@H](CO)[C@H](O)[C@H](O)[C@@H]2O)ccc1O
REMARK SMILES IDX 6 1 28 2 27 3 26 4 13 5 12 6 10 7 9 8 8 9 7 10 5 11 3 12
REMARK SMILES IDX 43 13 4 14 42 15 41 16 2 17 1 18 44 19 29 21 30 22 39 23
REMARK SMILES IDX 31 24 37 25 32 26 35 27 40 28 38 30 33 32 34 33 36 35 14 37
REMARK SMILES IDX 15 38 24 39 16 40 22 41 17 42 20 43 25 44 23 46 18 48 19 49
REMARK SMILES IDX 21 51 11 53
REMARK H PARENT 44 20 40 29 38 31 34 34 36 36 25 45 23 47 19 50 21 52 11 54
REMARK Flexibility Score: inf
ROOT
ATOM      1  C   UNL     1       0.538 -18.102  25.547  1.00  0.00     0.402 A 
ATOM      2  C   UNL     1      -0.037 -17.966  26.826  1.00  0.00     0.229 A 
ATOM      3  C   UNL     1      -0.875 -16.839  27.052  1.00  0.00     0.079 A 
ATOM      4  C   UNL     1      -0.495 -15.673  26.404  1.00  0.00     0.126 A 
ATOM      5  C   UNL     1      -0.817 -14.408  26.919  1.00  0.00     0.143 A 
ATOM      6  C   UNL     1      -0.192 -13.261  26.369  1.00  0.00     0.094 A 
ATOM      7  C   UNL     1       0.721 -13.378  25.326  1.00  0.00     0.128 A 
ATOM      8  C   UNL     1       0.976 -14.626  24.745  1.00  0.00     0.162 A 
ATOM      9  C   UNL     1       0.409 -15.784  25.309  1.00  0.00     0.368 A 
ATOM     10  O   UNL     1       0.785 -17.000  24.860  1.00  0.00    -0.202 OA
ENDROOT
BRANCH   1  11
ATOM     11  C   UNL     1       0.801 -19.430  24.923  1.00  0.00     0.087 A 
ATOM     12  C   UNL     1       2.161 -21.430  24.743  1.00  0.00     0.161 A 
ATOM     13  C   UNL     1       1.510 -21.733  23.521  1.00  0.00     0.157 A 
ATOM     14  C   UNL     1       1.822 -20.228  25.430  1.00  0.00     0.068 A 
ATOM     15  C   UNL     1       0.537 -20.860  22.987  1.00  0.00     0.051 A 
ATOM     16  C   UNL     1       0.157 -19.730  23.710  1.00  0.00     0.022 A 
BRANCH  12  17
ATOM     17  O   UNL     1       3.167 -22.299  25.214  1.00  0.00    -0.493 OA
ATOM     18  C   UNL     1       2.956 -23.136  26.364  1.00  0.00     0.278 C 
ENDBRANCH  12  17
BRANCH  13  19
ATOM     19  O   UNL     1       1.859 -22.907  22.876  1.00  0.00    -0.504 OA
ATOM     20  H   UNL     1       1.174 -23.498  22.435  1.00  0.00     0.293 HD
ENDBRANCH  13  19
ENDBRANCH   1  11
BRANCH   2  21
ATOM     21  O   UNL     1       0.456 -18.679  27.932  1.00  0.00    -0.452 OA
BRANCH  21  22
ATOM     22  C   UNL     1      -0.421 -19.637  28.621  1.00  0.00     0.339 C 
ATOM     23  C   UNL     1      -0.622 -19.318  30.123  1.00  0.00     0.214 C 
ATOM     24  O   UNL     1      -0.021 -20.968  28.310  1.00  0.00    -0.332 OA
ATOM     25  C   UNL     1      -1.766 -20.239  30.592  1.00  0.00     0.180 C 
ATOM     26  C   UNL     1      -0.219 -21.917  29.332  1.00  0.00     0.179 C 
ATOM     27  C   UNL     1      -1.531 -21.735  30.127  1.00  0.00     0.177 C 
BRANCH  23  28
ATOM     28  O   UNL     1      -0.924 -17.937  30.284  1.00  0.00    -0.384 OA
ATOM     29  H   UNL     1      -0.102 -17.454  30.605  1.00  0.00     0.211 HD
ENDBRANCH  23  28
BRANCH  25  30
ATOM     30  O   UNL     1      -2.968 -19.733  30.064  1.00  0.00    -0.387 OA
ATOM     31  H   UNL     1      -2.891 -18.728  30.084  1.00  0.00     0.211 HD
ENDBRANCH  25  30
BRANCH  26  32
ATOM     32  C   UNL     1      -0.135 -23.313  28.704  1.00  0.00     0.191 C 
BRANCH  32  33
ATOM     33  O   UNL     1      -0.551 -24.316  29.581  1.00  0.00    -0.394 OA
ATOM     34  H   UNL     1      -0.679 -25.113  29.017  1.00  0.00     0.210 HD
ENDBRANCH  32  33
ENDBRANCH  26  32
BRANCH  27  35
ATOM     35  O   UNL     1      -2.648 -22.243  29.441  1.00  0.00    -0.387 OA
ATOM     36  H   UNL     1      -2.411 -22.224  28.456  1.00  0.00     0.211 HD
ENDBRANCH  27  35
ENDBRANCH  21  22
ENDBRANCH   2  21
BRANCH   5  37
ATOM     37  O   UNL     1      -1.617 -14.292  28.031  1.00  0.00    -0.461 OA
BRANCH  37  38
ATOM     38  C   UNL     1      -2.905 -13.638  28.046  1.00  0.00     0.339 C 
ATOM     39  C   UNL     1      -3.983 -14.481  28.786  1.00  0.00     0.214 C 
ATOM     40  O   UNL     1      -2.863 -12.285  28.500  1.00  0.00    -0.332 OA
ATOM     41  C   UNL     1      -5.062 -13.616  29.504  1.00  0.00     0.180 C 
ATOM     42  C   UNL     1      -2.950 -12.153  29.913  1.00  0.00     0.179 C 
ATOM     43  C   UNL     1      -4.352 -12.552  30.418  1.00  0.00     0.177 C 
BRANCH  39  44
ATOM     44  O   UNL     1      -3.356 -15.396  29.626  1.00  0.00    -0.384 OA
ATOM     45  H   UNL     1      -2.402 -15.144  29.739  1.00  0.00     0.211 HD
ENDBRANCH  39  44
BRANCH  41  46
ATOM     46  O   UNL     1      -5.880 -12.955  28.554  1.00  0.00    -0.387 OA
ATOM     47  H   UNL     1      -5.428 -12.089  28.331  1.00  0.00     0.211 HD
ENDBRANCH  41  46
BRANCH  42  48
ATOM     48  C   UNL     1      -2.484 -10.732  30.311  1.00  0.00     0.191 C 
BRANCH  48  49
ATOM     49  O   UNL     1      -2.940  -9.780  29.382  1.00  0.00    -0.394 OA
ATOM     50  H   UNL     1      -3.274 -10.265  28.584  1.00  0.00     0.210 HD
ENDBRANCH  48  49
ENDBRANCH  42  48
BRANCH  43  51
ATOM     51  O   UNL     1      -5.172 -11.411  30.611  1.00  0.00    -0.387 OA
ATOM     52  H   UNL     1      -4.794 -10.844  31.305  1.00  0.00     0.211 HD
ENDBRANCH  43  51
ENDBRANCH  37  38
ENDBRANCH   5  37
BRANCH   7  53
ATOM     53  O   UNL     1       1.398 -12.245  24.915  1.00  0.00    -0.507 OA
ATOM     54  H   UNL     1       1.410 -11.958  23.939  1.00  0.00     0.293 HD
ENDBRANCH   7  53
TORSDOF 18
ENDMDL
MODEL 4
REMARK VINA RESULT:    -7.011      2.246      5.238
REMARK INTER + INTRA:         -15.229
REMARK INTER:                 -12.743
REMARK INTRA:                  -2.486
REMARK UNBOUND:                -2.891
REMARK SMILES COc1cc(-c2[o+]c3cc(O)cc(O[C@@H]4O[C@@H](CO)[C@@H](O)[C@@H](O)[C@@H]4O)c3cc2O[C@H]2O[C@H](CO)[C@H](O)[C@H](O)[C@@H]2O)ccc1O
REMARK SMILES IDX 6 1 28 2 27 3 26 4 13 5 12 6 10 7 9 8 8 9 7 10 5 11 3 12
REMARK SMILES IDX 43 13 4 14 42 15 41 16 2 17 1 18 44 19 29 21 30 22 39 23
REMARK SMILES IDX 31 24 37 25 32 26 35 27 40 28 38 30 33 32 34 33 36 35 14 37
REMARK SMILES IDX 15 38 24 39 16 40 22 41 17 42 20 43 25 44 23 46 18 48 19 49
REMARK SMILES IDX 21 51 11 53
REMARK H PARENT 44 20 40 29 38 31 34 34 36 36 25 45 23 47 19 50 21 52 11 54
REMARK Flexibility Score: inf
ROOT
ATOM      1  C   UNL     1      -0.060 -22.737  28.962  1.00  0.00     0.402 A 
ATOM      2  C   UNL     1       0.199 -21.824  27.921  1.00  0.00     0.229 A 
ATOM      3  C   UNL     1       0.317 -20.450  28.268  1.00  0.00     0.079 A 
ATOM      4  C   UNL     1      -0.513 -20.019  29.294  1.00  0.00     0.126 A 
ATOM      5  C   UNL     1      -0.942 -18.686  29.381  1.00  0.00     0.143 A 
ATOM      6  C   UNL     1      -1.984 -18.356  30.283  1.00  0.00     0.094 A 
ATOM      7  C   UNL     1      -2.571 -19.332  31.082  1.00  0.00     0.128 A 
ATOM      8  C   UNL     1      -2.085 -20.644  31.069  1.00  0.00     0.162 A 
ATOM      9  C   UNL     1      -1.089 -21.008  30.143  1.00  0.00     0.368 A 
ATOM     10  O   UNL     1      -0.739 -22.304  30.010  1.00  0.00    -0.202 OA
ENDROOT
BRANCH   1  11
ATOM     11  C   UNL     1       0.465 -24.132  28.953  1.00  0.00     0.087 A 
ATOM     12  C   UNL     1       0.355 -26.420  29.753  1.00  0.00     0.161 A 
ATOM     13  C   UNL     1       1.653 -26.640  29.225  1.00  0.00     0.157 A 
ATOM     14  C   UNL     1      -0.225 -25.122  29.646  1.00  0.00     0.068 A 
ATOM     15  C   UNL     1       2.364 -25.593  28.601  1.00  0.00     0.051 A 
ATOM     16  C   UNL     1       1.752 -24.351  28.432  1.00  0.00     0.022 A 
BRANCH  12  17
ATOM     17  O   UNL     1      -0.300 -27.477  30.418  1.00  0.00    -0.493 OA
ATOM     18  C   UNL     1      -1.578 -27.287  31.049  1.00  0.00     0.278 C 
ENDBRANCH  12  17
BRANCH  13  19
ATOM     19  O   UNL     1       2.191 -27.910  29.342  1.00  0.00    -0.504 OA
ATOM     20  H   UNL     1       1.617 -28.718  29.517  1.00  0.00     0.293 HD
ENDBRANCH  13  19
ENDBRANCH   1  11
BRANCH   2  21
ATOM     21  O   UNL     1      -0.004 -22.168  26.574  1.00  0.00    -0.452 OA
BRANCH  21  22
ATOM     22  C   UNL     1       0.511 -21.284  25.518  1.00  0.00     0.339 C 
ATOM     23  C   UNL     1      -0.549 -20.916  24.452  1.00  0.00     0.214 C 
ATOM     24  O   UNL     1       1.748 -21.790  25.025  1.00  0.00    -0.332 OA
ATOM     25  C   UNL     1       0.082 -19.785  23.613  1.00  0.00     0.180 C 
ATOM     26  C   UNL     1       2.004 -21.546  23.662  1.00  0.00     0.179 C 
ATOM     27  C   UNL     1       1.556 -20.153  23.167  1.00  0.00     0.177 C 
BRANCH  23  28
ATOM     28  O   UNL     1      -1.756 -20.519  25.093  1.00  0.00    -0.384 OA
ATOM     29  H   UNL     1      -2.511 -20.558  24.429  1.00  0.00     0.211 HD
ENDBRANCH  23  28
BRANCH  25  30
ATOM     30  O   UNL     1       0.071 -18.616  24.395  1.00  0.00    -0.387 OA
ATOM     31  H   UNL     1      -0.056 -17.844  23.758  1.00  0.00     0.211 HD
ENDBRANCH  25  30
BRANCH  26  32
ATOM     32  C   UNL     1       3.499 -21.774  23.413  1.00  0.00     0.191 C 
BRANCH  32  33
ATOM     33  O   UNL     1       3.999 -22.859  24.137  1.00  0.00    -0.394 OA
ATOM     34  H   UNL     1       3.208 -23.282  24.542  1.00  0.00     0.210 HD
ENDBRANCH  32  33
ENDBRANCH  26  32
BRANCH  27  35
ATOM     35  O   UNL     1       2.468 -19.142  23.517  1.00  0.00    -0.387 OA
ATOM     36  H   UNL     1       2.344 -18.398  22.840  1.00  0.00     0.211 HD
ENDBRANCH  27  35
ENDBRANCH  21  22
ENDBRANCH   2  21
BRANCH   5  37
ATOM     37  O   UNL     1      -0.459 -17.740  28.507  1.00  0.00    -0.461 OA
BRANCH  37  38
ATOM     38  C   UNL     1      -1.269 -17.031  27.543  1.00  0.00     0.339 C 
ATOM     39  C   UNL     1      -1.945 -15.772  28.158  1.00  0.00     0.214 C 
ATOM     40  O   UNL     1      -0.595 -16.746  26.318  1.00  0.00    -0.332 OA
ATOM     41  C   UNL     1      -2.141 -14.612  27.136  1.00  0.00     0.180 C 
ATOM     42  C   UNL     1       0.157 -15.540  26.346  1.00  0.00     0.179 C 
ATOM     43  C   UNL     1      -0.774 -14.312  26.421  1.00  0.00     0.177 C 
BRANCH  39  44
ATOM     44  O   UNL     1      -1.253 -15.391  29.304  1.00  0.00    -0.384 OA
ATOM     45  H   UNL     1      -1.252 -14.401  29.379  1.00  0.00     0.211 HD
ENDBRANCH  39  44
BRANCH  41  46
ATOM     46  O   UNL     1      -3.116 -14.964  26.169  1.00  0.00    -0.387 OA
ATOM     47  H   UNL     1      -2.843 -15.849  25.788  1.00  0.00     0.211 HD
ENDBRANCH  41  46
BRANCH  42  48
ATOM     48  C   UNL     1       1.152 -15.545  25.160  1.00  0.00     0.191 C 
BRANCH  48  49
ATOM     49  O   UNL     1       0.479 -15.778  23.948  1.00  0.00    -0.394 OA
ATOM     50  H   UNL     1      -0.461 -16.010  24.159  1.00  0.00     0.210 HD
ENDBRANCH  48  49
ENDBRANCH  42  48
BRANCH  43  51
ATOM     51  O   UNL     1      -0.979 -13.744  25.138  1.00  0.00    -0.387 OA
ATOM     52  H   UNL     1      -1.645 -13.036  25.190  1.00  0.00     0.211 HD
ENDBRANCH  43  51
ENDBRANCH  37  38
ENDBRANCH   5  37
BRANCH   7  53
ATOM     53  O   UNL     1      -3.668 -18.982  31.846  1.00  0.00    -0.507 OA
ATOM     54  H   UNL     1      -4.483 -18.532  31.434  1.00  0.00     0.293 HD
ENDBRANCH   7  53
TORSDOF 18
ENDMDL
MODEL 5
REMARK VINA RESULT:    -6.983      2.519      8.530
REMARK INTER + INTRA:         -15.181
REMARK INTER:                 -12.539
REMARK INTRA:                  -2.642
REMARK UNBOUND:                -2.891
REMARK SMILES COc1cc(-c2[o+]c3cc(O)cc(O[C@@H]4O[C@@H](CO)[C@@H](O)[C@@H](O)[C@@H]4O)c3cc2O[C@H]2O[C@H](CO)[C@H](O)[C@H](O)[C@@H]2O)ccc1O
REMARK SMILES IDX 6 1 28 2 27 3 26 4 13 5 12 6 10 7 9 8 8 9 7 10 5 11 3 12
REMARK SMILES IDX 43 13 4 14 42 15 41 16 2 17 1 18 44 19 29 21 30 22 39 23
REMARK SMILES IDX 31 24 37 25 32 26 35 27 40 28 38 30 33 32 34 33 36 35 14 37
REMARK SMILES IDX 15 38 24 39 16 40 22 41 17 42 20 43 25 44 23 46 18 48 19 49
REMARK SMILES IDX 21 51 11 53
REMARK H PARENT 44 20 40 29 38 31 34 34 36 36 25 45 23 47 19 50 21 52 11 54
REMARK Flexibility Score: inf
ROOT
ATOM      1  C   UNL     1      -1.001 -16.284  28.989  1.00  0.00     0.402 A 
ATOM      2  C   UNL     1      -1.572 -17.500  28.563  1.00  0.00     0.229 A 
ATOM      3  C   UNL     1      -1.356 -18.646  29.377  1.00  0.00     0.079 A 
ATOM      4  C   UNL     1      -0.117 -18.713  29.998  1.00  0.00     0.126 A 
ATOM      5  C   UNL     1       0.468 -19.942  30.339  1.00  0.00     0.143 A 
ATOM      6  C   UNL     1       1.831 -19.971  30.728  1.00  0.00     0.094 A 
ATOM      7  C   UNL     1       2.581 -18.801  30.785  1.00  0.00     0.128 A 
ATOM      8  C   UNL     1       1.979 -17.561  30.539  1.00  0.00     0.162 A 
ATOM      9  C   UNL     1       0.643 -17.512  30.098  1.00  0.00     0.368 A 
ATOM     10  O   UNL     1       0.114 -16.338  29.697  1.00  0.00    -0.202 OA
ENDROOT
BRANCH   1  11
ATOM     11  C   UNL     1      -1.646 -14.964  28.735  1.00  0.00     0.087 A 
ATOM     12  C   UNL     1      -1.472 -12.638  28.068  1.00  0.00     0.161 A 
ATOM     13  C   UNL     1      -2.764 -12.413  28.608  1.00  0.00     0.157 A 
ATOM     14  C   UNL     1      -0.892 -13.936  28.177  1.00  0.00     0.068 A 
ATOM     15  C   UNL     1      -3.471 -13.456  29.244  1.00  0.00     0.051 A 
ATOM     16  C   UNL     1      -2.925 -14.739  29.271  1.00  0.00     0.022 A 
BRANCH  12  17
ATOM     17  O   UNL     1      -0.776 -11.557  27.489  1.00  0.00    -0.493 OA
ATOM     18  C   UNL     1      -0.612 -11.447  26.065  1.00  0.00     0.278 C 
ENDBRANCH  12  17
BRANCH  13  19
ATOM     19  O   UNL     1      -3.302 -11.143  28.487  1.00  0.00    -0.504 OA
ATOM     20  H   UNL     1      -3.301 -10.488  29.250  1.00  0.00     0.293 HD
ENDBRANCH  13  19
ENDBRANCH   1  11
BRANCH   2  21
ATOM     21  O   UNL     1      -2.019 -17.679  27.243  1.00  0.00    -0.452 OA
BRANCH  21  22
ATOM     22  C   UNL     1      -1.094 -18.219  26.236  1.00  0.00     0.339 C 
ATOM     23  C   UNL     1      -1.047 -19.767  26.210  1.00  0.00     0.214 C 
ATOM     24  O   UNL     1       0.163 -17.555  26.327  1.00  0.00    -0.332 OA
ATOM     25  C   UNL     1      -0.263 -20.136  24.934  1.00  0.00     0.180 C 
ATOM     26  C   UNL     1       1.289 -18.337  26.007  1.00  0.00     0.179 C 
ATOM     27  C   UNL     1       1.080 -19.303  24.821  1.00  0.00     0.177 C 
BRANCH  23  28
ATOM     28  O   UNL     1      -2.371 -20.287  26.214  1.00  0.00    -0.384 OA
ATOM     29  H   UNL     1      -2.711 -20.331  25.268  1.00  0.00     0.211 HD
ENDBRANCH  23  28
BRANCH  25  30
ATOM     30  O   UNL     1      -1.100 -19.891  23.831  1.00  0.00    -0.387 OA
ATOM     31  H   UNL     1      -1.207 -20.770  23.348  1.00  0.00     0.211 HD
ENDBRANCH  25  30
BRANCH  26  32
ATOM     32  C   UNL     1       2.467 -17.389  25.756  1.00  0.00     0.191 C 
BRANCH  32  33
ATOM     33  O   UNL     1       3.544 -18.031  25.140  1.00  0.00    -0.394 OA
ATOM     34  H   UNL     1       4.326 -17.467  25.339  1.00  0.00     0.210 HD
ENDBRANCH  32  33
ENDBRANCH  26  32
BRANCH  27  35
ATOM     35  O   UNL     1       1.179 -18.654  23.578  1.00  0.00    -0.387 OA
ATOM     36  H   UNL     1       1.098 -19.376  22.871  1.00  0.00     0.211 HD
ENDBRANCH  27  35
ENDBRANCH  21  22
ENDBRANCH   2  21
BRANCH   5  37
ATOM     37  O   UNL     1      -0.225 -21.116  30.163  1.00  0.00    -0.461 OA
BRANCH  37  38
ATOM     38  C   UNL     1      -0.365 -22.141  31.172  1.00  0.00     0.339 C 
ATOM     39  C   UNL     1      -1.739 -22.064  31.898  1.00  0.00     0.214 C 
ATOM     40  O   UNL     1      -0.065 -23.457  30.707  1.00  0.00    -0.332 OA
ATOM     41  C   UNL     1      -2.272 -23.453  32.363  1.00  0.00     0.180 C 
ATOM     42  C   UNL     1      -1.170 -24.115  30.101  1.00  0.00     0.179 C 
ATOM     43  C   UNL     1      -2.252 -24.451  31.149  1.00  0.00     0.177 C 
BRANCH  39  44
ATOM     44  O   UNL     1      -2.641 -21.360  31.105  1.00  0.00    -0.384 OA
ATOM     45  H   UNL     1      -2.341 -21.383  30.159  1.00  0.00     0.211 HD
ENDBRANCH  39  44
BRANCH  41  46
ATOM     46  O   UNL     1      -1.470 -23.966  33.412  1.00  0.00    -0.387 OA
ATOM     47  H   UNL     1      -1.618 -23.376  34.208  1.00  0.00     0.211 HD
ENDBRANCH  41  46
BRANCH  42  48
ATOM     48  C   UNL     1      -0.645 -25.319  29.283  1.00  0.00     0.191 C 
BRANCH  48  49
ATOM     49  O   UNL     1       0.302 -26.049  30.023  1.00  0.00    -0.394 OA
ATOM     50  H   UNL     1       0.724 -25.432  30.673  1.00  0.00     0.210 HD
ENDBRANCH  48  49
ENDBRANCH  42  48
BRANCH  43  51
ATOM     51  O   UNL     1      -2.141 -25.794  31.589  1.00  0.00    -0.387 OA
ATOM     52  H   UNL     1      -2.717 -26.368  31.054  1.00  0.00     0.211 HD
ENDBRANCH  43  51
ENDBRANCH  37  38
ENDBRANCH   5  37
BRANCH   7  53
ATOM     53  O   UNL     1       3.935 -18.900  31.043  1.00  0.00    -0.507 OA
ATOM     54  H   UNL     1       4.351 -19.768  31.375  1.00  0.00     0.293 HD
ENDBRANCH   7  53
TORSDOF 18
ENDMDL
MODEL 6
REMARK VINA RESULT:    -6.963      2.028      3.096
REMARK INTER + INTRA:         -15.145
REMARK INTER:                 -11.352
REMARK INTRA:                  -3.793
REMARK UNBOUND:                -2.891
REMARK SMILES COc1cc(-c2[o+]c3cc(O)cc(O[C@@H]4O[C@@H](CO)[C@@H](O)[C@@H](O)[C@@H]4O)c3cc2O[C@H]2O[C@H](CO)[C@H](O)[C@H](O)[C@@H]2O)ccc1O
REMARK SMILES IDX 6 1 28 2 27 3 26 4 13 5 12 6 10 7 9 8 8 9 7 10 5 11 3 12
REMARK SMILES IDX 43 13 4 14 42 15 41 16 2 17 1 18 44 19 29 21 30 22 39 23
REMARK SMILES IDX 31 24 37 25 32 26 35 27 40 28 38 30 33 32 34 33 36 35 14 37
REMARK SMILES IDX 15 38 24 39 16 40 22 41 17 42 20 43 25 44 23 46 18 48 19 49
REMARK SMILES IDX 21 51 11 53
REMARK H PARENT 44 20 40 29 38 31 34 34 36 36 25 45 23 47 19 50 21 52 11 54
REMARK Flexibility Score: inf
ROOT
ATOM      1  C   UNL     1      -0.367 -21.479  27.903  1.00  0.00     0.402 A 
ATOM      2  C   UNL     1      -0.892 -20.217  28.243  1.00  0.00     0.229 A 
ATOM      3  C   UNL     1      -1.255 -19.348  27.177  1.00  0.00     0.079 A 
ATOM      4  C   UNL     1      -0.445 -19.413  26.052  1.00  0.00     0.126 A 
ATOM      5  C   UNL     1      -0.288 -18.312  25.196  1.00  0.00     0.143 A 
ATOM      6  C   UNL     1       0.740 -18.340  24.220  1.00  0.00     0.094 A 
ATOM      7  C   UNL     1       1.578 -19.444  24.099  1.00  0.00     0.128 A 
ATOM      8  C   UNL     1       1.366 -20.583  24.885  1.00  0.00     0.162 A 
ATOM      9  C   UNL     1       0.389 -20.558  25.897  1.00  0.00     0.368 A 
ATOM     10  O   UNL     1       0.297 -21.586  26.765  1.00  0.00    -0.202 OA
ENDROOT
BRANCH   1  11
ATOM     11  C   UNL     1      -0.599 -22.694  28.735  1.00  0.00     0.087 A 
ATOM     12  C   UNL     1       0.107 -24.892  29.480  1.00  0.00     0.161 A 
ATOM     13  C   UNL     1      -1.198 -25.109  29.993  1.00  0.00     0.157 A 
ATOM     14  C   UNL     1       0.389 -23.671  28.801  1.00  0.00     0.068 A 
ATOM     15  C   UNL     1      -2.205 -24.133  29.836  1.00  0.00     0.051 A 
ATOM     16  C   UNL     1      -1.892 -22.912  29.242  1.00  0.00     0.022 A 
BRANCH  12  17
ATOM     17  O   UNL     1       1.069 -25.914  29.608  1.00  0.00    -0.493 OA
ATOM     18  C   UNL     1       1.617 -26.576  28.455  1.00  0.00     0.278 C 
ENDBRANCH  12  17
BRANCH  13  19
ATOM     19  O   UNL     1      -1.443 -26.303  30.649  1.00  0.00    -0.504 OA
ATOM     20  H   UNL     1      -1.828 -27.103  30.175  1.00  0.00     0.293 HD
ENDBRANCH  13  19
ENDBRANCH   1  11
BRANCH   2  21
ATOM     21  O   UNL     1      -0.740 -19.681  29.533  1.00  0.00    -0.452 OA
BRANCH  21  22
ATOM     22  C   UNL     1       0.534 -19.049  29.905  1.00  0.00     0.339 C 
ATOM     23  C   UNL     1       1.106 -19.562  31.250  1.00  0.00     0.214 C 
ATOM     24  O   UNL     1       0.433 -17.635  29.765  1.00  0.00    -0.332 OA
ATOM     25  C   UNL     1       2.545 -19.011  31.325  1.00  0.00     0.180 C 
ATOM     26  C   UNL     1       1.193 -16.878  30.677  1.00  0.00     0.179 C 
ATOM     27  C   UNL     1       2.588 -17.464  30.987  1.00  0.00     0.177 C 
BRANCH  23  28
ATOM     28  O   UNL     1       1.059 -20.984  31.280  1.00  0.00    -0.384 OA
ATOM     29  H   UNL     1       1.710 -21.322  31.968  1.00  0.00     0.211 HD
ENDBRANCH  23  28
BRANCH  25  30
ATOM     30  O   UNL     1       3.333 -19.744  30.420  1.00  0.00    -0.387 OA
ATOM     31  H   UNL     1       4.282 -19.693  30.756  1.00  0.00     0.211 HD
ENDBRANCH  25  30
BRANCH  26  32
ATOM     32  C   UNL     1       1.295 -15.448  30.134  1.00  0.00     0.191 C 
BRANCH  32  33
ATOM     33  O   UNL     1       1.582 -15.418  28.767  1.00  0.00    -0.394 OA
ATOM     34  H   UNL     1       0.710 -15.297  28.326  1.00  0.00     0.210 HD
ENDBRANCH  32  33
ENDBRANCH  26  32
BRANCH  27  35
ATOM     35  O   UNL     1       3.524 -17.183  29.977  1.00  0.00    -0.387 OA
ATOM     36  H   UNL     1       3.137 -17.557  29.118  1.00  0.00     0.211 HD
ENDBRANCH  27  35
ENDBRANCH  21  22
ENDBRANCH   2  21
BRANCH   5  37
ATOM     37  O   UNL     1      -1.023 -17.167  25.391  1.00  0.00    -0.461 OA
BRANCH  37  38
ATOM     38  C   UNL     1      -0.513 -15.965  26.010  1.00  0.00     0.339 C 
ATOM     39  C   UNL     1      -0.859 -14.690  25.189  1.00  0.00     0.214 C 
ATOM     40  O   UNL     1      -0.852 -15.835  27.391  1.00  0.00    -0.332 OA
ATOM     41  C   UNL     1      -1.063 -13.421  26.070  1.00  0.00     0.180 C 
ATOM     42  C   UNL     1      -2.119 -15.229  27.613  1.00  0.00     0.179 C 
ATOM     43  C   UNL     1      -2.096 -13.740  27.210  1.00  0.00     0.177 C 
BRANCH  39  44
ATOM     44  O   UNL     1      -1.935 -14.961  24.349  1.00  0.00    -0.384 OA
ATOM     45  H   UNL     1      -1.620 -15.014  23.409  1.00  0.00     0.211 HD
ENDBRANCH  39  44
BRANCH  41  46
ATOM     46  O   UNL     1       0.167 -13.014  26.645  1.00  0.00    -0.387 OA
ATOM     47  H   UNL     1      -0.023 -12.767  27.597  1.00  0.00     0.211 HD
ENDBRANCH  41  46
BRANCH  42  48
ATOM     48  C   UNL     1      -2.559 -15.514  29.069  1.00  0.00     0.191 C 
BRANCH  48  49
ATOM     49  O   UNL     1      -2.258 -16.840  29.430  1.00  0.00    -0.394 OA
ATOM     50  H   UNL     1      -1.350 -16.850  29.827  1.00  0.00     0.210 HD
ENDBRANCH  48  49
ENDBRANCH  42  48
BRANCH  43  51
ATOM     51  O   UNL     1      -1.891 -12.906  28.339  1.00  0.00    -0.387 OA
ATOM     52  H   UNL     1      -0.968 -12.600  28.362  1.00  0.00     0.211 HD
ENDBRANCH  43  51
ENDBRANCH  37  38
ENDBRANCH   5  37
BRANCH   7  53
ATOM     53  O   UNL     1       2.642 -19.368  23.221  1.00  0.00    -0.507 OA
ATOM     54  H   UNL     1       2.764 -20.045  22.471  1.00  0.00     0.293 HD
ENDBRANCH   7  53
TORSDOF 18
ENDMDL
MODEL 7
REMARK VINA RESULT:    -6.950      3.469      7.298
REMARK INTER + INTRA:         -15.123
REMARK INTER:                 -12.639
REMARK INTRA:                  -2.484
REMARK UNBOUND:                -2.891
REMARK SMILES COc1cc(-c2[o+]c3cc(O)cc(O[C@@H]4O[C@@H](CO)[C@@H](O)[C@@H](O)[C@@H]4O)c3cc2O[C@H]2O[C@H](CO)[C@H](O)[C@H](O)[C@@H]2O)ccc1O
REMARK SMILES IDX 6 1 28 2 27 3 26 4 13 5 12 6 10 7 9 8 8 9 7 10 5 11 3 12
REMARK SMILES IDX 43 13 4 14 42 15 41 16 2 17 1 18 44 19 29 21 30 22 39 23
REMARK SMILES IDX 31 24 37 25 32 26 35 27 40 28 38 30 33 32 34 33 36 35 14 37
REMARK SMILES IDX 15 38 24 39 16 40 22 41 17 42 20 43 25 44 23 46 18 48 19 49
REMARK SMILES IDX 21 51 11 53
REMARK H PARENT 44 20 40 29 38 31 34 34 36 36 25 45 23 47 19 50 21 52 11 54
REMARK Flexibility Score: inf
ROOT
ATOM      1  C   UNL     1       0.949 -16.933  26.454  1.00  0.00     0.402 A 
ATOM      2  C   UNL     1      -0.044 -16.735  27.433  1.00  0.00     0.229 A 
ATOM      3  C   UNL     1      -1.080 -15.806  27.138  1.00  0.00     0.079 A 
ATOM      4  C   UNL     1      -0.696 -14.699  26.395  1.00  0.00     0.126 A 
ATOM      5  C   UNL     1      -1.377 -13.476  26.493  1.00  0.00     0.143 A 
ATOM      6  C   UNL     1      -0.796 -12.317  25.921  1.00  0.00     0.094 A 
ATOM      7  C   UNL     1       0.427 -12.384  25.260  1.00  0.00     0.128 A 
ATOM      8  C   UNL     1       1.064 -13.617  25.075  1.00  0.00     0.162 A 
ATOM      9  C   UNL     1       0.535 -14.772  25.681  1.00  0.00     0.368 A 
ATOM     10  O   UNL     1       1.234 -15.925  25.649  1.00  0.00    -0.202 OA
ENDROOT
BRANCH   1  11
ATOM     11  C   UNL     1       1.622 -18.248  26.251  1.00  0.00     0.087 A 
ATOM     12  C   UNL     1       1.675 -20.439  25.213  1.00  0.00     0.161 A 
ATOM     13  C   UNL     1       2.669 -20.830  26.145  1.00  0.00     0.157 A 
ATOM     14  C   UNL     1       1.115 -19.131  25.303  1.00  0.00     0.068 A 
ATOM     15  C   UNL     1       3.103 -19.939  27.151  1.00  0.00     0.051 A 
ATOM     16  C   UNL     1       2.606 -18.637  27.176  1.00  0.00     0.022 A 
BRANCH  12  17
ATOM     17  O   UNL     1       1.228 -21.377  24.258  1.00  0.00    -0.493 OA
ATOM     18  C   UNL     1       1.066 -21.019  22.875  1.00  0.00     0.278 C 
ENDBRANCH  12  17
BRANCH  13  19
ATOM     19  O   UNL     1       3.194 -22.106  26.033  1.00  0.00    -0.504 OA
ATOM     20  H   UNL     1       3.024 -22.684  25.227  1.00  0.00     0.293 HD
ENDBRANCH  13  19
ENDBRANCH   1  11
BRANCH   2  21
ATOM     21  O   UNL     1       0.147 -17.137  28.766  1.00  0.00    -0.452 OA
BRANCH  21  22
ATOM     22  C   UNL     1      -0.524 -18.349  29.257  1.00  0.00     0.339 C 
ATOM     23  C   UNL     1       0.176 -18.986  30.483  1.00  0.00     0.214 C 
ATOM     24  O   UNL     1      -0.800 -19.225  28.167  1.00  0.00    -0.332 OA
ATOM     25  C   UNL     1      -0.807 -20.050  31.014  1.00  0.00     0.180 C 
ATOM     26  C   UNL     1      -0.757 -20.600  28.466  1.00  0.00     0.179 C 
ATOM     27  C   UNL     1      -1.346 -20.973  29.845  1.00  0.00     0.177 C 
BRANCH  23  28
ATOM     28  O   UNL     1       0.470 -17.979  31.444  1.00  0.00    -0.384 OA
ATOM     29  H   UNL     1      -0.353 -17.795  31.992  1.00  0.00     0.211 HD
ENDBRANCH  23  28
BRANCH  25  30
ATOM     30  O   UNL     1      -1.866 -19.376  31.649  1.00  0.00    -0.387 OA
ATOM     31  H   UNL     1      -2.057 -18.554  31.098  1.00  0.00     0.211 HD
ENDBRANCH  25  30
BRANCH  26  32
ATOM     32  C   UNL     1      -1.465 -21.352  27.333  1.00  0.00     0.191 C 
BRANCH  32  33
ATOM     33  O   UNL     1      -2.442 -20.574  26.709  1.00  0.00    -0.394 OA
ATOM     34  H   UNL     1      -3.201 -20.563  27.336  1.00  0.00     0.210 HD
ENDBRANCH  32  33
ENDBRANCH  26  32
BRANCH  27  35
ATOM     35  O   UNL     1      -2.750 -21.020  29.832  1.00  0.00    -0.387 OA
ATOM     36  H   UNL     1      -3.047 -20.503  29.013  1.00  0.00     0.211 HD
ENDBRANCH  27  35
ENDBRANCH  21  22
ENDBRANCH   2  21
BRANCH   5  37
ATOM     37  O   UNL     1      -2.518 -13.373  27.254  1.00  0.00    -0.461 OA
BRANCH  37  38
ATOM     38  C   UNL     1      -2.534 -13.313  28.697  1.00  0.00     0.339 C 
ATOM     39  C   UNL     1      -2.513 -11.849  29.224  1.00  0.00     0.214 C 
ATOM     40  O   UNL     1      -3.565 -14.095  29.298  1.00  0.00    -0.332 OA
ATOM     41  C   UNL     1      -3.276 -11.663  30.569  1.00  0.00     0.180 C 
ATOM     42  C   UNL     1      -4.809 -13.415  29.408  1.00  0.00     0.179 C 
ATOM     43  C   UNL     1      -4.720 -12.268  30.436  1.00  0.00     0.177 C 
BRANCH  39  44
ATOM     44  O   UNL     1      -2.946 -10.991  28.217  1.00  0.00    -0.384 OA
ATOM     45  H   UNL     1      -3.834 -10.616  28.457  1.00  0.00     0.211 HD
ENDBRANCH  39  44
BRANCH  41  46
ATOM     46  O   UNL     1      -2.586 -12.311  31.624  1.00  0.00    -0.387 OA
ATOM     47  H   UNL     1      -1.980 -11.629  32.039  1.00  0.00     0.211 HD
ENDBRANCH  41  46
BRANCH  42  48
ATOM     48  C   UNL     1      -5.925 -14.454  29.670  1.00  0.00     0.191 C 
BRANCH  48  49
ATOM     49  O   UNL     1      -5.590 -15.279  30.759  1.00  0.00    -0.394 OA
ATOM     50  H   UNL     1      -5.710 -14.753  31.591  1.00  0.00     0.210 HD
ENDBRANCH  48  49
ENDBRANCH  42  48
BRANCH  43  51
ATOM     51  O   UNL     1      -5.228 -12.670  31.698  1.00  0.00    -0.387 OA
ATOM     52  H   UNL     1      -5.519 -11.891  32.203  1.00  0.00     0.211 HD
ENDBRANCH  43  51
ENDBRANCH  37  38
ENDBRANCH   5  37
BRANCH   7  53
ATOM     53  O   UNL     1       1.010 -11.206  24.835  1.00  0.00    -0.507 OA
ATOM     54  H   UNL     1       1.087 -10.399  25.451  1.00  0.00     0.293 HD
ENDBRANCH   7  53
TORSDOF 18
ENDMDL
MODEL 8
REMARK VINA RESULT:    -6.942      3.092      6.526
REMARK INTER + INTRA:         -15.108
REMARK INTER:                 -12.540
REMARK INTRA:                  -2.568
REMARK UNBOUND:                -2.891
REMARK SMILES COc1cc(-c2[o+]c3cc(O)cc(O[C@@H]4O[C@@H](CO)[C@@H](O)[C@@H](O)[C@@H]4O)c3cc2O[C@H]2O[C@H](CO)[C@H](O)[C@H](O)[C@@H]2O)ccc1O
REMARK SMILES IDX 6 1 28 2 27 3 26 4 13 5 12 6 10 7 9 8 8 9 7 10 5 11 3 12
REMARK SMILES IDX 43 13 4 14 42 15 41 16 2 17 1 18 44 19 29 21 30 22 39 23
REMARK SMILES IDX 31 24 37 25 32 26 35 27 40 28 38 30 33 32 34 33 36 35 14 37
REMARK SMILES IDX 15 38 24 39 16 40 22 41 17 42 20 43 25 44 23 46 18 48 19 49
REMARK SMILES IDX 21 51 11 53
REMARK H PARENT 44 20 40 29 38 31 34 34 36 36 25 45 23 47 19 50 21 52 11 54
REMARK Flexibility Score: inf
ROOT
ATOM      1  C   UNL     1       1.263 -18.850  26.625  1.00  0.00     0.402 A 
ATOM      2  C   UNL     1       0.425 -18.606  27.731  1.00  0.00     0.229 A 
ATOM      3  C   UNL     1      -0.463 -17.498  27.650  1.00  0.00     0.079 A 
ATOM      4  C   UNL     1       0.025 -16.391  26.971  1.00  0.00     0.126 A 
ATOM      5  C   UNL     1      -0.423 -15.093  27.263  1.00  0.00     0.143 A 
ATOM      6  C   UNL     1       0.284 -13.985  26.734  1.00  0.00     0.094 A 
ATOM      7  C   UNL     1       1.401 -14.172  25.926  1.00  0.00     0.128 A 
ATOM      8  C   UNL     1       1.797 -15.462  25.553  1.00  0.00     0.162 A 
ATOM      9  C   UNL     1       1.145 -16.578  26.110  1.00  0.00     0.368 A 
ATOM     10  O   UNL     1       1.630 -17.817  25.888  1.00  0.00    -0.202 OA
ENDROOT
BRANCH   1  11
ATOM     11  C   UNL     1       1.677 -20.224  26.222  1.00  0.00     0.087 A 
ATOM     12  C   UNL     1       1.181 -22.325  25.115  1.00  0.00     0.161 A 
ATOM     13  C   UNL     1       2.291 -22.908  25.779  1.00  0.00     0.157 A 
ATOM     14  C   UNL     1       0.851 -20.965  25.383  1.00  0.00     0.068 A 
ATOM     15  C   UNL     1       3.061 -22.155  26.692  1.00  0.00     0.051 A 
ATOM     16  C   UNL     1       2.776 -20.804  26.881  1.00  0.00     0.022 A 
BRANCH  12  17
ATOM     17  O   UNL     1       0.404 -23.126  24.253  1.00  0.00    -0.493 OA
ATOM     18  C   UNL     1       0.796 -23.359  22.890  1.00  0.00     0.278 C 
ENDBRANCH  12  17
BRANCH  13  19
ATOM     19  O   UNL     1       2.589 -24.231  25.499  1.00  0.00    -0.504 OA
ATOM     20  H   UNL     1       2.995 -24.512  24.623  1.00  0.00     0.293 HD
ENDBRANCH  13  19
ENDBRANCH   1  11
BRANCH   2  21
ATOM     21  O   UNL     1       0.683 -19.178  28.989  1.00  0.00    -0.452 OA
BRANCH  21  22
ATOM     22  C   UNL     1      -0.203 -20.237  29.494  1.00  0.00     0.339 C 
ATOM     23  C   UNL     1      -0.773 -19.942  30.904  1.00  0.00     0.214 C 
ATOM     24  O   UNL     1       0.415 -21.509  29.321  1.00  0.00    -0.332 OA
ATOM     25  C   UNL     1      -1.873 -20.998  31.135  1.00  0.00     0.180 C 
ATOM     26  C   UNL     1       0.109 -22.472  30.302  1.00  0.00     0.179 C 
ATOM     27  C   UNL     1      -1.359 -22.453  30.780  1.00  0.00     0.177 C 
BRANCH  23  28
ATOM     28  O   UNL     1      -1.269 -18.609  30.951  1.00  0.00    -0.384 OA
ATOM     29  H   UNL     1      -1.953 -18.485  30.223  1.00  0.00     0.211 HD
ENDBRANCH  23  28
BRANCH  25  30
ATOM     30  O   UNL     1      -2.978 -20.647  30.338  1.00  0.00    -0.387 OA
ATOM     31  H   UNL     1      -2.672 -20.704  29.379  1.00  0.00     0.211 HD
ENDBRANCH  25  30
BRANCH  26  32
ATOM     32  C   UNL     1       0.501 -23.848  29.751  1.00  0.00     0.191 C 
BRANCH  32  33
ATOM     33  O   UNL     1       0.141 -24.006  28.411  1.00  0.00    -0.394 OA
ATOM     34  H   UNL     1      -0.827 -24.184  28.425  1.00  0.00     0.210 HD
ENDBRANCH  32  33
ENDBRANCH  26  32
BRANCH  27  35
ATOM     35  O   UNL     1      -2.224 -23.099  29.879  1.00  0.00    -0.387 OA
ATOM     36  H   UNL     1      -3.166 -22.869  30.172  1.00  0.00     0.211 HD
ENDBRANCH  27  35
ENDBRANCH  21  22
ENDBRANCH   2  21
BRANCH   5  37
ATOM     37  O   UNL     1      -1.444 -14.895  28.162  1.00  0.00    -0.461 OA
BRANCH  37  38
ATOM     38  C   UNL     1      -2.690 -14.234  27.850  1.00  0.00     0.339 C 
ATOM     39  C   UNL     1      -3.907 -14.921  28.534  1.00  0.00     0.214 C 
ATOM     40  O   UNL     1      -2.667 -12.823  28.066  1.00  0.00    -0.332 OA
ATOM     41  C   UNL     1      -5.052 -13.930  28.903  1.00  0.00     0.180 C 
ATOM     42  C   UNL     1      -2.976 -12.443  29.401  1.00  0.00     0.179 C 
ATOM     43  C   UNL     1      -4.457 -12.731  29.726  1.00  0.00     0.177 C 
BRANCH  39  44
ATOM     44  O   UNL     1      -3.462 -15.681  29.611  1.00  0.00    -0.384 OA
ATOM     45  H   UNL     1      -2.931 -15.109  30.225  1.00  0.00     0.211 HD
ENDBRANCH  39  44
BRANCH  41  46
ATOM     46  O   UNL     1      -5.678 -13.437  27.731  1.00  0.00    -0.387 OA
ATOM     47  H   UNL     1      -5.723 -12.440  27.822  1.00  0.00     0.211 HD
ENDBRANCH  41  46
BRANCH  42  48
ATOM     48  C   UNL     1      -2.522 -10.980  29.621  1.00  0.00     0.191 C 
BRANCH  48  49
ATOM     49  O   UNL     1      -2.703 -10.222  28.451  1.00  0.00    -0.394 OA
ATOM     50  H   UNL     1      -3.464 -10.610  27.948  1.00  0.00     0.210 HD
ENDBRANCH  48  49
ENDBRANCH  42  48
BRANCH  43  51
ATOM     51  O   UNL     1      -5.250 -11.564  29.582  1.00  0.00    -0.387 OA
ATOM     52  H   UNL     1      -5.020 -10.919  30.274  1.00  0.00     0.211 HD
ENDBRANCH  43  51
ENDBRANCH  37  38
ENDBRANCH   5  37
BRANCH   7  53
ATOM     53  O   UNL     1       2.129 -13.061  25.544  1.00  0.00    -0.507 OA
ATOM     54  H   UNL     1       3.070 -12.895  25.895  1.00  0.00     0.293 HD
ENDBRANCH   7  53
TORSDOF 18
ENDMDL
MODEL 9
REMARK VINA RESULT:    -5.378      2.677      7.720
REMARK INTER + INTRA:         -12.356
REMARK INTER:                  -8.399
REMARK INTRA:                  -3.957
REMARK UNBOUND:                -2.891
REMARK SMILES COc1cc(-c2[o+]c3cc(O)cc(O[C@@H]4O[C@@H](CO)[C@@H](O)[C@@H](O)[C@@H]4O)c3cc2O[C@H]2O[C@H](CO)[C@H](O)[C@H](O)[C@@H]2O)ccc1O
REMARK SMILES IDX 6 1 28 2 27 3 26 4 13 5 12 6 10 7 9 8 8 9 7 10 5 11 3 12
REMARK SMILES IDX 43 13 4 14 42 15 41 16 2 17 1 18 44 19 29 21 30 22 39 23
REMARK SMILES IDX 31 24 37 25 32 26 35 27 40 28 38 30 33 32 34 33 36 35 14 37
REMARK SMILES IDX 15 38 24 39 16 40 22 41 17 42 20 43 25 44 23 46 18 48 19 49
REMARK SMILES IDX 21 51 11 53
REMARK H PARENT 44 20 40 29 38 31 34 34 36 36 25 45 23 47 19 50 21 52 11 54
REMARK Flexibility Score: inf
ROOT
ATOM      1  C   UNL     1       1.781 -19.314  26.034  1.00  0.00     0.402 A 
ATOM      2  C   UNL     1       2.210 -20.078  27.137  1.00  0.00     0.229 A 
ATOM      3  C   UNL     1       2.761 -21.362  26.872  1.00  0.00     0.079 A 
ATOM      4  C   UNL     1       2.189 -22.050  25.812  1.00  0.00     0.126 A 
ATOM      5  C   UNL     1       2.187 -23.452  25.762  1.00  0.00     0.143 A 
ATOM      6  C   UNL     1       1.372 -24.106  24.804  1.00  0.00     0.094 A 
ATOM      7  C   UNL     1       0.592 -23.374  23.914  1.00  0.00     0.128 A 
ATOM      8  C   UNL     1       0.662 -21.976  23.894  1.00  0.00     0.162 A 
ATOM      9  C   UNL     1       1.421 -21.305  24.871  1.00  0.00     0.368 A 
ATOM     10  O   UNL     1       1.356 -19.960  24.962  1.00  0.00    -0.202 OA
ENDROOT
BRANCH   1  11
ATOM     11  C   UNL     1       1.864 -17.826  26.009  1.00  0.00     0.087 A 
ATOM     12  C   UNL     1       0.875 -15.679  25.464  1.00  0.00     0.161 A 
ATOM     13  C   UNL     1       2.151 -15.080  25.620  1.00  0.00     0.157 A 
ATOM     14  C   UNL     1       0.748 -17.090  25.622  1.00  0.00     0.068 A 
ATOM     15  C   UNL     1       3.283 -15.865  25.929  1.00  0.00     0.051 A 
ATOM     16  C   UNL     1       3.129 -17.231  26.161  1.00  0.00     0.022 A 
BRANCH  12  17
ATOM     17  O   UNL     1      -0.220 -14.868  25.100  1.00  0.00    -0.493 OA
ATOM     18  C   UNL     1      -1.554 -15.169  25.542  1.00  0.00     0.278 C 
ENDBRANCH  12  17
BRANCH  13  19
ATOM     19  O   UNL     1       2.244 -13.708  25.461  1.00  0.00    -0.504 OA
ATOM     20  H   UNL     1       3.091 -13.203  25.661  1.00  0.00     0.293 HD
ENDBRANCH  13  19
ENDBRANCH   1  11
BRANCH   2  21
ATOM     21  O   UNL     1       1.798 -19.773  28.446  1.00  0.00    -0.452 OA
BRANCH  21  22
ATOM     22  C   UNL     1       0.459 -20.183  28.894  1.00  0.00     0.339 C 
ATOM     23  C   UNL     1      -0.251 -19.119  29.766  1.00  0.00     0.214 C 
ATOM     24  O   UNL     1       0.511 -21.502  29.431  1.00  0.00    -0.332 OA
ATOM     25  C   UNL     1      -1.712 -19.597  29.895  1.00  0.00     0.180 C 
ATOM     26  C   UNL     1      -0.391 -21.768  30.479  1.00  0.00     0.179 C 
ATOM     27  C   UNL     1      -1.785 -21.127  30.300  1.00  0.00     0.177 C 
BRANCH  23  28
ATOM     28  O   UNL     1      -0.142 -17.842  29.148  1.00  0.00    -0.384 OA
ATOM     29  H   UNL     1      -1.041 -17.391  29.160  1.00  0.00     0.211 HD
ENDBRANCH  23  28
BRANCH  25  30
ATOM     30  O   UNL     1      -2.346 -19.375  28.659  1.00  0.00    -0.387 OA
ATOM     31  H   UNL     1      -2.573 -18.393  28.624  1.00  0.00     0.211 HD
ENDBRANCH  25  30
BRANCH  26  32
ATOM     32  C   UNL     1      -0.491 -23.288  30.642  1.00  0.00     0.191 C 
BRANCH  32  33
ATOM     33  O   UNL     1       0.601 -23.822  31.331  1.00  0.00    -0.394 OA
ATOM     34  H   UNL     1       1.217 -24.136  30.630  1.00  0.00     0.210 HD
ENDBRANCH  32  33
ENDBRANCH  26  32
BRANCH  27  35
ATOM     35  O   UNL     1      -2.600 -21.855  29.416  1.00  0.00    -0.387 OA
ATOM     36  H   UNL     1      -3.529 -21.459  29.492  1.00  0.00     0.211 HD
ENDBRANCH  27  35
ENDBRANCH  21  22
ENDBRANCH   2  21
BRANCH   5  37
ATOM     37  O   UNL     1       2.851 -24.184  26.718  1.00  0.00    -0.461 OA
BRANCH  37  38
ATOM     38  C   UNL     1       2.250 -24.668  27.939  1.00  0.00     0.339 C 
ATOM     39  C   UNL     1       2.567 -26.170  28.194  1.00  0.00     0.214 C 
ATOM     40  O   UNL     1       2.517 -23.852  29.080  1.00  0.00    -0.332 OA
ATOM     41  C   UNL     1       2.662 -26.535  29.706  1.00  0.00     0.180 C 
ATOM     42  C   UNL     1       3.739 -24.167  29.735  1.00  0.00     0.179 C 
ATOM     43  C   UNL     1       3.657 -25.548  30.418  1.00  0.00     0.177 C 
BRANCH  39  44
ATOM     44  O   UNL     1       3.694 -26.534  27.463  1.00  0.00    -0.384 OA
ATOM     45  H   UNL     1       3.858 -27.507  27.565  1.00  0.00     0.211 HD
ENDBRANCH  39  44
BRANCH  41  46
ATOM     46  O   UNL     1       1.387 -26.448  30.319  1.00  0.00    -0.387 OA
ATOM     47  H   UNL     1       0.712 -26.711  29.627  1.00  0.00     0.211 HD
ENDBRANCH  41  46
BRANCH  42  48
ATOM     48  C   UNL     1       4.125 -22.991  30.664  1.00  0.00     0.191 C 
BRANCH  48  49
ATOM     49  O   UNL     1       2.975 -22.357  31.167  1.00  0.00    -0.394 OA
ATOM     50  H   UNL     1       2.608 -22.920  31.894  1.00  0.00     0.210 HD
ENDBRANCH  48  49
ENDBRANCH  42  48
BRANCH  43  51
ATOM     51  O   UNL     1       3.355 -25.421  31.798  1.00  0.00    -0.387 OA
ATOM     52  H   UNL     1       2.585 -24.838  31.918  1.00  0.00     0.211 HD
ENDBRANCH  43  51
ENDBRANCH  37  38
ENDBRANCH   5  37
BRANCH   7  53
ATOM     53  O   UNL     1      -0.280 -24.059  23.089  1.00  0.00    -0.507 OA
ATOM     54  H   UNL     1      -1.289 -23.986  23.205  1.00  0.00     0.293 HD
ENDBRANCH   7  53
TORSDOF 18
ENDMDL
