MODEL 1
REMARK VINA RESULT:    -3.693      0.000      0.000
REMARK INTER + INTRA:          -4.521
REMARK INTER:                  -4.340
REMARK INTRA:                  -0.181
REMARK UNBOUND:                -0.181
REMARK SMILES O=C([O-])CCC(=O)[O-]
REMARK SMILES IDX 4 1 2 2 1 3 3 4 5 5 6 6 7 7 8 8
REMARK H PARENT
REMARK Flexibility Score: inf
ROOT
ATOM      1  C   UNL     1      54.637  45.968  11.566  1.00  0.00     0.059 C 
ENDROOT
BRANCH   1   2
ATOM      2  C   UNL     1      54.549  44.520  11.942  1.00  0.00     0.042 C 
ATOM      3  O   UNL     1      54.705  44.166  13.140  1.00  0.00    -0.550 OA
ATOM      4  O   UNL     1      54.333  43.559  10.963  1.00  0.00    -0.550 OA
ENDBRANCH   1   2
BRANCH   1   5
ATOM      5  C   UNL     1      53.478  46.776  12.158  1.00  0.00     0.059 C 
BRANCH   5   6
ATOM      6  C   UNL     1      52.159  46.343  11.594  1.00  0.00     0.042 C 
ATOM      7  O   UNL     1      51.201  46.067  12.363  1.00  0.00    -0.550 OA
ATOM      8  O   UNL     1      51.976  46.283  10.218  1.00  0.00    -0.550 OA
ENDBRANCH   5   6
ENDBRANCH   1   5
TORSDOF 3
ENDMDL
MODEL 2
REMARK VINA RESULT:    -3.691      0.102      3.236
REMARK INTER + INTRA:          -4.519
REMARK INTER:                  -4.344
REMARK INTRA:                  -0.175
REMARK UNBOUND:                -0.181
REMARK SMILES O=C([O-])CCC(=O)[O-]
REMARK SMILES IDX 4 1 2 2 1 3 3 4 5 5 6 6 7 7 8 8
REMARK H PARENT
REMARK Flexibility Score: inf
ROOT
ATOM      1  C   UNL     1      53.403  46.743  12.186  1.00  0.00     0.059 C 
ENDROOT
BRANCH   1   2
ATOM      2  C   UNL     1      52.121  46.341  11.526  1.00  0.00     0.042 C 
ATOM      3  O   UNL     1      51.107  46.069  12.222  1.00  0.00    -0.550 OA
ATOM      4  O   UNL     1      52.055  46.228  10.143  1.00  0.00    -0.550 OA
ENDBRANCH   1   2
BRANCH   1   5
ATOM      5  C   UNL     1      54.596  45.965  11.622  1.00  0.00     0.059 C 
BRANCH   5   6
ATOM      6  C   UNL     1      54.547  44.519  12.013  1.00  0.00     0.042 C 
ATOM      7  O   UNL     1      54.691  44.184  13.219  1.00  0.00    -0.550 OA
ATOM      8  O   UNL     1      54.302  43.546  11.053  1.00  0.00    -0.550 OA
ENDBRANCH   5   6
ENDBRANCH   1   5
TORSDOF 3
ENDMDL
MODEL 3
REMARK VINA RESULT:    -3.676      0.088      3.413
REMARK INTER + INTRA:          -4.502
REMARK INTER:                  -4.331
REMARK INTRA:                  -0.171
REMARK UNBOUND:                -0.181
REMARK SMILES O=C([O-])CCC(=O)[O-]
REMARK SMILES IDX 4 1 2 2 1 3 3 4 5 5 6 6 7 7 8 8
REMARK H PARENT
REMARK Flexibility Score: inf
ROOT
ATOM      1  C   UNL     1      53.472  46.735  12.190  1.00  0.00     0.059 C 
ENDROOT
BRANCH   1   2
ATOM      2  C   UNL     1      52.154  46.352  11.592  1.00  0.00     0.042 C 
ATOM      3  O   UNL     1      51.176  46.075  12.336  1.00  0.00    -0.550 OA
ATOM      4  O   UNL     1      52.015  46.261  10.213  1.00  0.00    -0.550 OA
ENDBRANCH   1   2
BRANCH   1   5
ATOM      5  C   UNL     1      54.627  45.947  11.562  1.00  0.00     0.059 C 
BRANCH   5   6
ATOM      6  C   UNL     1      54.583  44.501  11.950  1.00  0.00     0.042 C 
ATOM      7  O   UNL     1      54.470  43.611  11.066  1.00  0.00    -0.550 OA
ATOM      8  O   UNL     1      54.707  44.134  13.284  1.00  0.00    -0.550 OA
ENDBRANCH   5   6
ENDBRANCH   1   5
TORSDOF 3
ENDMDL
MODEL 4
REMARK VINA RESULT:    -3.667      1.508      3.183
REMARK INTER + INTRA:          -4.491
REMARK INTER:                  -4.382
REMARK INTRA:                  -0.109
REMARK UNBOUND:                -0.181
REMARK SMILES O=C([O-])CCC(=O)[O-]
REMARK SMILES IDX 4 1 2 2 1 3 3 4 5 5 6 6 7 7 8 8
REMARK H PARENT
REMARK Flexibility Score: inf
ROOT
ATOM      1  C   UNL     1      54.009  45.872  12.304  1.00  0.00     0.059 C 
ENDROOT
BRANCH   1   2
ATOM      2  C   UNL     1      52.633  46.014  12.878  1.00  0.00     0.042 C 
ATOM      3  O   UNL     1      52.471  46.094  14.125  1.00  0.00    -0.550 OA
ATOM      4  O   UNL     1      51.526  46.018  12.039  1.00  0.00    -0.550 OA
ENDBRANCH   1   2
BRANCH   1   5
ATOM      5  C   UNL     1      54.419  44.401  12.181  1.00  0.00     0.059 C 
BRANCH   5   6
ATOM      6  C   UNL     1      54.267  43.901  10.777  1.00  0.00     0.042 C 
ATOM      7  O   UNL     1      54.136  42.669  10.554  1.00  0.00    -0.550 OA
ATOM      8  O   UNL     1      54.231  44.800   9.718  1.00  0.00    -0.550 OA
ENDBRANCH   5   6
ENDBRANCH   1   5
TORSDOF 3
ENDMDL
MODEL 5
REMARK VINA RESULT:    -3.610      0.199      1.624
REMARK INTER + INTRA:          -4.423
REMARK INTER:                  -4.283
REMARK INTRA:                  -0.140
REMARK UNBOUND:                -0.181
REMARK SMILES O=C([O-])CCC(=O)[O-]
REMARK SMILES IDX 4 1 2 2 1 3 3 4 5 5 6 6 7 7 8 8
REMARK H PARENT
REMARK Flexibility Score: inf
ROOT
ATOM      1  C   UNL     1      54.502  45.989  11.570  1.00  0.00     0.059 C 
ENDROOT
BRANCH   1   2
ATOM      2  C   UNL     1      54.552  44.540  11.947  1.00  0.00     0.042 C 
ATOM      3  O   UNL     1      54.390  43.651  11.070  1.00  0.00    -0.550 OA
ATOM      4  O   UNL     1      54.736  44.172  13.273  1.00  0.00    -0.550 OA
ENDBRANCH   1   2
BRANCH   1   5
ATOM      5  C   UNL     1      53.319  46.704  12.231  1.00  0.00     0.059 C 
BRANCH   5   6
ATOM      6  C   UNL     1      52.038  46.443  11.500  1.00  0.00     0.042 C 
ATOM      7  O   UNL     1      52.033  46.353  10.243  1.00  0.00    -0.550 OA
ATOM      8  O   UNL     1      50.857  46.260  12.207  1.00  0.00    -0.550 OA
ENDBRANCH   5   6
ENDBRANCH   1   5
TORSDOF 3
ENDMDL
MODEL 6
REMARK VINA RESULT:    -3.591      1.475      2.093
REMARK INTER + INTRA:          -4.402
REMARK INTER:                  -4.288
REMARK INTRA:                  -0.114
REMARK UNBOUND:                -0.181
REMARK SMILES O=C([O-])CCC(=O)[O-]
REMARK SMILES IDX 4 1 2 2 1 3 3 4 5 5 6 6 7 7 8 8
REMARK H PARENT
REMARK Flexibility Score: inf
ROOT
ATOM      1  C   UNL     1      54.338  44.617  12.111  1.00  0.00     0.059 C 
ENDROOT
BRANCH   1   2
ATOM      2  C   UNL     1      54.270  44.155  10.688  1.00  0.00     0.042 C 
ATOM      3  O   UNL     1      54.235  44.995   9.750  1.00  0.00    -0.550 OA
ATOM      4  O   UNL     1      54.204  42.799  10.398  1.00  0.00    -0.550 OA
ENDBRANCH   1   2
BRANCH   1   5
ATOM      5  C   UNL     1      53.877  46.071  12.255  1.00  0.00     0.059 C 
BRANCH   5   6
ATOM      6  C   UNL     1      52.470  46.156  12.762  1.00  0.00     0.042 C 
ATOM      7  O   UNL     1      51.502  46.093  11.958  1.00  0.00    -0.550 OA
ATOM      8  O   UNL     1      52.225  46.266  14.125  1.00  0.00    -0.550 OA
ENDBRANCH   5   6
ENDBRANCH   1   5
TORSDOF 3
ENDMDL
MODEL 7
REMARK VINA RESULT:    -3.554     13.489     14.671
REMARK INTER + INTRA:          -4.358
REMARK INTER:                  -4.326
REMARK INTRA:                  -0.032
REMARK UNBOUND:                -0.181
REMARK SMILES O=C([O-])CCC(=O)[O-]
REMARK SMILES IDX 4 1 2 2 1 3 3 4 5 5 6 6 7 7 8 8
REMARK H PARENT
REMARK Flexibility Score: inf
ROOT
ATOM      1  C   UNL     1      49.539  33.430   4.869  1.00  0.00     0.059 C 
ENDROOT
BRANCH   1   2
ATOM      2  C   UNL     1      49.440  33.578   6.357  1.00  0.00     0.042 C 
ATOM      3  O   UNL     1      48.982  32.638   7.059  1.00  0.00    -0.550 OA
ATOM      4  O   UNL     1      49.815  34.770   6.964  1.00  0.00    -0.550 OA
ENDBRANCH   1   2
BRANCH   1   5
ATOM      5  C   UNL     1      50.978  33.151   4.425  1.00  0.00     0.059 C 
BRANCH   5   6
ATOM      6  C   UNL     1      51.123  33.239   2.936  1.00  0.00     0.042 C 
ATOM      7  O   UNL     1      50.443  34.073   2.282  1.00  0.00    -0.550 OA
ATOM      8  O   UNL     1      52.037  32.427   2.277  1.00  0.00    -0.550 OA
ENDBRANCH   5   6
ENDBRANCH   1   5
TORSDOF 3
ENDMDL
MODEL 8
REMARK VINA RESULT:    -3.554     13.413     14.485
REMARK INTER + INTRA:          -4.358
REMARK INTER:                  -4.323
REMARK INTRA:                  -0.035
REMARK UNBOUND:                -0.181
REMARK SMILES O=C([O-])CCC(=O)[O-]
REMARK SMILES IDX 4 1 2 2 1 3 3 4 5 5 6 6 7 7 8 8
REMARK H PARENT
REMARK Flexibility Score: inf
ROOT
ATOM      1  C   UNL     1      50.908  33.030   4.559  1.00  0.00     0.059 C 
ENDROOT
BRANCH   1   2
ATOM      2  C   UNL     1      51.117  33.228   3.089  1.00  0.00     0.042 C 
ATOM      3  O   UNL     1      50.465  34.110   2.469  1.00  0.00    -0.550 OA
ATOM      4  O   UNL     1      52.002  32.412   2.395  1.00  0.00    -0.550 OA
ENDBRANCH   1   2
BRANCH   1   5
ATOM      5  C   UNL     1      49.501  33.454   4.991  1.00  0.00     0.059 C 
BRANCH   5   6
ATOM      6  C   UNL     1      49.414  33.651   6.473  1.00  0.00     0.042 C 
ATOM      7  O   UNL     1      48.941  32.744   7.207  1.00  0.00    -0.550 OA
ATOM      8  O   UNL     1      49.894  34.821   7.049  1.00  0.00    -0.550 OA
ENDBRANCH   5   6
ENDBRANCH   1   5
TORSDOF 3
ENDMDL
MODEL 9
REMARK VINA RESULT:    -3.461     11.707     13.331
REMARK INTER + INTRA:          -4.248
REMARK INTER:                  -4.211
REMARK INTRA:                  -0.037
REMARK UNBOUND:                -0.181
REMARK SMILES O=C([O-])CCC(=O)[O-]
REMARK SMILES IDX 4 1 2 2 1 3 3 4 5 5 6 6 7 7 8 8
REMARK H PARENT
REMARK Flexibility Score: inf
ROOT
ATOM      1  C   UNL     1      47.790  51.044   1.934  1.00  0.00     0.059 C 
ENDROOT
BRANCH   1   2
ATOM      2  C   UNL     1      46.427  51.085   1.314  1.00  0.00     0.042 C 
ATOM      3  O   UNL     1      46.231  51.738   0.255  1.00  0.00    -0.550 OA
ATOM      4  O   UNL     1      45.363  50.435   1.927  1.00  0.00    -0.550 OA
ENDBRANCH   1   2
BRANCH   1   5
ATOM      5  C   UNL     1      48.885  51.360   0.910  1.00  0.00     0.059 C 
BRANCH   5   6
ATOM      6  C   UNL     1      50.248  51.043   1.444  1.00  0.00     0.042 C 
ATOM      7  O   UNL     1      50.408  50.801   2.670  1.00  0.00    -0.550 OA
ATOM      8  O   UNL     1      51.336  50.976   0.583  1.00  0.00    -0.550 OA
ENDBRANCH   5   6
ENDBRANCH   1   5
TORSDOF 3
ENDMDL
