MODEL 1
REMARK VINA RESULT:    -5.302      0.000      0.000
REMARK INTER + INTRA:          -5.757
REMARK INTER:                  -5.612
REMARK INTRA:                  -0.145
REMARK UNBOUND:                -0.145
REMARK SMILES C=C1CC=C(C(C)C)CC1
REMARK SMILES IDX 5 1 4 2 3 3 2 4 1 5 10 6 9 7 6 8 7 9 8 10
REMARK H PARENT
REMARK Flexibility Score: inf
ROOT
ATOM      1  C   UNL     1     109.297 111.365 109.934  1.00  0.00    -0.071 C 
ATOM      2  C   UNL     1     109.022 110.273 110.680  1.00  0.00    -0.023 C 
ATOM      3  C   UNL     1     109.422 110.199 112.131  1.00  0.00     0.057 C 
ATOM      4  C   UNL     1     109.306 111.554 112.797  1.00  0.00    -0.073 C 
ATOM      5  C   UNL     1     109.093 111.639 114.117  1.00  0.00     0.008 C 
ATOM      6  C   UNL     1     109.466 112.818 111.977  1.00  0.00     0.035 C 
ATOM      7  C   UNL     1     110.034 112.517 110.582  1.00  0.00     0.035 C 
ENDROOT
BRANCH   1   8
ATOM      8  C   UNL     1     108.862 111.461 108.480  1.00  0.00     0.008 C 
ATOM      9  C   UNL     1     109.238 112.819 107.874  1.00  0.00     0.012 C 
ATOM     10  C   UNL     1     109.438 110.307 107.651  1.00  0.00     0.012 C 
ENDBRANCH   1   8
TORSDOF 1
ENDMDL
MODEL 2
REMARK VINA RESULT:    -5.286      2.909      4.894
REMARK INTER + INTRA:          -5.740
REMARK INTER:                  -5.595
REMARK INTRA:                  -0.145
REMARK UNBOUND:                -0.145
REMARK SMILES C=C1CC=C(C(C)C)CC1
REMARK SMILES IDX 5 1 4 2 3 3 2 4 1 5 10 6 9 7 6 8 7 9 8 10
REMARK H PARENT
REMARK Flexibility Score: inf
ROOT
ATOM      1  C   UNL     1     109.284 111.375 114.825  1.00  0.00    -0.071 C 
ATOM      2  C   UNL     1     108.990 110.271 115.545  1.00  0.00    -0.023 C 
ATOM      3  C   UNL     1     109.395 110.152 116.992  1.00  0.00     0.057 C 
ATOM      4  C   UNL     1     109.311 111.492 117.692  1.00  0.00    -0.073 C 
ATOM      5  C   UNL     1     109.105 111.549 119.014  1.00  0.00     0.008 C 
ATOM      6  C   UNL     1     109.493 112.773 116.903  1.00  0.00     0.035 C 
ATOM      7  C   UNL     1     110.049 112.495 115.498  1.00  0.00     0.035 C 
ENDROOT
BRANCH   1   8
ATOM      8  C   UNL     1     108.845 111.517 113.376  1.00  0.00     0.008 C 
ATOM      9  C   UNL     1     109.273 112.870 112.794  1.00  0.00     0.012 C 
ATOM     10  C   UNL     1     109.369 110.357 112.521  1.00  0.00     0.012 C 
ENDBRANCH   1   8
TORSDOF 1
ENDMDL
MODEL 3
REMARK VINA RESULT:    -5.280      3.528      4.138
REMARK INTER + INTRA:          -5.733
REMARK INTER:                  -5.586
REMARK INTRA:                  -0.147
REMARK UNBOUND:                -0.145
REMARK SMILES C=C1CC=C(C(C)C)CC1
REMARK SMILES IDX 5 1 4 2 3 3 2 4 1 5 10 6 9 7 6 8 7 9 8 10
REMARK H PARENT
REMARK Flexibility Score: inf
ROOT
ATOM      1  C   UNL     1     112.904 111.039 109.720  1.00  0.00    -0.071 C 
ATOM      2  C   UNL     1     113.288 112.081 110.489  1.00  0.00    -0.023 C 
ATOM      3  C   UNL     1     112.905 112.158 111.945  1.00  0.00     0.057 C 
ATOM      4  C   UNL     1     112.893 110.782 112.578  1.00  0.00    -0.073 C 
ATOM      5  C   UNL     1     113.106 110.644 113.893  1.00  0.00     0.008 C 
ATOM      6  C   UNL     1     112.607 109.560 111.729  1.00  0.00     0.035 C 
ATOM      7  C   UNL     1     112.062 109.948 110.347  1.00  0.00     0.035 C 
ENDROOT
BRANCH   1   8
ATOM      8  C   UNL     1     113.319 110.936 108.261  1.00  0.00     0.008 C 
ATOM      9  C   UNL     1     112.984 109.556 107.682  1.00  0.00     0.012 C 
ATOM     10  C   UNL     1     112.685 112.055 107.424  1.00  0.00     0.012 C 
ENDBRANCH   1   8
TORSDOF 1
ENDMDL
MODEL 4
REMARK VINA RESULT:    -5.258      4.478      6.275
REMARK INTER + INTRA:          -5.711
REMARK INTER:                  -5.564
REMARK INTRA:                  -0.146
REMARK UNBOUND:                -0.145
REMARK SMILES C=C1CC=C(C(C)C)CC1
REMARK SMILES IDX 5 1 4 2 3 3 2 4 1 5 10 6 9 7 6 8 7 9 8 10
REMARK H PARENT
REMARK Flexibility Score: inf
ROOT
ATOM      1  C   UNL     1     112.904 110.989 114.646  1.00  0.00    -0.071 C 
ATOM      2  C   UNL     1     113.290 112.042 115.397  1.00  0.00    -0.023 C 
ATOM      3  C   UNL     1     112.920 112.137 116.855  1.00  0.00     0.057 C 
ATOM      4  C   UNL     1     112.920 110.770 117.506  1.00  0.00    -0.073 C 
ATOM      5  C   UNL     1     113.144 110.651 118.822  1.00  0.00     0.008 C 
ATOM      6  C   UNL     1     112.631 109.535 116.677  1.00  0.00     0.035 C 
ATOM      7  C   UNL     1     112.073 109.902 115.294  1.00  0.00     0.035 C 
ENDROOT
BRANCH   1   8
ATOM      8  C   UNL     1     113.306 110.868 113.184  1.00  0.00     0.008 C 
ATOM      9  C   UNL     1     112.964 109.482 112.624  1.00  0.00     0.012 C 
ATOM     10  C   UNL     1     112.669 111.978 112.340  1.00  0.00     0.012 C 
ENDBRANCH   1   8
TORSDOF 1
ENDMDL
MODEL 5
REMARK VINA RESULT:    -5.127      4.607      6.453
REMARK INTER + INTRA:          -5.571
REMARK INTER:                  -5.426
REMARK INTRA:                  -0.145
REMARK UNBOUND:                -0.145
REMARK SMILES C=C1CC=C(C(C)C)CC1
REMARK SMILES IDX 5 1 4 2 3 3 2 4 1 5 10 6 9 7 6 8 7 9 8 10
REMARK H PARENT
REMARK Flexibility Score: inf
ROOT
ATOM      1  C   UNL     1     112.962 111.016 105.018  1.00  0.00    -0.071 C 
ATOM      2  C   UNL     1     113.226 112.120 105.748  1.00  0.00    -0.023 C 
ATOM      3  C   UNL     1     112.816 112.215 107.196  1.00  0.00     0.057 C 
ATOM      4  C   UNL     1     112.934 110.871 107.883  1.00  0.00    -0.073 C 
ATOM      5  C   UNL     1     113.139 110.807 109.205  1.00  0.00     0.008 C 
ATOM      6  C   UNL     1     112.787 109.593 107.082  1.00  0.00     0.035 C 
ATOM      7  C   UNL     1     112.226 109.869 105.679  1.00  0.00     0.035 C 
ENDROOT
BRANCH   1   8
ATOM      8  C   UNL     1     113.406 110.898 103.568  1.00  0.00     0.008 C 
ATOM      9  C   UNL     1     113.094 109.509 103.000  1.00  0.00     0.012 C 
ATOM     10  C   UNL     1     112.782 112.002 102.706  1.00  0.00     0.012 C 
ENDBRANCH   1   8
TORSDOF 1
ENDMDL
MODEL 6
REMARK VINA RESULT:    -5.061      3.625      6.155
REMARK INTER + INTRA:          -5.501
REMARK INTER:                  -5.357
REMARK INTRA:                  -0.144
REMARK UNBOUND:                -0.145
REMARK SMILES C=C1CC=C(C(C)C)CC1
REMARK SMILES IDX 5 1 4 2 3 3 2 4 1 5 10 6 9 7 6 8 7 9 8 10
REMARK H PARENT
REMARK Flexibility Score: inf
ROOT
ATOM      1  C   UNL     1     112.800 111.052 113.518  1.00  0.00    -0.071 C 
ATOM      2  C   UNL     1     112.832 112.106 112.674  1.00  0.00    -0.023 C 
ATOM      3  C   UNL     1     113.191 111.931 111.221  1.00  0.00     0.057 C 
ATOM      4  C   UNL     1     112.665 110.616 110.686  1.00  0.00    -0.073 C 
ATOM      5  C   UNL     1     112.395 110.480 109.380  1.00  0.00     0.008 C 
ATOM      6  C   UNL     1     112.475 109.438 111.620  1.00  0.00     0.035 C 
ATOM      7  C   UNL     1     113.150 109.681 112.978  1.00  0.00     0.035 C 
ENDROOT
BRANCH   1   8
ATOM      8  C   UNL     1     112.401 111.216 114.977  1.00  0.00     0.008 C 
ATOM      9  C   UNL     1     112.483 109.883 115.730  1.00  0.00     0.012 C 
ATOM     10  C   UNL     1     113.248 112.294 115.665  1.00  0.00     0.012 C 
ENDBRANCH   1   8
TORSDOF 1
ENDMDL
MODEL 7
REMARK VINA RESULT:    -5.049      3.656      5.648
REMARK INTER + INTRA:          -5.489
REMARK INTER:                  -5.346
REMARK INTRA:                  -0.143
REMARK UNBOUND:                -0.145
REMARK SMILES C=C1CC=C(C(C)C)CC1
REMARK SMILES IDX 5 1 4 2 3 3 2 4 1 5 10 6 9 7 6 8 7 9 8 10
REMARK H PARENT
REMARK Flexibility Score: inf
ROOT
ATOM      1  C   UNL     1     112.793 110.774 112.649  1.00  0.00    -0.071 C 
ATOM      2  C   UNL     1     112.635 109.657 111.907  1.00  0.00    -0.023 C 
ATOM      3  C   UNL     1     112.292 109.736 110.441  1.00  0.00     0.057 C 
ATOM      4  C   UNL     1     112.964 110.926 109.789  1.00  0.00    -0.073 C 
ATOM      5  C   UNL     1     113.242 110.908 108.479  1.00  0.00     0.008 C 
ATOM      6  C   UNL     1     113.293 112.156 110.611  1.00  0.00     0.035 C 
ATOM      7  C   UNL     1     112.602 112.120 111.982  1.00  0.00     0.035 C 
ENDROOT
BRANCH   1   8
ATOM      8  C   UNL     1     113.177 110.702 114.119  1.00  0.00     0.008 C 
ATOM      9  C   UNL     1     113.059 112.074 114.794  1.00  0.00     0.012 C 
ATOM     10  C   UNL     1     112.343 109.648 114.858  1.00  0.00     0.012 C 
ENDBRANCH   1   8
TORSDOF 1
ENDMDL
MODEL 8
REMARK VINA RESULT:    -5.037      1.184      4.676
REMARK INTER + INTRA:          -5.477
REMARK INTER:                  -5.333
REMARK INTRA:                  -0.144
REMARK UNBOUND:                -0.145
REMARK SMILES C=C1CC=C(C(C)C)CC1
REMARK SMILES IDX 5 1 4 2 3 3 2 4 1 5 10 6 9 7 6 8 7 9 8 10
REMARK H PARENT
REMARK Flexibility Score: inf
ROOT
ATOM      1  C   UNL     1     109.484 111.321 113.427  1.00  0.00    -0.071 C 
ATOM      2  C   UNL     1     109.418 110.238 112.622  1.00  0.00    -0.023 C 
ATOM      3  C   UNL     1     109.073 110.373 111.161  1.00  0.00     0.057 C 
ATOM      4  C   UNL     1     109.649 111.647 110.582  1.00  0.00    -0.073 C 
ATOM      5  C   UNL     1     109.930 111.725 109.274  1.00  0.00     0.008 C 
ATOM      6  C   UNL     1     109.877 112.851 111.473  1.00  0.00     0.035 C 
ATOM      7  C   UNL     1     109.188 112.683 112.835  1.00  0.00     0.035 C 
ENDROOT
BRANCH   1   8
ATOM      8  C   UNL     1     109.870 111.197 114.893  1.00  0.00     0.008 C 
ATOM      9  C   UNL     1     109.833 112.559 115.597  1.00  0.00     0.012 C 
ATOM     10  C   UNL     1     108.980 110.177 115.616  1.00  0.00     0.012 C 
ENDBRANCH   1   8
TORSDOF 1
ENDMDL
MODEL 9
REMARK VINA RESULT:    -4.982      1.534      5.016
REMARK INTER + INTRA:          -5.418
REMARK INTER:                  -5.274
REMARK INTRA:                  -0.144
REMARK UNBOUND:                -0.145
REMARK SMILES C=C1CC=C(C(C)C)CC1
REMARK SMILES IDX 5 1 4 2 3 3 2 4 1 5 10 6 9 7 6 8 7 9 8 10
REMARK H PARENT
REMARK Flexibility Score: inf
ROOT
ATOM      1  C   UNL     1     109.535 111.352 108.520  1.00  0.00    -0.071 C 
ATOM      2  C   UNL     1     109.493 110.227 107.774  1.00  0.00    -0.023 C 
ATOM      3  C   UNL     1     109.105 110.270 106.318  1.00  0.00     0.057 C 
ATOM      4  C   UNL     1     109.613 111.534 105.658  1.00  0.00    -0.073 C 
ATOM      5  C   UNL     1     109.857 111.554 104.341  1.00  0.00     0.008 C 
ATOM      6  C   UNL     1     109.814 112.792 106.480  1.00  0.00     0.035 C 
ATOM      7  C   UNL     1     109.168 112.668 107.868  1.00  0.00     0.035 C 
ENDROOT
BRANCH   1   8
ATOM      8  C   UNL     1     109.963 111.320 109.979  1.00  0.00     0.008 C 
ATOM      9  C   UNL     1     109.910 112.719 110.606  1.00  0.00     0.012 C 
ATOM     10  C   UNL     1     109.120 110.322 110.783  1.00  0.00     0.012 C 
ENDBRANCH   1   8
TORSDOF 1
ENDMDL
