MODEL 1
REMARK VINA RESULT:    -3.198      0.000      0.000
REMARK INTER + INTRA:          -6.407
REMARK INTER:                  -4.880
REMARK INTRA:                  -1.527
REMARK UNBOUND:                -1.527
REMARK SMILES OC[C@H]1O[C@@H](O[C@]2(CO)O[C@H](CO)[C@H](O)[C@@H]2O)[C@@H](O)[C@H](O)[C@@H]1O
REMARK SMILES IDX 6 1 5 2 3 3 22 4 4 5 20 6 18 7 2 8 1 9 23 11 21 13 19 15
REMARK SMILES IDX 7 17 16 18 10 19 14 20 11 21 8 22 9 23 17 25 15 27 12 29
REMARK SMILES IDX 13 30
REMARK H PARENT 1 10 23 12 21 14 19 16 9 24 17 26 15 28 13 31
REMARK Flexibility Score: inf
ROOT
ATOM      1  O   UNL     1     205.988 191.171  -1.780  1.00  0.00    -0.313 OA
ENDROOT
BRANCH   1   2
ATOM      2  C   UNL     1     207.155 190.666  -2.408  1.00  0.00     0.285 C 
ATOM      3  C   UNL     1     207.983 188.781  -3.503  1.00  0.00     0.178 C 
ATOM      4  C   UNL     1     209.432 189.161  -3.058  1.00  0.00     0.177 C 
ATOM      5  O   UNL     1     206.987 189.277  -2.621  1.00  0.00    -0.341 OA
ATOM      6  C   UNL     1     209.444 189.794  -1.648  1.00  0.00     0.179 C 
ATOM      7  C   UNL     1     208.378 190.909  -1.487  1.00  0.00     0.202 C 
BRANCH   3   8
ATOM      8  C   UNL     1     207.812 187.260  -3.610  1.00  0.00     0.191 C 
BRANCH   8   9
ATOM      9  O   UNL     1     206.540 186.875  -3.152  1.00  0.00    -0.394 OA
ATOM     10  H   UNL     1     206.585 186.834  -2.161  1.00  0.00     0.210 HD
ENDBRANCH   8   9
ENDBRANCH   3   8
BRANCH   4  11
ATOM     11  O   UNL     1     210.038 190.000  -4.017  1.00  0.00    -0.387 OA
ATOM     12  H   UNL     1     209.766 189.698  -4.924  1.00  0.00     0.211 HD
ENDBRANCH   4  11
BRANCH   6  13
ATOM     13  O   UNL     1     210.722 190.301  -1.371  1.00  0.00    -0.387 OA
ATOM     14  H   UNL     1     210.804 191.159  -1.863  1.00  0.00     0.211 HD
ENDBRANCH   6  13
BRANCH   7  15
ATOM     15  O   UNL     1     207.969 190.945  -0.139  1.00  0.00    -0.385 OA
ATOM     16  H   UNL     1     208.736 191.266   0.402  1.00  0.00     0.211 HD
ENDBRANCH   7  15
ENDBRANCH   1   2
BRANCH   1  17
ATOM     17  C   UNL     1     205.453 192.356  -2.366  1.00  0.00     0.224 C 
ATOM     18  C   UNL     1     205.495 193.536  -1.361  1.00  0.00     0.208 C 
ATOM     19  O   UNL     1     206.152 192.728  -3.548  1.00  0.00    -0.337 OA
ATOM     20  C   UNL     1     206.444 194.530  -1.998  1.00  0.00     0.180 C 
ATOM     21  C   UNL     1     206.391 194.119  -3.478  1.00  0.00     0.179 C 
BRANCH  17  22
ATOM     22  C   UNL     1     203.996 192.022  -2.752  1.00  0.00     0.225 C 
BRANCH  22  23
ATOM     23  O   UNL     1     203.876 191.742  -4.125  1.00  0.00    -0.391 OA
ATOM     24  H   UNL     1     204.285 192.506  -4.609  1.00  0.00     0.210 HD
ENDBRANCH  22  23
ENDBRANCH  17  22
BRANCH  18  25
ATOM     25  O   UNL     1     205.934 193.127  -0.087  1.00  0.00    -0.385 OA
ATOM     26  H   UNL     1     205.556 192.221   0.067  1.00  0.00     0.211 HD
ENDBRANCH  18  25
BRANCH  20  27
ATOM     27  O   UNL     1     207.735 194.391  -1.455  1.00  0.00    -0.387 OA
ATOM     28  H   UNL     1     207.633 194.376  -0.465  1.00  0.00     0.211 HD
ENDBRANCH  20  27
BRANCH  21  29
ATOM     29  C   UNL     1     207.641 194.491  -4.290  1.00  0.00     0.191 C 
BRANCH  29  30
ATOM     30  O   UNL     1     208.655 193.547  -4.094  1.00  0.00    -0.394 OA
ATOM     31  H   UNL     1     208.274 192.839  -3.515  1.00  0.00     0.210 HD
ENDBRANCH  29  30
ENDBRANCH  21  29
ENDBRANCH   1  17
TORSDOF 13
ENDMDL
MODEL 2
REMARK VINA RESULT:    -2.938     14.264     17.308
REMARK INTER + INTRA:          -6.011
REMARK INTER:                  -4.433
REMARK INTRA:                  -1.578
REMARK UNBOUND:                -1.527
REMARK SMILES OC[C@H]1O[C@@H](O[C@]2(CO)O[C@H](CO)[C@H](O)[C@@H]2O)[C@@H](O)[C@H](O)[C@@H]1O
REMARK SMILES IDX 6 1 5 2 3 3 22 4 4 5 20 6 18 7 2 8 1 9 23 11 21 13 19 15
REMARK SMILES IDX 7 17 16 18 10 19 14 20 11 21 8 22 9 23 17 25 15 27 12 29
REMARK SMILES IDX 13 30
REMARK H PARENT 1 10 23 12 21 14 19 16 9 24 17 26 15 28 13 31
REMARK Flexibility Score: inf
ROOT
ATOM      1  O   UNL     1     220.929 201.013  -6.637  1.00  0.00    -0.313 OA
ENDROOT
BRANCH   1   2
ATOM      2  C   UNL     1     220.153 202.061  -6.081  1.00  0.00     0.285 C 
ATOM      3  C   UNL     1     219.858 204.373  -6.163  1.00  0.00     0.178 C 
ATOM      4  C   UNL     1     219.310 204.354  -4.700  1.00  0.00     0.177 C 
ATOM      5  O   UNL     1     220.744 203.297  -6.435  1.00  0.00    -0.341 OA
ATOM      6  C   UNL     1     220.037 203.297  -3.837  1.00  0.00     0.179 C 
ATOM      7  C   UNL     1     220.127 201.917  -4.537  1.00  0.00     0.202 C 
BRANCH   3   8
ATOM      8  C   UNL     1     220.593 205.685  -6.468  1.00  0.00     0.191 C 
BRANCH   8   9
ATOM      9  O   UNL     1     221.970 205.545  -6.224  1.00  0.00    -0.394 OA
ATOM     10  H   UNL     1     222.441 205.756  -7.072  1.00  0.00     0.210 HD
ENDBRANCH   8   9
ENDBRANCH   3   8
BRANCH   4  11
ATOM     11  O   UNL     1     217.912 204.163  -4.700  1.00  0.00    -0.387 OA
ATOM     12  H   UNL     1     217.719 203.207  -4.891  1.00  0.00     0.211 HD
ENDBRANCH   4  11
BRANCH   6  13
ATOM     13  O   UNL     1     219.385 203.172  -2.601  1.00  0.00    -0.387 OA
ATOM     14  H   UNL     1     219.233 204.092  -2.262  1.00  0.00     0.211 HD
ENDBRANCH   6  13
BRANCH   7  15
ATOM     15  O   UNL     1     221.297 201.267  -4.094  1.00  0.00    -0.385 OA
ATOM     16  H   UNL     1     221.206 200.303  -4.304  1.00  0.00     0.211 HD
ENDBRANCH   7  15
ENDBRANCH   1   2
BRANCH   1  17
ATOM     17  C   UNL     1     220.187 200.029  -7.355  1.00  0.00     0.224 C 
ATOM     18  C   UNL     1     220.283 198.648  -6.657  1.00  0.00     0.208 C 
ATOM     19  O   UNL     1     218.817 200.388  -7.489  1.00  0.00    -0.337 OA
ATOM     20  C   UNL     1     218.860 198.349  -6.231  1.00  0.00     0.180 C 
ATOM     21  C   UNL     1     218.047 199.241  -7.184  1.00  0.00     0.179 C 
BRANCH  17  22
ATOM     22  C   UNL     1     220.810 199.969  -8.766  1.00  0.00     0.225 C 
BRANCH  22  23
ATOM     23  O   UNL     1     221.938 199.132  -8.799  1.00  0.00    -0.391 OA
ATOM     24  H   UNL     1     222.161 198.915  -7.857  1.00  0.00     0.210 HD
ENDBRANCH  22  23
ENDBRANCH  17  22
BRANCH  18  25
ATOM     25  O   UNL     1     221.168 198.672  -5.561  1.00  0.00    -0.385 OA
ATOM     26  H   UNL     1     222.084 198.760  -5.938  1.00  0.00     0.211 HD
ENDBRANCH  18  25
BRANCH  20  27
ATOM     27  O   UNL     1     218.668 198.703  -4.882  1.00  0.00    -0.387 OA
ATOM     28  H   UNL     1     217.768 198.369  -4.621  1.00  0.00     0.211 HD
ENDBRANCH  20  27
BRANCH  21  29
ATOM     29  C   UNL     1     216.663 199.648  -6.655  1.00  0.00     0.191 C 
BRANCH  29  30
ATOM     30  O   UNL     1     216.774 200.709  -5.751  1.00  0.00    -0.394 OA
ATOM     31  H   UNL     1     216.083 201.373  -6.008  1.00  0.00     0.210 HD
ENDBRANCH  29  30
ENDBRANCH  21  29
ENDBRANCH   1  17
TORSDOF 13
ENDMDL
MODEL 3
REMARK VINA RESULT:    -2.887     11.233     13.240
REMARK INTER + INTRA:          -5.933
REMARK INTER:                  -4.441
REMARK INTRA:                  -1.492
REMARK UNBOUND:                -1.527
REMARK SMILES OC[C@H]1O[C@@H](O[C@]2(CO)O[C@H](CO)[C@H](O)[C@@H]2O)[C@@H](O)[C@H](O)[C@@H]1O
REMARK SMILES IDX 6 1 5 2 3 3 22 4 4 5 20 6 18 7 2 8 1 9 23 11 21 13 19 15
REMARK SMILES IDX 7 17 16 18 10 19 14 20 11 21 8 22 9 23 17 25 15 27 12 29
REMARK SMILES IDX 13 30
REMARK H PARENT 1 10 23 12 21 14 19 16 9 24 17 26 15 28 13 31
REMARK Flexibility Score: inf
ROOT
ATOM      1  O   UNL     1     212.629 191.330  10.431  1.00  0.00    -0.313 OA
ENDROOT
BRANCH   1   2
ATOM      2  C   UNL     1     213.405 190.426   9.662  1.00  0.00     0.285 C 
ATOM      3  C   UNL     1     214.752 188.531   9.858  1.00  0.00     0.178 C 
ATOM      4  C   UNL     1     215.520 188.946   8.561  1.00  0.00     0.177 C 
ATOM      5  O   UNL     1     214.186 189.640  10.542  1.00  0.00    -0.341 OA
ATOM      6  C   UNL     1     215.668 190.481   8.457  1.00  0.00     0.179 C 
ATOM      7  C   UNL     1     214.333 191.226   8.712  1.00  0.00     0.202 C 
BRANCH   3   8
ATOM      8  C   UNL     1     215.668 187.783  10.835  1.00  0.00     0.191 C 
BRANCH   8   9
ATOM      9  O   UNL     1     216.957 187.646  10.294  1.00  0.00    -0.394 OA
ATOM     10  H   UNL     1     216.953 188.094   9.408  1.00  0.00     0.210 HD
ENDBRANCH   8   9
ENDBRANCH   3   8
BRANCH   4  11
ATOM     11  O   UNL     1     214.894 188.398   7.421  1.00  0.00    -0.387 OA
ATOM     12  H   UNL     1     214.830 189.101   6.723  1.00  0.00     0.211 HD
ENDBRANCH   4  11
BRANCH   6  13
ATOM     13  O   UNL     1     216.179 190.818   7.195  1.00  0.00    -0.387 OA
ATOM     14  H   UNL     1     215.399 190.962   6.598  1.00  0.00     0.211 HD
ENDBRANCH   6  13
BRANCH   7  15
ATOM     15  O   UNL     1     214.625 192.486   9.272  1.00  0.00    -0.385 OA
ATOM     16  H   UNL     1     213.865 192.744   9.854  1.00  0.00     0.211 HD
ENDBRANCH   7  15
ENDBRANCH   1   2
BRANCH   1  17
ATOM     17  C   UNL     1     211.302 191.543   9.952  1.00  0.00     0.224 C 
ATOM     18  C   UNL     1     211.104 193.017   9.516  1.00  0.00     0.208 C 
ATOM     19  O   UNL     1     210.987 190.689   8.859  1.00  0.00    -0.337 OA
ATOM     20  C   UNL     1     210.841 192.931   8.027  1.00  0.00     0.180 C 
ATOM     21  C   UNL     1     210.354 191.480   7.872  1.00  0.00     0.179 C 
BRANCH  17  22
ATOM     22  C   UNL     1     210.363 191.191  11.125  1.00  0.00     0.225 C 
BRANCH  22  23
ATOM     23  O   UNL     1     209.891 189.870  11.032  1.00  0.00    -0.391 OA
ATOM     24  H   UNL     1     210.214 189.394  11.841  1.00  0.00     0.210 HD
ENDBRANCH  22  23
ENDBRANCH  17  22
BRANCH  18  25
ATOM     25  O   UNL     1     212.232 193.809   9.808  1.00  0.00    -0.385 OA
ATOM     26  H   UNL     1     211.944 194.475  10.487  1.00  0.00     0.211 HD
ENDBRANCH  18  25
BRANCH  20  27
ATOM     27  O   UNL     1     212.025 193.172   7.305  1.00  0.00    -0.387 OA
ATOM     28  H   UNL     1     212.732 193.386   7.972  1.00  0.00     0.211 HD
ENDBRANCH  20  27
BRANCH  21  29
ATOM     29  C   UNL     1     210.574 190.877   6.477  1.00  0.00     0.191 C 
BRANCH  29  30
ATOM     30  O   UNL     1     211.921 190.550   6.288  1.00  0.00    -0.394 OA
ATOM     31  H   UNL     1     212.324 190.477   7.191  1.00  0.00     0.210 HD
ENDBRANCH  29  30
ENDBRANCH  21  29
ENDBRANCH   1  17
TORSDOF 13
ENDMDL
MODEL 4
REMARK VINA RESULT:    -2.853     14.777     17.741
REMARK INTER + INTRA:          -5.881
REMARK INTER:                  -4.855
REMARK INTRA:                  -1.027
REMARK UNBOUND:                -1.527
REMARK SMILES OC[C@H]1O[C@@H](O[C@]2(CO)O[C@H](CO)[C@H](O)[C@@H]2O)[C@@H](O)[C@H](O)[C@@H]1O
REMARK SMILES IDX 6 1 5 2 3 3 22 4 4 5 20 6 18 7 2 8 1 9 23 11 21 13 19 15
REMARK SMILES IDX 7 17 16 18 10 19 14 20 11 21 8 22 9 23 17 25 15 27 12 29
REMARK SMILES IDX 13 30
REMARK H PARENT 1 10 23 12 21 14 19 16 9 24 17 26 15 28 13 31
REMARK Flexibility Score: inf
ROOT
ATOM      1  O   UNL     1     220.704 200.644  -6.370  1.00  0.00    -0.313 OA
ENDROOT
BRANCH   1   2
ATOM      2  C   UNL     1     220.084 201.871  -6.023  1.00  0.00     0.285 C 
ATOM      3  C   UNL     1     220.100 204.148  -6.533  1.00  0.00     0.178 C 
ATOM      4  C   UNL     1     219.580 204.471  -5.095  1.00  0.00     0.177 C 
ATOM      5  O   UNL     1     220.829 202.930  -6.595  1.00  0.00    -0.341 OA
ATOM      6  C   UNL     1     220.174 203.503  -4.047  1.00  0.00     0.179 C 
ATOM      7  C   UNL     1     220.068 202.018  -4.480  1.00  0.00     0.202 C 
BRANCH   3   8
ATOM      8  C   UNL     1     220.998 205.270  -7.069  1.00  0.00     0.191 C 
BRANCH   8   9
ATOM      9  O   UNL     1     221.987 205.601  -6.127  1.00  0.00    -0.394 OA
ATOM     10  H   UNL     1     222.305 204.751  -5.725  1.00  0.00     0.210 HD
ENDBRANCH   8   9
ENDBRANCH   3   8
BRANCH   4  11
ATOM     11  O   UNL     1     218.169 204.474  -5.071  1.00  0.00    -0.387 OA
ATOM     12  H   UNL     1     217.865 204.205  -4.164  1.00  0.00     0.211 HD
ENDBRANCH   4  11
BRANCH   6  13
ATOM     13  O   UNL     1     219.534 203.697  -2.814  1.00  0.00    -0.387 OA
ATOM     14  H   UNL     1     218.708 204.216  -2.997  1.00  0.00     0.211 HD
ENDBRANCH   6  13
BRANCH   7  15
ATOM     15  O   UNL     1     221.147 201.310  -3.916  1.00  0.00    -0.385 OA
ATOM     16  H   UNL     1     221.118 201.444  -2.934  1.00  0.00     0.211 HD
ENDBRANCH   7  15
ENDBRANCH   1   2
BRANCH   1  17
ATOM     17  C   UNL     1     219.991 199.857  -7.323  1.00  0.00     0.224 C 
ATOM     18  C   UNL     1     220.657 199.946  -8.720  1.00  0.00     0.208 C 
ATOM     19  O   UNL     1     219.911 198.492  -6.932  1.00  0.00    -0.337 OA
ATOM     20  C   UNL     1     221.124 198.532  -8.998  1.00  0.00     0.180 C 
ATOM     21  C   UNL     1     220.218 197.708  -8.068  1.00  0.00     0.179 C 
BRANCH  17  22
ATOM     22  C   UNL     1     218.559 200.431  -7.365  1.00  0.00     0.225 C 
BRANCH  22  23
ATOM     23  O   UNL     1     217.632 199.554  -6.774  1.00  0.00    -0.391 OA
ATOM     24  H   UNL     1     218.153 198.929  -6.206  1.00  0.00     0.210 HD
ENDBRANCH  22  23
ENDBRANCH  17  22
BRANCH  18  25
ATOM     25  O   UNL     1     221.722 200.868  -8.738  1.00  0.00    -0.385 OA
ATOM     26  H   UNL     1     221.449 201.629  -8.160  1.00  0.00     0.211 HD
ENDBRANCH  18  25
BRANCH  20  27
ATOM     27  O   UNL     1     222.486 198.393  -8.669  1.00  0.00    -0.387 OA
ATOM     28  H   UNL     1     222.559 198.509  -7.684  1.00  0.00     0.211 HD
ENDBRANCH  20  27
BRANCH  21  29
ATOM     29  C   UNL     1     220.801 196.351  -7.644  1.00  0.00     0.191 C 
BRANCH  29  30
ATOM     30  O   UNL     1     221.692 196.510  -6.577  1.00  0.00    -0.394 OA
ATOM     31  H   UNL     1     222.180 197.357  -6.740  1.00  0.00     0.210 HD
ENDBRANCH  29  30
ENDBRANCH  21  29
ENDBRANCH   1  17
TORSDOF 13
ENDMDL
MODEL 5
REMARK VINA RESULT:    -2.776      2.940      5.408
REMARK INTER + INTRA:          -5.765
REMARK INTER:                  -4.230
REMARK INTRA:                  -1.534
REMARK UNBOUND:                -1.527
REMARK SMILES OC[C@H]1O[C@@H](O[C@]2(CO)O[C@H](CO)[C@H](O)[C@@H]2O)[C@@H](O)[C@H](O)[C@@H]1O
REMARK SMILES IDX 6 1 5 2 3 3 22 4 4 5 20 6 18 7 2 8 1 9 23 11 21 13 19 15
REMARK SMILES IDX 7 17 16 18 10 19 14 20 11 21 8 22 9 23 17 25 15 27 12 29
REMARK SMILES IDX 13 30
REMARK H PARENT 1 10 23 12 21 14 19 16 9 24 17 26 15 28 13 31
REMARK Flexibility Score: inf
ROOT
ATOM      1  O   UNL     1     207.366 195.873  -5.189  1.00  0.00    -0.313 OA
ENDROOT
BRANCH   1   2
ATOM      2  C   UNL     1     207.525 194.656  -4.478  1.00  0.00     0.285 C 
ATOM      3  C   UNL     1     206.310 192.881  -3.576  1.00  0.00     0.178 C 
ATOM      4  C   UNL     1     207.443 192.642  -2.526  1.00  0.00     0.177 C 
ATOM      5  O   UNL     1     206.254 194.226  -4.030  1.00  0.00    -0.341 OA
ATOM      6  C   UNL     1     208.083 193.973  -2.070  1.00  0.00     0.179 C 
ATOM      7  C   UNL     1     208.456 194.893  -3.261  1.00  0.00     0.202 C 
BRANCH   3   8
ATOM      8  C   UNL     1     204.934 192.511  -3.008  1.00  0.00     0.191 C 
BRANCH   8   9
ATOM      9  O   UNL     1     204.182 191.805  -3.962  1.00  0.00    -0.394 OA
ATOM     10  H   UNL     1     204.431 190.847  -3.882  1.00  0.00     0.210 HD
ENDBRANCH   8   9
ENDBRANCH   3   8
BRANCH   4  11
ATOM     11  O   UNL     1     208.404 191.742  -3.035  1.00  0.00    -0.387 OA
ATOM     12  H   UNL     1     208.964 191.413  -2.283  1.00  0.00     0.211 HD
ENDBRANCH   4  11
BRANCH   6  13
ATOM     13  O   UNL     1     209.218 193.704  -1.290  1.00  0.00    -0.387 OA
ATOM     14  H   UNL     1     209.897 193.308  -1.896  1.00  0.00     0.211 HD
ENDBRANCH   6  13
BRANCH   7  15
ATOM     15  O   UNL     1     208.364 196.233  -2.835  1.00  0.00    -0.385 OA
ATOM     16  H   UNL     1     209.213 196.686  -3.075  1.00  0.00     0.211 HD
ENDBRANCH   7  15
ENDBRANCH   1   2
BRANCH   1  17
ATOM     17  C   UNL     1     208.079 195.948  -6.422  1.00  0.00     0.224 C 
ATOM     18  C   UNL     1     209.150 197.067  -6.373  1.00  0.00     0.208 C 
ATOM     19  O   UNL     1     208.710 194.715  -6.748  1.00  0.00    -0.337 OA
ATOM     20  C   UNL     1     210.465 196.327  -6.504  1.00  0.00     0.180 C 
ATOM     21  C   UNL     1     210.027 195.012  -7.169  1.00  0.00     0.179 C 
BRANCH  17  22
ATOM     22  C   UNL     1     207.024 196.250  -7.508  1.00  0.00     0.225 C 
BRANCH  22  23
ATOM     23  O   UNL     1     206.878 197.633  -7.716  1.00  0.00    -0.391 OA
ATOM     24  H   UNL     1     206.263 197.964  -7.012  1.00  0.00     0.210 HD
ENDBRANCH  22  23
ENDBRANCH  17  22
BRANCH  18  25
ATOM     25  O   UNL     1     209.079 197.811  -5.179  1.00  0.00    -0.385 OA
ATOM     26  H   UNL     1     208.598 197.245  -4.519  1.00  0.00     0.211 HD
ENDBRANCH  18  25
BRANCH  20  27
ATOM     27  O   UNL     1     211.036 196.114  -5.235  1.00  0.00    -0.387 OA
ATOM     28  H   UNL     1     211.158 197.010  -4.819  1.00  0.00     0.211 HD
ENDBRANCH  20  27
BRANCH  21  29
ATOM     29  C   UNL     1     210.958 193.820  -6.904  1.00  0.00     0.191 C 
BRANCH  29  30
ATOM     30  O   UNL     1     210.712 193.273  -5.640  1.00  0.00    -0.394 OA
ATOM     31  H   UNL     1     210.245 193.973  -5.115  1.00  0.00     0.210 HD
ENDBRANCH  29  30
ENDBRANCH  21  29
ENDBRANCH   1  17
TORSDOF 13
ENDMDL
MODEL 6
REMARK VINA RESULT:    -2.704     15.527     17.387
REMARK INTER + INTRA:          -5.654
REMARK INTER:                  -4.121
REMARK INTRA:                  -1.534
REMARK UNBOUND:                -1.527
REMARK SMILES OC[C@H]1O[C@@H](O[C@]2(CO)O[C@H](CO)[C@H](O)[C@@H]2O)[C@@H](O)[C@H](O)[C@@H]1O
REMARK SMILES IDX 6 1 5 2 3 3 22 4 4 5 20 6 18 7 2 8 1 9 23 11 21 13 19 15
REMARK SMILES IDX 7 17 16 18 10 19 14 20 11 21 8 22 9 23 17 25 15 27 12 29
REMARK SMILES IDX 13 30
REMARK H PARENT 1 10 23 12 21 14 19 16 9 24 17 26 15 28 13 31
REMARK Flexibility Score: inf
ROOT
ATOM      1  O   UNL     1     217.252 204.831  -4.028  1.00  0.00    -0.313 OA
ENDROOT
BRANCH   1   2
ATOM      2  C   UNL     1     218.511 204.227  -4.275  1.00  0.00     0.285 C 
ATOM      3  C   UNL     1     220.412 204.420  -5.613  1.00  0.00     0.178 C 
ATOM      4  C   UNL     1     220.675 202.888  -5.456  1.00  0.00     0.177 C 
ATOM      5  O   UNL     1     219.040 204.762  -5.474  1.00  0.00    -0.341 OA
ATOM      6  C   UNL     1     219.353 202.088  -5.410  1.00  0.00     0.179 C 
ATOM      7  C   UNL     1     218.324 202.696  -4.423  1.00  0.00     0.202 C 
BRANCH   3   8
ATOM      8  C   UNL     1     220.896 204.935  -6.974  1.00  0.00     0.191 C 
BRANCH   8   9
ATOM      9  O   UNL     1     219.856 205.596  -7.649  1.00  0.00    -0.394 OA
ATOM     10  H   UNL     1     220.197 205.840  -8.548  1.00  0.00     0.210 HD
ENDBRANCH   8   9
ENDBRANCH   3   8
BRANCH   4  11
ATOM     11  O   UNL     1     221.481 202.639  -4.325  1.00  0.00    -0.387 OA
ATOM     12  H   UNL     1     221.199 203.247  -3.591  1.00  0.00     0.211 HD
ENDBRANCH   4  11
BRANCH   6  13
ATOM     13  O   UNL     1     219.624 200.754  -5.070  1.00  0.00    -0.387 OA
ATOM     14  H   UNL     1     220.426 200.482  -5.586  1.00  0.00     0.211 HD
ENDBRANCH   6  13
BRANCH   7  15
ATOM     15  O   UNL     1     217.028 202.411  -4.898  1.00  0.00    -0.385 OA
ATOM     16  H   UNL     1     216.916 202.871  -5.769  1.00  0.00     0.211 HD
ENDBRANCH   7  15
ENDBRANCH   1   2
BRANCH   1  17
ATOM     17  C   UNL     1     217.099 205.397  -2.727  1.00  0.00     0.224 C 
ATOM     18  C   UNL     1     216.051 204.607  -1.902  1.00  0.00     0.208 C 
ATOM     19  O   UNL     1     218.329 205.425  -2.012  1.00  0.00    -0.337 OA
ATOM     20  C   UNL     1     216.848 204.025  -0.753  1.00  0.00     0.180 C 
ATOM     21  C   UNL     1     218.067 204.961  -0.702  1.00  0.00     0.179 C 
BRANCH  17  22
ATOM     22  C   UNL     1     216.635 206.853  -2.946  1.00  0.00     0.225 C 
BRANCH  22  23
ATOM     23  O   UNL     1     215.442 207.125  -2.255  1.00  0.00    -0.391 OA
ATOM     24  H   UNL     1     215.197 206.294  -1.770  1.00  0.00     0.210 HD
ENDBRANCH  22  23
ENDBRANCH  17  22
BRANCH  18  25
ATOM     25  O   UNL     1     215.422 203.607  -2.669  1.00  0.00    -0.385 OA
ATOM     26  H   UNL     1     215.565 202.749  -2.189  1.00  0.00     0.211 HD
ENDBRANCH  18  25
BRANCH  20  27
ATOM     27  O   UNL     1     217.213 202.695  -1.034  1.00  0.00    -0.387 OA
ATOM     28  H   UNL     1     216.783 202.453  -1.898  1.00  0.00     0.211 HD
ENDBRANCH  20  27
BRANCH  21  29
ATOM     29  C   UNL     1     219.330 204.334  -0.092  1.00  0.00     0.191 C 
BRANCH  29  30
ATOM     30  O   UNL     1     219.942 203.470  -1.005  1.00  0.00    -0.394 OA
ATOM     31  H   UNL     1     219.944 202.571  -0.587  1.00  0.00     0.210 HD
ENDBRANCH  29  30
ENDBRANCH  21  29
ENDBRANCH   1  17
TORSDOF 13
ENDMDL
MODEL 7
REMARK VINA RESULT:    -2.614      5.457      6.821
REMARK INTER + INTRA:          -5.517
REMARK INTER:                  -4.033
REMARK INTRA:                  -1.484
REMARK UNBOUND:                -1.527
REMARK SMILES OC[C@H]1O[C@@H](O[C@]2(CO)O[C@H](CO)[C@H](O)[C@@H]2O)[C@@H](O)[C@H](O)[C@@H]1O
REMARK SMILES IDX 6 1 5 2 3 3 22 4 4 5 20 6 18 7 2 8 1 9 23 11 21 13 19 15
REMARK SMILES IDX 7 17 16 18 10 19 14 20 11 21 8 22 9 23 17 25 15 27 12 29
REMARK SMILES IDX 13 30
REMARK H PARENT 1 10 23 12 21 14 19 16 9 24 17 26 15 28 13 31
REMARK Flexibility Score: inf
ROOT
ATOM      1  O   UNL     1     207.574 196.610  -5.851  1.00  0.00    -0.313 OA
ENDROOT
BRANCH   1   2
ATOM      2  C   UNL     1     208.756 196.040  -6.389  1.00  0.00     0.285 C 
ATOM      3  C   UNL     1     209.522 194.713  -8.147  1.00  0.00     0.178 C 
ATOM      4  C   UNL     1     210.728 194.249  -7.269  1.00  0.00     0.177 C 
ATOM      5  O   UNL     1     208.392 195.094  -7.375  1.00  0.00    -0.341 OA
ATOM      6  C   UNL     1     210.325 194.104  -5.784  1.00  0.00     0.179 C 
ATOM      7  C   UNL     1     209.547 195.337  -5.256  1.00  0.00     0.202 C 
BRANCH   3   8
ATOM      8  C   UNL     1     209.085 193.613  -9.123  1.00  0.00     0.191 C 
BRANCH   8   9
ATOM      9  O   UNL     1     210.015 192.559  -9.125  1.00  0.00    -0.394 OA
ATOM     10  H   UNL     1     209.937 192.098  -8.249  1.00  0.00     0.210 HD
ENDBRANCH   8   9
ENDBRANCH   3   8
BRANCH   4  11
ATOM     11  O   UNL     1     211.824 195.123  -7.436  1.00  0.00    -0.387 OA
ATOM     12  H   UNL     1     212.037 195.539  -6.559  1.00  0.00     0.211 HD
ENDBRANCH   4  11
BRANCH   6  13
ATOM     13  O   UNL     1     211.472 193.885  -5.006  1.00  0.00    -0.387 OA
ATOM     14  H   UNL     1     212.063 193.281  -5.528  1.00  0.00     0.211 HD
ENDBRANCH   6  13
BRANCH   7  15
ATOM     15  O   UNL     1     208.663 194.907  -4.245  1.00  0.00    -0.385 OA
ATOM     16  H   UNL     1     208.179 195.703  -3.907  1.00  0.00     0.211 HD
ENDBRANCH   7  15
ENDBRANCH   1   2
BRANCH   1  17
ATOM     17  C   UNL     1     207.525 198.035  -5.881  1.00  0.00     0.224 C 
ATOM     18  C   UNL     1     207.505 198.617  -4.444  1.00  0.00     0.208 C 
ATOM     19  O   UNL     1     208.625 198.592  -6.592  1.00  0.00    -0.337 OA
ATOM     20  C   UNL     1     208.800 199.396  -4.342  1.00  0.00     0.180 C 
ATOM     21  C   UNL     1     209.129 199.664  -5.820  1.00  0.00     0.179 C 
BRANCH  17  22
ATOM     22  C   UNL     1     206.229 198.403  -6.635  1.00  0.00     0.225 C 
BRANCH  22  23
ATOM     23  O   UNL     1     206.479 198.680  -7.990  1.00  0.00    -0.391 OA
ATOM     24  H   UNL     1     206.570 199.666  -8.068  1.00  0.00     0.210 HD
ENDBRANCH  22  23
ENDBRANCH  17  22
BRANCH  18  25
ATOM     25  O   UNL     1     207.419 197.605  -3.468  1.00  0.00    -0.385 OA
ATOM     26  H   UNL     1     207.325 198.063  -2.591  1.00  0.00     0.211 HD
ENDBRANCH  18  25
BRANCH  20  27
ATOM     27  O   UNL     1     209.790 198.620  -3.711  1.00  0.00    -0.387 OA
ATOM     28  H   UNL     1     209.349 197.784  -3.401  1.00  0.00     0.211 HD
ENDBRANCH  20  27
BRANCH  21  29
ATOM     29  C   UNL     1     210.621 199.883  -6.114  1.00  0.00     0.191 C 
BRANCH  29  30
ATOM     30  O   UNL     1     211.330 198.685  -5.981  1.00  0.00    -0.394 OA
ATOM     31  H   UNL     1     211.732 198.494  -6.866  1.00  0.00     0.210 HD
ENDBRANCH  29  30
ENDBRANCH  21  29
ENDBRANCH   1  17
TORSDOF 13
ENDMDL
MODEL 8
REMARK VINA RESULT:    -2.598      7.890     11.069
REMARK INTER + INTRA:          -5.492
REMARK INTER:                  -3.981
REMARK INTRA:                  -1.511
REMARK UNBOUND:                -1.527
REMARK SMILES OC[C@H]1O[C@@H](O[C@]2(CO)O[C@H](CO)[C@H](O)[C@@H]2O)[C@@H](O)[C@H](O)[C@@H]1O
REMARK SMILES IDX 6 1 5 2 3 3 22 4 4 5 20 6 18 7 2 8 1 9 23 11 21 13 19 15
REMARK SMILES IDX 7 17 16 18 10 19 14 20 11 21 8 22 9 23 17 25 15 27 12 29
REMARK SMILES IDX 13 30
REMARK H PARENT 1 10 23 12 21 14 19 16 9 24 17 26 15 28 13 31
REMARK Flexibility Score: inf
ROOT
ATOM      1  O   UNL     1     210.953 201.565  -6.143  1.00  0.00    -0.313 OA
ENDROOT
BRANCH   1   2
ATOM      2  C   UNL     1     210.551 200.206  -6.198  1.00  0.00     0.285 C 
ATOM      3  C   UNL     1     208.678 198.855  -6.527  1.00  0.00     0.178 C 
ATOM      4  C   UNL     1     209.346 197.727  -5.677  1.00  0.00     0.177 C 
ATOM      5  O   UNL     1     209.137 200.154  -6.177  1.00  0.00    -0.341 OA
ATOM      6  C   UNL     1     210.177 198.311  -4.512  1.00  0.00     0.179 C 
ATOM      7  C   UNL     1     211.120 199.454  -4.968  1.00  0.00     0.202 C 
BRANCH   3   8
ATOM      8  C   UNL     1     207.150 198.834  -6.383  1.00  0.00     0.191 C 
BRANCH   8   9
ATOM      9  O   UNL     1     206.538 198.848  -7.648  1.00  0.00    -0.394 OA
ATOM     10  H   UNL     1     207.246 198.664  -8.319  1.00  0.00     0.210 HD
ENDBRANCH   8   9
ENDBRANCH   3   8
BRANCH   4  11
ATOM     11  O   UNL     1     210.116 196.880  -6.501  1.00  0.00    -0.387 OA
ATOM     12  H   UNL     1     210.785 197.430  -6.988  1.00  0.00     0.211 HD
ENDBRANCH   4  11
BRANCH   6  13
ATOM     13  O   UNL     1     210.915 197.286  -3.902  1.00  0.00    -0.387 OA
ATOM     14  H   UNL     1     211.062 196.588  -4.592  1.00  0.00     0.211 HD
ENDBRANCH   6  13
BRANCH   7  15
ATOM     15  O   UNL     1     211.292 200.347  -3.892  1.00  0.00    -0.385 OA
ATOM     16  H   UNL     1     210.868 201.208  -4.142  1.00  0.00     0.211 HD
ENDBRANCH   7  15
ENDBRANCH   1   2
BRANCH   1  17
ATOM     17  C   UNL     1     212.071 201.896  -6.964  1.00  0.00     0.224 C 
ATOM     18  C   UNL     1     213.250 202.422  -6.105  1.00  0.00     0.208 C 
ATOM     19  O   UNL     1     212.516 200.784  -7.731  1.00  0.00    -0.337 OA
ATOM     20  C   UNL     1     214.341 201.391  -6.304  1.00  0.00     0.180 C 
ATOM     21  C   UNL     1     213.926 200.738  -7.632  1.00  0.00     0.179 C 
BRANCH  17  22
ATOM     22  C   UNL     1     211.579 202.988  -7.938  1.00  0.00     0.225 C 
BRANCH  22  23
ATOM     23  O   UNL     1     212.131 204.243  -7.631  1.00  0.00    -0.391 OA
ATOM     24  H   UNL     1     211.393 204.800  -7.270  1.00  0.00     0.210 HD
ENDBRANCH  22  23
ENDBRANCH  17  22
BRANCH  18  25
ATOM     25  O   UNL     1     212.893 202.558  -4.749  1.00  0.00    -0.385 OA
ATOM     26  H   UNL     1     213.686 202.282  -4.217  1.00  0.00     0.211 HD
ENDBRANCH  18  25
BRANCH  20  27
ATOM     27  O   UNL     1     214.346 200.470  -5.239  1.00  0.00    -0.387 OA
ATOM     28  H   UNL     1     213.759 199.713  -5.509  1.00  0.00     0.211 HD
ENDBRANCH  20  27
BRANCH  21  29
ATOM     29  C   UNL     1     214.432 199.300  -7.824  1.00  0.00     0.191 C 
BRANCH  29  30
ATOM     30  O   UNL     1     213.576 198.389  -7.196  1.00  0.00    -0.394 OA
ATOM     31  H   UNL     1     214.155 197.745  -6.712  1.00  0.00     0.210 HD
ENDBRANCH  29  30
ENDBRANCH  21  29
ENDBRANCH   1  17
TORSDOF 13
ENDMDL
MODEL 9
REMARK VINA RESULT:    -2.541      3.608      6.327
REMARK INTER + INTRA:          -5.405
REMARK INTER:                  -3.873
REMARK INTRA:                  -1.532
REMARK UNBOUND:                -1.527
REMARK SMILES OC[C@H]1O[C@@H](O[C@]2(CO)O[C@H](CO)[C@H](O)[C@@H]2O)[C@@H](O)[C@H](O)[C@@H]1O
REMARK SMILES IDX 6 1 5 2 3 3 22 4 4 5 20 6 18 7 2 8 1 9 23 11 21 13 19 15
REMARK SMILES IDX 7 17 16 18 10 19 14 20 11 21 8 22 9 23 17 25 15 27 12 29
REMARK SMILES IDX 13 30
REMARK H PARENT 1 10 23 12 21 14 19 16 9 24 17 26 15 28 13 31
REMARK Flexibility Score: inf
ROOT
ATOM      1  O   UNL     1     206.813 195.865  -5.868  1.00  0.00    -0.313 OA
ENDROOT
BRANCH   1   2
ATOM      2  C   UNL     1     207.177 195.471  -4.555  1.00  0.00     0.285 C 
ATOM      3  C   UNL     1     207.059 193.671  -3.076  1.00  0.00     0.178 C 
ATOM      4  C   UNL     1     207.123 194.661  -1.869  1.00  0.00     0.177 C 
ATOM      5  O   UNL     1     206.510 194.261  -4.246  1.00  0.00    -0.341 OA
ATOM      6  C   UNL     1     206.369 195.976  -2.174  1.00  0.00     0.179 C 
ATOM      7  C   UNL     1     206.750 196.574  -3.552  1.00  0.00     0.202 C 
BRANCH   3   8
ATOM      8  C   UNL     1     206.229 192.426  -2.736  1.00  0.00     0.191 C 
BRANCH   8   9
ATOM      9  O   UNL     1     205.044 192.403  -3.491  1.00  0.00    -0.394 OA
ATOM     10  H   UNL     1     205.051 191.564  -4.022  1.00  0.00     0.210 HD
ENDBRANCH   8   9
ENDBRANCH   3   8
BRANCH   4  11
ATOM     11  O   UNL     1     208.463 194.896  -1.495  1.00  0.00    -0.387 OA
ATOM     12  H   UNL     1     209.028 194.163  -1.855  1.00  0.00     0.211 HD
ENDBRANCH   4  11
BRANCH   6  13
ATOM     13  O   UNL     1     206.619 196.907  -1.155  1.00  0.00    -0.387 OA
ATOM     14  H   UNL     1     207.570 196.799  -0.893  1.00  0.00     0.211 HD
ENDBRANCH   6  13
BRANCH   7  15
ATOM     15  O   UNL     1     205.639 197.280  -4.055  1.00  0.00    -0.385 OA
ATOM     16  H   UNL     1     205.678 198.203  -3.696  1.00  0.00     0.211 HD
ENDBRANCH   7  15
ENDBRANCH   1   2
BRANCH   1  17
ATOM     17  C   UNL     1     207.859 196.466  -6.628  1.00  0.00     0.224 C 
ATOM     18  C   UNL     1     207.415 197.844  -7.182  1.00  0.00     0.208 C 
ATOM     19  O   UNL     1     209.046 196.634  -5.862  1.00  0.00    -0.337 OA
ATOM     20  C   UNL     1     208.340 198.832  -6.501  1.00  0.00     0.180 C 
ATOM     21  C   UNL     1     209.529 197.939  -6.110  1.00  0.00     0.179 C 
BRANCH  17  22
ATOM     22  C   UNL     1     208.165 195.489  -7.782  1.00  0.00     0.225 C 
BRANCH  22  23
ATOM     23  O   UNL     1     207.255 195.639  -8.843  1.00  0.00    -0.391 OA
ATOM     24  H   UNL     1     207.791 195.857  -9.650  1.00  0.00     0.210 HD
ENDBRANCH  22  23
ENDBRANCH  17  22
BRANCH  18  25
ATOM     25  O   UNL     1     206.060 198.112  -6.905  1.00  0.00    -0.385 OA
ATOM     26  H   UNL     1     205.532 197.674  -7.624  1.00  0.00     0.211 HD
ENDBRANCH  18  25
BRANCH  20  27
ATOM     27  O   UNL     1     207.710 199.397  -5.376  1.00  0.00    -0.387 OA
ATOM     28  H   UNL     1     207.497 200.341  -5.608  1.00  0.00     0.211 HD
ENDBRANCH  20  27
BRANCH  21  29
ATOM     29  C   UNL     1     210.344 198.448  -4.911  1.00  0.00     0.191 C 
BRANCH  29  30
ATOM     30  O   UNL     1     209.773 198.018  -3.709  1.00  0.00    -0.394 OA
ATOM     31  H   UNL     1     209.953 197.045  -3.642  1.00  0.00     0.210 HD
ENDBRANCH  29  30
ENDBRANCH  21  29
ENDBRANCH   1  17
TORSDOF 13
ENDMDL
