MODEL 1
REMARK VINA RESULT:    -2.898      0.000      0.000
REMARK INTER + INTRA:          -3.152
REMARK INTER:                  -3.152
REMARK INTRA:                   0.000
REMARK UNBOUND:                 0.000
REMARK SMILES [NH3+]CC(=O)[O-]
REMARK SMILES IDX 2 1 1 2 3 6 4 7 5 8
REMARK H PARENT 1 3 1 4 1 5
REMARK Flexibility Score: inf
ROOT
ATOM      1  C   UNL     1      -3.620 -19.196  22.911  1.00  0.00     0.312 C 
ENDROOT
BRANCH   1   2
ATOM      2  N   UNL     1      -2.417 -20.012  23.062  1.00  0.00    -0.353 N 
ATOM      3  H   UNL     1      -2.041 -20.276  22.121  1.00  0.00     0.344 HD
ATOM      4  H   UNL     1      -2.635 -20.875  23.610  1.00  0.00     0.344 HD
ATOM      5  H   UNL     1      -1.691 -19.460  23.574  1.00  0.00     0.344 HD
ENDBRANCH   1   2
BRANCH   1   6
ATOM      6  C   UNL     1      -3.970 -19.032  21.466  1.00  0.00     0.096 C 
ATOM      7  O   UNL     1      -4.840 -19.771  20.935  1.00  0.00    -0.544 OA
ATOM      8  O   UNL     1      -3.372 -18.026  20.716  1.00  0.00    -0.544 OA
ENDBRANCH   1   6
TORSDOF 2
ENDMDL
MODEL 2
REMARK VINA RESULT:    -2.897      2.340      2.611
REMARK INTER + INTRA:          -3.151
REMARK INTER:                  -3.151
REMARK INTRA:                   0.000
REMARK UNBOUND:                 0.000
REMARK SMILES [NH3+]CC(=O)[O-]
REMARK SMILES IDX 2 1 1 2 3 6 4 7 5 8
REMARK H PARENT 1 3 1 4 1 5
REMARK Flexibility Score: inf
ROOT
ATOM      1  C   UNL     1      -4.258 -18.954  20.847  1.00  0.00     0.312 C 
ENDROOT
BRANCH   1   2
ATOM      2  N   UNL     1      -5.173 -20.085  20.716  1.00  0.00    -0.353 N 
ATOM      3  H   UNL     1      -4.773 -20.928  21.189  1.00  0.00     0.344 HD
ATOM      4  H   UNL     1      -5.343 -20.294  19.705  1.00  0.00     0.344 HD
ATOM      5  H   UNL     1      -6.085 -19.843  21.169  1.00  0.00     0.344 HD
ENDBRANCH   1   2
BRANCH   1   6
ATOM      6  C   UNL     1      -3.791 -18.813  22.262  1.00  0.00     0.096 C 
ATOM      7  O   UNL     1      -4.246 -17.892  22.991  1.00  0.00    -0.544 OA
ATOM      8  O   UNL     1      -2.892 -19.729  22.792  1.00  0.00    -0.544 OA
ENDBRANCH   1   6
TORSDOF 2
ENDMDL
MODEL 3
REMARK VINA RESULT:    -2.841      9.578     10.167
REMARK INTER + INTRA:          -3.090
REMARK INTER:                  -3.090
REMARK INTRA:                   0.000
REMARK UNBOUND:                 0.000
REMARK SMILES [NH3+]CC(=O)[O-]
REMARK SMILES IDX 2 1 1 2 3 6 4 7 5 8
REMARK H PARENT 1 3 1 4 1 5
REMARK Flexibility Score: inf
ROOT
ATOM      1  C   UNL     1      -7.139 -27.232  16.571  1.00  0.00     0.312 C 
ENDROOT
BRANCH   1   2
ATOM      2  N   UNL     1      -8.179 -27.357  15.552  1.00  0.00    -0.353 N 
ATOM      3  H   UNL     1      -8.877 -28.081  15.839  1.00  0.00     0.344 HD
ATOM      4  H   UNL     1      -7.751 -27.622  14.635  1.00  0.00     0.344 HD
ATOM      5  H   UNL     1      -8.667 -26.438  15.446  1.00  0.00     0.344 HD
ENDBRANCH   1   2
BRANCH   1   6
ATOM      6  C   UNL     1      -7.719 -26.741  17.861  1.00  0.00     0.096 C 
ATOM      7  O   UNL     1      -7.151 -25.817  18.501  1.00  0.00    -0.544 OA
ATOM      8  O   UNL     1      -8.915 -27.269  18.331  1.00  0.00    -0.544 OA
ENDBRANCH   1   6
TORSDOF 2
ENDMDL
MODEL 4
REMARK VINA RESULT:    -2.784      5.114      5.526
REMARK INTER + INTRA:          -3.028
REMARK INTER:                  -3.028
REMARK INTRA:                   0.000
REMARK UNBOUND:                 0.000
REMARK SMILES [NH3+]CC(=O)[O-]
REMARK SMILES IDX 2 1 1 2 3 6 4 7 5 8
REMARK H PARENT 1 3 1 4 1 5
REMARK Flexibility Score: inf
ROOT
ATOM      1  C   UNL     1      -1.357 -16.121  19.789  1.00  0.00     0.312 C 
ENDROOT
BRANCH   1   2
ATOM      2  N   UNL     1      -0.184 -16.633  19.084  1.00  0.00    -0.353 N 
ATOM      3  H   UNL     1      -0.480 -17.164  18.232  1.00  0.00     0.344 HD
ATOM      4  H   UNL     1       0.370 -17.257  19.715  1.00  0.00     0.344 HD
ATOM      5  H   UNL     1       0.417 -15.829  18.791  1.00  0.00     0.344 HD
ENDBRANCH   1   2
BRANCH   1   6
ATOM      6  C   UNL     1      -1.475 -14.640  19.613  1.00  0.00     0.096 C 
ATOM      7  O   UNL     1      -2.586 -14.068  19.774  1.00  0.00    -0.544 OA
ATOM      8  O   UNL     1      -0.348 -13.883  19.320  1.00  0.00    -0.544 OA
ENDBRANCH   1   6
TORSDOF 2
ENDMDL
MODEL 5
REMARK VINA RESULT:    -2.754      4.078      4.639
REMARK INTER + INTRA:          -2.996
REMARK INTER:                  -2.996
REMARK INTRA:                   0.000
REMARK UNBOUND:                 0.000
REMARK SMILES [NH3+]CC(=O)[O-]
REMARK SMILES IDX 2 1 1 2 3 6 4 7 5 8
REMARK H PARENT 1 3 1 4 1 5
REMARK Flexibility Score: inf
ROOT
ATOM      1  C   UNL     1      -1.019 -15.427  19.601  1.00  0.00     0.312 C 
ENDROOT
BRANCH   1   2
ATOM      2  N   UNL     1      -0.235 -16.556  19.106  1.00  0.00    -0.353 N 
ATOM      3  H   UNL     1       0.692 -16.590  19.590  1.00  0.00     0.344 HD
ATOM      4  H   UNL     1      -0.091 -16.468  18.073  1.00  0.00     0.344 HD
ATOM      5  H   UNL     1      -0.752 -17.445  19.300  1.00  0.00     0.344 HD
ENDBRANCH   1   2
BRANCH   1   6
ATOM      6  C   UNL     1      -2.053 -15.890  20.579  1.00  0.00     0.096 C 
ATOM      7  O   UNL     1      -2.505 -15.098  21.447  1.00  0.00    -0.544 OA
ATOM      8  O   UNL     1      -2.554 -17.184  20.501  1.00  0.00    -0.544 OA
ENDBRANCH   1   6
TORSDOF 2
ENDMDL
MODEL 6
REMARK VINA RESULT:    -2.723      9.639     10.127
REMARK INTER + INTRA:          -2.962
REMARK INTER:                  -2.962
REMARK INTRA:                   0.000
REMARK UNBOUND:                 0.000
REMARK SMILES [NH3+]CC(=O)[O-]
REMARK SMILES IDX 2 1 1 2 3 6 4 7 5 8
REMARK H PARENT 1 3 1 4 1 5
REMARK Flexibility Score: inf
ROOT
ATOM      1  C   UNL     1      -8.938 -27.412  17.826  1.00  0.00     0.312 C 
ENDROOT
BRANCH   1   2
ATOM      2  N   UNL     1     -10.003 -26.769  17.059  1.00  0.00    -0.353 N 
ATOM      3  H   UNL     1     -10.706 -27.481  16.752  1.00  0.00     0.344 HD
ATOM      4  H   UNL     1      -9.601 -26.287  16.222  1.00  0.00     0.344 HD
ATOM      5  H   UNL     1     -10.480 -26.060  17.662  1.00  0.00     0.344 HD
ENDBRANCH   1   2
BRANCH   1   6
ATOM      6  C   UNL     1      -7.619 -26.765  17.543  1.00  0.00     0.096 C 
ATOM      7  O   UNL     1      -7.081 -26.017  18.402  1.00  0.00    -0.544 OA
ATOM      8  O   UNL     1      -6.957 -27.029  16.350  1.00  0.00    -0.544 OA
ENDBRANCH   1   6
TORSDOF 2
ENDMDL
MODEL 7
REMARK VINA RESULT:    -2.635     12.064     12.484
REMARK INTER + INTRA:          -2.866
REMARK INTER:                  -2.866
REMARK INTRA:                   0.000
REMARK UNBOUND:                 0.000
REMARK SMILES [NH3+]CC(=O)[O-]
REMARK SMILES IDX 2 1 1 2 3 6 4 7 5 8
REMARK H PARENT 1 3 1 4 1 5
REMARK Flexibility Score: inf
ROOT
ATOM      1  C   UNL     1       4.347 -12.228  16.794  1.00  0.00     0.312 C 
ENDROOT
BRANCH   1   2
ATOM      2  N   UNL     1       3.910 -12.975  15.617  1.00  0.00    -0.353 N 
ATOM      3  H   UNL     1       4.220 -13.972  15.688  1.00  0.00     0.344 HD
ATOM      4  H   UNL     1       4.305 -12.542  14.750  1.00  0.00     0.344 HD
ATOM      5  H   UNL     1       2.865 -12.948  15.562  1.00  0.00     0.344 HD
ENDBRANCH   1   2
BRANCH   1   6
ATOM      6  C   UNL     1       5.781 -12.521  17.104  1.00  0.00     0.096 C 
ATOM      7  O   UNL     1       6.195 -13.710  17.127  1.00  0.00    -0.544 OA
ATOM      8  O   UNL     1       6.674 -11.478  17.316  1.00  0.00    -0.544 OA
ENDBRANCH   1   6
TORSDOF 2
ENDMDL
MODEL 8
REMARK VINA RESULT:    -2.615      4.641      5.169
REMARK INTER + INTRA:          -2.844
REMARK INTER:                  -2.844
REMARK INTRA:                   0.000
REMARK UNBOUND:                 0.000
REMARK SMILES [NH3+]CC(=O)[O-]
REMARK SMILES IDX 2 1 1 2 3 6 4 7 5 8
REMARK H PARENT 1 3 1 4 1 5
REMARK Flexibility Score: inf
ROOT
ATOM      1  C   UNL     1      -2.113 -14.753  19.843  1.00  0.00     0.312 C 
ENDROOT
BRANCH   1   2
ATOM      2  N   UNL     1      -1.770 -14.166  18.549  1.00  0.00    -0.353 N 
ATOM      3  H   UNL     1      -2.299 -13.275  18.406  1.00  0.00     0.344 HD
ATOM      4  H   UNL     1      -1.994 -14.839  17.780  1.00  0.00     0.344 HD
ATOM      5  H   UNL     1      -0.745 -13.958  18.529  1.00  0.00     0.344 HD
ENDBRANCH   1   2
BRANCH   1   6
ATOM      6  C   UNL     1      -1.732 -16.200  19.884  1.00  0.00     0.096 C 
ATOM      7  O   UNL     1      -0.650 -16.586  19.367  1.00  0.00    -0.544 OA
ATOM      8  O   UNL     1      -2.546 -17.115  20.540  1.00  0.00    -0.544 OA
ENDBRANCH   1   6
TORSDOF 2
ENDMDL
MODEL 9
REMARK VINA RESULT:    -2.595      3.405      3.647
REMARK INTER + INTRA:          -2.823
REMARK INTER:                  -2.823
REMARK INTRA:                   0.000
REMARK UNBOUND:                 0.000
REMARK SMILES [NH3+]CC(=O)[O-]
REMARK SMILES IDX 2 1 1 2 3 6 4 7 5 8
REMARK H PARENT 1 3 1 4 1 5
REMARK Flexibility Score: inf
ROOT
ATOM      1  C   UNL     1      -2.922 -17.518  20.681  1.00  0.00     0.312 C 
ENDROOT
BRANCH   1   2
ATOM      2  N   UNL     1      -3.458 -17.388  22.035  1.00  0.00    -0.353 N 
ATOM      3  H   UNL     1      -4.497 -17.274  22.001  1.00  0.00     0.344 HD
ATOM      4  H   UNL     1      -3.027 -16.564  22.513  1.00  0.00     0.344 HD
ATOM      5  H   UNL     1      -3.229 -18.252  22.578  1.00  0.00     0.344 HD
ENDBRANCH   1   2
BRANCH   1   6
ATOM      6  C   UNL     1      -1.959 -16.412  20.386  1.00  0.00     0.096 C 
ATOM      7  O   UNL     1      -2.122 -15.274  20.901  1.00  0.00    -0.544 OA
ATOM      8  O   UNL     1      -0.851 -16.650  19.582  1.00  0.00    -0.544 OA
ENDBRANCH   1   6
TORSDOF 2
ENDMDL
