MODEL 1
REMARK VINA RESULT:    -8.604      0.000      0.000
REMARK INTER + INTRA:         -13.866
REMARK INTER:                 -12.629
REMARK INTRA:                  -1.237
REMARK UNBOUND:                -1.237
REMARK SMILES O=c1c(O[C@H]2O[C@H](CO)[C@@H](O)[C@@H](O)[C@H]2O)c(-c2ccc(O)c(O)c2)oc2cc(O)cc(O)c12
REMARK SMILES IDX 4 1 3 2 16 3 25 4 2 5 26 6 1 7 33 8 27 9 31 10 28 11 30 12
REMARK SMILES IDX 17 13 18 14 19 15 20 16 24 17 22 18 21 19 23 21 32 23 29 25
REMARK SMILES IDX 5 27 14 28 6 29 12 30 7 31 10 32 15 33 13 35 8 37 9 38 11 40
REMARK H PARENT 21 20 23 22 32 24 29 26 15 34 13 36 9 39 11 41
REMARK Flexibility Score: inf
ROOT
ATOM      1  O   UNL     1      52.055  61.602   2.154  1.00  0.00    -0.454 OA
ENDROOT
BRANCH   1   2
ATOM      2  C   UNL     1      52.246  61.535   3.543  1.00  0.00     0.214 A 
ATOM      3  C   UNL     1      52.072  62.684   4.335  1.00  0.00     0.180 A 
ATOM      4  O   UNL     1      52.183  62.608   5.656  1.00  0.00    -0.452 OA
ATOM      5  C   UNL     1      52.615  60.335   4.172  1.00  0.00     0.239 A 
ATOM      6  C   UNL     1      52.496  61.485   6.296  1.00  0.00     0.146 A 
ATOM      7  O   UNL     1      52.861  59.316   3.471  1.00  0.00    -0.285 OA
ATOM      8  C   UNL     1      52.731  60.290   5.577  1.00  0.00     0.111 A 
ATOM      9  C   UNL     1      52.598  61.501   7.689  1.00  0.00     0.094 A 
ATOM     10  C   UNL     1      53.074  59.114   6.287  1.00  0.00     0.134 A 
ATOM     11  C   UNL     1      52.937  60.339   8.386  1.00  0.00     0.123 A 
ATOM     12  C   UNL     1      53.174  59.152   7.686  1.00  0.00     0.093 A 
BRANCH   3  13
ATOM     13  C   UNL     1      51.735  63.986   3.732  1.00  0.00     0.025 A 
ATOM     14  C   UNL     1      52.716  64.977   3.565  1.00  0.00     0.016 A 
ATOM     15  C   UNL     1      52.397  66.186   2.941  1.00  0.00     0.051 A 
ATOM     16  C   UNL     1      51.089  66.426   2.497  1.00  0.00     0.157 A 
ATOM     17  C   UNL     1      50.420  64.243   3.318  1.00  0.00     0.062 A 
ATOM     18  C   UNL     1      50.097  65.455   2.692  1.00  0.00     0.158 A 
BRANCH  16  19
ATOM     19  O   UNL     1      50.766  67.627   1.865  1.00  0.00    -0.504 OA
ATOM     20  H   UNL     1      50.454  67.650   0.900  1.00  0.00     0.293 HD
ENDBRANCH  16  19
BRANCH  18  21
ATOM     21  O   UNL     1      48.798  65.694   2.247  1.00  0.00    -0.504 OA
ATOM     22  H   UNL     1      48.617  66.080   1.327  1.00  0.00     0.293 HD
ENDBRANCH  18  21
ENDBRANCH   3  13
BRANCH  10  23
ATOM     23  O   UNL     1      53.311  57.913   5.617  1.00  0.00    -0.507 OA
ATOM     24  H   UNL     1      52.610  57.485   5.021  1.00  0.00     0.293 HD
ENDBRANCH  10  23
BRANCH  11  25
ATOM     25  O   UNL     1      53.035  60.378   9.774  1.00  0.00    -0.508 OA
ATOM     26  H   UNL     1      53.797  60.855  10.242  1.00  0.00     0.293 HD
ENDBRANCH  11  25
ENDBRANCH   1   2
BRANCH   1  27
ATOM     27  C   UNL     1      53.139  61.723   1.224  1.00  0.00     0.339 C 
ATOM     28  C   UNL     1      52.757  62.606   0.012  1.00  0.00     0.214 C 
ATOM     29  O   UNL     1      53.621  60.449   0.825  1.00  0.00    -0.332 OA
ATOM     30  C   UNL     1      51.811  61.883  -0.963  1.00  0.00     0.180 C 
ATOM     31  C   UNL     1      52.650  59.714   0.097  1.00  0.00     0.179 C 
ATOM     32  C   UNL     1      52.298  60.442  -1.230  1.00  0.00     0.177 C 
BRANCH  28  33
ATOM     33  O   UNL     1      52.172  63.810   0.438  1.00  0.00    -0.384 OA
ATOM     34  H   UNL     1      52.878  64.507   0.382  1.00  0.00     0.211 HD
ENDBRANCH  28  33
BRANCH  30  35
ATOM     35  O   UNL     1      50.475  61.928  -0.521  1.00  0.00    -0.387 OA
ATOM     36  H   UNL     1      50.474  61.966   0.468  1.00  0.00     0.211 HD
ENDBRANCH  30  35
BRANCH  31  37
ATOM     37  C   UNL     1      53.227  58.315  -0.167  1.00  0.00     0.191 C 
BRANCH  37  38
ATOM     38  O   UNL     1      52.195  57.397  -0.410  1.00  0.00    -0.394 OA
ATOM     39  H   UNL     1      52.136  56.828   0.400  1.00  0.00     0.210 HD
ENDBRANCH  37  38
ENDBRANCH  31  37
BRANCH  32  40
ATOM     40  O   UNL     1      51.352  59.735  -1.996  1.00  0.00    -0.387 OA
ATOM     41  H   UNL     1      51.836  59.030  -2.500  1.00  0.00     0.211 HD
ENDBRANCH  32  40
ENDBRANCH   1  27
TORSDOF 12
ENDMDL
MODEL 2
REMARK VINA RESULT:    -8.521      3.248      3.994
REMARK INTER + INTRA:         -13.744
REMARK INTER:                 -12.283
REMARK INTRA:                  -1.460
REMARK UNBOUND:                -1.237
REMARK SMILES O=c1c(O[C@H]2O[C@H](CO)[C@@H](O)[C@@H](O)[C@H]2O)c(-c2ccc(O)c(O)c2)oc2cc(O)cc(O)c12
REMARK SMILES IDX 4 1 3 2 16 3 25 4 2 5 26 6 1 7 33 8 27 9 31 10 28 11 30 12
REMARK SMILES IDX 17 13 18 14 19 15 20 16 24 17 22 18 21 19 23 21 32 23 29 25
REMARK SMILES IDX 5 27 14 28 6 29 12 30 7 31 10 32 15 33 13 35 8 37 9 38 11 40
REMARK H PARENT 21 20 23 22 32 24 29 26 15 34 13 36 9 39 11 41
REMARK Flexibility Score: inf
ROOT
ATOM      1  O   UNL     1      51.117  61.445   0.910  1.00  0.00    -0.454 OA
ENDROOT
BRANCH   1   2
ATOM      2  C   UNL     1      50.149  60.953   1.799  1.00  0.00     0.214 A 
ATOM      3  C   UNL     1      49.839  61.667   2.971  1.00  0.00     0.180 A 
ATOM      4  O   UNL     1      48.874  61.240   3.778  1.00  0.00    -0.452 OA
ATOM      5  C   UNL     1      49.473  59.747   1.549  1.00  0.00     0.239 A 
ATOM      6  C   UNL     1      48.186  60.124   3.561  1.00  0.00     0.146 A 
ATOM      7  O   UNL     1      49.798  59.049   0.551  1.00  0.00    -0.285 OA
ATOM      8  C   UNL     1      48.459  59.319   2.430  1.00  0.00     0.111 A 
ATOM      9  C   UNL     1      47.193  59.749   4.470  1.00  0.00     0.094 A 
ATOM     10  C   UNL     1      47.716  58.130   2.235  1.00  0.00     0.134 A 
ATOM     11  C   UNL     1      46.463  58.575   4.273  1.00  0.00     0.123 A 
ATOM     12  C   UNL     1      46.725  57.771   3.159  1.00  0.00     0.093 A 
BRANCH   3  13
ATOM     13  C   UNL     1      50.547  62.912   3.319  1.00  0.00     0.025 A 
ATOM     14  C   UNL     1      51.632  62.898   4.211  1.00  0.00     0.016 A 
ATOM     15  C   UNL     1      52.330  64.076   4.489  1.00  0.00     0.051 A 
ATOM     16  C   UNL     1      51.938  65.285   3.895  1.00  0.00     0.157 A 
ATOM     17  C   UNL     1      50.136  64.128   2.754  1.00  0.00     0.062 A 
ATOM     18  C   UNL     1      50.835  65.312   3.031  1.00  0.00     0.158 A 
BRANCH  16  19
ATOM     19  O   UNL     1      52.637  66.462   4.162  1.00  0.00    -0.504 OA
ATOM     20  H   UNL     1      53.368  66.496   4.865  1.00  0.00     0.293 HD
ENDBRANCH  16  19
BRANCH  18  21
ATOM     21  O   UNL     1      50.449  66.513   2.440  1.00  0.00    -0.504 OA
ATOM     22  H   UNL     1      50.673  67.407   2.863  1.00  0.00     0.293 HD
ENDBRANCH  18  21
ENDBRANCH   3  13
BRANCH  10  23
ATOM     23  O   UNL     1      47.951  57.309   1.130  1.00  0.00    -0.507 OA
ATOM     24  H   UNL     1      48.683  56.607   1.130  1.00  0.00     0.293 HD
ENDBRANCH  10  23
BRANCH  11  25
ATOM     25  O   UNL     1      45.478  58.219   5.191  1.00  0.00    -0.508 OA
ATOM     26  H   UNL     1      44.858  58.907   5.602  1.00  0.00     0.293 HD
ENDBRANCH  11  25
ENDBRANCH   1   2
BRANCH   1  27
ATOM     27  C   UNL     1      52.525  61.333   1.153  1.00  0.00     0.339 C 
ATOM     28  C   UNL     1      53.326  62.412   0.385  1.00  0.00     0.214 C 
ATOM     29  O   UNL     1      52.994  60.023   0.874  1.00  0.00    -0.332 OA
ATOM     30  C   UNL     1      53.415  62.113  -1.122  1.00  0.00     0.180 C 
ATOM     31  C   UNL     1      52.874  59.693  -0.500  1.00  0.00     0.179 C 
ATOM     32  C   UNL     1      53.766  60.629  -1.364  1.00  0.00     0.177 C 
BRANCH  28  33
ATOM     33  O   UNL     1      52.764  63.684   0.586  1.00  0.00    -0.384 OA
ATOM     34  H   UNL     1      52.380  63.687   1.502  1.00  0.00     0.211 HD
ENDBRANCH  28  33
BRANCH  30  35
ATOM     35  O   UNL     1      52.247  62.509  -1.801  1.00  0.00    -0.387 OA
ATOM     36  H   UNL     1      52.234  62.067  -2.686  1.00  0.00     0.211 HD
ENDBRANCH  30  35
BRANCH  31  37
ATOM     37  C   UNL     1      53.284  58.222  -0.664  1.00  0.00     0.191 C 
BRANCH  37  38
ATOM     38  O   UNL     1      52.187  57.379  -0.437  1.00  0.00    -0.394 OA
ATOM     39  H   UNL     1      51.647  57.398  -1.268  1.00  0.00     0.210 HD
ENDBRANCH  37  38
ENDBRANCH  31  37
BRANCH  32  40
ATOM     40  O   UNL     1      53.695  60.322  -2.736  1.00  0.00    -0.387 OA
ATOM     41  H   UNL     1      54.387  60.860  -3.203  1.00  0.00     0.211 HD
ENDBRANCH  32  40
ENDBRANCH   1  27
TORSDOF 12
ENDMDL
MODEL 3
REMARK VINA RESULT:    -8.516      3.846      7.710
REMARK INTER + INTRA:         -13.736
REMARK INTER:                 -12.575
REMARK INTRA:                  -1.161
REMARK UNBOUND:                -1.237
REMARK SMILES O=c1c(O[C@H]2O[C@H](CO)[C@@H](O)[C@@H](O)[C@H]2O)c(-c2ccc(O)c(O)c2)oc2cc(O)cc(O)c12
REMARK SMILES IDX 4 1 3 2 16 3 25 4 2 5 26 6 1 7 33 8 27 9 31 10 28 11 30 12
REMARK SMILES IDX 17 13 18 14 19 15 20 16 24 17 22 18 21 19 23 21 32 23 29 25
REMARK SMILES IDX 5 27 14 28 6 29 12 30 7 31 10 32 15 33 13 35 8 37 9 38 11 40
REMARK H PARENT 21 20 23 22 32 24 29 26 15 34 13 36 9 39 11 41
REMARK Flexibility Score: inf
ROOT
ATOM      1  O   UNL     1      50.465  59.252   4.389  1.00  0.00    -0.454 OA
ENDROOT
BRANCH   1   2
ATOM      2  C   UNL     1      50.617  59.135   2.998  1.00  0.00     0.214 A 
ATOM      3  C   UNL     1      49.490  58.944   2.179  1.00  0.00     0.180 A 
ATOM      4  O   UNL     1      49.623  58.903   0.858  1.00  0.00    -0.452 OA
ATOM      5  C   UNL     1      51.883  59.199   2.394  1.00  0.00     0.239 A 
ATOM      6  C   UNL     1      50.798  58.996   0.243  1.00  0.00     0.146 A 
ATOM      7  O   UNL     1      52.913  59.281   3.117  1.00  0.00    -0.285 OA
ATOM      8  C   UNL     1      51.990  59.145   0.989  1.00  0.00     0.111 A 
ATOM      9  C   UNL     1      50.842  58.934  -1.153  1.00  0.00     0.094 A 
ATOM     10  C   UNL     1      53.226  59.228   0.303  1.00  0.00     0.134 A 
ATOM     11  C   UNL     1      52.064  59.016  -1.824  1.00  0.00     0.123 A 
ATOM     12  C   UNL     1      53.250  59.163  -1.097  1.00  0.00     0.093 A 
BRANCH   3  13
ATOM     13  C   UNL     1      48.138  58.817   2.753  1.00  0.00     0.025 A 
ATOM     14  C   UNL     1      47.500  57.567   2.822  1.00  0.00     0.016 A 
ATOM     15  C   UNL     1      46.243  57.451   3.420  1.00  0.00     0.051 A 
ATOM     16  C   UNL     1      45.599  58.585   3.935  1.00  0.00     0.157 A 
ATOM     17  C   UNL     1      47.477  59.955   3.238  1.00  0.00     0.062 A 
ATOM     18  C   UNL     1      46.215  59.840   3.838  1.00  0.00     0.158 A 
BRANCH  16  19
ATOM     19  O   UNL     1      44.348  58.473   4.541  1.00  0.00    -0.504 OA
ATOM     20  H   UNL     1      44.034  57.599   4.950  1.00  0.00     0.293 HD
ENDBRANCH  16  19
BRANCH  18  21
ATOM     21  O   UNL     1      45.576  60.966   4.354  1.00  0.00    -0.504 OA
ATOM     22  H   UNL     1      44.784  61.388   3.881  1.00  0.00     0.293 HD
ENDBRANCH  18  21
ENDBRANCH   3  13
BRANCH  10  23
ATOM     23  O   UNL     1      54.426  59.380   1.001  1.00  0.00    -0.507 OA
ATOM     24  H   UNL     1      54.469  59.855   1.896  1.00  0.00     0.293 HD
ENDBRANCH  10  23
BRANCH  11  25
ATOM     25  O   UNL     1      52.086  58.952  -3.215  1.00  0.00    -0.508 OA
ATOM     26  H   UNL     1      51.515  59.563  -3.787  1.00  0.00     0.293 HD
ENDBRANCH  11  25
ENDBRANCH   1   2
BRANCH   1  27
ATOM     27  C   UNL     1      50.776  58.189   5.298  1.00  0.00     0.339 C 
ATOM     28  C   UNL     1      49.764  58.122   6.467  1.00  0.00     0.214 C 
ATOM     29  O   UNL     1      52.115  58.279   5.758  1.00  0.00    -0.332 OA
ATOM     30  C   UNL     1      49.975  59.253   7.489  1.00  0.00     0.180 C 
ATOM     31  C   UNL     1      52.338  59.446   6.534  1.00  0.00     0.179 C 
ATOM     32  C   UNL     1      51.473  59.413   7.825  1.00  0.00     0.177 C 
BRANCH  28  33
ATOM     33  O   UNL     1      48.445  58.156   5.985  1.00  0.00    -0.384 OA
ATOM     34  H   UNL     1      48.479  58.578   5.086  1.00  0.00     0.211 HD
ENDBRANCH  28  33
BRANCH  30  35
ATOM     35  O   UNL     1      49.386  60.458   7.060  1.00  0.00    -0.387 OA
ATOM     36  H   UNL     1      48.999  60.314   6.161  1.00  0.00     0.211 HD
ENDBRANCH  30  35
BRANCH  31  37
ATOM     37  C   UNL     1      53.836  59.507   6.864  1.00  0.00     0.191 C 
BRANCH  37  38
ATOM     38  O   UNL     1      54.246  60.836   7.045  1.00  0.00    -0.394 OA
ATOM     39  H   UNL     1      53.487  61.301   7.483  1.00  0.00     0.210 HD
ENDBRANCH  37  38
ENDBRANCH  31  37
BRANCH  32  40
ATOM     40  O   UNL     1      51.679  60.544   8.638  1.00  0.00    -0.387 OA
ATOM     41  H   UNL     1      51.630  61.348   8.057  1.00  0.00     0.211 HD
ENDBRANCH  32  40
ENDBRANCH   1  27
TORSDOF 12
ENDMDL
MODEL 4
REMARK VINA RESULT:    -8.462      3.630      7.612
REMARK INTER + INTRA:         -13.657
REMARK INTER:                 -11.673
REMARK INTRA:                  -1.983
REMARK UNBOUND:                -1.237
REMARK SMILES O=c1c(O[C@H]2O[C@H](CO)[C@@H](O)[C@@H](O)[C@H]2O)c(-c2ccc(O)c(O)c2)oc2cc(O)cc(O)c12
REMARK SMILES IDX 4 1 3 2 16 3 25 4 2 5 26 6 1 7 33 8 27 9 31 10 28 11 30 12
REMARK SMILES IDX 17 13 18 14 19 15 20 16 24 17 22 18 21 19 23 21 32 23 29 25
REMARK SMILES IDX 5 27 14 28 6 29 12 30 7 31 10 32 15 33 13 35 8 37 9 38 11 40
REMARK H PARENT 21 20 23 22 32 24 29 26 15 34 13 36 9 39 11 41
REMARK Flexibility Score: inf
ROOT
ATOM      1  O   UNL     1      50.270  58.867   4.457  1.00  0.00    -0.454 OA
ENDROOT
BRANCH   1   2
ATOM      2  C   UNL     1      51.131  58.995   3.355  1.00  0.00     0.214 A 
ATOM      3  C   UNL     1      52.494  59.281   3.554  1.00  0.00     0.180 A 
ATOM      4  O   UNL     1      53.324  59.333   2.519  1.00  0.00    -0.452 OA
ATOM      5  C   UNL     1      50.661  58.848   2.040  1.00  0.00     0.239 A 
ATOM      6  C   UNL     1      52.928  59.165   1.261  1.00  0.00     0.146 A 
ATOM      7  O   UNL     1      49.428  58.680   1.836  1.00  0.00    -0.285 OA
ATOM      8  C   UNL     1      51.568  58.917   0.963  1.00  0.00     0.111 A 
ATOM      9  C   UNL     1      53.872  59.245   0.234  1.00  0.00     0.094 A 
ATOM     10  C   UNL     1      51.177  58.754  -0.388  1.00  0.00     0.134 A 
ATOM     11  C   UNL     1      53.482  59.084  -1.097  1.00  0.00     0.123 A 
ATOM     12  C   UNL     1      52.140  58.840  -1.405  1.00  0.00     0.093 A 
BRANCH   3  13
ATOM     13  C   UNL     1      53.042  59.498   4.906  1.00  0.00     0.025 A 
ATOM     14  C   UNL     1      53.872  58.539   5.508  1.00  0.00     0.016 A 
ATOM     15  C   UNL     1      54.431  58.781   6.765  1.00  0.00     0.051 A 
ATOM     16  C   UNL     1      54.149  59.975   7.444  1.00  0.00     0.157 A 
ATOM     17  C   UNL     1      52.734  60.677   5.601  1.00  0.00     0.062 A 
ATOM     18  C   UNL     1      53.294  60.922   6.863  1.00  0.00     0.158 A 
BRANCH  16  19
ATOM     19  O   UNL     1      54.711  60.227   8.695  1.00  0.00    -0.504 OA
ATOM     20  H   UNL     1      55.449  59.641   9.071  1.00  0.00     0.293 HD
ENDBRANCH  16  19
BRANCH  18  21
ATOM     21  O   UNL     1      53.017  62.110   7.538  1.00  0.00    -0.504 OA
ATOM     22  H   UNL     1      53.682  62.875   7.555  1.00  0.00     0.293 HD
ENDBRANCH  18  21
ENDBRANCH   3  13
BRANCH  10  23
ATOM     23  O   UNL     1      49.846  58.503  -0.727  1.00  0.00    -0.507 OA
ATOM     24  H   UNL     1      49.207  58.046  -0.085  1.00  0.00     0.293 HD
ENDBRANCH  10  23
BRANCH  11  25
ATOM     25  O   UNL     1      54.439  59.169  -2.106  1.00  0.00    -0.508 OA
ATOM     26  H   UNL     1      54.567  60.014  -2.650  1.00  0.00     0.293 HD
ENDBRANCH  11  25
ENDBRANCH   1   2
BRANCH   1  27
ATOM     27  C   UNL     1      49.921  57.600   5.028  1.00  0.00     0.339 C 
ATOM     28  C   UNL     1      48.388  57.429   5.147  1.00  0.00     0.214 C 
ATOM     29  O   UNL     1      50.578  57.397   6.270  1.00  0.00    -0.332 OA
ATOM     30  C   UNL     1      47.792  58.273   6.289  1.00  0.00     0.180 C 
ATOM     31  C   UNL     1      50.157  58.325   7.257  1.00  0.00     0.179 C 
ATOM     32  C   UNL     1      48.646  58.140   7.568  1.00  0.00     0.177 C 
BRANCH  28  33
ATOM     33  O   UNL     1      47.756  57.755   3.936  1.00  0.00    -0.384 OA
ATOM     34  H   UNL     1      47.984  58.701   3.738  1.00  0.00     0.211 HD
ENDBRANCH  28  33
BRANCH  30  35
ATOM     35  O   UNL     1      47.604  59.613   5.902  1.00  0.00    -0.387 OA
ATOM     36  H   UNL     1      48.317  59.857   5.261  1.00  0.00     0.211 HD
ENDBRANCH  30  35
BRANCH  31  37
ATOM     37  C   UNL     1      51.019  58.098   8.507  1.00  0.00     0.191 C 
BRANCH  37  38
ATOM     38  O   UNL     1      50.397  57.189   9.374  1.00  0.00    -0.394 OA
ATOM     39  H   UNL     1      50.503  56.295   8.958  1.00  0.00     0.210 HD
ENDBRANCH  37  38
ENDBRANCH  31  37
BRANCH  32  40
ATOM     40  O   UNL     1      48.189  59.028   8.561  1.00  0.00    -0.387 OA
ATOM     41  H   UNL     1      47.203  58.933   8.623  1.00  0.00     0.211 HD
ENDBRANCH  32  40
ENDBRANCH   1  27
TORSDOF 12
ENDMDL
MODEL 5
REMARK VINA RESULT:    -8.456      3.368      7.329
REMARK INTER + INTRA:         -13.648
REMARK INTER:                 -12.173
REMARK INTRA:                  -1.475
REMARK UNBOUND:                -1.237
REMARK SMILES O=c1c(O[C@H]2O[C@H](CO)[C@@H](O)[C@@H](O)[C@H]2O)c(-c2ccc(O)c(O)c2)oc2cc(O)cc(O)c12
REMARK SMILES IDX 4 1 3 2 16 3 25 4 2 5 26 6 1 7 33 8 27 9 31 10 28 11 30 12
REMARK SMILES IDX 17 13 18 14 19 15 20 16 24 17 22 18 21 19 23 21 32 23 29 25
REMARK SMILES IDX 5 27 14 28 6 29 12 30 7 31 10 32 15 33 13 35 8 37 9 38 11 40
REMARK H PARENT 21 20 23 22 32 24 29 26 15 34 13 36 9 39 11 41
REMARK Flexibility Score: inf
ROOT
ATOM      1  O   UNL     1      50.395  60.212   5.752  1.00  0.00    -0.454 OA
ENDROOT
BRANCH   1   2
ATOM      2  C   UNL     1      50.501  61.279   4.845  1.00  0.00     0.214 A 
ATOM      3  C   UNL     1      49.711  61.296   3.682  1.00  0.00     0.180 A 
ATOM      4  O   UNL     1      49.758  62.337   2.858  1.00  0.00    -0.452 OA
ATOM      5  C   UNL     1      51.391  62.341   5.069  1.00  0.00     0.239 A 
ATOM      6  C   UNL     1      50.559  63.380   3.050  1.00  0.00     0.146 A 
ATOM      7  O   UNL     1      52.170  62.301   6.059  1.00  0.00    -0.285 OA
ATOM      8  C   UNL     1      51.421  63.428   4.170  1.00  0.00     0.111 A 
ATOM      9  C   UNL     1      50.547  64.427   2.125  1.00  0.00     0.094 A 
ATOM     10  C   UNL     1      52.271  64.547   4.339  1.00  0.00     0.134 A 
ATOM     11  C   UNL     1      51.387  65.530   2.295  1.00  0.00     0.123 A 
ATOM     12  C   UNL     1      52.245  65.587   3.399  1.00  0.00     0.093 A 
BRANCH   3  13
ATOM     13  C   UNL     1      48.794  60.187   3.361  1.00  0.00     0.025 A 
ATOM     14  C   UNL     1      49.181  59.166   2.477  1.00  0.00     0.016 A 
ATOM     15  C   UNL     1      48.325  58.091   2.226  1.00  0.00     0.051 A 
ATOM     16  C   UNL     1      47.064  58.036   2.836  1.00  0.00     0.157 A 
ATOM     17  C   UNL     1      47.519  60.147   3.943  1.00  0.00     0.062 A 
ATOM     18  C   UNL     1      46.658  59.070   3.692  1.00  0.00     0.158 A 
BRANCH  16  19
ATOM     19  O   UNL     1      46.209  56.961   2.596  1.00  0.00    -0.504 OA
ATOM     20  H   UNL     1      46.110  56.203   3.263  1.00  0.00     0.293 HD
ENDBRANCH  16  19
BRANCH  18  21
ATOM     21  O   UNL     1      45.405  59.011   4.301  1.00  0.00    -0.504 OA
ATOM     22  H   UNL     1      45.297  59.138   5.301  1.00  0.00     0.293 HD
ENDBRANCH  18  21
ENDBRANCH   3  13
BRANCH  10  23
ATOM     23  O   UNL     1      53.134  64.637   5.433  1.00  0.00    -0.507 OA
ATOM     24  H   UNL     1      52.934  64.172   6.313  1.00  0.00     0.293 HD
ENDBRANCH  10  23
BRANCH  11  25
ATOM     25  O   UNL     1      51.360  66.562   1.361  1.00  0.00    -0.508 OA
ATOM     26  H   UNL     1      52.206  66.907   0.923  1.00  0.00     0.293 HD
ENDBRANCH  11  25
ENDBRANCH   1   2
BRANCH   1  27
ATOM     27  C   UNL     1      51.013  58.939   5.531  1.00  0.00     0.339 C 
ATOM     28  C   UNL     1      50.295  57.811   6.311  1.00  0.00     0.214 C 
ATOM     29  O   UNL     1      52.402  58.984   5.820  1.00  0.00    -0.332 OA
ATOM     30  C   UNL     1      50.596  57.859   7.820  1.00  0.00     0.180 C 
ATOM     31  C   UNL     1      52.657  59.235   7.193  1.00  0.00     0.179 C 
ATOM     32  C   UNL     1      52.104  58.077   8.069  1.00  0.00     0.177 C 
BRANCH  28  33
ATOM     33  O   UNL     1      48.907  57.867   6.100  1.00  0.00    -0.384 OA
ATOM     34  H   UNL     1      48.477  57.596   6.953  1.00  0.00     0.211 HD
ENDBRANCH  28  33
BRANCH  30  35
ATOM     35  O   UNL     1      49.796  58.812   8.479  1.00  0.00    -0.387 OA
ATOM     36  H   UNL     1      49.419  58.395   9.293  1.00  0.00     0.211 HD
ENDBRANCH  30  35
BRANCH  31  37
ATOM     37  C   UNL     1      54.174  59.393   7.365  1.00  0.00     0.191 C 
BRANCH  37  38
ATOM     38  O   UNL     1      54.586  60.668   6.952  1.00  0.00    -0.394 OA
ATOM     39  H   UNL     1      55.534  60.577   6.679  1.00  0.00     0.210 HD
ENDBRANCH  37  38
ENDBRANCH  31  37
BRANCH  32  40
ATOM     40  O   UNL     1      52.354  58.274   9.440  1.00  0.00    -0.387 OA
ATOM     41  H   UNL     1      52.582  57.393   9.837  1.00  0.00     0.211 HD
ENDBRANCH  32  40
ENDBRANCH   1  27
TORSDOF 12
ENDMDL
MODEL 6
REMARK VINA RESULT:    -8.357      1.836      4.842
REMARK INTER + INTRA:         -13.502
REMARK INTER:                 -11.518
REMARK INTRA:                  -1.984
REMARK UNBOUND:                -1.237
REMARK SMILES O=c1c(O[C@H]2O[C@H](CO)[C@@H](O)[C@@H](O)[C@H]2O)c(-c2ccc(O)c(O)c2)oc2cc(O)cc(O)c12
REMARK SMILES IDX 4 1 3 2 16 3 25 4 2 5 26 6 1 7 33 8 27 9 31 10 28 11 30 12
REMARK SMILES IDX 17 13 18 14 19 15 20 16 24 17 22 18 21 19 23 21 32 23 29 25
REMARK SMILES IDX 5 27 14 28 6 29 12 30 7 31 10 32 15 33 13 35 8 37 9 38 11 40
REMARK H PARENT 21 20 23 22 32 24 29 26 15 34 13 36 9 39 11 41
REMARK Flexibility Score: inf
ROOT
ATOM      1  O   UNL     1      52.252  62.185   2.172  1.00  0.00    -0.454 OA
ENDROOT
BRANCH   1   2
ATOM      2  C   UNL     1      52.420  61.300   3.250  1.00  0.00     0.214 A 
ATOM      3  C   UNL     1      52.532  59.918   3.017  1.00  0.00     0.180 A 
ATOM      4  O   UNL     1      52.762  59.087   4.027  1.00  0.00    -0.452 OA
ATOM      5  C   UNL     1      52.477  61.766   4.574  1.00  0.00     0.239 A 
ATOM      6  C   UNL     1      52.858  59.488   5.291  1.00  0.00     0.146 A 
ATOM      7  O   UNL     1      52.290  62.990   4.811  1.00  0.00    -0.285 OA
ATOM      8  C   UNL     1      52.715  60.855   5.624  1.00  0.00     0.111 A 
ATOM      9  C   UNL     1      53.094  58.540   6.290  1.00  0.00     0.094 A 
ATOM     10  C   UNL     1      52.810  61.248   6.981  1.00  0.00     0.134 A 
ATOM     11  C   UNL     1      53.187  58.932   7.627  1.00  0.00     0.123 A 
ATOM     12  C   UNL     1      53.045  60.281   7.969  1.00  0.00     0.093 A 
BRANCH   3  13
ATOM     13  C   UNL     1      52.430  59.359   1.657  1.00  0.00     0.025 A 
ATOM     14  C   UNL     1      51.189  59.270   1.007  1.00  0.00     0.016 A 
ATOM     15  C   UNL     1      51.113  58.791  -0.304  1.00  0.00     0.051 A 
ATOM     16  C   UNL     1      52.274  58.376  -0.971  1.00  0.00     0.157 A 
ATOM     17  C   UNL     1      53.585  58.911   0.999  1.00  0.00     0.062 A 
ATOM     18  C   UNL     1      53.512  58.429  -0.315  1.00  0.00     0.158 A 
BRANCH  16  19
ATOM     19  O   UNL     1      52.205  57.905  -2.282  1.00  0.00    -0.504 OA
ATOM     20  H   UNL     1      53.007  57.947  -2.902  1.00  0.00     0.293 HD
ENDBRANCH  16  19
BRANCH  18  21
ATOM     21  O   UNL     1      54.665  58.019  -0.981  1.00  0.00    -0.504 OA
ATOM     22  H   UNL     1      55.207  58.663  -1.547  1.00  0.00     0.293 HD
ENDBRANCH  18  21
ENDBRANCH   3  13
BRANCH  10  23
ATOM     23  O   UNL     1      52.679  62.587   7.353  1.00  0.00    -0.507 OA
ATOM     24  H   UNL     1      53.361  63.048   7.946  1.00  0.00     0.293 HD
ENDBRANCH  10  23
BRANCH  11  25
ATOM     25  O   UNL     1      53.421  57.971   8.608  1.00  0.00    -0.508 OA
ATOM     26  H   UNL     1      52.823  57.159   8.712  1.00  0.00     0.293 HD
ENDBRANCH  11  25
ENDBRANCH   1   2
BRANCH   1  27
ATOM     27  C   UNL     1      53.327  62.957   1.624  1.00  0.00     0.339 C 
ATOM     28  C   UNL     1      52.961  64.456   1.521  1.00  0.00     0.214 C 
ATOM     29  O   UNL     1      53.759  62.428   0.379  1.00  0.00    -0.332 OA
ATOM     30  C   UNL     1      51.977  64.741   0.372  1.00  0.00     0.180 C 
ATOM     31  C   UNL     1      52.754  62.516  -0.618  1.00  0.00     0.179 C 
ATOM     32  C   UNL     1      52.410  64.003  -0.913  1.00  0.00     0.177 C 
BRANCH  28  33
ATOM     33  O   UNL     1      52.424  64.921   2.734  1.00  0.00    -0.384 OA
ATOM     34  H   UNL     1      53.013  64.579   3.457  1.00  0.00     0.211 HD
ENDBRANCH  28  33
BRANCH  30  35
ATOM     35  O   UNL     1      50.649  64.451   0.740  1.00  0.00    -0.387 OA
ATOM     36  H   UNL     1      50.042  64.959   0.147  1.00  0.00     0.211 HD
ENDBRANCH  30  35
BRANCH  31  37
ATOM     37  C   UNL     1      53.277  61.803  -1.872  1.00  0.00     0.191 C 
BRANCH  37  38
ATOM     38  O   UNL     1      54.060  62.674  -2.643  1.00  0.00    -0.394 OA
ATOM     39  H   UNL     1      54.989  62.333  -2.587  1.00  0.00     0.210 HD
ENDBRANCH  37  38
ENDBRANCH  31  37
BRANCH  32  40
ATOM     40  O   UNL     1      51.430  64.139  -1.915  1.00  0.00    -0.387 OA
ATOM     41  H   UNL     1      51.866  63.971  -2.791  1.00  0.00     0.211 HD
ENDBRANCH  32  40
ENDBRANCH   1  27
TORSDOF 12
ENDMDL
MODEL 7
REMARK VINA RESULT:    -8.347      2.610      7.004
REMARK INTER + INTRA:         -13.488
REMARK INTER:                 -11.528
REMARK INTRA:                  -1.960
REMARK UNBOUND:                -1.237
REMARK SMILES O=c1c(O[C@H]2O[C@H](CO)[C@@H](O)[C@@H](O)[C@H]2O)c(-c2ccc(O)c(O)c2)oc2cc(O)cc(O)c12
REMARK SMILES IDX 4 1 3 2 16 3 25 4 2 5 26 6 1 7 33 8 27 9 31 10 28 11 30 12
REMARK SMILES IDX 17 13 18 14 19 15 20 16 24 17 22 18 21 19 23 21 32 23 29 25
REMARK SMILES IDX 5 27 14 28 6 29 12 30 7 31 10 32 15 33 13 35 8 37 9 38 11 40
REMARK H PARENT 21 20 23 22 32 24 29 26 15 34 13 36 9 39 11 41
REMARK Flexibility Score: inf
ROOT
ATOM      1  O   UNL     1      50.050  61.352   2.690  1.00  0.00    -0.454 OA
ENDROOT
BRANCH   1   2
ATOM      2  C   UNL     1      51.096  60.686   2.031  1.00  0.00     0.214 A 
ATOM      3  C   UNL     1      52.044  59.956   2.769  1.00  0.00     0.180 A 
ATOM      4  O   UNL     1      52.993  59.268   2.143  1.00  0.00    -0.452 OA
ATOM      5  C   UNL     1      51.225  60.736   0.633  1.00  0.00     0.239 A 
ATOM      6  C   UNL     1      53.130  59.258   0.821  1.00  0.00     0.146 A 
ATOM      7  O   UNL     1      50.439  61.456  -0.039  1.00  0.00    -0.285 OA
ATOM      8  C   UNL     1      52.248  60.000   0.000  1.00  0.00     0.111 A 
ATOM      9  C   UNL     1      54.164  58.511   0.250  1.00  0.00     0.094 A 
ATOM     10  C   UNL     1      52.430  59.977  -1.404  1.00  0.00     0.134 A 
ATOM     11  C   UNL     1      54.339  58.492  -1.136  1.00  0.00     0.123 A 
ATOM     12  C   UNL     1      53.474  59.223  -1.957  1.00  0.00     0.093 A 
BRANCH   3  13
ATOM     13  C   UNL     1      51.996  59.906   4.241  1.00  0.00     0.025 A 
ATOM     14  C   UNL     1      51.424  58.809   4.906  1.00  0.00     0.016 A 
ATOM     15  C   UNL     1      51.435  58.747   6.301  1.00  0.00     0.051 A 
ATOM     16  C   UNL     1      51.999  59.790   7.049  1.00  0.00     0.157 A 
ATOM     17  C   UNL     1      52.528  60.964   4.992  1.00  0.00     0.062 A 
ATOM     18  C   UNL     1      52.540  60.904   6.393  1.00  0.00     0.158 A 
BRANCH  16  19
ATOM     19  O   UNL     1      52.021  59.729   8.442  1.00  0.00    -0.504 OA
ATOM     20  H   UNL     1      51.776  58.879   8.939  1.00  0.00     0.293 HD
ENDBRANCH  16  19
BRANCH  18  21
ATOM     21  O   UNL     1      53.103  61.939   7.137  1.00  0.00    -0.504 OA
ATOM     22  H   UNL     1      53.306  61.831   8.125  1.00  0.00     0.293 HD
ENDBRANCH  18  21
ENDBRANCH   3  13
BRANCH  10  23
ATOM     23  O   UNL     1      51.580  60.691  -2.250  1.00  0.00    -0.507 OA
ATOM     24  H   UNL     1      50.648  60.971  -1.962  1.00  0.00     0.293 HD
ENDBRANCH  10  23
BRANCH  11  25
ATOM     25  O   UNL     1      55.377  57.742  -1.684  1.00  0.00    -0.508 OA
ATOM     26  H   UNL     1      56.204  58.180  -2.072  1.00  0.00     0.293 HD
ENDBRANCH  11  25
ENDBRANCH   1   2
BRANCH   1  27
ATOM     27  C   UNL     1      48.685  60.922   2.616  1.00  0.00     0.339 C 
ATOM     28  C   UNL     1      47.726  62.106   2.350  1.00  0.00     0.214 C 
ATOM     29  O   UNL     1      48.314  60.185   3.772  1.00  0.00    -0.332 OA
ATOM     30  C   UNL     1      47.531  62.993   3.592  1.00  0.00     0.180 C 
ATOM     31  C   UNL     1      48.341  60.981   4.946  1.00  0.00     0.179 C 
ATOM     32  C   UNL     1      47.296  62.128   4.849  1.00  0.00     0.177 C 
BRANCH  28  33
ATOM     33  O   UNL     1      48.186  62.886   1.275  1.00  0.00    -0.384 OA
ATOM     34  H   UNL     1      48.325  62.266   0.511  1.00  0.00     0.211 HD
ENDBRANCH  28  33
BRANCH  30  35
ATOM     35  O   UNL     1      48.594  63.902   3.754  1.00  0.00    -0.387 OA
ATOM     36  H   UNL     1      49.405  63.393   4.005  1.00  0.00     0.211 HD
ENDBRANCH  30  35
BRANCH  31  37
ATOM     37  C   UNL     1      48.053  60.060   6.140  1.00  0.00     0.191 C 
BRANCH  37  38
ATOM     38  O   UNL     1      48.605  60.592   7.314  1.00  0.00    -0.394 OA
ATOM     39  H   UNL     1      48.942  59.818   7.835  1.00  0.00     0.210 HD
ENDBRANCH  37  38
ENDBRANCH  31  37
BRANCH  32  40
ATOM     40  O   UNL     1      47.272  62.932   6.005  1.00  0.00    -0.387 OA
ATOM     41  H   UNL     1      46.638  63.678   5.842  1.00  0.00     0.211 HD
ENDBRANCH  32  40
ENDBRANCH   1  27
TORSDOF 12
ENDMDL
MODEL 8
REMARK VINA RESULT:    -8.255      1.083      2.342
REMARK INTER + INTRA:         -13.353
REMARK INTER:                 -11.281
REMARK INTRA:                  -2.072
REMARK UNBOUND:                -1.237
REMARK SMILES O=c1c(O[C@H]2O[C@H](CO)[C@@H](O)[C@@H](O)[C@H]2O)c(-c2ccc(O)c(O)c2)oc2cc(O)cc(O)c12
REMARK SMILES IDX 4 1 3 2 16 3 25 4 2 5 26 6 1 7 33 8 27 9 31 10 28 11 30 12
REMARK SMILES IDX 17 13 18 14 19 15 20 16 24 17 22 18 21 19 23 21 32 23 29 25
REMARK SMILES IDX 5 27 14 28 6 29 12 30 7 31 10 32 15 33 13 35 8 37 9 38 11 40
REMARK H PARENT 21 20 23 22 32 24 29 26 15 34 13 36 9 39 11 41
REMARK Flexibility Score: inf
ROOT
ATOM      1  O   UNL     1      52.529  61.059   2.369  1.00  0.00    -0.454 OA
ENDROOT
BRANCH   1   2
ATOM      2  C   UNL     1      52.627  61.106   3.769  1.00  0.00     0.214 A 
ATOM      3  C   UNL     1      52.382  62.310   4.453  1.00  0.00     0.180 A 
ATOM      4  O   UNL     1      52.404  62.342   5.781  1.00  0.00    -0.452 OA
ATOM      5  C   UNL     1      52.971  59.968   4.515  1.00  0.00     0.239 A 
ATOM      6  C   UNL     1      52.691  61.280   6.527  1.00  0.00     0.146 A 
ATOM      7  O   UNL     1      53.281  58.902   3.917  1.00  0.00    -0.285 OA
ATOM      8  C   UNL     1      52.994  60.037   5.924  1.00  0.00     0.111 A 
ATOM      9  C   UNL     1      52.699  61.409   7.919  1.00  0.00     0.094 A 
ATOM     10  C   UNL     1      53.307  58.929   6.748  1.00  0.00     0.134 A 
ATOM     11  C   UNL     1      53.009  60.313   8.728  1.00  0.00     0.123 A 
ATOM     12  C   UNL     1      53.311  59.079   8.142  1.00  0.00     0.093 A 
BRANCH   3  13
ATOM     13  C   UNL     1      52.065  63.554   3.726  1.00  0.00     0.025 A 
ATOM     14  C   UNL     1      53.084  64.329   3.149  1.00  0.00     0.016 A 
ATOM     15  C   UNL     1      52.767  65.474   2.415  1.00  0.00     0.051 A 
ATOM     16  C   UNL     1      51.430  65.870   2.267  1.00  0.00     0.157 A 
ATOM     17  C   UNL     1      50.732  63.970   3.606  1.00  0.00     0.062 A 
ATOM     18  C   UNL     1      50.411  65.120   2.870  1.00  0.00     0.158 A 
BRANCH  16  19
ATOM     19  O   UNL     1      51.107  67.007   1.528  1.00  0.00    -0.504 OA
ATOM     20  H   UNL     1      51.609  67.248   0.680  1.00  0.00     0.293 HD
ENDBRANCH  16  19
BRANCH  18  21
ATOM     21  O   UNL     1      49.082  65.512   2.721  1.00  0.00    -0.504 OA
ATOM     22  H   UNL     1      48.729  66.360   3.150  1.00  0.00     0.293 HD
ENDBRANCH  18  21
ENDBRANCH   3  13
BRANCH  10  23
ATOM     23  O   UNL     1      53.607  57.683   6.194  1.00  0.00    -0.507 OA
ATOM     24  H   UNL     1      54.337  57.090   6.574  1.00  0.00     0.293 HD
ENDBRANCH  10  23
BRANCH  11  25
ATOM     25  O   UNL     1      53.012  60.463  10.112  1.00  0.00    -0.508 OA
ATOM     26  H   UNL     1      53.377  59.745  10.725  1.00  0.00     0.293 HD
ENDBRANCH  11  25
ENDBRANCH   1   2
BRANCH   1  27
ATOM     27  C   UNL     1      51.370  60.565   1.686  1.00  0.00     0.339 C 
ATOM     28  C   UNL     1      51.740  59.496   0.630  1.00  0.00     0.214 C 
ATOM     29  O   UNL     1      50.611  61.626   1.127  1.00  0.00    -0.332 OA
ATOM     30  C   UNL     1      52.394  60.111  -0.620  1.00  0.00     0.180 C 
ATOM     31  C   UNL     1      51.320  62.313   0.108  1.00  0.00     0.179 C 
ATOM     32  C   UNL     1      51.617  61.361  -1.084  1.00  0.00     0.177 C 
BRANCH  28  33
ATOM     33  O   UNL     1      52.590  58.524   1.184  1.00  0.00    -0.384 OA
ATOM     34  H   UNL     1      52.632  58.703   2.160  1.00  0.00     0.211 HD
ENDBRANCH  28  33
BRANCH  30  35
ATOM     35  O   UNL     1      53.763  60.370  -0.416  1.00  0.00    -0.387 OA
ATOM     36  H   UNL     1      53.847  61.145   0.194  1.00  0.00     0.211 HD
ENDBRANCH  30  35
BRANCH  31  37
ATOM     37  C   UNL     1      50.464  63.510  -0.330  1.00  0.00     0.191 C 
BRANCH  37  38
ATOM     38  O   UNL     1      51.238  64.429  -1.053  1.00  0.00    -0.394 OA
ATOM     39  H   UNL     1      51.237  65.267  -0.525  1.00  0.00     0.210 HD
ENDBRANCH  37  38
ENDBRANCH  31  37
BRANCH  32  40
ATOM     40  O   UNL     1      52.302  62.008  -2.130  1.00  0.00    -0.387 OA
ATOM     41  H   UNL     1      52.112  61.513  -2.970  1.00  0.00     0.211 HD
ENDBRANCH  32  40
ENDBRANCH   1  27
TORSDOF 12
ENDMDL
MODEL 9
REMARK VINA RESULT:    -8.210      1.497      2.184
REMARK INTER + INTRA:         -13.287
REMARK INTER:                 -11.790
REMARK INTRA:                  -1.497
REMARK UNBOUND:                -1.237
REMARK SMILES O=c1c(O[C@H]2O[C@H](CO)[C@@H](O)[C@@H](O)[C@H]2O)c(-c2ccc(O)c(O)c2)oc2cc(O)cc(O)c12
REMARK SMILES IDX 4 1 3 2 16 3 25 4 2 5 26 6 1 7 33 8 27 9 31 10 28 11 30 12
REMARK SMILES IDX 17 13 18 14 19 15 20 16 24 17 22 18 21 19 23 21 32 23 29 25
REMARK SMILES IDX 5 27 14 28 6 29 12 30 7 31 10 32 15 33 13 35 8 37 9 38 11 40
REMARK H PARENT 21 20 23 22 32 24 29 26 15 34 13 36 9 39 11 41
REMARK Flexibility Score: inf
ROOT
ATOM      1  O   UNL     1      51.142  60.410   2.317  1.00  0.00    -0.454 OA
ENDROOT
BRANCH   1   2
ATOM      2  C   UNL     1      51.625  60.686   3.607  1.00  0.00     0.214 A 
ATOM      3  C   UNL     1      51.145  61.802   4.315  1.00  0.00     0.180 A 
ATOM      4  O   UNL     1      51.547  62.026   5.561  1.00  0.00    -0.452 OA
ATOM      5  C   UNL     1      52.591  59.868   4.215  1.00  0.00     0.239 A 
ATOM      6  C   UNL     1      52.432  61.258   6.188  1.00  0.00     0.146 A 
ATOM      7  O   UNL     1      53.098  58.916   3.563  1.00  0.00    -0.285 OA
ATOM      8  C   UNL     1      53.002  60.138   5.537  1.00  0.00     0.111 A 
ATOM      9  C   UNL     1      52.803  61.575   7.497  1.00  0.00     0.094 A 
ATOM     10  C   UNL     1      53.951  59.348   6.228  1.00  0.00     0.134 A 
ATOM     11  C   UNL     1      53.740  60.793   8.175  1.00  0.00     0.123 A 
ATOM     12  C   UNL     1      54.311  59.684   7.541  1.00  0.00     0.093 A 
BRANCH   3  13
ATOM     13  C   UNL     1      50.168  62.729   3.715  1.00  0.00     0.025 A 
ATOM     14  C   UNL     1      48.789  62.485   3.815  1.00  0.00     0.016 A 
ATOM     15  C   UNL     1      47.872  63.401   3.292  1.00  0.00     0.051 A 
ATOM     16  C   UNL     1      48.324  64.559   2.643  1.00  0.00     0.157 A 
ATOM     17  C   UNL     1      50.618  63.871   3.036  1.00  0.00     0.062 A 
ATOM     18  C   UNL     1      49.700  64.791   2.509  1.00  0.00     0.158 A 
BRANCH  16  19
ATOM     19  O   UNL     1      47.414  65.480   2.127  1.00  0.00    -0.504 OA
ATOM     20  H   UNL     1      47.197  65.512   1.136  1.00  0.00     0.293 HD
ENDBRANCH  16  19
BRANCH  18  21
ATOM     21  O   UNL     1      50.148  65.944   1.867  1.00  0.00    -0.504 OA
ATOM     22  H   UNL     1      51.131  66.187   1.842  1.00  0.00     0.293 HD
ENDBRANCH  18  21
ENDBRANCH   3  13
BRANCH  10  23
ATOM     23  O   UNL     1      54.534  58.233   5.624  1.00  0.00    -0.507 OA
ATOM     24  H   UNL     1      55.440  58.281   5.170  1.00  0.00     0.293 HD
ENDBRANCH  10  23
BRANCH  11  25
ATOM     25  O   UNL     1      54.096  61.127   9.479  1.00  0.00    -0.508 OA
ATOM     26  H   UNL     1      55.016  61.485   9.706  1.00  0.00     0.293 HD
ENDBRANCH  11  25
ENDBRANCH   1   2
BRANCH   1  27
ATOM     27  C   UNL     1      51.682  61.018   1.138  1.00  0.00     0.339 C 
ATOM     28  C   UNL     1      50.652  61.044  -0.016  1.00  0.00     0.214 C 
ATOM     29  O   UNL     1      52.900  60.400   0.750  1.00  0.00    -0.332 OA
ATOM     30  C   UNL     1      50.447  59.655  -0.650  1.00  0.00     0.180 C 
ATOM     31  C   UNL     1      52.714  59.048   0.363  1.00  0.00     0.179 C 
ATOM     32  C   UNL     1      51.805  58.963  -0.895  1.00  0.00     0.177 C 
BRANCH  28  33
ATOM     33  O   UNL     1      49.419  61.550   0.429  1.00  0.00    -0.384 OA
ATOM     34  H   UNL     1      49.502  61.683   1.411  1.00  0.00     0.211 HD
ENDBRANCH  28  33
BRANCH  30  35
ATOM     35  O   UNL     1      49.565  58.862   0.109  1.00  0.00    -0.387 OA
ATOM     36  H   UNL     1      48.669  59.281   0.086  1.00  0.00     0.211 HD
ENDBRANCH  30  35
BRANCH  31  37
ATOM     37  C   UNL     1      54.101  58.446   0.093  1.00  0.00     0.191 C 
BRANCH  37  38
ATOM     38  O   UNL     1      54.872  58.443   1.265  1.00  0.00    -0.394 OA
ATOM     39  H   UNL     1      55.482  59.221   1.194  1.00  0.00     0.210 HD
ENDBRANCH  37  38
ENDBRANCH  31  37
BRANCH  32  40
ATOM     40  O   UNL     1      51.611  57.637  -1.328  1.00  0.00    -0.387 OA
ATOM     41  H   UNL     1      50.898  57.645  -2.020  1.00  0.00     0.211 HD
ENDBRANCH  32  40
ENDBRANCH   1  27
TORSDOF 12
ENDMDL
