MODEL 1
REMARK VINA RESULT:    -9.171      0.000      0.000
REMARK INTER + INTRA:         -12.299
REMARK INTER:                 -11.583
REMARK INTRA:                  -0.715
REMARK UNBOUND:                -0.715
REMARK SMILES CC(C)[C@@H](C)C=C[C@H](C)[C@@H]1CC[C@H]2C3=CC=C4C[C@@H](O)CC[C@]4(C)[C@H]3CC[C@@]21C
REMARK SMILES IDX 8 1 9 2 7 3 6 4 4 5 5 6 2 7 1 8 3 9 10 10 11 11 28 12 12 13
REMARK SMILES IDX 13 14 27 15 29 16 14 17 26 18 25 19 15 20 23 21 16 22 17 23
REMARK SMILES IDX 22 24 24 25 18 26 21 27 19 28 20 29
REMARK H PARENT 20 30
REMARK Flexibility Score: inf
ROOT
ATOM      1  C   UNL     1       5.826   4.315 -22.441  1.00  0.00     0.012 C 
ATOM      2  C   UNL     1       6.594   4.117 -21.116  1.00  0.00     0.012 C 
ENDROOT
BRANCH   1   3
ATOM      3  C   UNL     1       5.251   2.958 -22.804  1.00  0.00    -0.028 C 
ATOM      4  C   UNL     1       5.893   1.810 -22.527  1.00  0.00    -0.028 C 
BRANCH   4   5
ATOM      5  C   UNL     1       5.368   0.430 -22.894  1.00  0.00     0.011 C 
ATOM      6  C   UNL     1       3.981   0.454 -23.567  1.00  0.00     0.012 C 
BRANCH   5   7
ATOM      7  C   UNL     1       5.476  -0.557 -21.690  1.00  0.00    -0.011 C 
ATOM      8  C   UNL     1       4.405  -0.325 -20.608  1.00  0.00     0.008 C 
ATOM      9  C   UNL     1       5.470  -2.027 -22.136  1.00  0.00     0.008 C 
ENDBRANCH   5   7
ENDBRANCH   4   5
ENDBRANCH   1   3
BRANCH   1  10
ATOM     10  C   UNL     1       4.671   5.377 -22.332  1.00  0.00     0.002 C 
ATOM     11  C   UNL     1       3.549   5.143 -23.397  1.00  0.00     0.005 C 
ATOM     12  C   UNL     1       5.039   6.886 -22.543  1.00  0.00    -0.023 C 
ATOM     13  C   UNL     1       3.536   6.348 -24.345  1.00  0.00     0.009 C 
ATOM     14  C   UNL     1       4.838   7.063 -24.048  1.00  0.00     0.021 C 
ATOM     15  C   UNL     1       6.480   7.350 -22.222  1.00  0.00     0.008 C 
ATOM     16  C   UNL     1       4.027   7.735 -21.704  1.00  0.00     0.012 C 
ATOM     17  C   UNL     1       5.007   8.500 -24.495  1.00  0.00    -0.063 C 
ATOM     18  C   UNL     1       6.671   8.854 -22.525  1.00  0.00     0.009 C 
ATOM     19  C   UNL     1       6.206   9.286 -23.954  1.00  0.00     0.025 C 
ATOM     20  C   UNL     1       4.398   8.953 -25.607  1.00  0.00    -0.000 C 
ATOM     21  C   UNL     1       5.960  10.834 -24.111  1.00  0.00    -0.005 C 
ATOM     22  C   UNL     1       4.801  10.235 -26.224  1.00  0.00    -0.000 C 
ATOM     23  C   UNL     1       5.593  11.103 -25.568  1.00  0.00    -0.061 C 
ATOM     24  C   UNL     1       7.248  11.627 -23.754  1.00  0.00     0.014 C 
ATOM     25  C   UNL     1       4.775  11.314 -23.225  1.00  0.00     0.017 C 
ATOM     26  C   UNL     1       6.247  12.237 -26.323  1.00  0.00     0.063 C 
ATOM     27  C   UNL     1       7.158  13.132 -24.080  1.00  0.00     0.033 C 
ATOM     28  C   UNL     1       6.470  13.468 -25.429  1.00  0.00     0.118 C 
BRANCH  28  29
ATOM     29  O   UNL     1       5.237  14.100 -25.182  1.00  0.00    -0.393 OA
ATOM     30  H   UNL     1       5.411  14.823 -24.522  1.00  0.00     0.210 HD
ENDBRANCH  28  29
ENDBRANCH   1  10
TORSDOF 5
ENDMDL
MODEL 2
REMARK VINA RESULT:    -8.861      3.419      6.739
REMARK INTER + INTRA:         -11.908
REMARK INTER:                 -10.563
REMARK INTRA:                  -1.345
REMARK UNBOUND:                -0.715
REMARK SMILES CC(C)[C@@H](C)C=C[C@H](C)[C@@H]1CC[C@H]2C3=CC=C4C[C@@H](O)CC[C@]4(C)[C@H]3CC[C@@]21C
REMARK SMILES IDX 8 1 9 2 7 3 6 4 4 5 5 6 2 7 1 8 3 9 10 10 11 11 28 12 12 13
REMARK SMILES IDX 13 14 27 15 29 16 14 17 26 18 25 19 15 20 23 21 16 22 17 23
REMARK SMILES IDX 22 24 24 25 18 26 21 27 19 28 20 29
REMARK H PARENT 20 30
REMARK Flexibility Score: inf
ROOT
ATOM      1  C   UNL     1       1.946  -1.486 -25.555  1.00  0.00     0.012 C 
ATOM      2  C   UNL     1       0.975  -1.975 -26.652  1.00  0.00     0.012 C 
ENDROOT
BRANCH   1   3
ATOM      3  C   UNL     1       2.489  -2.734 -24.882  1.00  0.00    -0.028 C 
ATOM      4  C   UNL     1       2.464  -2.897 -23.548  1.00  0.00    -0.028 C 
BRANCH   4   5
ATOM      5  C   UNL     1       3.018  -4.117 -22.828  1.00  0.00     0.011 C 
ATOM      6  C   UNL     1       2.100  -4.644 -21.706  1.00  0.00     0.012 C 
BRANCH   5   7
ATOM      7  C   UNL     1       4.498  -3.892 -22.388  1.00  0.00    -0.011 C 
ATOM      8  C   UNL     1       5.523  -4.221 -23.489  1.00  0.00     0.008 C 
ATOM      9  C   UNL     1       4.737  -2.475 -21.845  1.00  0.00     0.008 C 
ENDBRANCH   5   7
ENDBRANCH   4   5
ENDBRANCH   1   3
BRANCH   1  10
ATOM     10  C   UNL     1       3.133  -0.622 -26.122  1.00  0.00     0.002 C 
ATOM     11  C   UNL     1       4.518  -1.068 -25.547  1.00  0.00     0.005 C 
ATOM     12  C   UNL     1       3.119   0.919 -25.837  1.00  0.00    -0.023 C 
ATOM     13  C   UNL     1       5.079   0.089 -24.711  1.00  0.00     0.009 C 
ATOM     14  C   UNL     1       3.895   1.014 -24.523  1.00  0.00     0.021 C 
ATOM     15  C   UNL     1       1.759   1.620 -25.611  1.00  0.00     0.008 C 
ATOM     16  C   UNL     1       3.867   1.619 -27.020  1.00  0.00     0.012 C 
ATOM     17  C   UNL     1       4.140   2.444 -24.091  1.00  0.00    -0.063 C 
ATOM     18  C   UNL     1       1.941   3.125 -25.307  1.00  0.00     0.009 C 
ATOM     19  C   UNL     1       2.970   3.431 -24.170  1.00  0.00     0.025 C 
ATOM     20  C   UNL     1       5.185   2.757 -23.303  1.00  0.00    -0.000 C 
ATOM     21  C   UNL     1       3.504   4.913 -24.166  1.00  0.00    -0.005 C 
ATOM     22  C   UNL     1       5.256   4.068 -22.621  1.00  0.00    -0.000 C 
ATOM     23  C   UNL     1       4.427   5.074 -22.961  1.00  0.00    -0.061 C 
ATOM     24  C   UNL     1       2.323   5.915 -24.040  1.00  0.00     0.014 C 
ATOM     25  C   UNL     1       4.333   5.222 -25.445  1.00  0.00     0.017 C 
ATOM     26  C   UNL     1       4.296   6.273 -22.053  1.00  0.00     0.063 C 
ATOM     27  C   UNL     1       2.770   7.374 -23.820  1.00  0.00     0.033 C 
ATOM     28  C   UNL     1       3.958   7.552 -22.838  1.00  0.00     0.118 C 
BRANCH  28  29
ATOM     29  O   UNL     1       5.094   7.984 -23.547  1.00  0.00    -0.393 OA
ATOM     30  H   UNL     1       5.190   7.380 -24.331  1.00  0.00     0.210 HD
ENDBRANCH  28  29
ENDBRANCH   1  10
TORSDOF 5
ENDMDL
MODEL 3
REMARK VINA RESULT:    -8.461      3.877     10.164
REMARK INTER + INTRA:         -11.402
REMARK INTER:                 -10.421
REMARK INTRA:                  -0.981
REMARK UNBOUND:                -0.715
REMARK SMILES CC(C)[C@@H](C)C=C[C@H](C)[C@@H]1CC[C@H]2C3=CC=C4C[C@@H](O)CC[C@]4(C)[C@H]3CC[C@@]21C
REMARK SMILES IDX 8 1 9 2 7 3 6 4 4 5 5 6 2 7 1 8 3 9 10 10 11 11 28 12 12 13
REMARK SMILES IDX 13 14 27 15 29 16 14 17 26 18 25 19 15 20 23 21 16 22 17 23
REMARK SMILES IDX 22 24 24 25 18 26 21 27 19 28 20 29
REMARK H PARENT 20 30
REMARK Flexibility Score: inf
ROOT
ATOM      1  C   UNL     1       4.479   5.796 -24.414  1.00  0.00     0.012 C 
ATOM      2  C   UNL     1       4.015   6.538 -25.686  1.00  0.00     0.012 C 
ENDROOT
BRANCH   1   3
ATOM      3  C   UNL     1       4.855   6.870 -23.410  1.00  0.00    -0.028 C 
ATOM      4  C   UNL     1       4.695   8.180 -23.669  1.00  0.00    -0.028 C 
BRANCH   4   5
ATOM      5  C   UNL     1       5.081   9.292 -22.705  1.00  0.00     0.011 C 
ATOM      6  C   UNL     1       4.018  10.403 -22.585  1.00  0.00     0.012 C 
BRANCH   5   7
ATOM      7  C   UNL     1       6.523   9.817 -22.993  1.00  0.00    -0.011 C 
ATOM      8  C   UNL     1       7.626   8.992 -22.305  1.00  0.00     0.008 C 
ATOM      9  C   UNL     1       6.811   9.939 -24.498  1.00  0.00     0.008 C 
ENDBRANCH   5   7
ENDBRANCH   4   5
ENDBRANCH   1   3
BRANCH   1  10
ATOM     10  C   UNL     1       3.370   4.858 -23.808  1.00  0.00     0.002 C 
ATOM     11  C   UNL     1       3.267   4.992 -22.252  1.00  0.00     0.005 C 
ATOM     12  C   UNL     1       3.525   3.312 -24.013  1.00  0.00    -0.023 C 
ATOM     13  C   UNL     1       3.668   3.648 -21.633  1.00  0.00     0.009 C 
ATOM     14  C   UNL     1       4.320   2.897 -22.775  1.00  0.00     0.021 C 
ATOM     15  C   UNL     1       4.308   2.801 -25.245  1.00  0.00     0.008 C 
ATOM     16  C   UNL     1       2.086   2.697 -24.027  1.00  0.00     0.012 C 
ATOM     17  C   UNL     1       4.492   1.397 -22.667  1.00  0.00    -0.063 C 
ATOM     18  C   UNL     1       4.391   1.257 -25.264  1.00  0.00     0.009 C 
ATOM     19  C   UNL     1       4.898   0.626 -23.927  1.00  0.00     0.025 C 
ATOM     20  C   UNL     1       4.684   0.809 -21.470  1.00  0.00    -0.000 C 
ATOM     21  C   UNL     1       4.555  -0.904 -23.766  1.00  0.00    -0.005 C 
ATOM     22  C   UNL     1       5.165  -0.586 -21.379  1.00  0.00    -0.000 C 
ATOM     23  C   UNL     1       5.181  -1.388 -22.461  1.00  0.00    -0.061 C 
ATOM     24  C   UNL     1       5.146  -1.719 -24.949  1.00  0.00     0.014 C 
ATOM     25  C   UNL     1       3.020  -1.135 -23.671  1.00  0.00     0.017 C 
ATOM     26  C   UNL     1       5.964  -2.679 -22.423  1.00  0.00     0.063 C 
ATOM     27  C   UNL     1       5.035  -3.247 -24.763  1.00  0.00     0.033 C 
ATOM     28  C   UNL     1       5.341  -3.755 -23.330  1.00  0.00     0.118 C 
BRANCH  28  29
ATOM     29  O   UNL     1       4.159  -4.240 -22.741  1.00  0.00    -0.393 OA
ATOM     30  H   UNL     1       4.174  -3.956 -21.788  1.00  0.00     0.210 HD
ENDBRANCH  28  29
ENDBRANCH   1  10
TORSDOF 5
ENDMDL
MODEL 4
REMARK VINA RESULT:    -8.409      1.522      2.415
REMARK INTER + INTRA:         -11.337
REMARK INTER:                 -10.355
REMARK INTRA:                  -0.982
REMARK UNBOUND:                -0.715
REMARK SMILES CC(C)[C@@H](C)C=C[C@H](C)[C@@H]1CC[C@H]2C3=CC=C4C[C@@H](O)CC[C@]4(C)[C@H]3CC[C@@]21C
REMARK SMILES IDX 8 1 9 2 7 3 6 4 4 5 5 6 2 7 1 8 3 9 10 10 11 11 28 12 12 13
REMARK SMILES IDX 13 14 27 15 29 16 14 17 26 18 25 19 15 20 23 21 16 22 17 23
REMARK SMILES IDX 22 24 24 25 18 26 21 27 19 28 20 29
REMARK H PARENT 20 30
REMARK Flexibility Score: inf
ROOT
ATOM      1  C   UNL     1       5.112   2.139 -22.851  1.00  0.00     0.012 C 
ATOM      2  C   UNL     1       5.737   1.413 -21.640  1.00  0.00     0.012 C 
ENDROOT
BRANCH   1   3
ATOM      3  C   UNL     1       4.481   1.060 -23.713  1.00  0.00    -0.028 C 
ATOM      4  C   UNL     1       4.275  -0.189 -23.260  1.00  0.00    -0.028 C 
BRANCH   4   5
ATOM      5  C   UNL     1       3.671  -1.309 -24.094  1.00  0.00     0.011 C 
ATOM      6  C   UNL     1       2.693  -0.814 -25.179  1.00  0.00     0.012 C 
BRANCH   5   7
ATOM      7  C   UNL     1       3.099  -2.444 -23.189  1.00  0.00    -0.011 C 
ATOM      8  C   UNL     1       3.402  -2.249 -21.692  1.00  0.00     0.008 C 
ATOM      9  C   UNL     1       1.592  -2.659 -23.403  1.00  0.00     0.008 C 
ENDBRANCH   5   7
ENDBRANCH   4   5
ENDBRANCH   1   3
BRANCH   1  10
ATOM     10  C   UNL     1       4.026   3.202 -22.441  1.00  0.00     0.002 C 
ATOM     11  C   UNL     1       2.800   3.202 -23.413  1.00  0.00     0.005 C 
ATOM     12  C   UNL     1       4.449   4.710 -22.416  1.00  0.00    -0.023 C 
ATOM     13  C   UNL     1       2.762   4.559 -24.126  1.00  0.00     0.009 C 
ATOM     14  C   UNL     1       4.120   5.165 -23.837  1.00  0.00     0.021 C 
ATOM     15  C   UNL     1       5.935   5.061 -22.162  1.00  0.00     0.008 C 
ATOM     16  C   UNL     1       3.563   5.426 -21.343  1.00  0.00     0.012 C 
ATOM     17  C   UNL     1       4.320   6.652 -24.037  1.00  0.00    -0.063 C 
ATOM     18  C   UNL     1       6.173   6.588 -22.210  1.00  0.00     0.009 C 
ATOM     19  C   UNL     1       5.601   7.287 -23.486  1.00  0.00     0.025 C 
ATOM     20  C   UNL     1       3.634   7.320 -24.985  1.00  0.00    -0.000 C 
ATOM     21  C   UNL     1       5.420   8.845 -23.341  1.00  0.00    -0.005 C 
ATOM     22  C   UNL     1       4.043   8.679 -25.401  1.00  0.00    -0.000 C 
ATOM     23  C   UNL     1       4.935   9.387 -24.683  1.00  0.00    -0.061 C 
ATOM     24  C   UNL     1       6.774   9.517 -22.979  1.00  0.00     0.014 C 
ATOM     25  C   UNL     1       4.347   9.195 -22.271  1.00  0.00     0.017 C 
ATOM     26  C   UNL     1       5.573  10.616 -25.286  1.00  0.00     0.063 C 
ATOM     27  C   UNL     1       6.730  11.058 -23.021  1.00  0.00     0.033 C 
ATOM     28  C   UNL     1       5.939  11.657 -24.214  1.00  0.00     0.118 C 
BRANCH  28  29
ATOM     29  O   UNL     1       4.767  12.274 -23.738  1.00  0.00    -0.393 OA
ATOM     30  H   UNL     1       4.000  11.785 -24.140  1.00  0.00     0.210 HD
ENDBRANCH  28  29
ENDBRANCH   1  10
TORSDOF 5
ENDMDL
MODEL 5
REMARK VINA RESULT:    -8.311      4.165     10.530
REMARK INTER + INTRA:         -11.212
REMARK INTER:                 -10.263
REMARK INTRA:                  -0.949
REMARK UNBOUND:                -0.715
REMARK SMILES CC(C)[C@@H](C)C=C[C@H](C)[C@@H]1CC[C@H]2C3=CC=C4C[C@@H](O)CC[C@]4(C)[C@H]3CC[C@@]21C
REMARK SMILES IDX 8 1 9 2 7 3 6 4 4 5 5 6 2 7 1 8 3 9 10 10 11 11 28 12 12 13
REMARK SMILES IDX 13 14 27 15 29 16 14 17 26 18 25 19 15 20 23 21 16 22 17 23
REMARK SMILES IDX 22 24 24 25 18 26 21 27 19 28 20 29
REMARK H PARENT 20 30
REMARK Flexibility Score: inf
ROOT
ATOM      1  C   UNL     1       3.995   5.175 -22.491  1.00  0.00     0.012 C 
ATOM      2  C   UNL     1       4.433   5.924 -21.214  1.00  0.00     0.012 C 
ENDROOT
BRANCH   1   3
ATOM      3  C   UNL     1       3.709   6.243 -23.532  1.00  0.00    -0.028 C 
ATOM      4  C   UNL     1       4.146   7.507 -23.399  1.00  0.00    -0.028 C 
BRANCH   4   5
ATOM      5  C   UNL     1       3.863   8.616 -24.402  1.00  0.00     0.011 C 
ATOM      6  C   UNL     1       4.733   8.538 -25.673  1.00  0.00     0.012 C 
BRANCH   5   7
ATOM      7  C   UNL     1       3.864  10.016 -23.713  1.00  0.00    -0.011 C 
ATOM      8  C   UNL     1       2.505  10.736 -23.782  1.00  0.00     0.008 C 
ATOM      9  C   UNL     1       4.359   9.953 -22.260  1.00  0.00     0.008 C 
ENDBRANCH   5   7
ENDBRANCH   4   5
ENDBRANCH   1   3
BRANCH   1  10
ATOM     10  C   UNL     1       5.089   4.179 -23.028  1.00  0.00     0.002 C 
ATOM     11  C   UNL     1       5.143   4.147 -24.592  1.00  0.00     0.005 C 
ATOM     12  C   UNL     1       4.949   2.664 -22.655  1.00  0.00    -0.023 C 
ATOM     13  C   UNL     1       4.730   2.744 -25.052  1.00  0.00     0.009 C 
ATOM     14  C   UNL     1       4.117   2.118 -23.816  1.00  0.00     0.021 C 
ATOM     15  C   UNL     1       4.207   2.286 -21.351  1.00  0.00     0.008 C 
ATOM     16  C   UNL     1       6.390   2.057 -22.620  1.00  0.00     0.012 C 
ATOM     17  C   UNL     1       3.949   0.615 -23.758  1.00  0.00    -0.063 C 
ATOM     18  C   UNL     1       4.132   0.753 -21.165  1.00  0.00     0.009 C 
ATOM     19  C   UNL     1       3.587  -0.018 -22.411  1.00  0.00     0.025 C 
ATOM     20  C   UNL     1       3.723  -0.098 -24.878  1.00  0.00    -0.000 C 
ATOM     21  C   UNL     1       3.932  -1.556 -22.418  1.00  0.00    -0.005 C 
ATOM     22  C   UNL     1       3.246  -1.496 -24.805  1.00  0.00    -0.000 C 
ATOM     23  C   UNL     1       3.268  -2.177 -23.644  1.00  0.00    -0.061 C 
ATOM     24  C   UNL     1       3.382  -2.241 -21.137  1.00  0.00     0.014 C 
ATOM     25  C   UNL     1       5.465  -1.793 -22.536  1.00  0.00     0.017 C 
ATOM     26  C   UNL     1       2.490  -3.467 -23.519  1.00  0.00     0.063 C 
ATOM     27  C   UNL     1       3.495  -3.779 -21.162  1.00  0.00     0.033 C 
ATOM     28  C   UNL     1       3.146  -4.438 -22.523  1.00  0.00     0.118 C 
BRANCH  28  29
ATOM     29  O   UNL     1       4.312  -4.981 -23.094  1.00  0.00    -0.393 OA
ATOM     30  H   UNL     1       5.000  -5.006 -22.376  1.00  0.00     0.210 HD
ENDBRANCH  28  29
ENDBRANCH   1  10
TORSDOF 5
ENDMDL
MODEL 6
REMARK VINA RESULT:    -8.262      2.993      9.282
REMARK INTER + INTRA:         -11.151
REMARK INTER:                 -10.101
REMARK INTRA:                  -1.050
REMARK UNBOUND:                -0.715
REMARK SMILES CC(C)[C@@H](C)C=C[C@H](C)[C@@H]1CC[C@H]2C3=CC=C4C[C@@H](O)CC[C@]4(C)[C@H]3CC[C@@]21C
REMARK SMILES IDX 8 1 9 2 7 3 6 4 4 5 5 6 2 7 1 8 3 9 10 10 11 11 28 12 12 13
REMARK SMILES IDX 13 14 27 15 29 16 14 17 26 18 25 19 15 20 23 21 16 22 17 23
REMARK SMILES IDX 22 24 24 25 18 26 21 27 19 28 20 29
REMARK H PARENT 20 30
REMARK Flexibility Score: inf
ROOT
ATOM      1  C   UNL     1       4.541   9.264 -25.591  1.00  0.00     0.012 C 
ATOM      2  C   UNL     1       3.655   9.904 -26.683  1.00  0.00     0.012 C 
ENDROOT
BRANCH   1   3
ATOM      3  C   UNL     1       5.429  10.376 -25.061  1.00  0.00    -0.028 C 
ATOM      4  C   UNL     1       6.674  10.580 -25.523  1.00  0.00    -0.028 C 
BRANCH   4   5
ATOM      5  C   UNL     1       7.609  11.662 -25.005  1.00  0.00     0.011 C 
ATOM      6  C   UNL     1       7.698  11.718 -23.466  1.00  0.00     0.012 C 
BRANCH   5   7
ATOM      7  C   UNL     1       7.310  13.039 -25.677  1.00  0.00    -0.011 C 
ATOM      8  C   UNL     1       6.781  12.918 -27.117  1.00  0.00     0.008 C 
ATOM      9  C   UNL     1       6.362  13.907 -24.834  1.00  0.00     0.008 C 
ENDBRANCH   5   7
ENDBRANCH   4   5
ENDBRANCH   1   3
BRANCH   1  10
ATOM     10  C   UNL     1       3.709   8.632 -24.415  1.00  0.00     0.002 C 
ATOM     11  C   UNL     1       4.220   9.099 -23.011  1.00  0.00     0.005 C 
ATOM     12  C   UNL     1       3.701   7.071 -24.279  1.00  0.00    -0.023 C 
ATOM     13  C   UNL     1       4.766   7.870 -22.273  1.00  0.00     0.009 C 
ATOM     14  C   UNL     1       4.892   6.818 -23.355  1.00  0.00     0.021 C 
ATOM     15  C   UNL     1       3.924   6.214 -25.547  1.00  0.00     0.008 C 
ATOM     16  C   UNL     1       2.341   6.667 -23.619  1.00  0.00     0.012 C 
ATOM     17  C   UNL     1       5.023   5.363 -22.955  1.00  0.00    -0.063 C 
ATOM     18  C   UNL     1       3.921   4.703 -25.219  1.00  0.00     0.009 C 
ATOM     19  C   UNL     1       4.875   4.300 -24.047  1.00  0.00     0.025 C 
ATOM     20  C   UNL     1       5.633   5.016 -21.806  1.00  0.00    -0.000 C 
ATOM     21  C   UNL     1       4.550   2.898 -23.406  1.00  0.00    -0.005 C 
ATOM     22  C   UNL     1       6.047   3.618 -21.559  1.00  0.00    -0.000 C 
ATOM     23  C   UNL     1       5.608   2.615 -22.343  1.00  0.00    -0.061 C 
ATOM     24  C   UNL     1       4.601   1.782 -24.486  1.00  0.00     0.014 C 
ATOM     25  C   UNL     1       3.161   2.902 -22.706  1.00  0.00     0.017 C 
ATOM     26  C   UNL     1       6.284   1.265 -22.279  1.00  0.00     0.063 C 
ATOM     27  C   UNL     1       4.499   0.356 -23.907  1.00  0.00     0.033 C 
ATOM     28  C   UNL     1       5.311   0.120 -22.606  1.00  0.00     0.118 C 
BRANCH  28  29
ATOM     29  O   UNL     1       4.426  -0.068 -21.528  1.00  0.00    -0.393 OA
ATOM     30  H   UNL     1       4.421  -1.041 -21.325  1.00  0.00     0.210 HD
ENDBRANCH  28  29
ENDBRANCH   1  10
TORSDOF 5
ENDMDL
MODEL 7
REMARK VINA RESULT:    -8.232      3.436      8.835
REMARK INTER + INTRA:         -11.113
REMARK INTER:                 -10.057
REMARK INTRA:                  -1.055
REMARK UNBOUND:                -0.715
REMARK SMILES CC(C)[C@@H](C)C=C[C@H](C)[C@@H]1CC[C@H]2C3=CC=C4C[C@@H](O)CC[C@]4(C)[C@H]3CC[C@@]21C
REMARK SMILES IDX 8 1 9 2 7 3 6 4 4 5 5 6 2 7 1 8 3 9 10 10 11 11 28 12 12 13
REMARK SMILES IDX 13 14 27 15 29 16 14 17 26 18 25 19 15 20 23 21 16 22 17 23
REMARK SMILES IDX 22 24 24 25 18 26 21 27 19 28 20 29
REMARK H PARENT 20 30
REMARK Flexibility Score: inf
ROOT
ATOM      1  C   UNL     1       3.871   8.234 -26.429  1.00  0.00     0.012 C 
ATOM      2  C   UNL     1       3.371   9.634 -26.848  1.00  0.00     0.012 C 
ENDROOT
BRANCH   1   3
ATOM      3  C   UNL     1       4.789   8.450 -25.239  1.00  0.00    -0.028 C 
ATOM      4  C   UNL     1       4.720   9.553 -24.473  1.00  0.00    -0.028 C 
BRANCH   4   5
ATOM      5  C   UNL     1       5.634   9.825 -23.288  1.00  0.00     0.011 C 
ATOM      6  C   UNL     1       6.873  10.670 -23.643  1.00  0.00     0.012 C 
BRANCH   5   7
ATOM      7  C   UNL     1       5.960   8.511 -22.510  1.00  0.00    -0.011 C 
ATOM      8  C   UNL     1       7.345   8.523 -21.837  1.00  0.00     0.008 C 
ATOM      9  C   UNL     1       4.873   8.156 -21.482  1.00  0.00     0.008 C 
ENDBRANCH   5   7
ENDBRANCH   4   5
ENDBRANCH   1   3
BRANCH   1  10
ATOM     10  C   UNL     1       2.704   7.254 -26.038  1.00  0.00     0.002 C 
ATOM     11  C   UNL     1       2.134   7.552 -24.612  1.00  0.00     0.005 C 
ATOM     12  C   UNL     1       3.026   5.722 -25.969  1.00  0.00    -0.023 C 
ATOM     13  C   UNL     1       2.430   6.340 -23.720  1.00  0.00     0.009 C 
ATOM     14  C   UNL     1       3.446   5.542 -24.511  1.00  0.00     0.021 C 
ATOM     15  C   UNL     1       4.175   5.164 -26.842  1.00  0.00     0.008 C 
ATOM     16  C   UNL     1       1.705   4.953 -26.306  1.00  0.00     0.012 C 
ATOM     17  C   UNL     1       3.687   4.092 -24.147  1.00  0.00    -0.063 C 
ATOM     18  C   UNL     1       4.372   3.647 -26.618  1.00  0.00     0.009 C 
ATOM     19  C   UNL     1       4.504   3.233 -25.116  1.00  0.00     0.025 C 
ATOM     20  C   UNL     1       3.557   3.669 -22.874  1.00  0.00    -0.000 C 
ATOM     21  C   UNL     1       4.242   1.703 -24.845  1.00  0.00    -0.005 C 
ATOM     22  C   UNL     1       4.090   2.356 -22.453  1.00  0.00    -0.000 C 
ATOM     23  C   UNL     1       4.486   1.443 -23.361  1.00  0.00    -0.061 C 
ATOM     24  C   UNL     1       5.216   0.829 -25.682  1.00  0.00     0.014 C 
ATOM     25  C   UNL     1       2.769   1.314 -25.160  1.00  0.00     0.017 C 
ATOM     26  C   UNL     1       5.315   0.260 -22.919  1.00  0.00     0.063 C 
ATOM     27  C   UNL     1       5.167  -0.670 -25.322  1.00  0.00     0.033 C 
ATOM     28  C   UNL     1       5.070  -0.974 -23.804  1.00  0.00     0.118 C 
BRANCH  28  29
ATOM     29  O   UNL     1       3.805  -1.518 -23.514  1.00  0.00    -0.393 OA
ATOM     30  H   UNL     1       3.769  -1.655 -22.529  1.00  0.00     0.210 HD
ENDBRANCH  28  29
ENDBRANCH   1  10
TORSDOF 5
ENDMDL
MODEL 8
REMARK VINA RESULT:    -8.212      1.948      3.427
REMARK INTER + INTRA:         -11.088
REMARK INTER:                 -10.783
REMARK INTRA:                  -0.305
REMARK UNBOUND:                -0.715
REMARK SMILES CC(C)[C@@H](C)C=C[C@H](C)[C@@H]1CC[C@H]2C3=CC=C4C[C@@H](O)CC[C@]4(C)[C@H]3CC[C@@]21C
REMARK SMILES IDX 8 1 9 2 7 3 6 4 4 5 5 6 2 7 1 8 3 9 10 10 11 11 28 12 12 13
REMARK SMILES IDX 13 14 27 15 29 16 14 17 26 18 25 19 15 20 23 21 16 22 17 23
REMARK SMILES IDX 22 24 24 25 18 26 21 27 19 28 20 29
REMARK H PARENT 20 30
REMARK Flexibility Score: inf
ROOT
ATOM      1  C   UNL     1       1.549   3.582 -24.652  1.00  0.00     0.012 C 
ATOM      2  C   UNL     1       1.347   2.532 -25.766  1.00  0.00     0.012 C 
ENDROOT
BRANCH   1   3
ATOM      3  C   UNL     1       3.039   3.614 -24.365  1.00  0.00    -0.028 C 
ATOM      4  C   UNL     1       3.633   2.713 -23.563  1.00  0.00    -0.028 C 
BRANCH   4   5
ATOM      5  C   UNL     1       5.116   2.719 -23.226  1.00  0.00     0.011 C 
ATOM      6  C   UNL     1       5.806   1.357 -23.442  1.00  0.00     0.012 C 
BRANCH   5   7
ATOM      7  C   UNL     1       5.376   3.350 -21.822  1.00  0.00    -0.011 C 
ATOM      8  C   UNL     1       6.032   4.741 -21.885  1.00  0.00     0.008 C 
ATOM      9  C   UNL     1       4.104   3.401 -20.960  1.00  0.00     0.008 C 
ENDBRANCH   5   7
ENDBRANCH   4   5
ENDBRANCH   1   3
BRANCH   1  10
ATOM     10  C   UNL     1       1.049   5.018 -25.059  1.00  0.00     0.002 C 
ATOM     11  C   UNL     1       0.855   5.161 -26.606  1.00  0.00     0.005 C 
ATOM     12  C   UNL     1       1.967   6.240 -24.712  1.00  0.00    -0.023 C 
ATOM     13  C   UNL     1       1.863   6.197 -27.117  1.00  0.00     0.009 C 
ATOM     14  C   UNL     1       2.833   6.365 -25.965  1.00  0.00     0.021 C 
ATOM     15  C   UNL     1       2.930   6.126 -23.507  1.00  0.00     0.008 C 
ATOM     16  C   UNL     1       1.035   7.480 -24.508  1.00  0.00     0.012 C 
ATOM     17  C   UNL     1       3.735   7.581 -25.934  1.00  0.00    -0.063 C 
ATOM     18  C   UNL     1       3.780   7.406 -23.337  1.00  0.00     0.009 C 
ATOM     19  C   UNL     1       4.504   7.873 -24.642  1.00  0.00     0.025 C 
ATOM     20  C   UNL     1       4.167   8.148 -27.076  1.00  0.00    -0.000 C 
ATOM     21  C   UNL     1       4.975   9.377 -24.615  1.00  0.00    -0.005 C 
ATOM     22  C   UNL     1       5.284   9.118 -27.065  1.00  0.00    -0.000 C 
ATOM     23  C   UNL     1       5.728   9.654 -25.913  1.00  0.00    -0.061 C 
ATOM     24  C   UNL     1       5.925   9.626 -23.411  1.00  0.00     0.014 C 
ATOM     25  C   UNL     1       3.763  10.350 -24.550  1.00  0.00     0.017 C 
ATOM     26  C   UNL     1       7.054  10.378 -25.887  1.00  0.00     0.063 C 
ATOM     27  C   UNL     1       6.594  11.015 -23.428  1.00  0.00     0.033 C 
ATOM     28  C   UNL     1       7.080  11.489 -24.823  1.00  0.00     0.118 C 
BRANCH  28  29
ATOM     29  O   UNL     1       6.289  12.570 -25.253  1.00  0.00    -0.393 OA
ATOM     30  H   UNL     1       5.348  12.251 -25.269  1.00  0.00     0.210 HD
ENDBRANCH  28  29
ENDBRANCH   1  10
TORSDOF 5
ENDMDL
MODEL 9
REMARK VINA RESULT:    -8.207      2.352      4.455
REMARK INTER + INTRA:         -11.082
REMARK INTER:                 -10.101
REMARK INTRA:                  -0.981
REMARK UNBOUND:                -0.715
REMARK SMILES CC(C)[C@@H](C)C=C[C@H](C)[C@@H]1CC[C@H]2C3=CC=C4C[C@@H](O)CC[C@]4(C)[C@H]3CC[C@@]21C
REMARK SMILES IDX 8 1 9 2 7 3 6 4 4 5 5 6 2 7 1 8 3 9 10 10 11 11 28 12 12 13
REMARK SMILES IDX 13 14 27 15 29 16 14 17 26 18 25 19 15 20 23 21 16 22 17 23
REMARK SMILES IDX 22 24 24 25 18 26 21 27 19 28 20 29
REMARK H PARENT 20 30
REMARK Flexibility Score: inf
ROOT
ATOM      1  C   UNL     1       2.788   1.327 -24.937  1.00  0.00     0.012 C 
ATOM      2  C   UNL     1       2.024   0.753 -26.149  1.00  0.00     0.012 C 
ENDROOT
BRANCH   1   3
ATOM      3  C   UNL     1       3.266   0.132 -24.132  1.00  0.00    -0.028 C 
ATOM      4  C   UNL     1       2.977  -1.132 -24.487  1.00  0.00    -0.028 C 
BRANCH   4   5
ATOM      5  C   UNL     1       3.410  -2.359 -23.699  1.00  0.00     0.011 C 
ATOM      6  C   UNL     1       2.316  -3.440 -23.584  1.00  0.00     0.012 C 
BRANCH   5   7
ATOM      7  C   UNL     1       4.056  -1.958 -22.335  1.00  0.00    -0.011 C 
ATOM      8  C   UNL     1       3.207  -2.355 -21.113  1.00  0.00     0.008 C 
ATOM      9  C   UNL     1       5.487  -2.498 -22.185  1.00  0.00     0.008 C 
ENDBRANCH   5   7
ENDBRANCH   4   5
ENDBRANCH   1   3
BRANCH   1  10
ATOM     10  C   UNL     1       4.015   2.223 -25.348  1.00  0.00     0.002 C 
ATOM     11  C   UNL     1       5.274   1.946 -24.461  1.00  0.00     0.005 C 
ATOM     12  C   UNL     1       3.855   3.778 -25.246  1.00  0.00    -0.023 C 
ATOM     13  C   UNL     1       5.582   3.220 -23.665  1.00  0.00     0.009 C 
ATOM     14  C   UNL     1       4.333   4.063 -23.823  1.00  0.00     0.021 C 
ATOM     15  C   UNL     1       2.439   4.389 -25.377  1.00  0.00     0.008 C 
ATOM     16  C   UNL     1       4.790   4.416 -26.326  1.00  0.00     0.012 C 
ATOM     17  C   UNL     1       4.401   5.544 -23.514  1.00  0.00    -0.063 C 
ATOM     18  C   UNL     1       2.467   5.926 -25.213  1.00  0.00     0.009 C 
ATOM     19  C   UNL     1       3.219   6.422 -23.935  1.00  0.00     0.025 C 
ATOM     20  C   UNL     1       5.241   6.014 -22.572  1.00  0.00    -0.000 C 
ATOM     21  C   UNL     1       3.654   7.935 -23.990  1.00  0.00    -0.005 C 
ATOM     22  C   UNL     1       5.093   7.387 -22.042  1.00  0.00    -0.000 C 
ATOM     23  C   UNL     1       4.296   8.285 -22.651  1.00  0.00    -0.061 C 
ATOM     24  C   UNL     1       2.417   8.847 -24.217  1.00  0.00     0.014 C 
ATOM     25  C   UNL     1       4.711   8.182 -25.104  1.00  0.00     0.017 C 
ATOM     26  C   UNL     1       3.911   9.554 -21.928  1.00  0.00     0.063 C 
ATOM     27  C   UNL     1       2.724  10.352 -24.077  1.00  0.00     0.033 C 
ATOM     28  C   UNL     1       3.670  10.720 -22.903  1.00  0.00     0.118 C 
BRANCH  28  29
ATOM     29  O   UNL     1       4.902  11.168 -23.414  1.00  0.00    -0.393 OA
ATOM     30  H   UNL     1       4.901  10.964 -24.388  1.00  0.00     0.210 HD
ENDBRANCH  28  29
ENDBRANCH   1  10
TORSDOF 5
ENDMDL
