MODEL 1
REMARK VINA RESULT:    -5.078      0.000      0.000
REMARK INTER + INTRA:          -5.226
REMARK INTER:                  -5.226
REMARK INTRA:                   0.000
REMARK UNBOUND:                 0.000
REMARK SMILES Nc1ncnc2nc[nH]c12
REMARK SMILES IDX 8 1 7 2 6 3 5 4 4 5 3 6 2 7 10 8 9 9 1 11
REMARK H PARENT 9 10 1 12 1 13
REMARK Flexibility Score: inf
ROOT
ATOM      1  C   UNL     1     -25.704   5.742 -12.963  1.00  0.00     0.199 A 
ATOM      2  N   UNL     1     -26.082   4.925 -11.942  1.00  0.00    -0.217 NA
ATOM      3  C   UNL     1     -25.474   5.488 -10.885  1.00  0.00     0.182 A 
ATOM      4  N   UNL     1     -25.524   5.060  -9.600  1.00  0.00    -0.215 NA
ATOM      5  C   UNL     1     -24.834   5.770  -8.657  1.00  0.00     0.226 A 
ATOM      6  N   UNL     1     -24.115   6.884  -9.009  1.00  0.00    -0.217 NA
ATOM      7  C   UNL     1     -24.063   7.317 -10.304  1.00  0.00     0.152 A 
ATOM      8  C   UNL     1     -24.770   6.583 -11.254  1.00  0.00     0.127 A 
ATOM      9  N   UNL     1     -24.902   6.766 -12.574  1.00  0.00    -0.340 N 
ATOM     10  H   UNL     1     -24.490   7.515 -13.174  1.00  0.00     0.168 HD
ENDROOT
BRANCH   7  11
ATOM     11  N   UNL     1     -23.308   8.479 -10.649  1.00  0.00    -0.382 N 
ATOM     12  H   UNL     1     -22.351   8.639 -10.265  1.00  0.00     0.158 HD
ATOM     13  H   UNL     1     -23.712   9.190 -11.298  1.00  0.00     0.158 HD
ENDBRANCH   7  11
TORSDOF 1
ENDMDL
MODEL 2
REMARK VINA RESULT:    -4.761      0.961      2.922
REMARK INTER + INTRA:          -4.900
REMARK INTER:                  -4.900
REMARK INTRA:                   0.000
REMARK UNBOUND:                 0.000
REMARK SMILES Nc1ncnc2nc[nH]c12
REMARK SMILES IDX 8 1 7 2 6 3 5 4 4 5 3 6 2 7 10 8 9 9 1 11
REMARK H PARENT 9 10 1 12 1 13
REMARK Flexibility Score: inf
ROOT
ATOM      1  C   UNL     1     -25.360   5.327  -7.711  1.00  0.00     0.199 A 
ATOM      2  N   UNL     1     -25.847   4.512  -8.685  1.00  0.00    -0.217 NA
ATOM      3  C   UNL     1     -25.452   5.137  -9.806  1.00  0.00     0.182 A 
ATOM      4  N   UNL     1     -25.683   4.737 -11.080  1.00  0.00    -0.215 NA
ATOM      5  C   UNL     1     -25.198   5.511 -12.097  1.00  0.00     0.226 A 
ATOM      6  N   UNL     1     -24.498   6.659 -11.826  1.00  0.00    -0.217 NA
ATOM      7  C   UNL     1     -24.265   7.065 -10.542  1.00  0.00     0.152 A 
ATOM      8  C   UNL     1     -24.765   6.266  -9.517  1.00  0.00     0.127 A 
ATOM      9  N   UNL     1     -24.692   6.409  -8.188  1.00  0.00    -0.340 N 
ATOM     10  H   UNL     1     -24.234   7.168  -7.636  1.00  0.00     0.168 HD
ENDROOT
BRANCH   7  11
ATOM     11  N   UNL     1     -23.533   8.264 -10.284  1.00  0.00    -0.382 N 
ATOM     12  H   UNL     1     -23.996   9.200 -10.308  1.00  0.00     0.158 HD
ATOM     13  H   UNL     1     -22.513   8.216 -10.065  1.00  0.00     0.158 HD
ENDBRANCH   7  11
TORSDOF 1
ENDMDL
MODEL 3
REMARK VINA RESULT:    -4.529      0.975      3.012
REMARK INTER + INTRA:          -4.661
REMARK INTER:                  -4.661
REMARK INTRA:                   0.000
REMARK UNBOUND:                 0.000
REMARK SMILES Nc1ncnc2nc[nH]c12
REMARK SMILES IDX 8 1 7 2 6 3 5 4 4 5 3 6 2 7 10 8 9 9 1 11
REMARK H PARENT 9 10 1 12 1 13
REMARK Flexibility Score: inf
ROOT
ATOM      1  C   UNL     1     -23.896   7.570  -9.802  1.00  0.00     0.199 A 
ATOM      2  N   UNL     1     -24.339   6.515  -9.066  1.00  0.00    -0.217 NA
ATOM      3  C   UNL     1     -24.899   5.729 -10.001  1.00  0.00     0.182 A 
ATOM      4  N   UNL     1     -25.499   4.531  -9.797  1.00  0.00    -0.215 NA
ATOM      5  C   UNL     1     -26.014   3.875 -10.881  1.00  0.00     0.226 A 
ATOM      6  N   UNL     1     -25.920   4.421 -12.136  1.00  0.00    -0.217 NA
ATOM      7  C   UNL     1     -25.315   5.629 -12.343  1.00  0.00     0.152 A 
ATOM      8  C   UNL     1     -24.796   6.285 -11.230  1.00  0.00     0.127 A 
ATOM      9  N   UNL     1     -24.160   7.459 -11.129  1.00  0.00    -0.340 N 
ATOM     10  H   UNL     1     -23.919   8.138 -11.885  1.00  0.00     0.168 HD
ENDROOT
BRANCH   7  11
ATOM     11  N   UNL     1     -25.228   6.178 -13.658  1.00  0.00    -0.382 N 
ATOM     12  H   UNL     1     -25.287   7.207 -13.824  1.00  0.00     0.158 HD
ATOM     13  H   UNL     1     -25.103   5.546 -14.480  1.00  0.00     0.158 HD
ENDBRANCH   7  11
TORSDOF 1
ENDMDL
MODEL 4
REMARK VINA RESULT:    -4.298      1.725      3.787
REMARK INTER + INTRA:          -4.424
REMARK INTER:                  -4.424
REMARK INTRA:                   0.000
REMARK UNBOUND:                 0.000
REMARK SMILES Nc1ncnc2nc[nH]c12
REMARK SMILES IDX 8 1 7 2 6 3 5 4 4 5 3 6 2 7 10 8 9 9 1 11
REMARK H PARENT 9 10 1 12 1 13
REMARK Flexibility Score: inf
ROOT
ATOM      1  C   UNL     1     -24.266   7.190 -10.451  1.00  0.00     0.199 A 
ATOM      2  N   UNL     1     -24.000   6.685 -11.686  1.00  0.00    -0.217 NA
ATOM      3  C   UNL     1     -25.208   6.256 -12.086  1.00  0.00     0.182 A 
ATOM      4  N   UNL     1     -25.505   5.660 -13.266  1.00  0.00    -0.215 NA
ATOM      5  C   UNL     1     -26.802   5.291 -13.494  1.00  0.00     0.226 A 
ATOM      6  N   UNL     1     -27.769   5.522 -12.549  1.00  0.00    -0.217 NA
ATOM      7  C   UNL     1     -27.471   6.123 -11.358  1.00  0.00     0.152 A 
ATOM      8  C   UNL     1     -26.147   6.492 -11.141  1.00  0.00     0.127 A 
ATOM      9  N   UNL     1     -25.571   7.088 -10.089  1.00  0.00    -0.340 N 
ATOM     10  H   UNL     1     -26.009   7.404  -9.196  1.00  0.00     0.168 HD
ENDROOT
BRANCH   7  11
ATOM     11  N   UNL     1     -28.494   6.354 -10.389  1.00  0.00    -0.382 N 
ATOM     12  H   UNL     1     -28.270   6.724  -9.438  1.00  0.00     0.158 HD
ATOM     13  H   UNL     1     -29.491   6.152 -10.624  1.00  0.00     0.158 HD
ENDBRANCH   7  11
TORSDOF 1
ENDMDL
MODEL 5
REMARK VINA RESULT:    -4.274      1.128      3.341
REMARK INTER + INTRA:          -4.399
REMARK INTER:                  -4.399
REMARK INTRA:                   0.000
REMARK UNBOUND:                 0.000
REMARK SMILES Nc1ncnc2nc[nH]c12
REMARK SMILES IDX 8 1 7 2 6 3 5 4 4 5 3 6 2 7 10 8 9 9 1 11
REMARK H PARENT 9 10 1 12 1 13
REMARK Flexibility Score: inf
ROOT
ATOM      1  C   UNL     1     -25.823   4.477  -8.200  1.00  0.00     0.199 A 
ATOM      2  N   UNL     1     -25.134   5.581  -7.805  1.00  0.00    -0.217 NA
ATOM      3  C   UNL     1     -24.737   6.105  -8.976  1.00  0.00     0.182 A 
ATOM      4  N   UNL     1     -24.004   7.231  -9.152  1.00  0.00    -0.215 NA
ATOM      5  C   UNL     1     -23.696   7.607 -10.430  1.00  0.00     0.226 A 
ATOM      6  N   UNL     1     -24.123   6.859 -11.499  1.00  0.00    -0.217 NA
ATOM      7  C   UNL     1     -24.861   5.724 -11.323  1.00  0.00     0.152 A 
ATOM      8  C   UNL     1     -25.166   5.354 -10.016  1.00  0.00     0.127 A 
ATOM      9  N   UNL     1     -25.862   4.310  -9.546  1.00  0.00    -0.340 N 
ATOM     10  H   UNL     1     -26.328   3.543 -10.079  1.00  0.00     0.168 HD
ENDROOT
BRANCH   7  11
ATOM     11  N   UNL     1     -25.294   4.961 -12.450  1.00  0.00    -0.382 N 
ATOM     12  H   UNL     1     -25.910   5.376 -13.185  1.00  0.00     0.158 HD
ATOM     13  H   UNL     1     -24.995   3.966 -12.553  1.00  0.00     0.158 HD
ENDBRANCH   7  11
TORSDOF 1
ENDMDL
MODEL 6
REMARK VINA RESULT:    -4.178      0.874      3.715
REMARK INTER + INTRA:          -4.300
REMARK INTER:                  -4.300
REMARK INTRA:                   0.000
REMARK UNBOUND:                 0.000
REMARK SMILES Nc1ncnc2nc[nH]c12
REMARK SMILES IDX 8 1 7 2 6 3 5 4 4 5 3 6 2 7 10 8 9 9 1 11
REMARK H PARENT 9 10 1 12 1 13
REMARK Flexibility Score: inf
ROOT
ATOM      1  C   UNL     1     -23.622   7.305  -9.372  1.00  0.00     0.199 A 
ATOM      2  N   UNL     1     -23.698   7.678 -10.679  1.00  0.00    -0.217 NA
ATOM      3  C   UNL     1     -24.530   6.758 -11.192  1.00  0.00     0.182 A 
ATOM      4  N   UNL     1     -24.947   6.672 -12.479  1.00  0.00    -0.215 NA
ATOM      5  C   UNL     1     -25.801   5.657 -12.813  1.00  0.00     0.226 A 
ATOM      6  N   UNL     1     -26.219   4.757 -11.866  1.00  0.00    -0.217 NA
ATOM      7  C   UNL     1     -25.800   4.843 -10.569  1.00  0.00     0.152 A 
ATOM      8  C   UNL     1     -24.931   5.881 -10.243  1.00  0.00     0.127 A 
ATOM      9  N   UNL     1     -24.366   6.208  -9.074  1.00  0.00    -0.340 N 
ATOM     10  H   UNL     1     -24.465   5.740  -8.147  1.00  0.00     0.168 HD
ENDROOT
BRANCH   7  11
ATOM     11  N   UNL     1     -26.249   3.895  -9.600  1.00  0.00    -0.382 N 
ATOM     12  H   UNL     1     -27.252   3.610  -9.541  1.00  0.00     0.158 HD
ATOM     13  H   UNL     1     -25.569   3.471  -8.930  1.00  0.00     0.158 HD
ENDBRANCH   7  11
TORSDOF 1
ENDMDL
MODEL 7
REMARK VINA RESULT:    -4.127     15.170     15.498
REMARK INTER + INTRA:          -4.247
REMARK INTER:                  -4.247
REMARK INTRA:                   0.000
REMARK UNBOUND:                 0.000
REMARK SMILES Nc1ncnc2nc[nH]c12
REMARK SMILES IDX 8 1 7 2 6 3 5 4 4 5 3 6 2 7 10 8 9 9 1 11
REMARK H PARENT 9 10 1 12 1 13
REMARK Flexibility Score: inf
ROOT
ATOM      1  C   UNL     1     -40.691  10.195  -8.241  1.00  0.00     0.199 A 
ATOM      2  N   UNL     1     -39.423   9.895  -8.634  1.00  0.00    -0.217 NA
ATOM      3  C   UNL     1     -38.683  10.683  -7.837  1.00  0.00     0.182 A 
ATOM      4  N   UNL     1     -37.331  10.773  -7.819  1.00  0.00    -0.215 NA
ATOM      5  C   UNL     1     -36.755  11.638  -6.930  1.00  0.00     0.226 A 
ATOM      6  N   UNL     1     -37.531  12.389  -6.084  1.00  0.00    -0.217 NA
ATOM      7  C   UNL     1     -38.894  12.300  -6.102  1.00  0.00     0.152 A 
ATOM      8  C   UNL     1     -39.466  11.415  -7.012  1.00  0.00     0.127 A 
ATOM      9  N   UNL     1     -40.751  11.121  -7.251  1.00  0.00    -0.340 N 
ATOM     10  H   UNL     1     -41.605  11.506  -6.791  1.00  0.00     0.168 HD
ENDROOT
BRANCH   7  11
ATOM     11  N   UNL     1     -39.683  13.091  -5.212  1.00  0.00    -0.382 N 
ATOM     12  H   UNL     1     -39.961  12.737  -4.270  1.00  0.00     0.158 HD
ATOM     13  H   UNL     1     -39.993  14.046  -5.499  1.00  0.00     0.158 HD
ENDBRANCH   7  11
TORSDOF 1
ENDMDL
MODEL 8
REMARK VINA RESULT:    -4.091     13.604     14.300
REMARK INTER + INTRA:          -4.211
REMARK INTER:                  -4.211
REMARK INTRA:                   0.000
REMARK UNBOUND:                 0.000
REMARK SMILES Nc1ncnc2nc[nH]c12
REMARK SMILES IDX 8 1 7 2 6 3 5 4 4 5 3 6 2 7 10 8 9 9 1 11
REMARK H PARENT 9 10 1 12 1 13
REMARK Flexibility Score: inf
ROOT
ATOM      1  C   UNL     1     -34.859  10.381  -4.512  1.00  0.00     0.199 A 
ATOM      2  N   UNL     1     -34.726  10.631  -5.843  1.00  0.00    -0.217 NA
ATOM      3  C   UNL     1     -35.939  11.109  -6.167  1.00  0.00     0.182 A 
ATOM      4  N   UNL     1     -36.346  11.517  -7.393  1.00  0.00    -0.215 NA
ATOM      5  C   UNL     1     -37.627  11.976  -7.527  1.00  0.00     0.226 A 
ATOM      6  N   UNL     1     -38.469  12.019  -6.445  1.00  0.00    -0.217 NA
ATOM      7  C   UNL     1     -38.060  11.608  -5.208  1.00  0.00     0.152 A 
ATOM      8  C   UNL     1     -36.753  11.143  -5.088  1.00  0.00     0.127 A 
ATOM      9  N   UNL     1     -36.087  10.684  -4.020  1.00  0.00    -0.340 N 
ATOM     10  H   UNL     1     -36.422  10.579  -3.037  1.00  0.00     0.168 HD
ENDROOT
BRANCH   7  11
ATOM     11  N   UNL     1     -38.954  11.662  -4.095  1.00  0.00    -0.382 N 
ATOM     12  H   UNL     1     -39.067  12.532  -3.530  1.00  0.00     0.158 HD
ATOM     13  H   UNL     1     -39.511  10.819  -3.833  1.00  0.00     0.158 HD
ENDBRANCH   7  11
TORSDOF 1
ENDMDL
MODEL 9
REMARK VINA RESULT:    -4.028     14.350     14.647
REMARK INTER + INTRA:          -4.146
REMARK INTER:                  -4.146
REMARK INTRA:                   0.000
REMARK UNBOUND:                 0.000
REMARK SMILES Nc1ncnc2nc[nH]c12
REMARK SMILES IDX 8 1 7 2 6 3 5 4 4 5 3 6 2 7 10 8 9 9 1 11
REMARK H PARENT 9 10 1 12 1 13
REMARK Flexibility Score: inf
ROOT
ATOM      1  C   UNL     1     -37.137  11.361 -10.043  1.00  0.00     0.199 A 
ATOM      2  N   UNL     1     -37.967  10.283 -10.028  1.00  0.00    -0.217 NA
ATOM      3  C   UNL     1     -38.497  10.347  -8.795  1.00  0.00     0.182 A 
ATOM      4  N   UNL     1     -39.401   9.492  -8.258  1.00  0.00    -0.215 NA
ATOM      5  C   UNL     1     -39.826   9.722  -6.979  1.00  0.00     0.226 A 
ATOM      6  N   UNL     1     -39.345  10.791  -6.267  1.00  0.00    -0.217 NA
ATOM      7  C   UNL     1     -38.433  11.654  -6.807  1.00  0.00     0.152 A 
ATOM      8  C   UNL     1     -38.010  11.406  -8.110  1.00  0.00     0.127 A 
ATOM      9  N   UNL     1     -37.141  12.069  -8.884  1.00  0.00    -0.340 N 
ATOM     10  H   UNL     1     -36.591  12.928  -8.662  1.00  0.00     0.168 HD
ENDROOT
BRANCH   7  11
ATOM     11  N   UNL     1     -37.946  12.761  -6.046  1.00  0.00    -0.382 N 
ATOM     12  H   UNL     1     -38.523  13.202  -5.297  1.00  0.00     0.158 HD
ATOM     13  H   UNL     1     -36.994  13.145  -6.235  1.00  0.00     0.158 HD
ENDBRANCH   7  11
TORSDOF 1
ENDMDL
