MODEL 1
REMARK VINA RESULT:    -4.230      0.000      0.000
REMARK INTER + INTRA:          -7.923
REMARK INTER:                  -7.197
REMARK INTRA:                  -0.726
REMARK UNBOUND:                -0.726
REMARK SMILES CCCCCCCCCCCCCC(=O)[O-]
REMARK SMILES IDX 8 1 9 2 10 3 11 4 12 5 13 6 14 7 15 8 16 9 7 10 6 11 5 12
REMARK SMILES IDX 4 13 3 14 2 15 1 16
REMARK H PARENT
REMARK Flexibility Score: inf
ROOT
ATOM      1  C   UNL     1      19.270  25.751   2.638  1.00  0.00     0.000 C 
ENDROOT
BRANCH   1   2
ATOM      2  C   UNL     1      19.303  24.532   1.705  1.00  0.00     0.000 C 
BRANCH   2   3
ATOM      3  C   UNL     1      19.023  24.944   0.253  1.00  0.00     0.000 C 
BRANCH   3   4
ATOM      4  C   UNL     1      18.474  26.376   0.130  1.00  0.00     0.000 C 
BRANCH   4   5
ATOM      5  C   UNL     1      17.188  26.475  -0.716  1.00  0.00     0.006 C 
BRANCH   5   6
ATOM      6  C   UNL     1      16.987  25.247  -1.614  1.00  0.00     0.053 C 
BRANCH   6   7
ATOM      7  C   UNL     1      15.594  25.215  -2.158  1.00  0.00     0.041 C 
ATOM      8  O   UNL     1      15.365  25.592  -3.338  1.00  0.00    -0.550 OA
ATOM      9  O   UNL     1      14.539  24.816  -1.346  1.00  0.00    -0.550 OA
ENDBRANCH   6   7
ENDBRANCH   5   6
ENDBRANCH   4   5
ENDBRANCH   3   4
ENDBRANCH   2   3
ENDBRANCH   1   2
BRANCH   1  10
ATOM     10  C   UNL     1      19.139  25.363   4.120  1.00  0.00     0.000 C 
BRANCH  10  11
ATOM     11  C   UNL     1      18.904  23.856   4.320  1.00  0.00    -0.000 C 
BRANCH  11  12
ATOM     12  C   UNL     1      17.759  23.562   5.302  1.00  0.00    -0.000 C 
BRANCH  12  13
ATOM     13  C   UNL     1      16.885  22.374   4.859  1.00  0.00    -0.000 C 
BRANCH  13  14
ATOM     14  C   UNL     1      15.707  22.126   5.825  1.00  0.00    -0.000 C 
BRANCH  14  15
ATOM     15  C   UNL     1      14.345  22.009   5.120  1.00  0.00    -0.003 C 
ATOM     16  C   UNL     1      13.565  23.322   5.102  1.00  0.00     0.004 C 
ENDBRANCH  14  15
ENDBRANCH  13  14
ENDBRANCH  12  13
ENDBRANCH  11  12
ENDBRANCH  10  11
ENDBRANCH   1  10
TORSDOF 12
ENDMDL
MODEL 2
REMARK VINA RESULT:    -4.149      2.709      6.368
REMARK INTER + INTRA:          -7.786
REMARK INTER:                  -7.170
REMARK INTRA:                  -0.615
REMARK UNBOUND:                -0.726
REMARK SMILES CCCCCCCCCCCCCC(=O)[O-]
REMARK SMILES IDX 8 1 9 2 10 3 11 4 12 5 13 6 14 7 15 8 16 9 7 10 6 11 5 12
REMARK SMILES IDX 4 13 3 14 2 15 1 16
REMARK H PARENT
REMARK Flexibility Score: inf
ROOT
ATOM      1  C   UNL     1      18.742  24.158   4.664  1.00  0.00     0.000 C 
ENDROOT
BRANCH   1   2
ATOM      2  C   UNL     1      17.771  22.982   4.487  1.00  0.00     0.000 C 
BRANCH   2   3
ATOM      3  C   UNL     1      16.744  22.940   5.626  1.00  0.00     0.000 C 
BRANCH   3   4
ATOM      4  C   UNL     1      15.882  21.666   5.612  1.00  0.00     0.000 C 
BRANCH   4   5
ATOM      5  C   UNL     1      14.365  21.943   5.666  1.00  0.00     0.006 C 
BRANCH   5   6
ATOM      6  C   UNL     1      13.784  22.261   4.282  1.00  0.00     0.053 C 
BRANCH   6   7
ATOM      7  C   UNL     1      12.877  23.449   4.353  1.00  0.00     0.041 C 
ATOM      8  O   UNL     1      13.256  24.503   4.930  1.00  0.00    -0.550 OA
ATOM      9  O   UNL     1      11.594  23.377   3.826  1.00  0.00    -0.550 OA
ENDBRANCH   6   7
ENDBRANCH   5   6
ENDBRANCH   4   5
ENDBRANCH   3   4
ENDBRANCH   2   3
ENDBRANCH   1   2
BRANCH   1  10
ATOM     10  C   UNL     1      19.642  24.379   3.438  1.00  0.00     0.000 C 
BRANCH  10  11
ATOM     11  C   UNL     1      19.317  25.685   2.692  1.00  0.00    -0.000 C 
BRANCH  11  12
ATOM     12  C   UNL     1      18.914  25.444   1.228  1.00  0.00    -0.000 C 
BRANCH  12  13
ATOM     13  C   UNL     1      18.536  26.743   0.493  1.00  0.00    -0.000 C 
BRANCH  13  14
ATOM     14  C   UNL     1      17.820  26.467  -0.846  1.00  0.00    -0.000 C 
BRANCH  14  15
ATOM     15  C   UNL     1      17.078  25.119  -0.881  1.00  0.00    -0.003 C 
ATOM     16  C   UNL     1      15.752  25.186  -1.635  1.00  0.00     0.004 C 
ENDBRANCH  14  15
ENDBRANCH  13  14
ENDBRANCH  12  13
ENDBRANCH  11  12
ENDBRANCH  10  11
ENDBRANCH   1  10
TORSDOF 12
ENDMDL
MODEL 3
REMARK VINA RESULT:    -4.147      2.474      6.347
REMARK INTER + INTRA:          -7.781
REMARK INTER:                  -6.971
REMARK INTRA:                  -0.811
REMARK UNBOUND:                -0.726
REMARK SMILES CCCCCCCCCCCCCC(=O)[O-]
REMARK SMILES IDX 8 1 9 2 10 3 11 4 12 5 13 6 14 7 15 8 16 9 7 10 6 11 5 12
REMARK SMILES IDX 4 13 3 14 2 15 1 16
REMARK H PARENT
REMARK Flexibility Score: inf
ROOT
ATOM      1  C   UNL     1      19.286  25.401   3.855  1.00  0.00     0.000 C 
ENDROOT
BRANCH   1   2
ATOM      2  C   UNL     1      19.081  23.907   4.145  1.00  0.00     0.000 C 
BRANCH   2   3
ATOM      3  C   UNL     1      18.009  23.698   5.223  1.00  0.00     0.000 C 
BRANCH   3   4
ATOM      4  C   UNL     1      16.970  22.631   4.837  1.00  0.00     0.000 C 
BRANCH   4   5
ATOM      5  C   UNL     1      16.033  22.232   5.996  1.00  0.00     0.006 C 
BRANCH   5   6
ATOM      6  C   UNL     1      14.747  21.559   5.498  1.00  0.00     0.053 C 
BRANCH   6   7
ATOM      7  C   UNL     1      13.895  22.539   4.755  1.00  0.00     0.041 C 
ATOM      8  O   UNL     1      13.644  23.667   5.254  1.00  0.00    -0.550 OA
ATOM      9  O   UNL     1      13.337  22.187   3.532  1.00  0.00    -0.550 OA
ENDBRANCH   6   7
ENDBRANCH   5   6
ENDBRANCH   4   5
ENDBRANCH   3   4
ENDBRANCH   2   3
ENDBRANCH   1   2
BRANCH   1  10
ATOM     10  C   UNL     1      19.252  25.727   2.353  1.00  0.00     0.000 C 
BRANCH  10  11
ATOM     11  C   UNL     1      19.267  24.466   1.473  1.00  0.00    -0.000 C 
BRANCH  11  12
ATOM     12  C   UNL     1      18.900  24.762   0.010  1.00  0.00    -0.000 C 
BRANCH  12  13
ATOM     13  C   UNL     1      18.617  26.255  -0.243  1.00  0.00    -0.000 C 
BRANCH  13  14
ATOM     14  C   UNL     1      17.188  26.493  -0.776  1.00  0.00    -0.000 C 
BRANCH  14  15
ATOM     15  C   UNL     1      16.718  25.423  -1.776  1.00  0.00    -0.003 C 
ATOM     16  C   UNL     1      15.258  25.019  -1.578  1.00  0.00     0.004 C 
ENDBRANCH  14  15
ENDBRANCH  13  14
ENDBRANCH  12  13
ENDBRANCH  11  12
ENDBRANCH  10  11
ENDBRANCH   1  10
TORSDOF 12
ENDMDL
MODEL 4
REMARK VINA RESULT:    -4.095      1.296      2.529
REMARK INTER + INTRA:          -7.693
REMARK INTER:                  -6.942
REMARK INTRA:                  -0.751
REMARK UNBOUND:                -0.726
REMARK SMILES CCCCCCCCCCCCCC(=O)[O-]
REMARK SMILES IDX 8 1 9 2 10 3 11 4 12 5 13 6 14 7 15 8 16 9 7 10 6 11 5 12
REMARK SMILES IDX 4 13 3 14 2 15 1 16
REMARK H PARENT
REMARK Flexibility Score: inf
ROOT
ATOM      1  C   UNL     1      18.904  23.911   4.331  1.00  0.00     0.000 C 
ENDROOT
BRANCH   1   2
ATOM      2  C   UNL     1      19.128  25.408   4.075  1.00  0.00     0.000 C 
BRANCH   2   3
ATOM      3  C   UNL     1      19.156  25.711   2.571  1.00  0.00     0.000 C 
BRANCH   3   4
ATOM      4  C   UNL     1      19.392  24.458   1.710  1.00  0.00     0.000 C 
BRANCH   4   5
ATOM      5  C   UNL     1      19.208  24.702   0.198  1.00  0.00     0.006 C 
BRANCH   5   6
ATOM      6  C   UNL     1      17.804  24.316  -0.286  1.00  0.00     0.053 C 
BRANCH   6   7
ATOM      7  C   UNL     1      17.140  25.477  -0.955  1.00  0.00     0.041 C 
ATOM      8  O   UNL     1      17.474  26.655  -0.660  1.00  0.00    -0.550 OA
ATOM      9  O   UNL     1      16.116  25.261  -1.869  1.00  0.00    -0.550 OA
ENDBRANCH   6   7
ENDBRANCH   5   6
ENDBRANCH   4   5
ENDBRANCH   3   4
ENDBRANCH   2   3
ENDBRANCH   1   2
BRANCH   1  10
ATOM     10  C   UNL     1      17.733  23.639   5.290  1.00  0.00     0.000 C 
BRANCH  10  11
ATOM     11  C   UNL     1      16.934  22.381   4.908  1.00  0.00    -0.000 C 
BRANCH  11  12
ATOM     12  C   UNL     1      15.696  22.176   5.795  1.00  0.00    -0.000 C 
BRANCH  12  13
ATOM     13  C   UNL     1      14.386  22.116   4.986  1.00  0.00    -0.000 C 
BRANCH  13  14
ATOM     14  C   UNL     1      13.563  23.415   5.116  1.00  0.00    -0.000 C 
BRANCH  14  15
ATOM     15  C   UNL     1      12.359  23.479   4.160  1.00  0.00    -0.003 C 
ATOM     16  C   UNL     1      12.408  22.417   3.064  1.00  0.00     0.004 C 
ENDBRANCH  14  15
ENDBRANCH  13  14
ENDBRANCH  12  13
ENDBRANCH  11  12
ENDBRANCH  10  11
ENDBRANCH   1  10
TORSDOF 12
ENDMDL
MODEL 5
REMARK VINA RESULT:    -3.686     16.023     18.597
REMARK INTER + INTRA:          -6.997
REMARK INTER:                  -5.056
REMARK INTRA:                  -1.941
REMARK UNBOUND:                -0.726
REMARK SMILES CCCCCCCCCCCCCC(=O)[O-]
REMARK SMILES IDX 8 1 9 2 10 3 11 4 12 5 13 6 14 7 15 8 16 9 7 10 6 11 5 12
REMARK SMILES IDX 4 13 3 14 2 15 1 16
REMARK H PARENT
REMARK Flexibility Score: inf
ROOT
ATOM      1  C   UNL     1      26.616  34.101  15.061  1.00  0.00     0.000 C 
ENDROOT
BRANCH   1   2
ATOM      2  C   UNL     1      25.695  33.214  15.911  1.00  0.00     0.000 C 
BRANCH   2   3
ATOM      3  C   UNL     1      24.428  32.833  15.134  1.00  0.00     0.000 C 
BRANCH   3   4
ATOM      4  C   UNL     1      24.601  32.947  13.609  1.00  0.00     0.000 C 
BRANCH   4   5
ATOM      5  C   UNL     1      23.296  33.296  12.863  1.00  0.00     0.006 C 
BRANCH   5   6
ATOM      6  C   UNL     1      23.014  34.804  12.861  1.00  0.00     0.053 C 
BRANCH   6   7
ATOM      7  C   UNL     1      22.033  35.156  13.935  1.00  0.00     0.041 C 
ATOM      8  O   UNL     1      21.111  34.354  14.240  1.00  0.00    -0.550 OA
ATOM      9  O   UNL     1      22.107  36.393  14.565  1.00  0.00    -0.550 OA
ENDBRANCH   6   7
ENDBRANCH   5   6
ENDBRANCH   4   5
ENDBRANCH   3   4
ENDBRANCH   2   3
ENDBRANCH   1   2
BRANCH   1  10
ATOM     10  C   UNL     1      26.843  35.490  15.678  1.00  0.00     0.000 C 
BRANCH  10  11
ATOM     11  C   UNL     1      25.613  36.405  15.546  1.00  0.00    -0.000 C 
BRANCH  11  12
ATOM     12  C   UNL     1      25.565  37.138  14.196  1.00  0.00    -0.000 C 
BRANCH  12  13
ATOM     13  C   UNL     1      26.964  37.491  13.658  1.00  0.00    -0.000 C 
BRANCH  13  14
ATOM     14  C   UNL     1      27.047  37.364  12.122  1.00  0.00    -0.000 C 
BRANCH  14  15
ATOM     15  C   UNL     1      26.207  36.208  11.554  1.00  0.00    -0.003 C 
ATOM     16  C   UNL     1      26.945  34.871  11.564  1.00  0.00     0.004 C 
ENDBRANCH  14  15
ENDBRANCH  13  14
ENDBRANCH  12  13
ENDBRANCH  11  12
ENDBRANCH  10  11
ENDBRANCH   1  10
TORSDOF 12
ENDMDL
MODEL 6
REMARK VINA RESULT:    -3.685     15.970     17.889
REMARK INTER + INTRA:          -6.996
REMARK INTER:                  -5.393
REMARK INTRA:                  -1.604
REMARK UNBOUND:                -0.726
REMARK SMILES CCCCCCCCCCCCCC(=O)[O-]
REMARK SMILES IDX 8 1 9 2 10 3 11 4 12 5 13 6 14 7 15 8 16 9 7 10 6 11 5 12
REMARK SMILES IDX 4 13 3 14 2 15 1 16
REMARK H PARENT
REMARK Flexibility Score: inf
ROOT
ATOM      1  C   UNL     1      25.764  33.285  12.344  1.00  0.00     0.000 C 
ENDROOT
BRANCH   1   2
ATOM      2  C   UNL     1      24.561  32.857  13.197  1.00  0.00     0.000 C 
BRANCH   2   3
ATOM      3  C   UNL     1      24.829  33.101  14.688  1.00  0.00     0.000 C 
BRANCH   3   4
ATOM      4  C   UNL     1      23.541  33.297  15.505  1.00  0.00     0.000 C 
BRANCH   4   5
ATOM      5  C   UNL     1      22.269  32.801  14.786  1.00  0.00     0.006 C 
BRANCH   5   6
ATOM      6  C   UNL     1      21.165  33.867  14.758  1.00  0.00     0.053 C 
BRANCH   6   7
ATOM      7  C   UNL     1      20.944  34.357  13.362  1.00  0.00     0.041 C 
ATOM      8  O   UNL     1      19.785  34.363  12.868  1.00  0.00    -0.550 OA
ATOM      9  O   UNL     1      22.024  34.761  12.587  1.00  0.00    -0.550 OA
ENDBRANCH   6   7
ENDBRANCH   5   6
ENDBRANCH   4   5
ENDBRANCH   3   4
ENDBRANCH   2   3
ENDBRANCH   1   2
BRANCH   1  10
ATOM     10  C   UNL     1      26.854  33.995  13.164  1.00  0.00     0.000 C 
BRANCH  10  11
ATOM     11  C   UNL     1      27.043  35.465  12.752  1.00  0.00    -0.000 C 
BRANCH  11  12
ATOM     12  C   UNL     1      25.716  36.238  12.695  1.00  0.00    -0.000 C 
BRANCH  12  13
ATOM     13  C   UNL     1      25.591  37.291  13.811  1.00  0.00    -0.000 C 
BRANCH  13  14
ATOM     14  C   UNL     1      25.478  36.646  15.209  1.00  0.00    -0.000 C 
BRANCH  14  15
ATOM     15  C   UNL     1      24.130  36.910  15.902  1.00  0.00    -0.003 C 
ATOM     16  C   UNL     1      23.005  37.230  14.920  1.00  0.00     0.004 C 
ENDBRANCH  14  15
ENDBRANCH  13  14
ENDBRANCH  12  13
ENDBRANCH  11  12
ENDBRANCH  10  11
ENDBRANCH   1  10
TORSDOF 12
ENDMDL
MODEL 7
REMARK VINA RESULT:    -3.656     15.883     17.772
REMARK INTER + INTRA:          -6.947
REMARK INTER:                  -5.491
REMARK INTRA:                  -1.456
REMARK UNBOUND:                -0.726
REMARK SMILES CCCCCCCCCCCCCC(=O)[O-]
REMARK SMILES IDX 8 1 9 2 10 3 11 4 12 5 13 6 14 7 15 8 16 9 7 10 6 11 5 12
REMARK SMILES IDX 4 13 3 14 2 15 1 16
REMARK H PARENT
REMARK Flexibility Score: inf
ROOT
ATOM      1  C   UNL     1      24.429  33.361  12.861  1.00  0.00     0.000 C 
ENDROOT
BRANCH   1   2
ATOM      2  C   UNL     1      25.642  32.875  12.055  1.00  0.00     0.000 C 
BRANCH   2   3
ATOM      3  C   UNL     1      26.897  33.685  12.407  1.00  0.00     0.000 C 
BRANCH   3   4
ATOM      4  C   UNL     1      26.960  35.040  11.682  1.00  0.00     0.000 C 
BRANCH   4   5
ATOM      5  C   UNL     1      27.066  36.249  12.635  1.00  0.00     0.006 C 
BRANCH   5   6
ATOM      6  C   UNL     1      27.025  35.829  14.111  1.00  0.00     0.053 C 
BRANCH   6   7
ATOM      7  C   UNL     1      25.775  36.329  14.765  1.00  0.00     0.041 C 
ATOM      8  O   UNL     1      25.680  36.348  16.020  1.00  0.00    -0.550 OA
ATOM      9  O   UNL     1      24.695  36.728  13.986  1.00  0.00    -0.550 OA
ENDBRANCH   6   7
ENDBRANCH   5   6
ENDBRANCH   4   5
ENDBRANCH   3   4
ENDBRANCH   2   3
ENDBRANCH   1   2
BRANCH   1  10
ATOM     10  C   UNL     1      24.154  32.498  14.103  1.00  0.00     0.000 C 
BRANCH  10  11
ATOM     11  C   UNL     1      23.763  33.337  15.332  1.00  0.00    -0.000 C 
BRANCH  11  12
ATOM     12  C   UNL     1      22.342  33.028  15.830  1.00  0.00    -0.000 C 
BRANCH  12  13
ATOM     13  C   UNL     1      21.371  34.207  15.630  1.00  0.00    -0.000 C 
BRANCH  13  14
ATOM     14  C   UNL     1      20.634  34.130  14.276  1.00  0.00    -0.000 C 
BRANCH  14  15
ATOM     15  C   UNL     1      21.191  35.097  13.216  1.00  0.00    -0.003 C 
ATOM     16  C   UNL     1      21.132  34.530  11.799  1.00  0.00     0.004 C 
ENDBRANCH  14  15
ENDBRANCH  13  14
ENDBRANCH  12  13
ENDBRANCH  11  12
ENDBRANCH  10  11
ENDBRANCH   1  10
TORSDOF 12
ENDMDL
MODEL 8
REMARK VINA RESULT:    -3.642     15.721     18.058
REMARK INTER + INTRA:          -6.923
REMARK INTER:                  -5.112
REMARK INTRA:                  -1.811
REMARK UNBOUND:                -0.726
REMARK SMILES CCCCCCCCCCCCCC(=O)[O-]
REMARK SMILES IDX 8 1 9 2 10 3 11 4 12 5 13 6 14 7 15 8 16 9 7 10 6 11 5 12
REMARK SMILES IDX 4 13 3 14 2 15 1 16
REMARK H PARENT
REMARK Flexibility Score: inf
ROOT
ATOM      1  C   UNL     1      21.634  34.629  13.847  1.00  0.00     0.000 C 
ENDROOT
BRANCH   1   2
ATOM      2  C   UNL     1      21.799  33.545  14.922  1.00  0.00     0.000 C 
BRANCH   2   3
ATOM      3  C   UNL     1      22.861  32.518  14.508  1.00  0.00     0.000 C 
BRANCH   3   4
ATOM      4  C   UNL     1      24.259  32.841  15.062  1.00  0.00     0.000 C 
BRANCH   4   5
ATOM      5  C   UNL     1      25.267  33.284  13.981  1.00  0.00     0.006 C 
BRANCH   5   6
ATOM      6  C   UNL     1      24.752  33.011  12.561  1.00  0.00     0.053 C 
BRANCH   6   7
ATOM      7  C   UNL     1      25.889  32.687  11.644  1.00  0.00     0.041 C 
ATOM      8  O   UNL     1      26.994  33.278  11.770  1.00  0.00    -0.550 OA
ATOM      9  O   UNL     1      25.712  31.769  10.616  1.00  0.00    -0.550 OA
ENDBRANCH   6   7
ENDBRANCH   5   6
ENDBRANCH   4   5
ENDBRANCH   3   4
ENDBRANCH   2   3
ENDBRANCH   1   2
BRANCH   1  10
ATOM     10  C   UNL     1      22.446  35.899  14.150  1.00  0.00     0.000 C 
BRANCH  10  11
ATOM     11  C   UNL     1      22.843  36.008  15.633  1.00  0.00    -0.000 C 
BRANCH  11  12
ATOM     12  C   UNL     1      24.062  36.918  15.852  1.00  0.00    -0.000 C 
BRANCH  12  13
ATOM     13  C   UNL     1      24.825  37.216  14.548  1.00  0.00    -0.000 C 
BRANCH  13  14
ATOM     14  C   UNL     1      26.250  36.624  14.559  1.00  0.00    -0.000 C 
BRANCH  14  15
ATOM     15  C   UNL     1      26.944  36.663  13.187  1.00  0.00    -0.003 C 
ATOM     16  C   UNL     1      25.974  36.489  12.020  1.00  0.00     0.004 C 
ENDBRANCH  14  15
ENDBRANCH  13  14
ENDBRANCH  12  13
ENDBRANCH  11  12
ENDBRANCH  10  11
ENDBRANCH   1  10
TORSDOF 12
ENDMDL
MODEL 9
REMARK VINA RESULT:    -3.440     16.066     18.222
REMARK INTER + INTRA:          -6.579
REMARK INTER:                  -4.911
REMARK INTRA:                  -1.668
REMARK UNBOUND:                -0.726
REMARK SMILES CCCCCCCCCCCCCC(=O)[O-]
REMARK SMILES IDX 8 1 9 2 10 3 11 4 12 5 13 6 14 7 15 8 16 9 7 10 6 11 5 12
REMARK SMILES IDX 4 13 3 14 2 15 1 16
REMARK H PARENT
REMARK Flexibility Score: inf
ROOT
ATOM      1  C   UNL     1      23.455  36.187  15.487  1.00  0.00     0.000 C 
ENDROOT
BRANCH   1   2
ATOM      2  C   UNL     1      24.180  37.449  14.997  1.00  0.00     0.000 C 
BRANCH   2   3
ATOM      3  C   UNL     1      25.472  37.684  15.792  1.00  0.00     0.000 C 
BRANCH   3   4
ATOM      4  C   UNL     1      26.740  37.550  14.931  1.00  0.00     0.000 C 
BRANCH   4   5
ATOM      5  C   UNL     1      26.451  37.235  13.448  1.00  0.00     0.006 C 
BRANCH   5   6
ATOM      6  C   UNL     1      27.125  35.935  12.989  1.00  0.00     0.053 C 
BRANCH   6   7
ATOM      7  C   UNL     1      26.102  34.952  12.514  1.00  0.00     0.041 C 
ATOM      8  O   UNL     1      24.899  35.302  12.383  1.00  0.00    -0.550 OA
ATOM      9  O   UNL     1      26.466  33.635  12.264  1.00  0.00    -0.550 OA
ENDBRANCH   6   7
ENDBRANCH   5   6
ENDBRANCH   4   5
ENDBRANCH   3   4
ENDBRANCH   2   3
ENDBRANCH   1   2
BRANCH   1  10
ATOM     10  C   UNL     1      24.422  35.088  15.957  1.00  0.00     0.000 C 
BRANCH  10  11
ATOM     11  C   UNL     1      23.759  33.701  16.015  1.00  0.00    -0.000 C 
BRANCH  11  12
ATOM     12  C   UNL     1      24.019  32.869  14.749  1.00  0.00    -0.000 C 
BRANCH  12  13
ATOM     13  C   UNL     1      22.782  32.770  13.837  1.00  0.00    -0.000 C 
BRANCH  13  14
ATOM     14  C   UNL     1      21.496  33.242  14.548  1.00  0.00    -0.000 C 
BRANCH  14  15
ATOM     15  C   UNL     1      20.743  34.348  13.789  1.00  0.00    -0.003 C 
ATOM     16  C   UNL     1      21.413  34.733  12.471  1.00  0.00     0.004 C 
ENDBRANCH  14  15
ENDBRANCH  13  14
ENDBRANCH  12  13
ENDBRANCH  11  12
ENDBRANCH  10  11
ENDBRANCH   1  10
TORSDOF 12
ENDMDL
