MODEL 1
REMARK VINA RESULT:    -6.970      0.000      0.000
REMARK INTER + INTRA:          -7.801
REMARK INTER:                  -7.582
REMARK INTRA:                  -0.219
REMARK UNBOUND:                -0.219
REMARK SMILES C[C@@H]1[C@H]2C3=CC[C@H]4[C@@]5(C)CC[C@@H](O)C(C)(C)[C@H]5CC[C@@]4(C)[C@]3(C)CC[C@@]2(C(=O)[O-])CC[C@@H]1C
REMARK SMILES IDX 26 1 30 2 25 3 3 4 31 5 24 6 4 7 2 8 32 9 22 10 5 11 1 12
REMARK SMILES IDX 33 13 23 14 20 15 6 16 7 17 19 18 21 19 8 20 18 21 17 22
REMARK SMILES IDX 10 23 9 24 14 25 11 26 12 27 15 28 16 29 27 30 28 31 29 32
REMARK SMILES IDX 13 33
REMARK H PARENT 13 34
REMARK Flexibility Score: inf
ROOT
ATOM      1  C   UNL     1      23.324  -5.076 101.265  1.00  0.00     0.017 C 
ATOM      2  C   UNL     1      22.662  -6.495 101.163  1.00  0.00     0.014 C 
ATOM      3  C   UNL     1      24.670  -5.137 100.499  1.00  0.00     0.014 C 
ATOM      4  C   UNL     1      23.584  -4.674 102.768  1.00  0.00     0.030 C 
ATOM      5  C   UNL     1      21.821  -6.836 102.393  1.00  0.00     0.004 C 
ATOM      6  C   UNL     1      25.407  -3.799 100.517  1.00  0.00     0.013 C 
ATOM      7  C   UNL     1      24.590  -3.520 102.928  1.00  0.00    -0.063 C 
ATOM      8  C   UNL     1      23.931  -5.952 103.607  1.00  0.00    -0.003 C 
ATOM      9  C   UNL     1      22.686  -6.906 103.677  1.00  0.00    -0.011 C 
ATOM     10  C   UNL     1      25.746  -3.262 101.951  1.00  0.00    -0.006 C 
ATOM     11  C   UNL     1      24.506  -2.759 104.039  1.00  0.00    -0.027 C 
ATOM     12  C   UNL     1      24.547  -5.684 104.995  1.00  0.00     0.008 C 
ATOM     13  C   UNL     1      21.779  -6.664 104.899  1.00  0.00     0.008 C 
ATOM     14  C   UNL     1      26.948  -4.106 102.465  1.00  0.00     0.017 C 
ATOM     15  C   UNL     1      26.043  -1.670 101.901  1.00  0.00    -0.020 C 
ATOM     16  C   UNL     1      25.633  -1.874 104.489  1.00  0.00     0.032 C 
ATOM     17  C   UNL     1      26.275  -1.033 103.348  1.00  0.00     0.006 C 
ATOM     18  C   UNL     1      27.245  -1.356 100.972  1.00  0.00     0.008 C 
ATOM     19  C   UNL     1      24.794  -0.928 101.283  1.00  0.00     0.012 C 
ATOM     20  C   UNL     1      27.725  -0.438 103.677  1.00  0.00    -0.025 C 
ATOM     21  C   UNL     1      27.722   0.089 101.083  1.00  0.00     0.005 C 
ATOM     22  C   UNL     1      28.182   0.557 102.514  1.00  0.00     0.003 C 
ATOM     23  C   UNL     1      28.793  -1.553 103.904  1.00  0.00     0.010 C 
ATOM     24  C   UNL     1      27.575   0.353 105.018  1.00  0.00     0.012 C 
ATOM     25  C   UNL     1      29.712   1.034 102.579  1.00  0.00    -0.006 C 
ATOM     26  C   UNL     1      30.234  -1.042 104.012  1.00  0.00     0.033 C 
ATOM     27  C   UNL     1      30.647  -0.194 102.792  1.00  0.00     0.120 C 
ATOM     28  C   UNL     1      29.935   2.085 103.721  1.00  0.00     0.014 C 
ATOM     29  C   UNL     1      30.154   1.786 101.279  1.00  0.00     0.014 C 
ENDROOT
BRANCH   1  30
ATOM     30  C   UNL     1      22.396  -4.068 100.586  1.00  0.00     0.048 C 
ATOM     31  O   UNL     1      22.172  -4.152  99.350  1.00  0.00    -0.550 OA
ATOM     32  O   UNL     1      21.780  -3.050 101.306  1.00  0.00    -0.550 OA
ENDBRANCH   1  30
BRANCH  27  33
ATOM     33  O   UNL     1      30.655  -1.005 101.643  1.00  0.00    -0.393 OA
ATOM     34  H   UNL     1      30.237  -1.869 101.892  1.00  0.00     0.210 HD
ENDBRANCH  27  33
TORSDOF 2
ENDMDL
MODEL 2
REMARK VINA RESULT:    -6.843      2.075      3.546
REMARK INTER + INTRA:          -7.662
REMARK INTER:                  -7.444
REMARK INTRA:                  -0.218
REMARK UNBOUND:                -0.219
REMARK SMILES C[C@@H]1[C@H]2C3=CC[C@H]4[C@@]5(C)CC[C@@H](O)C(C)(C)[C@H]5CC[C@@]4(C)[C@]3(C)CC[C@@]2(C(=O)[O-])CC[C@@H]1C
REMARK SMILES IDX 26 1 30 2 25 3 3 4 31 5 24 6 4 7 2 8 32 9 22 10 5 11 1 12
REMARK SMILES IDX 33 13 23 14 20 15 6 16 7 17 19 18 21 19 8 20 18 21 17 22
REMARK SMILES IDX 10 23 9 24 14 25 11 26 12 27 15 28 16 29 27 30 28 31 29 32
REMARK SMILES IDX 13 33
REMARK H PARENT 13 34
REMARK Flexibility Score: inf
ROOT
ATOM      1  C   UNL     1      23.951  -5.218 103.070  1.00  0.00     0.017 C 
ATOM      2  C   UNL     1      22.606  -6.021 103.159  1.00  0.00     0.014 C 
ATOM      3  C   UNL     1      24.231  -4.630 104.477  1.00  0.00     0.014 C 
ATOM      4  C   UNL     1      23.849  -4.049 102.015  1.00  0.00     0.030 C 
ATOM      5  C   UNL     1      21.825  -5.998 101.844  1.00  0.00     0.004 C 
ATOM      6  C   UNL     1      25.532  -3.830 104.520  1.00  0.00     0.013 C 
ATOM      7  C   UNL     1      24.947  -2.983 102.175  1.00  0.00    -0.063 C 
ATOM      8  C   UNL     1      22.391  -3.475 101.997  1.00  0.00    -0.003 C 
ATOM      9  C   UNL     1      21.390  -4.561 101.461  1.00  0.00    -0.011 C 
ATOM     10  C   UNL     1      25.586  -2.620 103.524  1.00  0.00    -0.006 C 
ATOM     11  C   UNL     1      25.292  -2.263 101.087  1.00  0.00    -0.027 C 
ATOM     12  C   UNL     1      22.225  -2.117 101.284  1.00  0.00     0.008 C 
ATOM     13  C   UNL     1      21.158  -4.501  99.939  1.00  0.00     0.008 C 
ATOM     14  C   UNL     1      24.698  -1.501 104.140  1.00  0.00     0.017 C 
ATOM     15  C   UNL     1      27.121  -2.167 103.269  1.00  0.00    -0.020 C 
ATOM     16  C   UNL     1      26.048  -0.970 101.190  1.00  0.00     0.032 C 
ATOM     17  C   UNL     1      27.258  -1.018 102.168  1.00  0.00     0.006 C 
ATOM     18  C   UNL     1      27.800  -1.731 104.594  1.00  0.00     0.008 C 
ATOM     19  C   UNL     1      27.945  -3.401 102.731  1.00  0.00     0.012 C 
ATOM     20  C   UNL     1      27.803   0.411 102.645  1.00  0.00    -0.025 C 
ATOM     21  C   UNL     1      29.155  -1.063 104.378  1.00  0.00     0.005 C 
ATOM     22  C   UNL     1      29.152   0.229 103.479  1.00  0.00     0.003 C 
ATOM     23  C   UNL     1      26.745   1.210 103.469  1.00  0.00     0.010 C 
ATOM     24  C   UNL     1      28.095   1.221 101.340  1.00  0.00     0.012 C 
ATOM     25  C   UNL     1      29.677   1.544 104.233  1.00  0.00    -0.006 C 
ATOM     26  C   UNL     1      27.282   2.487 104.127  1.00  0.00     0.033 C 
ATOM     27  C   UNL     1      28.510   2.213 105.018  1.00  0.00     0.120 C 
ATOM     28  C   UNL     1      30.305   2.569 103.225  1.00  0.00     0.014 C 
ATOM     29  C   UNL     1      30.843   1.230 105.230  1.00  0.00     0.014 C 
ENDROOT
BRANCH   1  30
ATOM     30  C   UNL     1      25.066  -6.194 102.694  1.00  0.00     0.048 C 
ATOM     31  O   UNL     1      25.409  -7.099 103.500  1.00  0.00    -0.550 OA
ATOM     32  O   UNL     1      25.716  -6.115 101.467  1.00  0.00    -0.550 OA
ENDBRANCH   1  30
BRANCH  27  33
ATOM     33  O   UNL     1      28.126   1.403 106.102  1.00  0.00    -0.393 OA
ATOM     34  H   UNL     1      27.856   0.524 105.730  1.00  0.00     0.210 HD
ENDBRANCH  27  33
TORSDOF 2
ENDMDL
MODEL 3
REMARK VINA RESULT:    -6.830      2.589      9.077
REMARK INTER + INTRA:          -7.647
REMARK INTER:                  -7.435
REMARK INTRA:                  -0.213
REMARK UNBOUND:                -0.219
REMARK SMILES C[C@@H]1[C@H]2C3=CC[C@H]4[C@@]5(C)CC[C@@H](O)C(C)(C)[C@H]5CC[C@@]4(C)[C@]3(C)CC[C@@]2(C(=O)[O-])CC[C@@H]1C
REMARK SMILES IDX 26 1 30 2 25 3 3 4 31 5 24 6 4 7 2 8 32 9 22 10 5 11 1 12
REMARK SMILES IDX 33 13 23 14 20 15 6 16 7 17 19 18 21 19 8 20 18 21 17 22
REMARK SMILES IDX 10 23 9 24 14 25 11 26 12 27 15 28 16 29 27 30 28 31 29 32
REMARK SMILES IDX 13 33
REMARK H PARENT 13 34
REMARK Flexibility Score: inf
ROOT
ATOM      1  C   UNL     1      31.616   2.903 104.329  1.00  0.00     0.017 C 
ATOM      2  C   UNL     1      33.034   3.576 104.332  1.00  0.00     0.014 C 
ATOM      3  C   UNL     1      31.777   1.484 104.932  1.00  0.00     0.014 C 
ATOM      4  C   UNL     1      31.038   2.797 102.865  1.00  0.00     0.030 C 
ATOM      5  C   UNL     1      33.219   4.551 103.169  1.00  0.00     0.004 C 
ATOM      6  C   UNL     1      30.451   0.728 104.994  1.00  0.00     0.013 C 
ATOM      7  C   UNL     1      29.879   1.794 102.736  1.00  0.00    -0.063 C 
ATOM      8  C   UNL     1      32.208   2.566 101.847  1.00  0.00    -0.003 C 
ATOM      9  C   UNL     1      33.140   3.829 101.799  1.00  0.00    -0.011 C 
ATOM     10  C   UNL     1      29.747   0.534 103.605  1.00  0.00    -0.006 C 
ATOM     11  C   UNL     1      28.989   1.981 101.739  1.00  0.00    -0.027 C 
ATOM     12  C   UNL     1      31.778   2.097 100.442  1.00  0.00     0.008 C 
ATOM     13  C   UNL     1      32.746   4.857 100.720  1.00  0.00     0.008 C 
ATOM     14  C   UNL     1      30.530  -0.589 102.867  1.00  0.00     0.017 C 
ATOM     15  C   UNL     1      28.174   0.205 103.812  1.00  0.00    -0.020 C 
ATOM     16  C   UNL     1      28.063   0.893 101.278  1.00  0.00     0.032 C 
ATOM     17  C   UNL     1      27.369   0.117 102.435  1.00  0.00     0.006 C 
ATOM     18  C   UNL     1      27.981  -1.095 104.636  1.00  0.00     0.008 C 
ATOM     19  C   UNL     1      27.505   1.366 104.646  1.00  0.00     0.012 C 
ATOM     20  C   UNL     1      26.746  -1.300 102.024  1.00  0.00    -0.025 C 
ATOM     21  C   UNL     1      26.536  -1.585 104.647  1.00  0.00     0.005 C 
ATOM     22  C   UNL     1      25.902  -1.898 103.241  1.00  0.00     0.003 C 
ATOM     23  C   UNL     1      27.832  -2.317 101.552  1.00  0.00     0.010 C 
ATOM     24  C   UNL     1      25.799  -1.023 100.811  1.00  0.00     0.012 C 
ATOM     25  C   UNL     1      25.429  -3.421 103.068  1.00  0.00    -0.006 C 
ATOM     26  C   UNL     1      27.321  -3.748 101.350  1.00  0.00     0.033 C 
ATOM     27  C   UNL     1      26.627  -4.304 102.610  1.00  0.00     0.120 C 
ATOM     28  C   UNL     1      24.249  -3.540 102.042  1.00  0.00     0.014 C 
ATOM     29  C   UNL     1      24.841  -4.013 104.393  1.00  0.00     0.014 C 
ENDROOT
BRANCH   1  30
ATOM     30  C   UNL     1      30.692   3.734 105.219  1.00  0.00     0.048 C 
ATOM     31  O   UNL     1      30.864   3.747 106.467  1.00  0.00    -0.550 OA
ATOM     32  O   UNL     1      29.656   4.491 104.683  1.00  0.00    -0.550 OA
ENDBRANCH   1  30
BRANCH  27  33
ATOM     33  O   UNL     1      27.571  -4.420 103.646  1.00  0.00    -0.393 OA
ATOM     34  H   UNL     1      28.370  -4.867 103.266  1.00  0.00     0.210 HD
ENDBRANCH  27  33
TORSDOF 2
ENDMDL
MODEL 4
REMARK VINA RESULT:    -6.778      3.334      6.526
REMARK INTER + INTRA:          -7.591
REMARK INTER:                  -7.372
REMARK INTRA:                  -0.220
REMARK UNBOUND:                -0.219
REMARK SMILES C[C@@H]1[C@H]2C3=CC[C@H]4[C@@]5(C)CC[C@@H](O)C(C)(C)[C@H]5CC[C@@]4(C)[C@]3(C)CC[C@@]2(C(=O)[O-])CC[C@@H]1C
REMARK SMILES IDX 26 1 30 2 25 3 3 4 31 5 24 6 4 7 2 8 32 9 22 10 5 11 1 12
REMARK SMILES IDX 33 13 23 14 20 15 6 16 7 17 19 18 21 19 8 20 18 21 17 22
REMARK SMILES IDX 10 23 9 24 14 25 11 26 12 27 15 28 16 29 27 30 28 31 29 32
REMARK SMILES IDX 13 33
REMARK H PARENT 13 34
REMARK Flexibility Score: inf
ROOT
ATOM      1  C   UNL     1      27.690  -2.328 103.993  1.00  0.00     0.017 C 
ATOM      2  C   UNL     1      26.376  -3.164 103.803  1.00  0.00     0.014 C 
ATOM      3  C   UNL     1      27.493  -1.436 105.246  1.00  0.00     0.014 C 
ATOM      4  C   UNL     1      27.976  -1.421 102.735  1.00  0.00     0.030 C 
ATOM      5  C   UNL     1      26.085  -3.468 102.334  1.00  0.00     0.004 C 
ATOM      6  C   UNL     1      28.720  -0.576 105.543  1.00  0.00     0.013 C 
ATOM      7  C   UNL     1      28.979  -0.287 103.011  1.00  0.00    -0.063 C 
ATOM      8  C   UNL     1      26.622  -0.944 102.104  1.00  0.00    -0.003 C 
ATOM      9  C   UNL     1      25.836  -2.172 101.520  1.00  0.00    -0.011 C 
ATOM     10  C   UNL     1      29.134   0.392 104.380  1.00  0.00    -0.006 C 
ATOM     11  C   UNL     1      29.686   0.199 101.970  1.00  0.00    -0.027 C 
ATOM     12  C   UNL     1      26.736   0.217 101.096  1.00  0.00     0.008 C 
ATOM     13  C   UNL     1      26.132  -2.455 100.034  1.00  0.00     0.008 C 
ATOM     14  C   UNL     1      28.115   1.567 104.401  1.00  0.00     0.017 C 
ATOM     15  C   UNL     1      30.674   0.862 104.559  1.00  0.00    -0.020 C 
ATOM     16  C   UNL     1      30.392   1.523 102.031  1.00  0.00     0.032 C 
ATOM     17  C   UNL     1      31.200   1.752 103.341  1.00  0.00     0.006 C 
ATOM     18  C   UNL     1      30.876   1.609 105.903  1.00  0.00     0.008 C 
ATOM     19  C   UNL     1      31.604  -0.413 104.612  1.00  0.00     0.012 C 
ATOM     20  C   UNL     1      31.584   3.277 103.644  1.00  0.00    -0.025 C 
ATOM     21  C   UNL     1      32.239   2.287 106.009  1.00  0.00     0.005 C 
ATOM     22  C   UNL     1      32.569   3.353 104.899  1.00  0.00     0.003 C 
ATOM     23  C   UNL     1      30.328   4.177 103.870  1.00  0.00     0.010 C 
ATOM     24  C   UNL     1      32.317   3.802 102.366  1.00  0.00     0.012 C 
ATOM     25  C   UNL     1      32.837   4.826 105.474  1.00  0.00    -0.006 C 
ATOM     26  C   UNL     1      30.640   5.592 104.369  1.00  0.00     0.033 C 
ATOM     27  C   UNL     1      31.489   5.584 105.656  1.00  0.00     0.120 C 
ATOM     28  C   UNL     1      33.791   5.642 104.533  1.00  0.00     0.014 C 
ATOM     29  C   UNL     1      33.592   4.798 106.846  1.00  0.00     0.014 C 
ENDROOT
BRANCH   1  30
ATOM     30  C   UNL     1      28.844  -3.300 104.236  1.00  0.00     0.048 C 
ATOM     31  O   UNL     1      28.856  -4.017 105.271  1.00  0.00    -0.550 OA
ATOM     32  O   UNL     1      29.893  -3.422 103.331  1.00  0.00    -0.550 OA
ENDBRANCH   1  30
BRANCH  27  33
ATOM     33  O   UNL     1      30.744   5.007 106.701  1.00  0.00    -0.393 OA
ATOM     34  H   UNL     1      30.899   4.028 106.665  1.00  0.00     0.210 HD
ENDBRANCH  27  33
TORSDOF 2
ENDMDL
MODEL 5
REMARK VINA RESULT:    -6.737      2.301      9.011
REMARK INTER + INTRA:          -7.547
REMARK INTER:                  -7.330
REMARK INTRA:                  -0.217
REMARK UNBOUND:                -0.219
REMARK SMILES C[C@@H]1[C@H]2C3=CC[C@H]4[C@@]5(C)CC[C@@H](O)C(C)(C)[C@H]5CC[C@@]4(C)[C@]3(C)CC[C@@]2(C(=O)[O-])CC[C@@H]1C
REMARK SMILES IDX 26 1 30 2 25 3 3 4 31 5 24 6 4 7 2 8 32 9 22 10 5 11 1 12
REMARK SMILES IDX 33 13 23 14 20 15 6 16 7 17 19 18 21 19 8 20 18 21 17 22
REMARK SMILES IDX 10 23 9 24 14 25 11 26 12 27 15 28 16 29 27 30 28 31 29 32
REMARK SMILES IDX 13 33
REMARK H PARENT 13 34
REMARK Flexibility Score: inf
ROOT
ATOM      1  C   UNL     1      32.216   2.734 102.553  1.00  0.00     0.017 C 
ATOM      2  C   UNL     1      33.006   4.087 102.467  1.00  0.00     0.014 C 
ATOM      3  C   UNL     1      31.553   2.498 101.172  1.00  0.00     0.014 C 
ATOM      4  C   UNL     1      31.107   2.792 103.673  1.00  0.00     0.030 C 
ATOM      5  C   UNL     1      33.052   4.822 103.806  1.00  0.00     0.004 C 
ATOM      6  C   UNL     1      30.758   1.193 101.127  1.00  0.00     0.013 C 
ATOM      7  C   UNL     1      30.038   1.693 103.534  1.00  0.00    -0.063 C 
ATOM      8  C   UNL     1      30.527   4.245 103.773  1.00  0.00    -0.003 C 
ATOM      9  C   UNL     1      31.635   5.235 104.282  1.00  0.00    -0.011 C 
ATOM     10  C   UNL     1      29.605   1.098 102.186  1.00  0.00    -0.006 C 
ATOM     11  C   UNL     1      29.381   1.306 104.648  1.00  0.00    -0.027 C 
ATOM     12  C   UNL     1      29.210   4.378 104.564  1.00  0.00     0.008 C 
ATOM     13  C   UNL     1      31.659   5.415 105.812  1.00  0.00     0.008 C 
ATOM     14  C   UNL     1      28.450   1.999 101.663  1.00  0.00     0.017 C 
ATOM     15  C   UNL     1      29.174  -0.448 102.413  1.00  0.00    -0.020 C 
ATOM     16  C   UNL     1      28.088   0.545 104.590  1.00  0.00     0.032 C 
ATOM     17  C   UNL     1      28.088  -0.630 103.570  1.00  0.00     0.006 C 
ATOM     18  C   UNL     1      28.670  -1.084 101.091  1.00  0.00     0.008 C 
ATOM     19  C   UNL     1      30.440  -1.281 102.854  1.00  0.00     0.012 C 
ATOM     20  C   UNL     1      26.639  -1.168 103.154  1.00  0.00    -0.025 C 
ATOM     21  C   UNL     1      28.021  -2.451 101.297  1.00  0.00     0.005 C 
ATOM     22  C   UNL     1      26.781  -2.488 102.265  1.00  0.00     0.003 C 
ATOM     23  C   UNL     1      25.789  -0.089 102.411  1.00  0.00     0.010 C 
ATOM     24  C   UNL     1      25.902  -1.510 104.491  1.00  0.00     0.012 C 
ATOM     25  C   UNL     1      25.429  -2.995 101.566  1.00  0.00    -0.006 C 
ATOM     26  C   UNL     1      24.482  -0.612 101.806  1.00  0.00     0.033 C 
ATOM     27  C   UNL     1      24.712  -1.807 100.860  1.00  0.00     0.120 C 
ATOM     28  C   UNL     1      24.464  -3.664 102.607  1.00  0.00     0.014 C 
ATOM     29  C   UNL     1      25.693  -4.124 100.515  1.00  0.00     0.014 C 
ENDROOT
BRANCH   1  30
ATOM     30  C   UNL     1      33.217   1.614 102.837  1.00  0.00     0.048 C 
ATOM     31  O   UNL     1      33.227   1.049 103.962  1.00  0.00    -0.550 OA
ATOM     32  O   UNL     1      34.125   1.191 101.872  1.00  0.00    -0.550 OA
ENDBRANCH   1  30
BRANCH  27  33
ATOM     33  O   UNL     1      25.459  -1.381  99.747  1.00  0.00    -0.393 OA
ATOM     34  H   UNL     1      25.848  -0.498  99.976  1.00  0.00     0.210 HD
ENDBRANCH  27  33
TORSDOF 2
ENDMDL
MODEL 6
REMARK VINA RESULT:    -6.600      1.500      7.643
REMARK INTER + INTRA:          -7.397
REMARK INTER:                  -7.176
REMARK INTRA:                  -0.221
REMARK UNBOUND:                -0.219
REMARK SMILES C[C@@H]1[C@H]2C3=CC[C@H]4[C@@]5(C)CC[C@@H](O)C(C)(C)[C@H]5CC[C@@]4(C)[C@]3(C)CC[C@@]2(C(=O)[O-])CC[C@@H]1C
REMARK SMILES IDX 26 1 30 2 25 3 3 4 31 5 24 6 4 7 2 8 32 9 22 10 5 11 1 12
REMARK SMILES IDX 33 13 23 14 20 15 6 16 7 17 19 18 21 19 8 20 18 21 17 22
REMARK SMILES IDX 10 23 9 24 14 25 11 26 12 27 15 28 16 29 27 30 28 31 29 32
REMARK SMILES IDX 13 33
REMARK H PARENT 13 34
REMARK Flexibility Score: inf
ROOT
ATOM      1  C   UNL     1      29.178  -1.474 102.022  1.00  0.00     0.017 C 
ATOM      2  C   UNL     1      30.093  -0.231 102.302  1.00  0.00     0.014 C 
ATOM      3  C   UNL     1      28.318  -1.144 100.775  1.00  0.00     0.014 C 
ATOM      4  C   UNL     1      28.238  -1.778 103.251  1.00  0.00     0.030 C 
ATOM      5  C   UNL     1      30.393  -0.050 103.790  1.00  0.00     0.004 C 
ATOM      6  C   UNL     1      27.387  -2.294 100.394  1.00  0.00     0.013 C 
ATOM      7  C   UNL     1      27.047  -2.688 102.901  1.00  0.00    -0.063 C 
ATOM      8  C   UNL     1      27.838  -0.438 103.960  1.00  0.00    -0.003 C 
ATOM      9  C   UNL     1      29.104   0.230 104.604  1.00  0.00    -0.011 C 
ATOM     10  C   UNL     1      26.379  -2.715 101.519  1.00  0.00    -0.006 C 
ATOM     11  C   UNL     1      26.502  -3.426 103.892  1.00  0.00    -0.027 C 
ATOM     12  C   UNL     1      26.658  -0.539 104.947  1.00  0.00     0.008 C 
ATOM     13  C   UNL     1      29.347  -0.173 106.072  1.00  0.00     0.008 C 
ATOM     14  C   UNL     1      25.270  -1.624 101.549  1.00  0.00     0.017 C 
ATOM     15  C   UNL     1      25.815  -4.209 101.240  1.00  0.00    -0.020 C 
ATOM     16  C   UNL     1      25.137  -4.041 103.774  1.00  0.00     0.032 C 
ATOM     17  C   UNL     1      24.876  -4.750 102.413  1.00  0.00     0.006 C 
ATOM     18  C   UNL     1      25.076  -4.279  99.878  1.00  0.00     0.008 C 
ATOM     19  C   UNL     1      27.029  -5.213 101.142  1.00  0.00     0.012 C 
ATOM     20  C   UNL     1      23.334  -5.017 102.072  1.00  0.00    -0.025 C 
ATOM     21  C   UNL     1      24.314  -5.588  99.681  1.00  0.00     0.005 C 
ATOM     22  C   UNL     1      23.214  -5.916 100.758  1.00  0.00     0.003 C 
ATOM     23  C   UNL     1      22.518  -3.695 101.915  1.00  0.00     0.010 C 
ATOM     24  C   UNL     1      22.746  -5.792 103.296  1.00  0.00     0.012 C 
ATOM     25  C   UNL     1      21.736  -6.055 100.151  1.00  0.00    -0.006 C 
ATOM     26  C   UNL     1      21.094  -3.884 101.383  1.00  0.00     0.033 C 
ATOM     27  C   UNL     1      21.067  -4.652 100.046  1.00  0.00     0.120 C 
ATOM     28  C   UNL     1      20.848  -7.010 101.023  1.00  0.00     0.014 C 
ATOM     29  C   UNL     1      21.736  -6.723  98.736  1.00  0.00     0.014 C 
ENDROOT
BRANCH   1  30
ATOM     30  C   UNL     1      30.079  -2.671 101.718  1.00  0.00     0.048 C 
ATOM     31  O   UNL     1      30.804  -2.668 100.688  1.00  0.00    -0.550 OA
ATOM     32  O   UNL     1      30.127  -3.776 102.561  1.00  0.00    -0.550 OA
ENDBRANCH   1  30
BRANCH  27  33
ATOM     33  O   UNL     1      21.704  -3.883  99.055  1.00  0.00    -0.393 OA
ATOM     34  H   UNL     1      21.870  -4.481  98.282  1.00  0.00     0.210 HD
ENDBRANCH  27  33
TORSDOF 2
ENDMDL
MODEL 7
REMARK VINA RESULT:    -6.535      2.666      8.986
REMARK INTER + INTRA:          -7.327
REMARK INTER:                  -7.109
REMARK INTRA:                  -0.218
REMARK UNBOUND:                -0.219
REMARK SMILES C[C@@H]1[C@H]2C3=CC[C@H]4[C@@]5(C)CC[C@@H](O)C(C)(C)[C@H]5CC[C@@]4(C)[C@]3(C)CC[C@@]2(C(=O)[O-])CC[C@@H]1C
REMARK SMILES IDX 26 1 30 2 25 3 3 4 31 5 24 6 4 7 2 8 32 9 22 10 5 11 1 12
REMARK SMILES IDX 33 13 23 14 20 15 6 16 7 17 19 18 21 19 8 20 18 21 17 22
REMARK SMILES IDX 10 23 9 24 14 25 11 26 12 27 15 28 16 29 27 30 28 31 29 32
REMARK SMILES IDX 13 33
REMARK H PARENT 13 34
REMARK Flexibility Score: inf
ROOT
ATOM      1  C   UNL     1      31.442   3.550 104.688  1.00  0.00     0.017 C 
ATOM      2  C   UNL     1      32.168   4.514 105.690  1.00  0.00     0.014 C 
ATOM      3  C   UNL     1      29.942   3.942 104.674  1.00  0.00     0.014 C 
ATOM      4  C   UNL     1      31.594   2.044 105.133  1.00  0.00     0.030 C 
ATOM      5  C   UNL     1      33.357   3.847 106.382  1.00  0.00     0.004 C 
ATOM      6  C   UNL     1      29.126   3.074 103.717  1.00  0.00     0.013 C 
ATOM      7  C   UNL     1      30.580   1.101 104.461  1.00  0.00    -0.063 C 
ATOM      8  C   UNL     1      31.620   1.952 106.697  1.00  0.00    -0.003 C 
ATOM      9  C   UNL     1      32.912   2.648 107.258  1.00  0.00    -0.011 C 
ATOM     10  C   UNL     1      29.171   1.538 104.032  1.00  0.00    -0.006 C 
ATOM     11  C   UNL     1      30.914  -0.200 104.334  1.00  0.00    -0.027 C 
ATOM     12  C   UNL     1      31.412   0.539 107.280  1.00  0.00     0.008 C 
ATOM     13  C   UNL     1      34.109   1.694 107.438  1.00  0.00     0.008 C 
ATOM     14  C   UNL     1      28.250   1.314 105.266  1.00  0.00     0.017 C 
ATOM     15  C   UNL     1      28.733   0.682 102.727  1.00  0.00    -0.020 C 
ATOM     16  C   UNL     1      29.893  -1.266 104.058  1.00  0.00     0.032 C 
ATOM     17  C   UNL     1      28.875  -0.895 102.940  1.00  0.00     0.006 C 
ATOM     18  C   UNL     1      27.290   1.041 102.285  1.00  0.00     0.008 C 
ATOM     19  C   UNL     1      29.677   1.056 101.519  1.00  0.00     0.012 C 
ATOM     20  C   UNL     1      27.536  -1.773 102.922  1.00  0.00    -0.025 C 
ATOM     21  C   UNL     1      26.739   0.093 101.223  1.00  0.00     0.005 C 
ATOM     22  C   UNL     1      26.675  -1.428 101.622  1.00  0.00     0.003 C 
ATOM     23  C   UNL     1      26.683  -1.591 104.217  1.00  0.00     0.010 C 
ATOM     24  C   UNL     1      27.998  -3.267 102.867  1.00  0.00     0.012 C 
ATOM     25  C   UNL     1      25.193  -2.042 101.596  1.00  0.00    -0.006 C 
ATOM     26  C   UNL     1      25.296  -2.241 104.162  1.00  0.00     0.033 C 
ATOM     27  C   UNL     1      24.474  -1.763 102.949  1.00  0.00     0.120 C 
ATOM     28  C   UNL     1      25.219  -3.584 101.308  1.00  0.00     0.014 C 
ATOM     29  C   UNL     1      24.328  -1.453 100.431  1.00  0.00     0.014 C 
ENDROOT
BRANCH   1  30
ATOM     30  C   UNL     1      32.039   3.768 103.298  1.00  0.00     0.048 C 
ATOM     31  O   UNL     1      31.909   4.882 102.725  1.00  0.00    -0.550 OA
ATOM     32  O   UNL     1      32.737   2.760 102.641  1.00  0.00    -0.550 OA
ENDBRANCH   1  30
BRANCH  27  33
ATOM     33  O   UNL     1      24.204  -0.389 103.082  1.00  0.00    -0.393 OA
ATOM     34  H   UNL     1      24.266  -0.170 104.047  1.00  0.00     0.210 HD
ENDBRANCH  27  33
TORSDOF 2
ENDMDL
MODEL 8
REMARK VINA RESULT:    -6.534      1.910      3.611
REMARK INTER + INTRA:          -7.326
REMARK INTER:                  -7.116
REMARK INTRA:                  -0.210
REMARK UNBOUND:                -0.219
REMARK SMILES C[C@@H]1[C@H]2C3=CC[C@H]4[C@@]5(C)CC[C@@H](O)C(C)(C)[C@H]5CC[C@@]4(C)[C@]3(C)CC[C@@]2(C(=O)[O-])CC[C@@H]1C
REMARK SMILES IDX 26 1 30 2 25 3 3 4 31 5 24 6 4 7 2 8 32 9 22 10 5 11 1 12
REMARK SMILES IDX 33 13 23 14 20 15 6 16 7 17 19 18 21 19 8 20 18 21 17 22
REMARK SMILES IDX 10 23 9 24 14 25 11 26 12 27 15 28 16 29 27 30 28 31 29 32
REMARK SMILES IDX 13 33
REMARK H PARENT 13 34
REMARK Flexibility Score: inf
ROOT
ATOM      1  C   UNL     1      22.798  -4.679 100.977  1.00  0.00     0.017 C 
ATOM      2  C   UNL     1      21.747  -5.290  99.985  1.00  0.00     0.014 C 
ATOM      3  C   UNL     1      22.450  -3.178 101.152  1.00  0.00     0.014 C 
ATOM      4  C   UNL     1      24.265  -4.823 100.414  1.00  0.00     0.030 C 
ATOM      5  C   UNL     1      22.330  -6.426  99.144  1.00  0.00     0.004 C 
ATOM      6  C   UNL     1      23.404  -2.472 102.114  1.00  0.00     0.013 C 
ATOM      7  C   UNL     1      25.280  -3.895 101.104  1.00  0.00    -0.063 C 
ATOM      8  C   UNL     1      24.248  -4.709  98.851  1.00  0.00    -0.003 C 
ATOM      9  C   UNL     1      23.479  -5.929  98.229  1.00  0.00    -0.011 C 
ATOM     10  C   UNL     1      24.913  -2.522 101.687  1.00  0.00    -0.006 C 
ATOM     11  C   UNL     1      26.577  -4.267 101.107  1.00  0.00    -0.027 C 
ATOM     12  C   UNL     1      25.622  -4.479  98.189  1.00  0.00     0.008 C 
ATOM     13  C   UNL     1      24.384  -7.125  97.875  1.00  0.00     0.008 C 
ATOM     14  C   UNL     1      25.077  -1.498 100.527  1.00  0.00     0.017 C 
ATOM     15  C   UNL     1      25.869  -2.223 102.961  1.00  0.00    -0.020 C 
ATOM     16  C   UNL     1      27.687  -3.299 101.397  1.00  0.00     0.032 C 
ATOM     17  C   UNL     1      27.423  -2.379 102.625  1.00  0.00     0.006 C 
ATOM     18  C   UNL     1      25.582  -0.819 103.555  1.00  0.00     0.008 C 
ATOM     19  C   UNL     1      25.553  -3.264 104.104  1.00  0.00     0.012 C 
ATOM     20  C   UNL     1      28.338  -1.067 102.699  1.00  0.00    -0.025 C 
ATOM     21  C   UNL     1      26.616  -0.387 104.591  1.00  0.00     0.005 C 
ATOM     22  C   UNL     1      28.107  -0.319 104.092  1.00  0.00     0.003 C 
ATOM     23  C   UNL     1      28.091  -0.095 101.502  1.00  0.00     0.010 C 
ATOM     24  C   UNL     1      29.818  -1.563 102.606  1.00  0.00     0.012 C 
ATOM     25  C   UNL     1      28.763   1.140 104.206  1.00  0.00    -0.006 C 
ATOM     26  C   UNL     1      28.781   1.267 101.633  1.00  0.00     0.033 C 
ATOM     27  C   UNL     1      28.411   1.985 102.946  1.00  0.00     0.120 C 
ATOM     28  C   UNL     1      30.320   1.055 104.380  1.00  0.00     0.014 C 
ATOM     29  C   UNL     1      28.281   1.908 105.482  1.00  0.00     0.014 C 
ENDROOT
BRANCH   1  30
ATOM     30  C   UNL     1      22.660  -5.395 102.320  1.00  0.00     0.048 C 
ATOM     31  O   UNL     1      21.566  -5.358 102.943  1.00  0.00    -0.550 OA
ATOM     32  O   UNL     1      23.720  -6.101 102.879  1.00  0.00    -0.550 OA
ENDBRANCH   1  30
BRANCH  27  33
ATOM     33  O   UNL     1      27.039   2.295 102.936  1.00  0.00    -0.393 OA
ATOM     34  H   UNL     1      26.963   3.284 102.926  1.00  0.00     0.210 HD
ENDBRANCH  27  33
TORSDOF 2
ENDMDL
MODEL 9
REMARK VINA RESULT:    -6.490      1.632      2.685
REMARK INTER + INTRA:          -7.278
REMARK INTER:                  -7.101
REMARK INTRA:                  -0.177
REMARK UNBOUND:                -0.219
REMARK SMILES C[C@@H]1[C@H]2C3=CC[C@H]4[C@@]5(C)CC[C@@H](O)C(C)(C)[C@H]5CC[C@@]4(C)[C@]3(C)CC[C@@]2(C(=O)[O-])CC[C@@H]1C
REMARK SMILES IDX 26 1 30 2 25 3 3 4 31 5 24 6 4 7 2 8 32 9 22 10 5 11 1 12
REMARK SMILES IDX 33 13 23 14 20 15 6 16 7 17 19 18 21 19 8 20 18 21 17 22
REMARK SMILES IDX 10 23 9 24 14 25 11 26 12 27 15 28 16 29 27 30 28 31 29 32
REMARK SMILES IDX 13 33
REMARK H PARENT 13 34
REMARK Flexibility Score: inf
ROOT
ATOM      1  C   UNL     1      23.746  -2.137 101.671  1.00  0.00     0.017 C 
ATOM      2  C   UNL     1      22.663  -3.156 101.172  1.00  0.00     0.014 C 
ATOM      3  C   UNL     1      24.601  -1.733 100.442  1.00  0.00     0.014 C 
ATOM      4  C   UNL     1      24.670  -2.781 102.775  1.00  0.00     0.030 C 
ATOM      5  C   UNL     1      22.284  -4.177 102.246  1.00  0.00     0.004 C 
ATOM      6  C   UNL     1      25.691  -0.725 100.802  1.00  0.00     0.013 C 
ATOM      7  C   UNL     1      25.985  -2.012 102.998  1.00  0.00    -0.063 C 
ATOM      8  C   UNL     1      24.860  -4.309 102.484  1.00  0.00    -0.003 C 
ATOM      9  C   UNL     1      23.491  -5.063 102.645  1.00  0.00    -0.011 C 
ATOM     10  C   UNL     1      26.703  -1.223 101.893  1.00  0.00    -0.006 C 
ATOM     11  C   UNL     1      26.584  -2.121 104.202  1.00  0.00    -0.027 C 
ATOM     12  C   UNL     1      26.004  -4.993 103.260  1.00  0.00     0.008 C 
ATOM     13  C   UNL     1      23.249  -5.625 104.059  1.00  0.00     0.008 C 
ATOM     14  C   UNL     1      27.654  -2.231 101.185  1.00  0.00     0.017 C 
ATOM     15  C   UNL     1      27.471   0.036 102.565  1.00  0.00    -0.020 C 
ATOM     16  C   UNL     1      28.023  -1.747 104.416  1.00  0.00     0.032 C 
ATOM     17  C   UNL     1      28.429  -0.390 103.771  1.00  0.00     0.006 C 
ATOM     18  C   UNL     1      28.265   0.836 101.500  1.00  0.00     0.008 C 
ATOM     19  C   UNL     1      26.407   1.031 103.171  1.00  0.00     0.012 C 
ATOM     20  C   UNL     1      30.004  -0.171 103.586  1.00  0.00    -0.025 C 
ATOM     21  C   UNL     1      29.202   1.875 102.111  1.00  0.00     0.005 C 
ATOM     22  C   UNL     1      30.294   1.323 103.102  1.00  0.00     0.003 C 
ATOM     23  C   UNL     1      30.641  -1.205 102.605  1.00  0.00     0.010 C 
ATOM     24  C   UNL     1      30.643  -0.401 104.995  1.00  0.00     0.012 C 
ATOM     25  C   UNL     1      31.800   1.615 102.633  1.00  0.00    -0.006 C 
ATOM     26  C   UNL     1      32.098  -0.912 102.229  1.00  0.00     0.033 C 
ATOM     27  C   UNL     1      32.279   0.506 101.650  1.00  0.00     0.120 C 
ATOM     28  C   UNL     1      32.773   1.703 103.860  1.00  0.00     0.014 C 
ATOM     29  C   UNL     1      31.943   3.008 101.934  1.00  0.00     0.014 C 
ENDROOT
BRANCH   1  30
ATOM     30  C   UNL     1      23.025  -0.904 102.217  1.00  0.00     0.048 C 
ATOM     31  O   UNL     1      22.189  -0.294 101.500  1.00  0.00    -0.550 OA
ATOM     32  O   UNL     1      23.265  -0.435 103.504  1.00  0.00    -0.550 OA
ENDBRANCH   1  30
BRANCH  27  33
ATOM     33  O   UNL     1      31.583   0.603 100.431  1.00  0.00    -0.393 OA
ATOM     34  H   UNL     1      32.079   0.058  99.767  1.00  0.00     0.210 HD
ENDBRANCH  27  33
TORSDOF 2
ENDMDL
