MODEL 1
REMARK VINA RESULT:    -3.239      0.000      0.000
REMARK INTER + INTRA:          -4.519
REMARK INTER:                  -4.186
REMARK INTRA:                  -0.333
REMARK UNBOUND:                -0.333
REMARK SMILES CCCCCCC(=O)[O-]
REMARK SMILES IDX 5 1 6 2 7 3 8 4 9 5 4 6 3 7 2 8 1 9
REMARK H PARENT
REMARK Flexibility Score: inf
ROOT
ATOM      1  C   UNL     1     126.976 145.356 107.407  1.00  0.00     0.006 C 
ENDROOT
BRANCH   1   2
ATOM      2  C   UNL     1     127.604 146.227 108.504  1.00  0.00     0.053 C 
BRANCH   2   3
ATOM      3  C   UNL     1     129.001 145.796 108.827  1.00  0.00     0.041 C 
ATOM      4  O   UNL     1     129.401 144.647 108.498  1.00  0.00    -0.550 OA
ATOM      5  O   UNL     1     129.850 146.647 109.522  1.00  0.00    -0.550 OA
ENDBRANCH   2   3
ENDBRANCH   1   2
BRANCH   1   6
ATOM      6  C   UNL     1     127.023 146.033 106.029  1.00  0.00     0.000 C 
BRANCH   6   7
ATOM      7  C   UNL     1     127.466 145.040 104.944  1.00  0.00    -0.000 C 
BRANCH   7   8
ATOM      8  C   UNL     1     127.606 143.606 105.478  1.00  0.00    -0.003 C 
ATOM      9  C   UNL     1     129.022 143.053 105.322  1.00  0.00     0.004 C 
ENDBRANCH   7   8
ENDBRANCH   6   7
ENDBRANCH   1   6
TORSDOF 5
ENDMDL
MODEL 2
REMARK VINA RESULT:    -3.191      2.108      3.261
REMARK INTER + INTRA:          -4.456
REMARK INTER:                  -4.052
REMARK INTRA:                  -0.404
REMARK UNBOUND:                -0.333
REMARK SMILES CCCCCCC(=O)[O-]
REMARK SMILES IDX 5 1 6 2 7 3 8 4 9 5 4 6 3 7 2 8 1 9
REMARK H PARENT
REMARK Flexibility Score: inf
ROOT
ATOM      1  C   UNL     1     128.183 143.094 105.485  1.00  0.00     0.006 C 
ENDROOT
BRANCH   1   2
ATOM      2  C   UNL     1     127.200 142.393 106.433  1.00  0.00     0.053 C 
BRANCH   2   3
ATOM      3  C   UNL     1     127.589 142.568 107.868  1.00  0.00     0.041 C 
ATOM      4  O   UNL     1     128.226 141.661 108.467  1.00  0.00    -0.550 OA
ATOM      5  O   UNL     1     127.219 143.718 108.555  1.00  0.00    -0.550 OA
ENDBRANCH   2   3
ENDBRANCH   1   2
BRANCH   1   6
ATOM      6  C   UNL     1     127.625 144.420 104.945  1.00  0.00     0.000 C 
BRANCH   6   7
ATOM      7  C   UNL     1     128.189 145.613 105.732  1.00  0.00    -0.000 C 
BRANCH   7   8
ATOM      8  C   UNL     1     129.695 145.480 106.007  1.00  0.00    -0.003 C 
ATOM      9  C   UNL     1     130.044 145.651 107.485  1.00  0.00     0.004 C 
ENDBRANCH   7   8
ENDBRANCH   6   7
ENDBRANCH   1   6
TORSDOF 5
ENDMDL
MODEL 3
REMARK VINA RESULT:    -3.169      1.456      2.461
REMARK INTER + INTRA:          -4.429
REMARK INTER:                  -4.124
REMARK INTRA:                  -0.305
REMARK UNBOUND:                -0.333
REMARK SMILES CCCCCCC(=O)[O-]
REMARK SMILES IDX 5 1 6 2 7 3 8 4 9 5 4 6 3 7 2 8 1 9
REMARK H PARENT
REMARK Flexibility Score: inf
ROOT
ATOM      1  C   UNL     1     127.916 145.401 105.576  1.00  0.00     0.006 C 
ENDROOT
BRANCH   1   2
ATOM      2  C   UNL     1     126.876 145.821 106.624  1.00  0.00     0.053 C 
BRANCH   2   3
ATOM      3  C   UNL     1     127.307 145.461 108.012  1.00  0.00     0.041 C 
ATOM      4  O   UNL     1     127.845 146.326 108.753  1.00  0.00    -0.550 OA
ATOM      5  O   UNL     1     127.147 144.161 108.476  1.00  0.00    -0.550 OA
ENDBRANCH   2   3
ENDBRANCH   1   2
BRANCH   1   6
ATOM      6  C   UNL     1     127.616 144.016 104.983  1.00  0.00     0.000 C 
BRANCH   6   7
ATOM      7  C   UNL     1     128.758 143.033 105.280  1.00  0.00    -0.000 C 
BRANCH   7   8
ATOM      8  C   UNL     1     130.025 143.737 105.791  1.00  0.00    -0.003 C 
ATOM      9  C   UNL     1     131.304 142.976 105.445  1.00  0.00     0.004 C 
ENDBRANCH   7   8
ENDBRANCH   6   7
ENDBRANCH   1   6
TORSDOF 5
ENDMDL
MODEL 4
REMARK VINA RESULT:    -3.159      2.081      3.182
REMARK INTER + INTRA:          -4.416
REMARK INTER:                  -4.106
REMARK INTRA:                  -0.310
REMARK UNBOUND:                -0.333
REMARK SMILES CCCCCCC(=O)[O-]
REMARK SMILES IDX 5 1 6 2 7 3 8 4 9 5 4 6 3 7 2 8 1 9
REMARK H PARENT
REMARK Flexibility Score: inf
ROOT
ATOM      1  C   UNL     1     129.589 144.435 106.094  1.00  0.00     0.006 C 
ENDROOT
BRANCH   1   2
ATOM      2  C   UNL     1     131.050 144.904 106.110  1.00  0.00     0.053 C 
BRANCH   2   3
ATOM      3  C   UNL     1     131.234 146.125 106.957  1.00  0.00     0.041 C 
ATOM      4  O   UNL     1     131.858 147.122 106.504  1.00  0.00    -0.550 OA
ATOM      5  O   UNL     1     130.747 146.151 108.257  1.00  0.00    -0.550 OA
ENDBRANCH   2   3
ENDBRANCH   1   2
BRANCH   1   6
ATOM      6  C   UNL     1     128.626 145.545 105.647  1.00  0.00     0.000 C 
BRANCH   6   7
ATOM      7  C   UNL     1     127.209 145.289 106.180  1.00  0.00    -0.000 C 
BRANCH   7   8
ATOM      8  C   UNL     1     127.199 144.885 107.663  1.00  0.00    -0.003 C 
ATOM      9  C   UNL     1     127.059 146.082 108.601  1.00  0.00     0.004 C 
ENDBRANCH   7   8
ENDBRANCH   6   7
ENDBRANCH   1   6
TORSDOF 5
ENDMDL
MODEL 5
REMARK VINA RESULT:    -3.157      2.057      2.410
REMARK INTER + INTRA:          -4.413
REMARK INTER:                  -4.243
REMARK INTRA:                  -0.170
REMARK UNBOUND:                -0.333
REMARK SMILES CCCCCCC(=O)[O-]
REMARK SMILES IDX 5 1 6 2 7 3 8 4 9 5 4 6 3 7 2 8 1 9
REMARK H PARENT
REMARK Flexibility Score: inf
ROOT
ATOM      1  C   UNL     1     128.485 145.509 106.253  1.00  0.00     0.006 C 
ENDROOT
BRANCH   1   2
ATOM      2  C   UNL     1     129.996 145.379 106.017  1.00  0.00     0.053 C 
BRANCH   2   3
ATOM      3  C   UNL     1     130.789 146.064 107.086  1.00  0.00     0.041 C 
ATOM      4  O   UNL     1     130.407 146.016 108.286  1.00  0.00    -0.550 OA
ATOM      5  O   UNL     1     131.929 146.784 106.755  1.00  0.00    -0.550 OA
ENDBRANCH   2   3
ENDBRANCH   1   2
BRANCH   1   6
ATOM      6  C   UNL     1     127.664 144.982 105.067  1.00  0.00     0.000 C 
BRANCH   6   7
ATOM      7  C   UNL     1     127.540 143.452 105.123  1.00  0.00    -0.000 C 
BRANCH   7   8
ATOM      8  C   UNL     1     127.209 142.937 106.533  1.00  0.00    -0.003 C 
ATOM      9  C   UNL     1     127.085 141.415 106.592  1.00  0.00     0.004 C 
ENDBRANCH   7   8
ENDBRANCH   6   7
ENDBRANCH   1   6
TORSDOF 5
ENDMDL
MODEL 6
REMARK VINA RESULT:    -3.126      2.868      3.179
REMARK INTER + INTRA:          -4.373
REMARK INTER:                  -4.126
REMARK INTRA:                  -0.248
REMARK UNBOUND:                -0.333
REMARK SMILES CCCCCCC(=O)[O-]
REMARK SMILES IDX 5 1 6 2 7 3 8 4 9 5 4 6 3 7 2 8 1 9
REMARK H PARENT
REMARK Flexibility Score: inf
ROOT
ATOM      1  C   UNL     1     130.137 145.636 107.389  1.00  0.00     0.006 C 
ENDROOT
BRANCH   1   2
ATOM      2  C   UNL     1     130.974 145.790 106.111  1.00  0.00     0.053 C 
BRANCH   2   3
ATOM      3  C   UNL     1     132.295 146.438 106.386  1.00  0.00     0.041 C 
ATOM      4  O   UNL     1     133.233 146.343 105.549  1.00  0.00    -0.550 OA
ATOM      5  O   UNL     1     132.504 147.117 107.579  1.00  0.00    -0.550 OA
ENDBRANCH   2   3
ENDBRANCH   1   2
BRANCH   1   6
ATOM      6  C   UNL     1     128.647 145.416 107.085  1.00  0.00     0.000 C 
BRANCH   6   7
ATOM      7  C   UNL     1     128.358 145.616 105.590  1.00  0.00    -0.000 C 
BRANCH   7   8
ATOM      8  C   UNL     1     127.303 144.635 105.055  1.00  0.00    -0.003 C 
ATOM      9  C   UNL     1     127.591 143.186 105.448  1.00  0.00     0.004 C 
ENDBRANCH   7   8
ENDBRANCH   6   7
ENDBRANCH   1   6
TORSDOF 5
ENDMDL
MODEL 7
REMARK VINA RESULT:    -3.122      1.326      2.181
REMARK INTER + INTRA:          -4.367
REMARK INTER:                  -3.937
REMARK INTRA:                  -0.430
REMARK UNBOUND:                -0.333
REMARK SMILES CCCCCCC(=O)[O-]
REMARK SMILES IDX 5 1 6 2 7 3 8 4 9 5 4 6 3 7 2 8 1 9
REMARK H PARENT
REMARK Flexibility Score: inf
ROOT
ATOM      1  C   UNL     1     128.126 146.061 108.438  1.00  0.00     0.006 C 
ENDROOT
BRANCH   1   2
ATOM      2  C   UNL     1     129.451 145.364 108.775  1.00  0.00     0.053 C 
BRANCH   2   3
ATOM      3  C   UNL     1     130.366 145.304 107.591  1.00  0.00     0.041 C 
ATOM      4  O   UNL     1     130.872 146.360 107.128  1.00  0.00    -0.550 OA
ATOM      5  O   UNL     1     130.633 144.087 106.978  1.00  0.00    -0.550 OA
ENDBRANCH   2   3
ENDBRANCH   1   2
BRANCH   1   6
ATOM      6  C   UNL     1     127.219 145.190 107.555  1.00  0.00     0.000 C 
BRANCH   6   7
ATOM      7  C   UNL     1     126.875 145.912 106.243  1.00  0.00    -0.000 C 
BRANCH   7   8
ATOM      8  C   UNL     1     127.599 145.309 105.029  1.00  0.00    -0.003 C 
ATOM      9  C   UNL     1     127.655 143.782 105.072  1.00  0.00     0.004 C 
ENDBRANCH   7   8
ENDBRANCH   6   7
ENDBRANCH   1   6
TORSDOF 5
ENDMDL
MODEL 8
REMARK VINA RESULT:    -3.100      2.928      4.530
REMARK INTER + INTRA:          -4.340
REMARK INTER:                  -4.092
REMARK INTRA:                  -0.248
REMARK UNBOUND:                -0.333
REMARK SMILES CCCCCCC(=O)[O-]
REMARK SMILES IDX 5 1 6 2 7 3 8 4 9 5 4 6 3 7 2 8 1 9
REMARK H PARENT
REMARK Flexibility Score: inf
ROOT
ATOM      1  C   UNL     1     128.344 142.769 106.060  1.00  0.00     0.006 C 
ENDROOT
BRANCH   1   2
ATOM      2  C   UNL     1     127.165 142.044 106.724  1.00  0.00     0.053 C 
BRANCH   2   3
ATOM      3  C   UNL     1     127.484 140.610 107.012  1.00  0.00     0.041 C 
ATOM      4  O   UNL     1     128.005 140.285 108.113  1.00  0.00    -0.550 OA
ATOM      5  O   UNL     1     127.240 139.635 106.053  1.00  0.00    -0.550 OA
ENDBRANCH   2   3
ENDBRANCH   1   2
BRANCH   1   6
ATOM      6  C   UNL     1     127.881 143.786 105.006  1.00  0.00     0.000 C 
BRANCH   6   7
ATOM      7  C   UNL     1     128.174 145.222 105.465  1.00  0.00    -0.000 C 
BRANCH   7   8
ATOM      8  C   UNL     1     126.928 145.932 106.019  1.00  0.00    -0.003 C 
ATOM      9  C   UNL     1     126.909 145.988 107.546  1.00  0.00     0.004 C 
ENDBRANCH   7   8
ENDBRANCH   6   7
ENDBRANCH   1   6
TORSDOF 5
ENDMDL
MODEL 9
REMARK VINA RESULT:    -3.098      3.132      3.722
REMARK INTER + INTRA:          -4.337
REMARK INTER:                  -4.216
REMARK INTRA:                  -0.121
REMARK UNBOUND:                -0.333
REMARK SMILES CCCCCCC(=O)[O-]
REMARK SMILES IDX 5 1 6 2 7 3 8 4 9 5 4 6 3 7 2 8 1 9
REMARK H PARENT
REMARK Flexibility Score: inf
ROOT
ATOM      1  C   UNL     1     130.990 145.401 106.161  1.00  0.00     0.006 C 
ENDROOT
BRANCH   1   2
ATOM      2  C   UNL     1     131.795 146.707 106.118  1.00  0.00     0.053 C 
BRANCH   2   3
ATOM      3  C   UNL     1     132.863 146.738 107.166  1.00  0.00     0.041 C 
ATOM      4  O   UNL     1     132.592 147.118 108.336  1.00  0.00    -0.550 OA
ATOM      5  O   UNL     1     134.166 146.380 106.844  1.00  0.00    -0.550 OA
ENDBRANCH   2   3
ENDBRANCH   1   2
BRANCH   1   6
ATOM      6  C   UNL     1     129.504 145.623 105.842  1.00  0.00     0.000 C 
BRANCH   6   7
ATOM      7  C   UNL     1     128.757 144.284 105.749  1.00  0.00    -0.000 C 
BRANCH   7   8
ATOM      8  C   UNL     1     127.256 144.462 105.470  1.00  0.00    -0.003 C 
ATOM      9  C   UNL     1     126.892 145.896 105.087  1.00  0.00     0.004 C 
ENDBRANCH   7   8
ENDBRANCH   6   7
ENDBRANCH   1   6
TORSDOF 5
ENDMDL
