MODEL 1
REMARK VINA RESULT:    -3.560      0.000      0.000
REMARK INTER + INTRA:          -5.148
REMARK INTER:                  -5.016
REMARK INTRA:                  -0.132
REMARK UNBOUND:                -0.132
REMARK SMILES CC1=CCC(=C(C)C)C(=O)CC(C)=CCC1
REMARK SMILES IDX 12 1 14 2 13 3 15 4 16 5 2 6 1 7 3 8 11 10 9 11 10 12 5 13
REMARK SMILES IDX 6 14 7 15 8 16 4 17
REMARK H PARENT
REMARK Flexibility Score: 60.00
ROOT
ATOM      1  C   UNL     1     134.531 185.381 194.136  1.00  0.00    -0.070 C 
ATOM      2  C   UNL     1     135.727 185.986 194.308  1.00  0.00    -0.027 C 
ATOM      3  C   UNL     1     133.763 184.963 195.364  1.00  0.00     0.039 C 
ENDROOT
BRANCH   2   4
ATOM      4  C   UNL     1     136.553 186.597 193.204  1.00  0.00     0.032 C 
BRANCH   4   5
ATOM      5  C   UNL     1     137.744 185.687 192.881  1.00  0.00     0.034 C 
BRANCH   5   6
ATOM      6  C   UNL     1     138.002 185.577 191.393  1.00  0.00    -0.077 C 
ATOM      7  C   UNL     1     138.839 186.639 190.723  1.00  0.00     0.039 C 
ATOM      8  C   UNL     1     137.463 184.610 190.607  1.00  0.00    -0.023 CG0
ATOM      9  G   UNL     1     136.644 183.412 191.050  1.00  0.00     0.000 G0
ENDBRANCH   5   6
ENDBRANCH   4   5
ENDBRANCH   2   4
BRANCH   1  10
ATOM     10  C   UNL     1     133.934 185.085 192.774  1.00  0.00     0.111 C 
BRANCH  10  11
ATOM     11  C   UNL     1     134.380 183.742 192.244  1.00  0.00     0.163 C 
ATOM     12  O   UNL     1     134.117 182.731 192.950  1.00  0.00    -0.294 OA
BRANCH  11  13
ATOM     13  C   UNL     1     135.126 183.560 190.955  1.00  0.00    -0.002 C 
ATOM     14  C   UNL     1     134.449 183.376 189.780  1.00  0.00    -0.069 C 
ATOM     15  C   UNL     1     135.151 182.961 188.506  1.00  0.00     0.039 C 
ATOM     16  C   UNL     1     132.961 183.631 189.677  1.00  0.00     0.039 C 
BRANCH  13  17
ATOM     17  C   UNL     1     136.641 183.404 191.024  1.00  0.00     0.066 CG0
ATOM     18  G   UNL     1     137.465 184.611 190.615  1.00  0.00     0.000 G0
ENDBRANCH  13  17
ENDBRANCH  11  13
ENDBRANCH  10  11
ENDBRANCH   1  10
TORSDOF 0
ENDMDL
MODEL 2
REMARK VINA RESULT:    -3.536      1.815      5.012
REMARK INTER + INTRA:          -5.115
REMARK INTER:                  -5.004
REMARK INTRA:                  -0.111
REMARK UNBOUND:                -0.132
REMARK SMILES CC1=CCC(=C(C)C)C(=O)CC(C)=CCC1
REMARK SMILES IDX 12 1 14 2 13 3 15 4 16 5 2 6 1 7 3 8 11 10 9 11 10 12 5 13
REMARK SMILES IDX 6 14 7 15 8 16 4 17
REMARK H PARENT
REMARK Flexibility Score: 60.00
ROOT
ATOM      1  C   UNL     1     134.783 183.305 189.119  1.00  0.00    -0.070 C 
ATOM      2  C   UNL     1     133.714 182.832 189.799  1.00  0.00    -0.027 C 
ATOM      3  C   UNL     1     135.229 182.558 187.889  1.00  0.00     0.039 C 
ENDROOT
BRANCH   2   4
ATOM      4  C   UNL     1     133.048 183.532 190.957  1.00  0.00     0.032 C 
BRANCH   4   5
ATOM      5  C   UNL     1     133.396 182.816 192.267  1.00  0.00     0.034 C 
BRANCH   5   6
ATOM      6  C   UNL     1     133.845 183.775 193.350  1.00  0.00    -0.077 C 
ATOM      7  C   UNL     1     132.799 184.408 194.235  1.00  0.00     0.039 C 
ATOM      8  C   UNL     1     135.135 184.157 193.527  1.00  0.00    -0.023 CG0
ATOM      9  G   UNL     1     136.361 183.623 192.809  1.00  0.00     0.000 G0
ENDBRANCH   5   6
ENDBRANCH   4   5
ENDBRANCH   2   4
BRANCH   1  10
ATOM     10  C   UNL     1     135.564 184.533 189.543  1.00  0.00     0.111 C 
BRANCH  10  11
ATOM     11  C   UNL     1     136.805 184.170 190.323  1.00  0.00     0.163 C 
ATOM     12  O   UNL     1     137.691 183.510 189.716  1.00  0.00    -0.294 OA
BRANCH  11  13
ATOM     13  C   UNL     1     137.021 184.530 191.764  1.00  0.00    -0.002 C 
ATOM     14  C   UNL     1     137.888 185.531 192.109  1.00  0.00    -0.069 C 
ATOM     15  C   UNL     1     138.308 185.770 193.542  1.00  0.00     0.039 C 
ATOM     16  C   UNL     1     138.436 186.491 191.077  1.00  0.00     0.039 C 
BRANCH  13  17
ATOM     17  C   UNL     1     136.391 183.633 192.824  1.00  0.00     0.066 CG0
ATOM     18  G   UNL     1     135.150 184.168 193.513  1.00  0.00     0.000 G0
ENDBRANCH  13  17
ENDBRANCH  11  13
ENDBRANCH  10  11
ENDBRANCH   1  10
TORSDOF 0
ENDMDL
MODEL 3
REMARK VINA RESULT:    -3.528      1.714      4.035
REMARK INTER + INTRA:          -5.103
REMARK INTER:                  -5.305
REMARK INTRA:                   0.202
REMARK UNBOUND:                -0.132
REMARK SMILES CC1=CCC(=C(C)C)C(=O)CC(C)=CCC1
REMARK SMILES IDX 12 1 14 2 13 3 15 4 16 5 2 6 1 7 3 8 11 10 9 11 10 12 5 13
REMARK SMILES IDX 6 14 7 15 8 16 4 17
REMARK H PARENT
REMARK Flexibility Score: 60.00
ROOT
ATOM      1  C   UNL     1     137.392 185.423 192.590  1.00  0.00    -0.070 C 
ATOM      2  C   UNL     1     137.893 184.510 191.728  1.00  0.00    -0.027 C 
ATOM      3  C   UNL     1     137.933 185.443 193.997  1.00  0.00     0.039 C 
ENDROOT
BRANCH   2   4
ATOM      4  C   UNL     1     137.575 184.446 190.256  1.00  0.00     0.032 C 
BRANCH   4   5
ATOM      5  C   UNL     1     136.788 183.168 189.947  1.00  0.00     0.034 C 
BRANCH   5   6
ATOM      6  C   UNL     1     135.310 183.430 189.748  1.00  0.00    -0.077 C 
ATOM      7  C   UNL     1     134.797 183.651 188.346  1.00  0.00     0.039 C 
ATOM      8  C   UNL     1     134.425 183.549 190.769  1.00  0.00    -0.023 CG0
ATOM      9  G   UNL     1     134.684 183.316 192.246  1.00  0.00     0.000 G0
ENDBRANCH   5   6
ENDBRANCH   4   5
ENDBRANCH   2   4
BRANCH   1  10
ATOM     10  C   UNL     1     136.304 186.412 192.219  1.00  0.00     0.111 C 
BRANCH  10  11
ATOM     11  C   UNL     1     134.926 185.875 192.528  1.00  0.00     0.163 C 
ATOM     12  O   UNL     1     133.946 186.618 192.248  1.00  0.00    -0.294 OA
BRANCH  11  13
ATOM     13  C   UNL     1     134.674 184.538 193.161  1.00  0.00    -0.002 C 
ATOM     14  C   UNL     1     134.603 184.415 194.521  1.00  0.00    -0.069 C 
ATOM     15  C   UNL     1     134.582 183.065 195.204  1.00  0.00     0.039 C 
ATOM     16  C   UNL     1     134.488 185.626 195.420  1.00  0.00     0.039 C 
BRANCH  13  17
ATOM     17  C   UNL     1     134.682 183.310 192.257  1.00  0.00     0.066 CG0
ATOM     18  G   UNL     1     134.431 183.555 190.780  1.00  0.00     0.000 G0
ENDBRANCH  13  17
ENDBRANCH  11  13
ENDBRANCH  10  11
ENDBRANCH   1  10
TORSDOF 0
ENDMDL
MODEL 4
REMARK VINA RESULT:    -3.505      1.741      3.107
REMARK INTER + INTRA:          -5.071
REMARK INTER:                  -5.216
REMARK INTRA:                   0.145
REMARK UNBOUND:                -0.132
REMARK SMILES CC1=CCC(=C(C)C)C(=O)CC(C)=CCC1
REMARK SMILES IDX 12 1 14 2 13 3 15 4 16 5 2 6 1 7 3 8 11 10 9 11 10 12 5 13
REMARK SMILES IDX 6 14 7 15 8 16 4 17
REMARK H PARENT
REMARK Flexibility Score: 60.00
ROOT
ATOM      1  C   UNL     1     136.148 186.566 192.232  1.00  0.00    -0.070 C 
ATOM      2  C   UNL     1     136.697 186.496 193.465  1.00  0.00    -0.027 C 
ATOM      3  C   UNL     1     136.976 187.156 191.119  1.00  0.00     0.039 C 
ENDROOT
BRANCH   2   4
ATOM      4  C   UNL     1     136.071 185.807 194.651  1.00  0.00     0.032 C 
BRANCH   4   5
ATOM      5  C   UNL     1     136.884 184.560 195.018  1.00  0.00     0.034 C 
BRANCH   5   6
ATOM      6  C   UNL     1     136.159 183.274 194.678  1.00  0.00    -0.077 C 
ATOM      7  C   UNL     1     135.415 182.553 195.774  1.00  0.00     0.039 C 
ATOM      8  C   UNL     1     136.199 182.692 193.453  1.00  0.00    -0.023 CG0
ATOM      9  G   UNL     1     136.827 183.246 192.188  1.00  0.00     0.000 G0
ENDBRANCH   5   6
ENDBRANCH   4   5
ENDBRANCH   2   4
BRANCH   1  10
ATOM     10  C   UNL     1     134.740 186.101 191.917  1.00  0.00     0.111 C 
BRANCH  10  11
ATOM     11  C   UNL     1     134.682 184.613 191.664  1.00  0.00     0.163 C 
ATOM     12  O   UNL     1     133.595 184.029 191.924  1.00  0.00    -0.294 OA
BRANCH  11  13
ATOM     13  C   UNL     1     135.839 183.808 191.148  1.00  0.00    -0.002 C 
ATOM     14  C   UNL     1     135.916 183.470 189.824  1.00  0.00    -0.069 C 
ATOM     15  C   UNL     1     136.931 182.474 189.308  1.00  0.00     0.039 C 
ATOM     16  C   UNL     1     135.019 184.115 188.791  1.00  0.00     0.039 C 
BRANCH  13  17
ATOM     17  C   UNL     1     136.816 183.232 192.167  1.00  0.00     0.066 CG0
ATOM     18  G   UNL     1     136.215 182.696 193.453  1.00  0.00     0.000 G0
ENDBRANCH  13  17
ENDBRANCH  11  13
ENDBRANCH  10  11
ENDBRANCH   1  10
TORSDOF 0
ENDMDL
MODEL 5
REMARK VINA RESULT:    -3.465      2.267      5.401
REMARK INTER + INTRA:          -5.015
REMARK INTER:                  -5.134
REMARK INTRA:                   0.120
REMARK UNBOUND:                -0.132
REMARK SMILES CC1=CCC(=C(C)C)C(=O)CC(C)=CCC1
REMARK SMILES IDX 12 1 14 2 13 3 15 4 16 5 2 6 1 7 3 8 11 10 9 11 10 12 5 13
REMARK SMILES IDX 6 14 7 15 8 16 4 17
REMARK H PARENT
REMARK Flexibility Score: 60.00
ROOT
ATOM      1  C   UNL     1     136.244 183.600 189.439  1.00  0.00    -0.070 C 
ATOM      2  C   UNL     1     135.506 183.033 188.459  1.00  0.00    -0.027 C 
ATOM      3  C   UNL     1     137.663 183.126 189.624  1.00  0.00     0.039 C 
ENDROOT
BRANCH   2   4
ATOM      4  C   UNL     1     134.130 183.486 188.042  1.00  0.00     0.032 C 
BRANCH   4   5
ATOM      5  C   UNL     1     133.067 182.606 188.710  1.00  0.00     0.034 C 
BRANCH   5   6
ATOM      6  C   UNL     1     132.039 183.415 189.473  1.00  0.00    -0.077 C 
ATOM      7  C   UNL     1     130.911 184.059 188.705  1.00  0.00     0.039 C 
ATOM      8  C   UNL     1     132.112 183.656 190.806  1.00  0.00    -0.023 CG0
ATOM      9  G   UNL     1     133.109 183.079 191.794  1.00  0.00     0.000 G0
ENDBRANCH   5   6
ENDBRANCH   4   5
ENDBRANCH   2   4
BRANCH   1  10
ATOM     10  C   UNL     1     135.712 184.672 190.371  1.00  0.00     0.111 C 
BRANCH  10  11
ATOM     11  C   UNL     1     135.471 184.138 191.763  1.00  0.00     0.163 C 
ATOM     12  O   UNL     1     136.478 183.728 192.402  1.00  0.00    -0.294 OA
BRANCH  11  13
ATOM     13  C   UNL     1     134.116 184.054 192.402  1.00  0.00    -0.002 C 
ATOM     14  C   UNL     1     133.859 184.706 193.577  1.00  0.00    -0.069 C 
ATOM     15  C   UNL     1     132.594 184.464 194.369  1.00  0.00     0.039 C 
ATOM     16  C   UNL     1     134.807 185.749 194.125  1.00  0.00     0.039 C 
BRANCH  13  17
ATOM     17  C   UNL     1     133.106 183.082 191.803  1.00  0.00     0.066 CG0
ATOM     18  G   UNL     1     132.100 183.666 190.828  1.00  0.00     0.000 G0
ENDBRANCH  13  17
ENDBRANCH  11  13
ENDBRANCH  10  11
ENDBRANCH   1  10
TORSDOF 0
ENDMDL
MODEL 6
REMARK VINA RESULT:    -3.456      2.537      4.602
REMARK INTER + INTRA:          -5.002
REMARK INTER:                  -5.369
REMARK INTRA:                   0.367
REMARK UNBOUND:                -0.132
REMARK SMILES CC1=CCC(=C(C)C)C(=O)CC(C)=CCC1
REMARK SMILES IDX 12 1 14 2 13 3 15 4 16 5 2 6 1 7 3 8 11 10 9 11 10 12 5 13
REMARK SMILES IDX 6 14 7 15 8 16 4 17
REMARK H PARENT
REMARK Flexibility Score: 60.00
ROOT
ATOM      1  C   UNL     1     136.631 182.534 188.934  1.00  0.00    -0.070 C 
ATOM      2  C   UNL     1     137.126 183.362 189.882  1.00  0.00    -0.027 C 
ATOM      3  C   UNL     1     137.461 181.343 188.528  1.00  0.00     0.039 C 
ENDROOT
BRANCH   2   4
ATOM      4  C   UNL     1     136.372 184.508 190.508  1.00  0.00     0.032 C 
BRANCH   4   5
ATOM      5  C   UNL     1     135.430 183.978 191.595  1.00  0.00     0.034 C 
BRANCH   5   6
ATOM      6  C   UNL     1     134.154 184.788 191.702  1.00  0.00    -0.077 C 
ATOM      7  C   UNL     1     134.236 186.200 192.228  1.00  0.00     0.039 C 
ATOM      8  C   UNL     1     132.924 184.292 191.418  1.00  0.00    -0.023 CG0
ATOM      9  G   UNL     1     132.591 182.935 190.826  1.00  0.00     0.000 G0
ENDBRANCH   5   6
ENDBRANCH   4   5
ENDBRANCH   2   4
BRANCH   1  10
ATOM     10  C   UNL     1     135.297 182.754 188.248  1.00  0.00     0.111 C 
BRANCH  10  11
ATOM     11  C   UNL     1     134.171 182.053 188.969  1.00  0.00     0.163 C 
ATOM     12  O   UNL     1     134.341 180.835 189.251  1.00  0.00    -0.294 OA
BRANCH  11  13
ATOM     13  C   UNL     1     132.876 182.714 189.339  1.00  0.00    -0.002 C 
ATOM     14  C   UNL     1     132.068 183.251 188.374  1.00  0.00    -0.069 C 
ATOM     15  C   UNL     1     130.881 184.123 188.715  1.00  0.00     0.039 C 
ATOM     16  C   UNL     1     132.289 182.957 186.907  1.00  0.00     0.039 C 
BRANCH  13  17
ATOM     17  C   UNL     1     132.584 182.929 190.820  1.00  0.00     0.066 CG0
ATOM     18  G   UNL     1     132.951 184.285 191.393  1.00  0.00     0.000 G0
ENDBRANCH  13  17
ENDBRANCH  11  13
ENDBRANCH  10  11
ENDBRANCH   1  10
TORSDOF 0
ENDMDL
MODEL 7
REMARK VINA RESULT:    -3.418      2.065      4.037
REMARK INTER + INTRA:          -4.949
REMARK INTER:                  -4.849
REMARK INTRA:                  -0.100
REMARK UNBOUND:                -0.132
REMARK SMILES CC1=CCC(=C(C)C)C(=O)CC(C)=CCC1
REMARK SMILES IDX 12 1 14 2 13 3 15 4 16 5 2 6 1 7 3 8 11 10 9 11 10 12 5 13
REMARK SMILES IDX 6 14 7 15 8 16 4 17
REMARK H PARENT
REMARK Flexibility Score: 60.00
ROOT
ATOM      1  C   UNL     1     137.457 184.073 191.431  1.00  0.00    -0.070 C 
ATOM      2  C   UNL     1     137.886 184.743 192.524  1.00  0.00    -0.027 C 
ATOM      3  C   UNL     1     138.322 184.101 190.196  1.00  0.00     0.039 C 
ENDROOT
BRANCH   2   4
ATOM      4  C   UNL     1     137.225 184.699 193.878  1.00  0.00     0.032 C 
BRANCH   4   5
ATOM      5  C   UNL     1     136.427 185.987 194.110  1.00  0.00     0.034 C 
BRANCH   5   6
ATOM      6  C   UNL     1     135.034 185.719 194.641  1.00  0.00    -0.077 C 
ATOM      7  C   UNL     1     134.852 185.515 196.125  1.00  0.00     0.039 C 
ATOM      8  C   UNL     1     133.942 185.580 193.847  1.00  0.00    -0.023 CG0
ATOM      9  G   UNL     1     133.859 185.793 192.347  1.00  0.00     0.000 G0
ENDBRANCH   5   6
ENDBRANCH   4   5
ENDBRANCH   2   4
BRANCH   1  10
ATOM     10  C   UNL     1     136.146 183.313 191.379  1.00  0.00     0.111 C 
BRANCH  10  11
ATOM     11  C   UNL     1     135.047 184.131 190.742  1.00  0.00     0.163 C 
ATOM     12  O   UNL     1     135.219 184.491 189.546  1.00  0.00    -0.294 OA
BRANCH  11  13
ATOM     13  C   UNL     1     133.795 184.547 191.458  1.00  0.00    -0.002 C 
ATOM     14  C   UNL     1     132.607 183.918 191.203  1.00  0.00    -0.069 C 
ATOM     15  C   UNL     1     131.290 184.450 191.722  1.00  0.00     0.039 C 
ATOM     16  C   UNL     1     132.551 182.619 190.429  1.00  0.00     0.039 C 
BRANCH  13  17
ATOM     17  C   UNL     1     133.854 185.798 192.328  1.00  0.00     0.066 CG0
ATOM     18  G   UNL     1     133.927 185.576 193.827  1.00  0.00     0.000 G0
ENDBRANCH  13  17
ENDBRANCH  11  13
ENDBRANCH  10  11
ENDBRANCH   1  10
TORSDOF 0
ENDMDL
MODEL 8
REMARK VINA RESULT:    -3.274      1.980      3.760
REMARK INTER + INTRA:          -4.745
REMARK INTER:                  -5.060
REMARK INTRA:                   0.315
REMARK UNBOUND:                -0.132
REMARK SMILES CC1=CCC(=C(C)C)C(=O)CC(C)=CCC1
REMARK SMILES IDX 12 1 14 2 13 3 15 4 16 5 2 6 1 7 3 8 11 10 9 11 10 12 5 13
REMARK SMILES IDX 6 14 7 15 8 16 4 17
REMARK H PARENT
REMARK Flexibility Score: 60.00
ROOT
ATOM      1  C   UNL     1     136.612 183.227 189.355  1.00  0.00    -0.070 C 
ATOM      2  C   UNL     1     137.761 183.612 189.954  1.00  0.00    -0.027 C 
ATOM      3  C   UNL     1     136.593 181.901 188.640  1.00  0.00     0.039 C 
ENDROOT
BRANCH   2   4
ATOM      4  C   UNL     1     137.913 184.829 190.830  1.00  0.00     0.032 C 
BRANCH   4   5
ATOM      5  C   UNL     1     137.660 184.452 192.294  1.00  0.00     0.034 C 
BRANCH   5   6
ATOM      6  C   UNL     1     136.292 184.886 192.778  1.00  0.00    -0.077 C 
ATOM      7  C   UNL     1     136.104 186.313 193.228  1.00  0.00     0.039 C 
ATOM      8  C   UNL     1     135.236 184.042 192.897  1.00  0.00    -0.023 CG0
ATOM      9  G   UNL     1     135.161 182.591 192.461  1.00  0.00     0.000 G0
ENDBRANCH   5   6
ENDBRANCH   4   5
ENDBRANCH   2   4
BRANCH   1  10
ATOM     10  C   UNL     1     135.351 184.070 189.349  1.00  0.00     0.111 C 
BRANCH  10  11
ATOM     11  C   UNL     1     134.259 183.455 190.192  1.00  0.00     0.163 C 
ATOM     12  O   UNL     1     133.109 183.964 190.100  1.00  0.00    -0.294 OA
BRANCH  11  13
ATOM     13  C   UNL     1     134.476 182.304 191.130  1.00  0.00    -0.002 C 
ATOM     14  C   UNL     1     133.938 181.075 190.859  1.00  0.00    -0.069 C 
ATOM     15  C   UNL     1     133.934 179.959 191.880  1.00  0.00     0.039 C 
ATOM     16  C   UNL     1     133.360 180.748 189.500  1.00  0.00     0.039 C 
BRANCH  13  17
ATOM     17  C   UNL     1     135.151 182.592 192.466  1.00  0.00     0.066 CG0
ATOM     18  G   UNL     1     135.229 184.049 192.885  1.00  0.00     0.000 G0
ENDBRANCH  13  17
ENDBRANCH  11  13
ENDBRANCH  10  11
ENDBRANCH   1  10
TORSDOF 0
ENDMDL
MODEL 9
REMARK VINA RESULT:    -3.234      2.050      4.128
REMARK INTER + INTRA:          -4.690
REMARK INTER:                  -4.693
REMARK INTRA:                   0.004
REMARK UNBOUND:                -0.132
REMARK SMILES CC1=CCC(=C(C)C)C(=O)CC(C)=CCC1
REMARK SMILES IDX 12 1 14 2 13 3 15 4 16 5 2 6 1 7 3 8 11 10 9 11 10 12 5 13
REMARK SMILES IDX 6 14 7 15 8 16 4 17
REMARK H PARENT
REMARK Flexibility Score: 60.00
ROOT
ATOM      1  C   UNL     1     136.692 182.421 189.602  1.00  0.00    -0.070 C 
ATOM      2  C   UNL     1     137.510 183.496 189.668  1.00  0.00    -0.027 C 
ATOM      3  C   UNL     1     136.803 181.516 188.402  1.00  0.00     0.039 C 
ENDROOT
BRANCH   2   4
ATOM      4  C   UNL     1     137.635 184.415 190.856  1.00  0.00     0.032 C 
BRANCH   4   5
ATOM      5  C   UNL     1     136.626 185.563 190.735  1.00  0.00     0.034 C 
BRANCH   5   6
ATOM      6  C   UNL     1     136.043 185.968 192.073  1.00  0.00    -0.077 C 
ATOM      7  C   UNL     1     136.944 186.641 193.079  1.00  0.00     0.039 C 
ATOM      8  C   UNL     1     134.769 185.696 192.450  1.00  0.00    -0.023 CG0
ATOM      9  G   UNL     1     133.667 185.086 191.604  1.00  0.00     0.000 G0
ENDBRANCH   5   6
ENDBRANCH   4   5
ENDBRANCH   2   4
BRANCH   1  10
ATOM     10  C   UNL     1     135.658 182.094 190.662  1.00  0.00     0.111 C 
BRANCH  10  11
ATOM     11  C   UNL     1     134.376 182.865 190.454  1.00  0.00     0.163 C 
ATOM     12  O   UNL     1     133.936 182.939 189.275  1.00  0.00    -0.294 OA
BRANCH  11  13
ATOM     13  C   UNL     1     133.627 183.552 191.558  1.00  0.00    -0.002 C 
ATOM     14  C   UNL     1     132.801 182.841 192.386  1.00  0.00    -0.069 C 
ATOM     15  C   UNL     1     131.857 183.520 193.353  1.00  0.00     0.039 C 
ATOM     16  C   UNL     1     132.824 181.329 192.416  1.00  0.00     0.039 C 
BRANCH  13  17
ATOM     17  C   UNL     1     133.673 185.076 191.609  1.00  0.00     0.066 CG0
ATOM     18  G   UNL     1     134.772 185.691 192.456  1.00  0.00     0.000 G0
ENDBRANCH  13  17
ENDBRANCH  11  13
ENDBRANCH  10  11
ENDBRANCH   1  10
TORSDOF 0
ENDMDL
