MODEL 1
REMARK VINA RESULT:    -4.413      0.000      0.000
REMARK INTER + INTRA:          -6.975
REMARK INTER:                  -5.445
REMARK INTRA:                  -1.530
REMARK UNBOUND:                -1.530
REMARK SMILES CC(C)=CCC[C@@H](C)c1ccc(C)cc1
REMARK SMILES IDX 6 1 7 2 8 3 9 4 13 5 12 6 11 7 14 8 10 9 15 10 5 11 4 12
REMARK SMILES IDX 2 13 1 14 3 15
REMARK H PARENT
REMARK Flexibility Score: inf
ROOT
ATOM      1  C   UNL     1      17.953  -6.242   2.379  1.00  0.00     0.012 C 
ENDROOT
BRANCH   1   2
ATOM      2  C   UNL     1      16.980  -7.404   2.684  1.00  0.00     0.016 C 
ATOM      3  C   UNL     1      17.205  -8.609   1.758  1.00  0.00     0.013 C 
BRANCH   2   4
ATOM      4  C   UNL     1      17.101  -7.827   4.137  1.00  0.00    -0.045 A 
ATOM      5  C   UNL     1      17.494  -9.009   8.273  1.00  0.00     0.044 C 
ATOM      6  C   UNL     1      17.329  -8.592   6.842  1.00  0.00    -0.051 A 
ATOM      7  C   UNL     1      17.589  -7.269   6.456  1.00  0.00     0.004 A 
ATOM      8  C   UNL     1      16.979  -9.537   5.867  1.00  0.00     0.004 A 
ATOM      9  C   UNL     1      17.471  -6.888   5.117  1.00  0.00     0.004 A 
ATOM     10  C   UNL     1      16.860  -9.158   4.528  1.00  0.00     0.004 A 
ENDBRANCH   2   4
ENDBRANCH   1   2
BRANCH   1  11
ATOM     11  C   UNL     1      19.322  -6.731   1.884  1.00  0.00     0.028 C 
BRANCH  11  12
ATOM     12  C   UNL     1      20.410  -6.330   2.849  1.00  0.00    -0.028 C 
ATOM     13  C   UNL     1      20.967  -7.158   3.760  1.00  0.00    -0.080 C 
ATOM     14  C   UNL     1      20.580  -8.615   3.862  1.00  0.00     0.039 C 
ATOM     15  C   UNL     1      22.020  -6.604   4.686  1.00  0.00     0.039 C 
ENDBRANCH  11  12
ENDBRANCH   1  11
TORSDOF 4
ENDMDL
MODEL 2
REMARK VINA RESULT:    -4.400      1.281      4.012
REMARK INTER + INTRA:          -6.959
REMARK INTER:                  -5.541
REMARK INTRA:                  -1.419
REMARK UNBOUND:                -1.530
REMARK SMILES CC(C)=CCC[C@@H](C)c1ccc(C)cc1
REMARK SMILES IDX 6 1 7 2 8 3 9 4 13 5 12 6 11 7 14 8 10 9 15 10 5 11 4 12
REMARK SMILES IDX 2 13 1 14 3 15
REMARK H PARENT
REMARK Flexibility Score: inf
ROOT
ATOM      1  C   UNL     1      19.744  -8.234   6.327  1.00  0.00     0.012 C 
ENDROOT
BRANCH   1   2
ATOM      2  C   UNL     1      18.352  -8.658   5.806  1.00  0.00     0.016 C 
ATOM      3  C   UNL     1      17.249  -8.450   6.856  1.00  0.00     0.013 C 
BRANCH   2   4
ATOM      4  C   UNL     1      18.013  -7.906   4.531  1.00  0.00    -0.045 A 
ATOM      5  C   UNL     1      17.078  -5.800   0.877  1.00  0.00     0.044 C 
ATOM      6  C   UNL     1      17.374  -6.527   2.155  1.00  0.00    -0.051 A 
ATOM      7  C   UNL     1      17.222  -7.919   2.229  1.00  0.00     0.004 A 
ATOM      8  C   UNL     1      17.871  -5.830   3.266  1.00  0.00     0.004 A 
ATOM      9  C   UNL     1      17.533  -8.602   3.408  1.00  0.00     0.004 A 
ATOM     10  C   UNL     1      18.182  -6.511   4.445  1.00  0.00     0.004 A 
ENDBRANCH   2   4
ENDBRANCH   1   2
BRANCH   1  11
ATOM     11  C   UNL     1      20.881  -8.644   5.380  1.00  0.00     0.028 C 
BRANCH  11  12
ATOM     12  C   UNL     1      21.740  -7.454   5.034  1.00  0.00    -0.028 C 
ATOM     13  C   UNL     1      21.900  -6.962   3.786  1.00  0.00    -0.080 C 
ATOM     14  C   UNL     1      21.169  -7.540   2.598  1.00  0.00     0.039 C 
ATOM     15  C   UNL     1      22.824  -5.787   3.589  1.00  0.00     0.039 C 
ENDBRANCH  11  12
ENDBRANCH   1  11
TORSDOF 4
ENDMDL
MODEL 3
REMARK VINA RESULT:    -4.363      1.668      5.192
REMARK INTER + INTRA:          -6.913
REMARK INTER:                  -5.340
REMARK INTRA:                  -1.573
REMARK UNBOUND:                -1.530
REMARK SMILES CC(C)=CCC[C@@H](C)c1ccc(C)cc1
REMARK SMILES IDX 6 1 7 2 8 3 9 4 13 5 12 6 11 7 14 8 10 9 15 10 5 11 4 12
REMARK SMILES IDX 2 13 1 14 3 15
REMARK H PARENT
REMARK Flexibility Score: inf
ROOT
ATOM      1  C   UNL     1      18.579  -6.698   5.837  1.00  0.00     0.012 C 
ENDROOT
BRANCH   1   2
ATOM      2  C   UNL     1      19.885  -7.499   6.041  1.00  0.00     0.016 C 
ATOM      3  C   UNL     1      19.616  -8.967   6.406  1.00  0.00     0.013 C 
BRANCH   2   4
ATOM      4  C   UNL     1      20.755  -7.417   4.798  1.00  0.00    -0.045 A 
ATOM      5  C   UNL     1      23.266  -7.209   1.289  1.00  0.00     0.044 C 
ATOM      6  C   UNL     1      22.370  -7.286   2.490  1.00  0.00    -0.051 A 
ATOM      7  C   UNL     1      22.144  -8.514   3.127  1.00  0.00     0.004 A 
ATOM      8  C   UNL     1      21.806  -6.119   3.026  1.00  0.00     0.004 A 
ATOM      9  C   UNL     1      21.339  -8.581   4.268  1.00  0.00     0.004 A 
ATOM     10  C   UNL     1      21.001  -6.184   4.166  1.00  0.00     0.004 A 
ENDBRANCH   2   4
ENDBRANCH   1   2
BRANCH   1  11
ATOM     11  C   UNL     1      17.586  -7.410   4.907  1.00  0.00     0.028 C 
BRANCH  11  12
ATOM     12  C   UNL     1      17.284  -6.559   3.700  1.00  0.00    -0.028 C 
ATOM     13  C   UNL     1      17.655  -6.863   2.436  1.00  0.00    -0.080 C 
ATOM     14  C   UNL     1      18.379  -8.146   2.101  1.00  0.00     0.039 C 
ATOM     15  C   UNL     1      17.315  -5.893   1.334  1.00  0.00     0.039 C 
ENDBRANCH  11  12
ENDBRANCH   1  11
TORSDOF 4
ENDMDL
MODEL 4
REMARK VINA RESULT:    -4.261      1.398      4.451
REMARK INTER + INTRA:          -6.787
REMARK INTER:                  -5.365
REMARK INTRA:                  -1.423
REMARK UNBOUND:                -1.530
REMARK SMILES CC(C)=CCC[C@@H](C)c1ccc(C)cc1
REMARK SMILES IDX 6 1 7 2 8 3 9 4 13 5 12 6 11 7 14 8 10 9 15 10 5 11 4 12
REMARK SMILES IDX 2 13 1 14 3 15
REMARK H PARENT
REMARK Flexibility Score: inf
ROOT
ATOM      1  C   UNL     1      18.065  -6.628   3.633  1.00  0.00     0.012 C 
ENDROOT
BRANCH   1   2
ATOM      2  C   UNL     1      19.202  -7.348   2.873  1.00  0.00     0.016 C 
ATOM      3  C   UNL     1      19.641  -6.579   1.618  1.00  0.00     0.013 C 
BRANCH   2   4
ATOM      4  C   UNL     1      20.390  -7.579   3.792  1.00  0.00    -0.045 A 
ATOM      5  C   UNL     1      23.742  -8.277   6.424  1.00  0.00     0.044 C 
ATOM      6  C   UNL     1      22.597  -8.026   5.488  1.00  0.00    -0.051 A 
ATOM      7  C   UNL     1      22.094  -9.065   4.692  1.00  0.00     0.004 A 
ATOM      8  C   UNL     1      21.978  -6.769   5.451  1.00  0.00     0.004 A 
ATOM      9  C   UNL     1      21.003  -8.843   3.847  1.00  0.00     0.004 A 
ATOM     10  C   UNL     1      20.887  -6.545   4.606  1.00  0.00     0.004 A 
ENDBRANCH   2   4
ENDBRANCH   1   2
BRANCH   1  11
ATOM     11  C   UNL     1      17.291  -7.567   4.570  1.00  0.00     0.028 C 
BRANCH  11  12
ATOM     12  C   UNL     1      17.267  -7.018   5.974  1.00  0.00    -0.028 C 
ATOM     13  C   UNL     1      17.926  -7.564   7.020  1.00  0.00    -0.080 C 
ATOM     14  C   UNL     1      18.814  -8.776   6.864  1.00  0.00     0.039 C 
ATOM     15  C   UNL     1      17.776  -6.923   8.376  1.00  0.00     0.039 C 
ENDBRANCH  11  12
ENDBRANCH   1  11
TORSDOF 4
ENDMDL
MODEL 5
REMARK VINA RESULT:    -4.247      1.315      5.006
REMARK INTER + INTRA:          -6.770
REMARK INTER:                  -5.625
REMARK INTRA:                  -1.146
REMARK UNBOUND:                -1.530
REMARK SMILES CC(C)=CCC[C@@H](C)c1ccc(C)cc1
REMARK SMILES IDX 6 1 7 2 8 3 9 4 13 5 12 6 11 7 14 8 10 9 15 10 5 11 4 12
REMARK SMILES IDX 2 13 1 14 3 15
REMARK H PARENT
REMARK Flexibility Score: inf
ROOT
ATOM      1  C   UNL     1      20.999  -9.014   5.104  1.00  0.00     0.012 C 
ENDROOT
BRANCH   1   2
ATOM      2  C   UNL     1      20.703  -7.503   5.239  1.00  0.00     0.016 C 
ATOM      3  C   UNL     1      21.985  -6.656   5.238  1.00  0.00     0.013 C 
BRANCH   2   4
ATOM      4  C   UNL     1      19.770  -7.046   4.132  1.00  0.00    -0.045 A 
ATOM      5  C   UNL     1      17.078  -5.778   1.000  1.00  0.00     0.044 C 
ATOM      6  C   UNL     1      18.023  -6.190   2.090  1.00  0.00    -0.051 A 
ATOM      7  C   UNL     1      17.603  -6.188   3.428  1.00  0.00     0.004 A 
ATOM      8  C   UNL     1      19.311  -6.645   1.774  1.00  0.00     0.004 A 
ATOM      9  C   UNL     1      18.470  -6.607   4.441  1.00  0.00     0.004 A 
ATOM     10  C   UNL     1      20.179  -7.064   2.785  1.00  0.00     0.004 A 
ENDBRANCH   2   4
ENDBRANCH   1   2
BRANCH   1  11
ATOM     11  C   UNL     1      19.861  -9.892   5.643  1.00  0.00     0.028 C 
BRANCH  11  12
ATOM     12  C   UNL     1      19.243  -9.267   6.869  1.00  0.00    -0.028 C 
ATOM     13  C   UNL     1      17.915  -9.104   7.059  1.00  0.00    -0.080 C 
ATOM     14  C   UNL     1      16.897  -9.596   6.058  1.00  0.00     0.039 C 
ATOM     15  C   UNL     1      17.447  -8.427   8.322  1.00  0.00     0.039 C 
ENDBRANCH  11  12
ENDBRANCH   1  11
TORSDOF 4
ENDMDL
MODEL 6
REMARK VINA RESULT:    -4.229      1.422      5.021
REMARK INTER + INTRA:          -6.748
REMARK INTER:                  -5.203
REMARK INTRA:                  -1.545
REMARK UNBOUND:                -1.530
REMARK SMILES CC(C)=CCC[C@@H](C)c1ccc(C)cc1
REMARK SMILES IDX 6 1 7 2 8 3 9 4 13 5 12 6 11 7 14 8 10 9 15 10 5 11 4 12
REMARK SMILES IDX 2 13 1 14 3 15
REMARK H PARENT
REMARK Flexibility Score: inf
ROOT
ATOM      1  C   UNL     1      19.126  -7.131   6.362  1.00  0.00     0.012 C 
ENDROOT
BRANCH   1   2
ATOM      2  C   UNL     1      20.130  -6.717   5.262  1.00  0.00     0.016 C 
ATOM      3  C   UNL     1      21.325  -7.678   5.175  1.00  0.00     0.013 C 
BRANCH   2   4
ATOM      4  C   UNL     1      19.431  -6.624   3.916  1.00  0.00    -0.045 A 
ATOM      5  C   UNL     1      17.406  -6.392   0.108  1.00  0.00     0.044 C 
ATOM      6  C   UNL     1      18.116  -6.443   1.429  1.00  0.00    -0.051 A 
ATOM      7  C   UNL     1      17.409  -6.226   2.620  1.00  0.00     0.004 A 
ATOM      8  C   UNL     1      19.477  -6.775   1.486  1.00  0.00     0.004 A 
ATOM      9  C   UNL     1      18.061  -6.311   3.853  1.00  0.00     0.004 A 
ATOM     10  C   UNL     1      20.130  -6.859   2.718  1.00  0.00     0.004 A 
ENDBRANCH   2   4
ENDBRANCH   1   2
BRANCH   1  11
ATOM     11  C   UNL     1      19.070  -8.651   6.572  1.00  0.00     0.028 C 
BRANCH  11  12
ATOM     12  C   UNL     1      17.725  -9.196   6.162  1.00  0.00    -0.028 C 
ATOM     13  C   UNL     1      17.480  -9.829   4.993  1.00  0.00    -0.080 C 
ATOM     14  C   UNL     1      18.573 -10.105   3.987  1.00  0.00     0.039 C 
ATOM     15  C   UNL     1      16.073 -10.285   4.704  1.00  0.00     0.039 C 
ENDBRANCH  11  12
ENDBRANCH   1  11
TORSDOF 4
ENDMDL
MODEL 7
REMARK VINA RESULT:    -4.175      1.453      3.503
REMARK INTER + INTRA:          -6.681
REMARK INTER:                  -5.311
REMARK INTRA:                  -1.370
REMARK UNBOUND:                -1.530
REMARK SMILES CC(C)=CCC[C@@H](C)c1ccc(C)cc1
REMARK SMILES IDX 6 1 7 2 8 3 9 4 13 5 12 6 11 7 14 8 10 9 15 10 5 11 4 12
REMARK SMILES IDX 2 13 1 14 3 15
REMARK H PARENT
REMARK Flexibility Score: inf
ROOT
ATOM      1  C   UNL     1      21.704  -6.863   3.774  1.00  0.00     0.012 C 
ENDROOT
BRANCH   1   2
ATOM      2  C   UNL     1      21.853  -8.012   4.797  1.00  0.00     0.016 C 
ATOM      3  C   UNL     1      23.036  -7.791   5.752  1.00  0.00     0.013 C 
BRANCH   2   4
ATOM      4  C   UNL     1      20.566  -8.189   5.585  1.00  0.00    -0.045 A 
ATOM      5  C   UNL     1      16.925  -8.657   7.861  1.00  0.00     0.044 C 
ATOM      6  C   UNL     1      18.174  -8.496   7.045  1.00  0.00    -0.051 A 
ATOM      7  C   UNL     1      18.629  -7.218   6.693  1.00  0.00     0.004 A 
ATOM      8  C   UNL     1      18.932  -9.620   6.686  1.00  0.00     0.004 A 
ATOM      9  C   UNL     1      19.812  -7.065   5.965  1.00  0.00     0.004 A 
ATOM     10  C   UNL     1      20.115  -9.469   5.958  1.00  0.00     0.004 A 
ENDBRANCH   2   4
ENDBRANCH   1   2
BRANCH   1  11
ATOM     11  C   UNL     1      21.069  -7.324   2.454  1.00  0.00     0.028 C 
BRANCH  11  12
ATOM     12  C   UNL     1      19.824  -6.527   2.155  1.00  0.00    -0.028 C 
ATOM     13  C   UNL     1      18.564  -7.001   2.278  1.00  0.00    -0.080 C 
ATOM     14  C   UNL     1      18.278  -8.392   2.792  1.00  0.00     0.039 C 
ATOM     15  C   UNL     1      17.417  -6.097   1.905  1.00  0.00     0.039 C 
ENDBRANCH  11  12
ENDBRANCH   1  11
TORSDOF 4
ENDMDL
MODEL 8
REMARK VINA RESULT:    -4.155      1.110      2.123
REMARK INTER + INTRA:          -6.657
REMARK INTER:                  -5.182
REMARK INTRA:                  -1.475
REMARK UNBOUND:                -1.530
REMARK SMILES CC(C)=CCC[C@@H](C)c1ccc(C)cc1
REMARK SMILES IDX 6 1 7 2 8 3 9 4 13 5 12 6 11 7 14 8 10 9 15 10 5 11 4 12
REMARK SMILES IDX 2 13 1 14 3 15
REMARK H PARENT
REMARK Flexibility Score: inf
ROOT
ATOM      1  C   UNL     1      19.674  -6.615   1.878  1.00  0.00     0.012 C 
ENDROOT
BRANCH   1   2
ATOM      2  C   UNL     1      18.300  -6.215   2.462  1.00  0.00     0.016 C 
ATOM      3  C   UNL     1      17.204  -6.161   1.386  1.00  0.00     0.013 C 
BRANCH   2   4
ATOM      4  C   UNL     1      17.900  -7.170   3.574  1.00  0.00    -0.045 A 
ATOM      5  C   UNL     1      16.725  -9.905   6.704  1.00  0.00     0.044 C 
ATOM      6  C   UNL     1      17.162  -8.958   5.625  1.00  0.00    -0.051 A 
ATOM      7  C   UNL     1      17.451  -9.437   4.339  1.00  0.00     0.004 A 
ATOM      8  C   UNL     1      17.218  -7.580   5.876  1.00  0.00     0.004 A 
ATOM      9  C   UNL     1      17.822  -8.551   3.323  1.00  0.00     0.004 A 
ATOM     10  C   UNL     1      17.589  -6.693   4.861  1.00  0.00     0.004 A 
ENDBRANCH   2   4
ENDBRANCH   1   2
BRANCH   1  11
ATOM     11  C   UNL     1      20.824  -6.411   2.875  1.00  0.00     0.028 C 
BRANCH  11  12
ATOM     12  C   UNL     1      21.425  -7.736   3.272  1.00  0.00    -0.028 C 
ATOM     13  C   UNL     1      21.536  -8.175   4.545  1.00  0.00    -0.080 C 
ATOM     14  C   UNL     1      21.003  -7.383   5.716  1.00  0.00     0.039 C 
ATOM     15  C   UNL     1      22.197  -9.508   4.790  1.00  0.00     0.039 C 
ENDBRANCH  11  12
ENDBRANCH   1  11
TORSDOF 4
ENDMDL
MODEL 9
REMARK VINA RESULT:    -4.030      1.444      5.055
REMARK INTER + INTRA:          -6.503
REMARK INTER:                  -5.270
REMARK INTRA:                  -1.232
REMARK UNBOUND:                -1.530
REMARK SMILES CC(C)=CCC[C@@H](C)c1ccc(C)cc1
REMARK SMILES IDX 6 1 7 2 8 3 9 4 13 5 12 6 11 7 14 8 10 9 15 10 5 11 4 12
REMARK SMILES IDX 2 13 1 14 3 15
REMARK H PARENT
REMARK Flexibility Score: inf
ROOT
ATOM      1  C   UNL     1      17.996  -8.802   8.181  1.00  0.00     0.012 C 
ENDROOT
BRANCH   1   2
ATOM      2  C   UNL     1      17.436  -7.522   7.519  1.00  0.00     0.016 C 
ATOM      3  C   UNL     1      17.596  -6.286   8.417  1.00  0.00     0.013 C 
BRANCH   2   4
ATOM      4  C   UNL     1      18.104  -7.287   6.175  1.00  0.00    -0.045 A 
ATOM      5  C   UNL     1      20.034  -6.581   2.376  1.00  0.00     0.044 C 
ATOM      6  C   UNL     1      19.363  -6.856   3.689  1.00  0.00    -0.051 A 
ATOM      7  C   UNL     1      20.128  -7.126   4.832  1.00  0.00     0.004 A 
ATOM      8  C   UNL     1      17.967  -6.777   3.798  1.00  0.00     0.004 A 
ATOM      9  C   UNL     1      19.504  -7.345   6.064  1.00  0.00     0.004 A 
ATOM     10  C   UNL     1      17.342  -6.996   5.028  1.00  0.00     0.004 A 
ENDBRANCH   2   4
ENDBRANCH   1   2
BRANCH   1  11
ATOM     11  C   UNL     1      17.367 -10.085   7.616  1.00  0.00     0.028 C 
BRANCH  11  12
ATOM     12  C   UNL     1      18.089 -10.526   6.367  1.00  0.00    -0.028 C 
ATOM     13  C   UNL     1      17.516 -10.630   5.148  1.00  0.00    -0.080 C 
ATOM     14  C   UNL     1      16.074 -10.252   4.906  1.00  0.00     0.039 C 
ATOM     15  C   UNL     1      18.358 -11.123   3.999  1.00  0.00     0.039 C 
ENDBRANCH  11  12
ENDBRANCH   1  11
TORSDOF 4
ENDMDL
