MODEL 1
REMARK VINA RESULT:    -2.338      0.000      0.000
REMARK INTER + INTRA:          -6.549
REMARK INTER:                  -4.320
REMARK INTRA:                  -2.229
REMARK UNBOUND:                -2.229
REMARK SMILES CCCCCCCCCCCCCCCCO
REMARK SMILES IDX 9 1 8 2 7 3 6 4 5 5 4 6 3 7 2 8 1 9 10 10 11 11 12 12 13 13
REMARK SMILES IDX 14 14 15 15 16 16 17 17
REMARK H PARENT 17 18
REMARK Flexibility Score: inf
ROOT
ATOM      1  C   UNL     1     126.154 127.685 122.000  1.00  0.00     0.000 C 
ENDROOT
BRANCH   1   2
ATOM      2  C   UNL     1     126.420 129.169 121.695  1.00  0.00    -0.000 C 
BRANCH   2   3
ATOM      3  C   UNL     1     125.470 129.743 120.629  1.00  0.00    -0.000 C 
BRANCH   3   4
ATOM      4  C   UNL     1     125.981 129.661 119.174  1.00  0.00    -0.000 C 
BRANCH   4   5
ATOM      5  C   UNL     1     125.380 128.521 118.333  1.00  0.00    -0.000 C 
BRANCH   5   6
ATOM      6  C   UNL     1     124.024 127.991 118.835  1.00  0.00    -0.000 C 
BRANCH   6   7
ATOM      7  C   UNL     1     124.063 126.518 119.295  1.00  0.00    -0.000 C 
BRANCH   7   8
ATOM      8  C   UNL     1     122.834 126.126 120.128  1.00  0.00    -0.003 C 
ATOM      9  C   UNL     1     122.629 127.090 121.293  1.00  0.00     0.004 C 
ENDBRANCH   7   8
ENDBRANCH   6   7
ENDBRANCH   5   6
ENDBRANCH   4   5
ENDBRANCH   3   4
ENDBRANCH   2   3
ENDBRANCH   1   2
BRANCH   1  10
ATOM     10  C   UNL     1     127.404 126.803 121.825  1.00  0.00     0.000 C 
BRANCH  10  11
ATOM     11  C   UNL     1     128.038 126.828 120.422  1.00  0.00     0.000 C 
BRANCH  11  12
ATOM     12  C   UNL     1     127.539 125.689 119.517  1.00  0.00     0.000 C 
BRANCH  12  13
ATOM     13  C   UNL     1     128.426 125.492 118.275  1.00  0.00     0.000 C 
BRANCH  13  14
ATOM     14  C   UNL     1     128.582 126.786 117.455  1.00  0.00     0.002 C 
BRANCH  14  15
ATOM     15  C   UNL     1     127.784 126.752 116.140  1.00  0.00     0.028 C 
BRANCH  15  16
ATOM     16  C   UNL     1     128.320 125.743 115.119  1.00  0.00     0.156 C 
BRANCH  16  17
ATOM     17  O   UNL     1     127.412 124.690 114.953  1.00  0.00    -0.396 OA
ATOM     18  H   UNL     1     126.530 125.036 115.252  1.00  0.00     0.210 HD
ENDBRANCH  16  17
ENDBRANCH  15  16
ENDBRANCH  14  15
ENDBRANCH  13  14
ENDBRANCH  12  13
ENDBRANCH  11  12
ENDBRANCH  10  11
ENDBRANCH   1  10
TORSDOF 15
ENDMDL
MODEL 2
REMARK VINA RESULT:    -2.318      1.399      2.397
REMARK INTER + INTRA:          -6.511
REMARK INTER:                  -4.740
REMARK INTRA:                  -1.771
REMARK UNBOUND:                -2.229
REMARK SMILES CCCCCCCCCCCCCCCCO
REMARK SMILES IDX 9 1 8 2 7 3 6 4 5 5 4 6 3 7 2 8 1 9 10 10 11 11 12 12 13 13
REMARK SMILES IDX 14 14 15 15 16 16 17 17
REMARK H PARENT 17 18
REMARK Flexibility Score: inf
ROOT
ATOM      1  C   UNL     1     128.306 126.976 120.345  1.00  0.00     0.000 C 
ENDROOT
BRANCH   1   2
ATOM      2  C   UNL     1     128.660 128.466 120.205  1.00  0.00    -0.000 C 
BRANCH   2   3
ATOM      3  C   UNL     1     127.430 129.387 120.302  1.00  0.00    -0.000 C 
BRANCH   3   4
ATOM      4  C   UNL     1     126.892 129.918 118.956  1.00  0.00    -0.000 C 
BRANCH   4   5
ATOM      5  C   UNL     1     125.556 129.307 118.499  1.00  0.00    -0.000 C 
BRANCH   5   6
ATOM      6  C   UNL     1     125.016 128.182 119.401  1.00  0.00    -0.000 C 
BRANCH   6   7
ATOM      7  C   UNL     1     123.812 127.425 118.799  1.00  0.00    -0.000 C 
BRANCH   7   8
ATOM      8  C   UNL     1     123.492 126.128 119.556  1.00  0.00    -0.003 C 
ATOM      9  C   UNL     1     124.473 125.904 120.703  1.00  0.00     0.004 C 
ENDBRANCH   7   8
ENDBRANCH   6   7
ENDBRANCH   5   6
ENDBRANCH   4   5
ENDBRANCH   3   4
ENDBRANCH   2   3
ENDBRANCH   1   2
BRANCH   1  10
ATOM     10  C   UNL     1     128.372 126.215 119.007  1.00  0.00     0.000 C 
BRANCH  10  11
ATOM     11  C   UNL     1     128.911 127.024 117.814  1.00  0.00     0.000 C 
BRANCH  11  12
ATOM     12  C   UNL     1     127.893 127.154 116.668  1.00  0.00     0.000 C 
BRANCH  12  13
ATOM     13  C   UNL     1     128.469 126.702 115.315  1.00  0.00     0.000 C 
BRANCH  13  14
ATOM     14  C   UNL     1     128.005 125.288 114.921  1.00  0.00     0.002 C 
BRANCH  14  15
ATOM     15  C   UNL     1     129.007 124.198 115.341  1.00  0.00     0.028 C 
BRANCH  15  16
ATOM     16  C   UNL     1     128.351 122.983 116.005  1.00  0.00     0.156 C 
BRANCH  16  17
ATOM     17  O   UNL     1     127.186 122.622 115.317  1.00  0.00    -0.396 OA
ATOM     18  H   UNL     1     126.903 121.748 115.693  1.00  0.00     0.210 HD
ENDBRANCH  16  17
ENDBRANCH  15  16
ENDBRANCH  14  15
ENDBRANCH  13  14
ENDBRANCH  12  13
ENDBRANCH  11  12
ENDBRANCH  10  11
ENDBRANCH   1  10
TORSDOF 15
ENDMDL
MODEL 3
REMARK VINA RESULT:    -2.314      2.036      3.717
REMARK INTER + INTRA:          -6.505
REMARK INTER:                  -5.416
REMARK INTRA:                  -1.089
REMARK UNBOUND:                -2.229
REMARK SMILES CCCCCCCCCCCCCCCCO
REMARK SMILES IDX 9 1 8 2 7 3 6 4 5 5 4 6 3 7 2 8 1 9 10 10 11 11 12 12 13 13
REMARK SMILES IDX 14 14 15 15 16 16 17 17
REMARK H PARENT 17 18
REMARK Flexibility Score: inf
ROOT
ATOM      1  C   UNL     1     128.682 127.189 117.099  1.00  0.00     0.000 C 
ENDROOT
BRANCH   1   2
ATOM      2  C   UNL     1     127.841 127.521 118.344  1.00  0.00    -0.000 C 
BRANCH   2   3
ATOM      3  C   UNL     1     127.149 128.893 118.252  1.00  0.00    -0.000 C 
BRANCH   3   4
ATOM      4  C   UNL     1     125.616 128.874 118.432  1.00  0.00    -0.000 C 
BRANCH   4   5
ATOM      5  C   UNL     1     125.127 128.902 119.891  1.00  0.00    -0.000 C 
BRANCH   5   6
ATOM      6  C   UNL     1     124.084 127.826 120.245  1.00  0.00    -0.000 C 
BRANCH   6   7
ATOM      7  C   UNL     1     123.640 126.970 119.040  1.00  0.00    -0.000 C 
BRANCH   7   8
ATOM      8  C   UNL     1     122.828 125.736 119.460  1.00  0.00    -0.003 C 
ATOM      9  C   UNL     1     121.583 125.575 118.592  1.00  0.00     0.004 C 
ENDBRANCH   7   8
ENDBRANCH   6   7
ENDBRANCH   5   6
ENDBRANCH   4   5
ENDBRANCH   3   4
ENDBRANCH   2   3
ENDBRANCH   1   2
BRANCH   1  10
ATOM     10  C   UNL     1     127.824 126.903 115.853  1.00  0.00     0.000 C 
BRANCH  10  11
ATOM     11  C   UNL     1     128.176 125.612 115.093  1.00  0.00     0.000 C 
BRANCH  11  12
ATOM     12  C   UNL     1     129.631 125.165 115.311  1.00  0.00     0.000 C 
BRANCH  12  13
ATOM     13  C   UNL     1     129.733 123.715 115.816  1.00  0.00     0.000 C 
BRANCH  13  14
ATOM     14  C   UNL     1     128.680 123.393 116.892  1.00  0.00     0.002 C 
BRANCH  14  15
ATOM     15  C   UNL     1     128.198 121.933 116.830  1.00  0.00     0.028 C 
BRANCH  15  16
ATOM     16  C   UNL     1     127.689 121.511 115.448  1.00  0.00     0.156 C 
BRANCH  16  17
ATOM     17  O   UNL     1     126.405 122.023 115.225  1.00  0.00    -0.396 OA
ATOM     18  H   UNL     1     125.944 122.005 116.104  1.00  0.00     0.210 HD
ENDBRANCH  16  17
ENDBRANCH  15  16
ENDBRANCH  14  15
ENDBRANCH  13  14
ENDBRANCH  12  13
ENDBRANCH  11  12
ENDBRANCH  10  11
ENDBRANCH   1  10
TORSDOF 15
ENDMDL
MODEL 4
REMARK VINA RESULT:    -2.312      1.432      2.945
REMARK INTER + INTRA:          -6.501
REMARK INTER:                  -4.109
REMARK INTRA:                  -2.392
REMARK UNBOUND:                -2.229
REMARK SMILES CCCCCCCCCCCCCCCCO
REMARK SMILES IDX 9 1 8 2 7 3 6 4 5 5 4 6 3 7 2 8 1 9 10 10 11 11 12 12 13 13
REMARK SMILES IDX 14 14 15 15 16 16 17 17
REMARK H PARENT 17 18
REMARK Flexibility Score: inf
ROOT
ATOM      1  C   UNL     1     124.145 127.967 120.091  1.00  0.00     0.000 C 
ENDROOT
BRANCH   1   2
ATOM      2  C   UNL     1     124.696 128.940 121.146  1.00  0.00    -0.000 C 
BRANCH   2   3
ATOM      3  C   UNL     1     125.576 128.245 122.201  1.00  0.00    -0.000 C 
BRANCH   3   4
ATOM      4  C   UNL     1     127.099 128.366 121.976  1.00  0.00    -0.000 C 
BRANCH   4   5
ATOM      5  C   UNL     1     127.764 127.139 121.327  1.00  0.00    -0.000 C 
BRANCH   5   6
ATOM      6  C   UNL     1     127.061 125.798 121.606  1.00  0.00    -0.000 C 
BRANCH   6   7
ATOM      7  C   UNL     1     126.580 125.070 120.333  1.00  0.00    -0.000 C 
BRANCH   7   8
ATOM      8  C   UNL     1     125.154 124.518 120.472  1.00  0.00    -0.003 C 
ATOM      9  C   UNL     1     124.661 124.622 121.912  1.00  0.00     0.004 C 
ENDBRANCH   7   8
ENDBRANCH   6   7
ENDBRANCH   5   6
ENDBRANCH   4   5
ENDBRANCH   3   4
ENDBRANCH   2   3
ENDBRANCH   1   2
BRANCH   1  10
ATOM     10  C   UNL     1     124.744 128.197 118.691  1.00  0.00     0.000 C 
BRANCH  10  11
ATOM     11  C   UNL     1     125.852 129.262 118.615  1.00  0.00     0.000 C 
BRANCH  11  12
ATOM     12  C   UNL     1     127.216 128.681 118.202  1.00  0.00     0.000 C 
BRANCH  12  13
ATOM     13  C   UNL     1     127.081 127.375 117.400  1.00  0.00     0.000 C 
BRANCH  13  14
ATOM     14  C   UNL     1     128.370 127.020 116.636  1.00  0.00     0.002 C 
BRANCH  14  15
ATOM     15  C   UNL     1     128.730 125.528 116.746  1.00  0.00     0.028 C 
BRANCH  15  16
ATOM     16  C   UNL     1     128.714 124.791 115.403  1.00  0.00     0.156 C 
BRANCH  16  17
ATOM     17  O   UNL     1     127.416 124.768 114.876  1.00  0.00    -0.396 OA
ATOM     18  H   UNL     1     126.804 124.695 115.653  1.00  0.00     0.210 HD
ENDBRANCH  16  17
ENDBRANCH  15  16
ENDBRANCH  14  15
ENDBRANCH  13  14
ENDBRANCH  12  13
ENDBRANCH  11  12
ENDBRANCH  10  11
ENDBRANCH   1  10
TORSDOF 15
ENDMDL
MODEL 5
REMARK VINA RESULT:    -2.283      1.538      3.780
REMARK INTER + INTRA:          -6.447
REMARK INTER:                  -4.429
REMARK INTRA:                  -2.018
REMARK UNBOUND:                -2.229
REMARK SMILES CCCCCCCCCCCCCCCCO
REMARK SMILES IDX 9 1 8 2 7 3 6 4 5 5 4 6 3 7 2 8 1 9 10 10 11 11 12 12 13 13
REMARK SMILES IDX 14 14 15 15 16 16 17 17
REMARK H PARENT 17 18
REMARK Flexibility Score: inf
ROOT
ATOM      1  C   UNL     1     125.105 128.637 118.360  1.00  0.00     0.000 C 
ENDROOT
BRANCH   1   2
ATOM      2  C   UNL     1     124.361 128.090 119.591  1.00  0.00    -0.000 C 
BRANCH   2   3
ATOM      3  C   UNL     1     123.825 126.662 119.382  1.00  0.00    -0.000 C 
BRANCH   3   4
ATOM      4  C   UNL     1     124.577 125.554 120.149  1.00  0.00    -0.000 C 
BRANCH   4   5
ATOM      5  C   UNL     1     125.033 125.934 121.569  1.00  0.00    -0.000 C 
BRANCH   5   6
ATOM      6  C   UNL     1     126.513 125.636 121.875  1.00  0.00    -0.000 C 
BRANCH   6   7
ATOM      7  C   UNL     1     127.491 126.190 120.817  1.00  0.00    -0.000 C 
BRANCH   7   8
ATOM      8  C   UNL     1     128.543 125.156 120.388  1.00  0.00    -0.003 C 
ATOM      9  C   UNL     1     127.995 124.228 119.308  1.00  0.00     0.004 C 
ENDBRANCH   7   8
ENDBRANCH   6   7
ENDBRANCH   5   6
ENDBRANCH   4   5
ENDBRANCH   3   4
ENDBRANCH   2   3
ENDBRANCH   1   2
BRANCH   1  10
ATOM     10  C   UNL     1     126.513 129.163 118.695  1.00  0.00     0.000 C 
BRANCH  10  11
ATOM     11  C   UNL     1     127.670 128.458 117.965  1.00  0.00     0.000 C 
BRANCH  11  12
ATOM     12  C   UNL     1     127.234 127.164 117.257  1.00  0.00     0.000 C 
BRANCH  12  13
ATOM     13  C   UNL     1     128.028 126.902 115.967  1.00  0.00     0.000 C 
BRANCH  13  14
ATOM     14  C   UNL     1     129.214 125.945 116.190  1.00  0.00     0.002 C 
BRANCH  14  15
ATOM     15  C   UNL     1     129.309 124.858 115.105  1.00  0.00     0.028 C 
BRANCH  15  16
ATOM     16  C   UNL     1     128.870 123.470 115.584  1.00  0.00     0.156 C 
BRANCH  16  17
ATOM     17  O   UNL     1     127.504 123.281 115.339  1.00  0.00    -0.396 OA
ATOM     18  H   UNL     1     127.384 123.379 114.358  1.00  0.00     0.210 HD
ENDBRANCH  16  17
ENDBRANCH  15  16
ENDBRANCH  14  15
ENDBRANCH  13  14
ENDBRANCH  12  13
ENDBRANCH  11  12
ENDBRANCH  10  11
ENDBRANCH   1  10
TORSDOF 15
ENDMDL
MODEL 6
REMARK VINA RESULT:    -2.253     11.421     13.866
REMARK INTER + INTRA:          -6.392
REMARK INTER:                  -4.136
REMARK INTRA:                  -2.255
REMARK UNBOUND:                -2.229
REMARK SMILES CCCCCCCCCCCCCCCCO
REMARK SMILES IDX 9 1 8 2 7 3 6 4 5 5 4 6 3 7 2 8 1 9 10 10 11 11 12 12 13 13
REMARK SMILES IDX 14 14 15 15 16 16 17 17
REMARK H PARENT 17 18
REMARK Flexibility Score: inf
ROOT
ATOM      1  C   UNL     1     113.044 125.095 120.708  1.00  0.00     0.000 C 
ENDROOT
BRANCH   1   2
ATOM      2  C   UNL     1     111.511 125.007 120.619  1.00  0.00    -0.000 C 
BRANCH   2   3
ATOM      3  C   UNL     1     111.023 124.366 119.307  1.00  0.00    -0.000 C 
BRANCH   3   4
ATOM      4  C   UNL     1     110.367 125.335 118.300  1.00  0.00    -0.000 C 
BRANCH   4   5
ATOM      5  C   UNL     1     110.123 126.760 118.827  1.00  0.00    -0.000 C 
BRANCH   5   6
ATOM      6  C   UNL     1     110.816 127.876 118.023  1.00  0.00    -0.000 C 
BRANCH   6   7
ATOM      7  C   UNL     1     111.850 127.355 117.002  1.00  0.00    -0.000 C 
BRANCH   7   8
ATOM      8  C   UNL     1     112.005 128.287 115.791  1.00  0.00    -0.003 C 
ATOM      9  C   UNL     1     111.503 129.692 116.110  1.00  0.00     0.004 C 
ENDBRANCH   7   8
ENDBRANCH   6   7
ENDBRANCH   5   6
ENDBRANCH   4   5
ENDBRANCH   3   4
ENDBRANCH   2   3
ENDBRANCH   1   2
BRANCH   1  10
ATOM     10  C   UNL     1     113.614 126.356 120.034  1.00  0.00     0.000 C 
BRANCH  10  11
ATOM     11  C   UNL     1     113.655 127.615 120.919  1.00  0.00     0.000 C 
BRANCH  11  12
ATOM     12  C   UNL     1     114.550 128.726 120.342  1.00  0.00     0.000 C 
BRANCH  12  13
ATOM     13  C   UNL     1     113.838 129.553 119.258  1.00  0.00     0.000 C 
BRANCH  13  14
ATOM     14  C   UNL     1     114.756 129.871 118.064  1.00  0.00     0.002 C 
BRANCH  14  15
ATOM     15  C   UNL     1     115.403 128.611 117.462  1.00  0.00     0.028 C 
BRANCH  15  16
ATOM     16  C   UNL     1     115.595 128.683 115.944  1.00  0.00     0.156 C 
BRANCH  16  17
ATOM     17  O   UNL     1     115.942 127.424 115.437  1.00  0.00    -0.396 OA
ATOM     18  H   UNL     1     115.160 126.835 115.603  1.00  0.00     0.210 HD
ENDBRANCH  16  17
ENDBRANCH  15  16
ENDBRANCH  14  15
ENDBRANCH  13  14
ENDBRANCH  12  13
ENDBRANCH  11  12
ENDBRANCH  10  11
ENDBRANCH   1  10
TORSDOF 15
ENDMDL
MODEL 7
REMARK VINA RESULT:    -2.242      9.555     12.564
REMARK INTER + INTRA:          -6.372
REMARK INTER:                  -4.682
REMARK INTRA:                  -1.691
REMARK UNBOUND:                -2.229
REMARK SMILES CCCCCCCCCCCCCCCCO
REMARK SMILES IDX 9 1 8 2 7 3 6 4 5 5 4 6 3 7 2 8 1 9 10 10 11 11 12 12 13 13
REMARK SMILES IDX 14 14 15 15 16 16 17 17
REMARK H PARENT 17 18
REMARK Flexibility Score: inf
ROOT
ATOM      1  C   UNL     1     115.240 128.621 117.952  1.00  0.00     0.000 C 
ENDROOT
BRANCH   1   2
ATOM      2  C   UNL     1     116.707 128.161 117.896  1.00  0.00    -0.000 C 
BRANCH   2   3
ATOM      3  C   UNL     1     117.563 129.001 116.932  1.00  0.00    -0.000 C 
BRANCH   3   4
ATOM      4  C   UNL     1     117.859 128.344 115.566  1.00  0.00    -0.000 C 
BRANCH   4   5
ATOM      5  C   UNL     1     117.406 126.879 115.432  1.00  0.00    -0.000 C 
BRANCH   5   6
ATOM      6  C   UNL     1     118.543 125.869 115.189  1.00  0.00    -0.000 C 
BRANCH   6   7
ATOM      7  C   UNL     1     119.947 126.423 115.515  1.00  0.00    -0.000 C 
BRANCH   7   8
ATOM      8  C   UNL     1     120.422 126.035 116.922  1.00  0.00    -0.003 C 
ATOM      9  C   UNL     1     120.114 124.571 117.223  1.00  0.00     0.004 C 
ENDBRANCH   7   8
ENDBRANCH   6   7
ENDBRANCH   5   6
ENDBRANCH   4   5
ENDBRANCH   3   4
ENDBRANCH   2   3
ENDBRANCH   1   2
BRANCH   1  10
ATOM     10  C   UNL     1     115.008 129.972 117.250  1.00  0.00     0.000 C 
BRANCH  10  11
ATOM     11  C   UNL     1     114.107 129.922 116.004  1.00  0.00     0.000 C 
BRANCH  11  12
ATOM     12  C   UNL     1     114.073 128.533 115.343  1.00  0.00     0.000 C 
BRANCH  12  13
ATOM     13  C   UNL     1     112.647 127.968 115.231  1.00  0.00     0.000 C 
BRANCH  13  14
ATOM     14  C   UNL     1     111.792 128.280 116.473  1.00  0.00     0.002 C 
BRANCH  14  15
ATOM     15  C   UNL     1     111.805 127.138 117.504  1.00  0.00     0.028 C 
BRANCH  15  16
ATOM     16  C   UNL     1     110.467 126.943 118.224  1.00  0.00     0.156 C 
BRANCH  16  17
ATOM     17  O   UNL     1     109.995 128.167 118.714  1.00  0.00    -0.396 OA
ATOM     18  H   UNL     1     110.591 128.410 119.469  1.00  0.00     0.210 HD
ENDBRANCH  16  17
ENDBRANCH  15  16
ENDBRANCH  14  15
ENDBRANCH  13  14
ENDBRANCH  12  13
ENDBRANCH  11  12
ENDBRANCH  10  11
ENDBRANCH   1  10
TORSDOF 15
ENDMDL
MODEL 8
REMARK VINA RESULT:    -2.231      1.652      3.754
REMARK INTER + INTRA:          -6.351
REMARK INTER:                  -4.583
REMARK INTRA:                  -1.768
REMARK UNBOUND:                -2.229
REMARK SMILES CCCCCCCCCCCCCCCCO
REMARK SMILES IDX 9 1 8 2 7 3 6 4 5 5 4 6 3 7 2 8 1 9 10 10 11 11 12 12 13 13
REMARK SMILES IDX 14 14 15 15 16 16 17 17
REMARK H PARENT 17 18
REMARK Flexibility Score: inf
ROOT
ATOM      1  C   UNL     1     126.460 127.563 117.811  1.00  0.00     0.000 C 
ENDROOT
BRANCH   1   2
ATOM      2  C   UNL     1     125.528 128.691 118.287  1.00  0.00    -0.000 C 
BRANCH   2   3
ATOM      3  C   UNL     1     124.479 128.212 119.306  1.00  0.00    -0.000 C 
BRANCH   3   4
ATOM      4  C   UNL     1     124.623 128.795 120.728  1.00  0.00    -0.000 C 
BRANCH   4   5
ATOM      5  C   UNL     1     126.012 128.624 121.368  1.00  0.00    -0.000 C 
BRANCH   5   6
ATOM      6  C   UNL     1     126.268 127.244 122.002  1.00  0.00    -0.000 C 
BRANCH   6   7
ATOM      7  C   UNL     1     127.331 126.406 121.259  1.00  0.00    -0.000 C 
BRANCH   7   8
ATOM      8  C   UNL     1     126.724 125.204 120.521  1.00  0.00    -0.003 C 
ATOM      9  C   UNL     1     127.746 124.556 119.591  1.00  0.00     0.004 C 
ENDBRANCH   7   8
ENDBRANCH   6   7
ENDBRANCH   5   6
ENDBRANCH   4   5
ENDBRANCH   3   4
ENDBRANCH   2   3
ENDBRANCH   1   2
BRANCH   1  10
ATOM     10  C   UNL     1     127.947 127.961 117.839  1.00  0.00     0.000 C 
BRANCH  10  11
ATOM     11  C   UNL     1     128.798 127.411 116.680  1.00  0.00     0.000 C 
BRANCH  11  12
ATOM     12  C   UNL     1     127.954 126.757 115.573  1.00  0.00     0.000 C 
BRANCH  12  13
ATOM     13  C   UNL     1     128.627 125.509 114.979  1.00  0.00     0.000 C 
BRANCH  13  14
ATOM     14  C   UNL     1     128.690 124.342 115.981  1.00  0.00     0.002 C 
BRANCH  14  15
ATOM     15  C   UNL     1     129.305 123.070 115.371  1.00  0.00     0.028 C 
BRANCH  15  16
ATOM     16  C   UNL     1     128.451 121.814 115.574  1.00  0.00     0.156 C 
BRANCH  16  17
ATOM     17  O   UNL     1     127.118 122.167 115.821  1.00  0.00    -0.396 OA
ATOM     18  H   UNL     1     126.688 121.363 116.212  1.00  0.00     0.210 HD
ENDBRANCH  16  17
ENDBRANCH  15  16
ENDBRANCH  14  15
ENDBRANCH  13  14
ENDBRANCH  12  13
ENDBRANCH  11  12
ENDBRANCH  10  11
ENDBRANCH   1  10
TORSDOF 15
ENDMDL
MODEL 9
REMARK VINA RESULT:    -2.220      1.695      2.846
REMARK INTER + INTRA:          -6.332
REMARK INTER:                  -4.937
REMARK INTRA:                  -1.394
REMARK UNBOUND:                -2.229
REMARK SMILES CCCCCCCCCCCCCCCCO
REMARK SMILES IDX 9 1 8 2 7 3 6 4 5 5 4 6 3 7 2 8 1 9 10 10 11 11 12 12 13 13
REMARK SMILES IDX 14 14 15 15 16 16 17 17
REMARK H PARENT 17 18
REMARK Flexibility Score: inf
ROOT
ATOM      1  C   UNL     1     125.634 128.974 118.233  1.00  0.00     0.000 C 
ENDROOT
BRANCH   1   2
ATOM      2  C   UNL     1     126.442 130.059 118.964  1.00  0.00    -0.000 C 
BRANCH   2   3
ATOM      3  C   UNL     1     126.164 130.097 120.478  1.00  0.00    -0.000 C 
BRANCH   3   4
ATOM      4  C   UNL     1     124.839 129.442 120.924  1.00  0.00    -0.000 C 
BRANCH   4   5
ATOM      5  C   UNL     1     124.989 128.258 121.896  1.00  0.00    -0.000 C 
BRANCH   5   6
ATOM      6  C   UNL     1     124.454 126.914 121.368  1.00  0.00    -0.000 C 
BRANCH   6   7
ATOM      7  C   UNL     1     123.088 127.025 120.656  1.00  0.00    -0.000 C 
BRANCH   7   8
ATOM      8  C   UNL     1     123.145 126.558 119.195  1.00  0.00    -0.003 C 
ATOM      9  C   UNL     1     121.935 125.697 118.844  1.00  0.00     0.004 C 
ENDBRANCH   7   8
ENDBRANCH   6   7
ENDBRANCH   5   6
ENDBRANCH   4   5
ENDBRANCH   3   4
ENDBRANCH   2   3
ENDBRANCH   1   2
BRANCH   1  10
ATOM     10  C   UNL     1     126.479 127.739 117.869  1.00  0.00     0.000 C 
BRANCH  10  11
ATOM     11  C   UNL     1     128.001 127.913 118.024  1.00  0.00     0.000 C 
BRANCH  11  12
ATOM     12  C   UNL     1     128.776 127.598 116.733  1.00  0.00     0.000 C 
BRANCH  12  13
ATOM     13  C   UNL     1     127.939 126.791 115.725  1.00  0.00     0.000 C 
BRANCH  13  14
ATOM     14  C   UNL     1     128.725 125.615 115.117  1.00  0.00     0.002 C 
BRANCH  14  15
ATOM     15  C   UNL     1     128.556 124.312 115.919  1.00  0.00     0.028 C 
BRANCH  15  16
ATOM     16  C   UNL     1     129.413 123.154 115.398  1.00  0.00     0.156 C 
BRANCH  16  17
ATOM     17  O   UNL     1     128.598 122.142 114.875  1.00  0.00    -0.396 OA
ATOM     18  H   UNL     1     128.217 121.663 115.657  1.00  0.00     0.210 HD
ENDBRANCH  16  17
ENDBRANCH  15  16
ENDBRANCH  14  15
ENDBRANCH  13  14
ENDBRANCH  12  13
ENDBRANCH  11  12
ENDBRANCH  10  11
ENDBRANCH   1  10
TORSDOF 15
ENDMDL
