MODEL 1
REMARK VINA RESULT:    -4.136      0.000      0.000
REMARK INTER + INTRA:         -11.741
REMARK INTER:                  -8.972
REMARK INTRA:                  -2.770
REMARK UNBOUND:                -2.770
REMARK SMILES CCCCCCCCCCCCCCCCCCCCCC(=O)[O-]
REMARK SMILES IDX 12 1 11 2 10 3 9 4 8 5 7 6 6 7 5 8 4 9 3 10 2 11 1 12 13 13
REMARK SMILES IDX 14 14 15 15 16 16 17 17 18 18 19 19 20 20 21 21 22 22 23 23
REMARK SMILES IDX 24 24
REMARK H PARENT
REMARK Flexibility Score: inf
ROOT
ATOM      1  C   UNL     1      28.807  -2.865  -6.108  1.00  0.00     0.000 C 
ENDROOT
BRANCH   1   2
ATOM      2  C   UNL     1      29.479  -3.207  -4.766  1.00  0.00     0.000 C 
BRANCH   2   3
ATOM      3  C   UNL     1      30.073  -4.623  -4.737  1.00  0.00     0.000 C 
BRANCH   3   4
ATOM      4  C   UNL     1      29.962  -5.234  -3.335  1.00  0.00    -0.000 C 
BRANCH   4   5
ATOM      5  C   UNL     1      29.564  -6.715  -3.408  1.00  0.00    -0.000 C 
BRANCH   5   6
ATOM      6  C   UNL     1      29.971  -7.329  -4.756  1.00  0.00    -0.000 C 
BRANCH   6   7
ATOM      7  C   UNL     1      28.888  -8.281  -5.309  1.00  0.00    -0.000 C 
BRANCH   7   8
ATOM      8  C   UNL     1      28.123  -7.717  -6.524  1.00  0.00    -0.000 C 
BRANCH   8   9
ATOM      9  C   UNL     1      26.715  -7.175  -6.209  1.00  0.00    -0.000 C 
BRANCH   9  10
ATOM     10  C   UNL     1      26.657  -5.636  -6.083  1.00  0.00    -0.000 C 
BRANCH  10  11
ATOM     11  C   UNL     1      26.339  -5.153  -4.659  1.00  0.00    -0.003 C 
ATOM     12  C   UNL     1      26.054  -6.301  -3.694  1.00  0.00     0.004 C 
ENDBRANCH  10  11
ENDBRANCH   9  10
ENDBRANCH   8   9
ENDBRANCH   7   8
ENDBRANCH   6   7
ENDBRANCH   5   6
ENDBRANCH   4   5
ENDBRANCH   3   4
ENDBRANCH   2   3
ENDBRANCH   1   2
BRANCH   1  13
ATOM     13  C   UNL     1      29.215  -1.507  -6.714  1.00  0.00     0.000 C 
BRANCH  13  14
ATOM     14  C   UNL     1      29.788  -0.486  -5.711  1.00  0.00     0.000 C 
BRANCH  14  15
ATOM     15  C   UNL     1      28.760   0.488  -5.109  1.00  0.00     0.000 C 
BRANCH  15  16
ATOM     16  C   UNL     1      28.710   0.429  -3.572  1.00  0.00     0.000 C 
BRANCH  16  17
ATOM     17  C   UNL     1      27.520  -0.390  -3.038  1.00  0.00     0.000 C 
BRANCH  17  18
ATOM     18  C   UNL     1      27.890  -1.606  -2.166  1.00  0.00     0.000 C 
BRANCH  18  19
ATOM     19  C   UNL     1      28.612  -1.220  -0.866  1.00  0.00     0.000 C 
BRANCH  19  20
ATOM     20  C   UNL     1      27.890  -1.725   0.397  1.00  0.00     0.006 C 
BRANCH  20  21
ATOM     21  C   UNL     1      28.589  -1.342   1.715  1.00  0.00     0.053 C 
BRANCH  21  22
ATOM     22  C   UNL     1      28.260  -2.280   2.837  1.00  0.00     0.041 C 
ATOM     23  O   UNL     1      28.210  -3.521   2.633  1.00  0.00    -0.550 OA
ATOM     24  O   UNL     1      27.977  -1.781   4.103  1.00  0.00    -0.550 OA
ENDBRANCH  21  22
ENDBRANCH  20  21
ENDBRANCH  19  20
ENDBRANCH  18  19
ENDBRANCH  17  18
ENDBRANCH  16  17
ENDBRANCH  15  16
ENDBRANCH  14  15
ENDBRANCH  13  14
ENDBRANCH   1  13
TORSDOF 20
ENDMDL
MODEL 2
REMARK VINA RESULT:    -4.017      3.654      7.486
REMARK INTER + INTRA:         -11.482
REMARK INTER:                  -8.301
REMARK INTRA:                  -3.181
REMARK UNBOUND:                -2.770
REMARK SMILES CCCCCCCCCCCCCCCCCCCCCC(=O)[O-]
REMARK SMILES IDX 12 1 11 2 10 3 9 4 8 5 7 6 6 7 5 8 4 9 3 10 2 11 1 12 13 13
REMARK SMILES IDX 14 14 15 15 16 16 17 17 18 18 19 19 20 20 21 21 22 22 23 23
REMARK SMILES IDX 24 24
REMARK H PARENT
REMARK Flexibility Score: inf
ROOT
ATOM      1  C   UNL     1      29.319  -2.519  -6.367  1.00  0.00     0.000 C 
ENDROOT
BRANCH   1   2
ATOM      2  C   UNL     1      30.100  -1.438  -7.137  1.00  0.00     0.000 C 
BRANCH   2   3
ATOM      3  C   UNL     1      29.544  -0.024  -6.912  1.00  0.00     0.000 C 
BRANCH   3   4
ATOM      4  C   UNL     1      28.070   0.057  -7.323  1.00  0.00    -0.000 C 
BRANCH   4   5
ATOM      5  C   UNL     1      27.318   1.097  -6.482  1.00  0.00    -0.000 C 
BRANCH   5   6
ATOM      6  C   UNL     1      26.659   0.444  -5.258  1.00  0.00    -0.000 C 
BRANCH   6   7
ATOM      7  C   UNL     1      27.099   1.111  -3.937  1.00  0.00    -0.000 C 
BRANCH   7   8
ATOM      8  C   UNL     1      28.551   0.787  -3.528  1.00  0.00    -0.000 C 
BRANCH   8   9
ATOM      9  C   UNL     1      28.707   0.181  -2.120  1.00  0.00    -0.000 C 
BRANCH   9  10
ATOM     10  C   UNL     1      27.373  -0.282  -1.492  1.00  0.00    -0.000 C 
BRANCH  10  11
ATOM     11  C   UNL     1      27.555  -1.064  -0.182  1.00  0.00    -0.003 C 
ATOM     12  C   UNL     1      27.804  -2.553  -0.411  1.00  0.00     0.004 C 
ENDBRANCH  10  11
ENDBRANCH   9  10
ENDBRANCH   8   9
ENDBRANCH   7   8
ENDBRANCH   6   7
ENDBRANCH   5   6
ENDBRANCH   4   5
ENDBRANCH   3   4
ENDBRANCH   2   3
ENDBRANCH   1   2
BRANCH   1  13
ATOM     13  C   UNL     1      29.497  -2.485  -4.836  1.00  0.00     0.000 C 
BRANCH  13  14
ATOM     14  C   UNL     1      28.286  -2.985  -4.023  1.00  0.00     0.000 C 
BRANCH  14  15
ATOM     15  C   UNL     1      26.943  -2.979  -4.775  1.00  0.00     0.000 C 
BRANCH  15  16
ATOM     16  C   UNL     1      26.338  -4.386  -4.925  1.00  0.00     0.000 C 
BRANCH  16  17
ATOM     17  C   UNL     1      26.487  -5.247  -3.657  1.00  0.00     0.000 C 
BRANCH  17  18
ATOM     18  C   UNL     1      27.132  -6.631  -3.866  1.00  0.00     0.000 C 
BRANCH  18  19
ATOM     19  C   UNL     1      28.668  -6.582  -3.898  1.00  0.00     0.000 C 
BRANCH  19  20
ATOM     20  C   UNL     1      29.265  -7.220  -5.166  1.00  0.00     0.006 C 
BRANCH  20  21
ATOM     21  C   UNL     1      28.316  -8.200  -5.881  1.00  0.00     0.053 C 
BRANCH  21  22
ATOM     22  C   UNL     1      27.859  -7.693  -7.215  1.00  0.00     0.041 C 
ATOM     23  O   UNL     1      28.547  -7.912  -8.246  1.00  0.00    -0.550 OA
ATOM     24  O   UNL     1      26.689  -6.950  -7.316  1.00  0.00    -0.550 OA
ENDBRANCH  21  22
ENDBRANCH  20  21
ENDBRANCH  19  20
ENDBRANCH  18  19
ENDBRANCH  17  18
ENDBRANCH  16  17
ENDBRANCH  15  16
ENDBRANCH  14  15
ENDBRANCH  13  14
ENDBRANCH   1  13
TORSDOF 20
ENDMDL
MODEL 3
REMARK VINA RESULT:    -3.969      6.702      8.841
REMARK INTER + INTRA:         -11.380
REMARK INTER:                  -9.864
REMARK INTRA:                  -1.516
REMARK UNBOUND:                -2.770
REMARK SMILES CCCCCCCCCCCCCCCCCCCCCC(=O)[O-]
REMARK SMILES IDX 12 1 11 2 10 3 9 4 8 5 7 6 6 7 5 8 4 9 3 10 2 11 1 12 13 13
REMARK SMILES IDX 14 14 15 15 16 16 17 17 18 18 19 19 20 20 21 21 22 22 23 23
REMARK SMILES IDX 24 24
REMARK H PARENT
REMARK Flexibility Score: inf
ROOT
ATOM      1  C   UNL     1      22.487   0.680  -4.755  1.00  0.00     0.000 C 
ENDROOT
BRANCH   1   2
ATOM      2  C   UNL     1      21.205   0.978  -5.555  1.00  0.00     0.000 C 
BRANCH   2   3
ATOM      3  C   UNL     1      21.378   0.759  -7.065  1.00  0.00     0.000 C 
BRANCH   3   4
ATOM      4  C   UNL     1      20.582  -0.465  -7.535  1.00  0.00    -0.000 C 
BRANCH   4   5
ATOM      5  C   UNL     1      19.225  -0.547  -6.824  1.00  0.00    -0.000 C 
BRANCH   5   6
ATOM      6  C   UNL     1      18.967  -1.965  -6.292  1.00  0.00    -0.000 C 
BRANCH   6   7
ATOM      7  C   UNL     1      19.865  -2.302  -5.082  1.00  0.00    -0.000 C 
BRANCH   7   8
ATOM      8  C   UNL     1      19.094  -2.859  -3.868  1.00  0.00    -0.000 C 
BRANCH   8   9
ATOM      9  C   UNL     1      18.483  -1.790  -2.941  1.00  0.00    -0.000 C 
BRANCH   9  10
ATOM     10  C   UNL     1      16.976  -1.551  -3.179  1.00  0.00    -0.000 C 
BRANCH  10  11
ATOM     11  C   UNL     1      16.687  -0.392  -4.147  1.00  0.00    -0.003 C 
ATOM     12  C   UNL     1      15.216  -0.307  -4.547  1.00  0.00     0.004 C 
ENDBRANCH  10  11
ENDBRANCH   9  10
ENDBRANCH   8   9
ENDBRANCH   7   8
ENDBRANCH   6   7
ENDBRANCH   5   6
ENDBRANCH   4   5
ENDBRANCH   3   4
ENDBRANCH   2   3
ENDBRANCH   1   2
BRANCH   1  13
ATOM     13  C   UNL     1      23.797   1.125  -5.434  1.00  0.00     0.000 C 
BRANCH  13  14
ATOM     14  C   UNL     1      25.081   0.862  -4.622  1.00  0.00     0.000 C 
BRANCH  14  15
ATOM     15  C   UNL     1      26.375   0.774  -5.450  1.00  0.00     0.000 C 
BRANCH  15  16
ATOM     16  C   UNL     1      27.619   0.504  -4.586  1.00  0.00     0.000 C 
BRANCH  16  17
ATOM     17  C   UNL     1      27.526  -0.810  -3.787  1.00  0.00     0.000 C 
BRANCH  17  18
ATOM     18  C   UNL     1      27.038  -2.037  -4.582  1.00  0.00     0.000 C 
BRANCH  18  19
ATOM     19  C   UNL     1      28.129  -2.649  -5.475  1.00  0.00     0.000 C 
BRANCH  19  20
ATOM     20  C   UNL     1      28.021  -4.181  -5.593  1.00  0.00     0.006 C 
BRANCH  20  21
ATOM     21  C   UNL     1      26.651  -4.748  -5.173  1.00  0.00     0.053 C 
BRANCH  21  22
ATOM     22  C   UNL     1      26.710  -6.203  -4.823  1.00  0.00     0.041 C 
ATOM     23  O   UNL     1      26.222  -6.615  -3.738  1.00  0.00    -0.550 OA
ATOM     24  O   UNL     1      27.335  -7.102  -5.679  1.00  0.00    -0.550 OA
ENDBRANCH  21  22
ENDBRANCH  20  21
ENDBRANCH  19  20
ENDBRANCH  18  19
ENDBRANCH  17  18
ENDBRANCH  16  17
ENDBRANCH  15  16
ENDBRANCH  14  15
ENDBRANCH  13  14
ENDBRANCH   1  13
TORSDOF 20
ENDMDL
MODEL 4
REMARK VINA RESULT:    -3.902      3.416      7.410
REMARK INTER + INTRA:         -11.234
REMARK INTER:                  -8.309
REMARK INTRA:                  -2.925
REMARK UNBOUND:                -2.770
REMARK SMILES CCCCCCCCCCCCCCCCCCCCCC(=O)[O-]
REMARK SMILES IDX 12 1 11 2 10 3 9 4 8 5 7 6 6 7 5 8 4 9 3 10 2 11 1 12 13 13
REMARK SMILES IDX 14 14 15 15 16 16 17 17 18 18 19 19 20 20 21 21 22 22 23 23
REMARK SMILES IDX 24 24
REMARK H PARENT
REMARK Flexibility Score: inf
ROOT
ATOM      1  C   UNL     1      29.261  -3.227  -5.305  1.00  0.00     0.000 C 
ENDROOT
BRANCH   1   2
ATOM      2  C   UNL     1      30.070  -2.452  -4.249  1.00  0.00     0.000 C 
BRANCH   2   3
ATOM      3  C   UNL     1      30.089  -0.938  -4.502  1.00  0.00     0.000 C 
BRANCH   3   4
ATOM      4  C   UNL     1      30.105  -0.162  -3.180  1.00  0.00    -0.000 C 
BRANCH   4   5
ATOM      5  C   UNL     1      28.694   0.300  -2.793  1.00  0.00    -0.000 C 
BRANCH   5   6
ATOM      6  C   UNL     1      28.340  -0.146  -1.366  1.00  0.00    -0.000 C 
BRANCH   6   7
ATOM      7  C   UNL     1      27.247  -1.236  -1.354  1.00  0.00    -0.000 C 
BRANCH   7   8
ATOM      8  C   UNL     1      27.755  -2.625  -0.915  1.00  0.00    -0.000 C 
BRANCH   8   9
ATOM      9  C   UNL     1      29.274  -2.711  -0.670  1.00  0.00    -0.000 C 
BRANCH   9  10
ATOM     10  C   UNL     1      29.659  -2.751   0.826  1.00  0.00    -0.000 C 
BRANCH  10  11
ATOM     11  C   UNL     1      28.474  -3.066   1.753  1.00  0.00    -0.003 C 
ATOM     12  C   UNL     1      28.216  -1.965   2.778  1.00  0.00     0.004 C 
ENDBRANCH  10  11
ENDBRANCH   9  10
ENDBRANCH   8   9
ENDBRANCH   7   8
ENDBRANCH   6   7
ENDBRANCH   5   6
ENDBRANCH   4   5
ENDBRANCH   3   4
ENDBRANCH   2   3
ENDBRANCH   1   2
BRANCH   1  13
ATOM     13  C   UNL     1      27.808  -2.747  -5.494  1.00  0.00     0.000 C 
BRANCH  13  14
ATOM     14  C   UNL     1      26.821  -3.190  -4.395  1.00  0.00     0.000 C 
BRANCH  14  15
ATOM     15  C   UNL     1      26.075  -4.506  -4.674  1.00  0.00     0.000 C 
BRANCH  15  16
ATOM     16  C   UNL     1      26.479  -5.637  -3.713  1.00  0.00     0.000 C 
BRANCH  16  17
ATOM     17  C   UNL     1      28.000  -5.715  -3.478  1.00  0.00     0.000 C 
BRANCH  17  18
ATOM     18  C   UNL     1      28.602  -7.134  -3.495  1.00  0.00     0.000 C 
BRANCH  18  19
ATOM     19  C   UNL     1      29.500  -7.395  -4.715  1.00  0.00     0.000 C 
BRANCH  19  20
ATOM     20  C   UNL     1      28.987  -8.541  -5.606  1.00  0.00     0.006 C 
BRANCH  20  21
ATOM     21  C   UNL     1      28.500  -8.087  -6.995  1.00  0.00     0.053 C 
BRANCH  21  22
ATOM     22  C   UNL     1      27.234  -7.289  -6.932  1.00  0.00     0.041 C 
ATOM     23  O   UNL     1      26.271  -7.682  -6.223  1.00  0.00    -0.550 OA
ATOM     24  O   UNL     1      27.104  -6.126  -7.681  1.00  0.00    -0.550 OA
ENDBRANCH  21  22
ENDBRANCH  20  21
ENDBRANCH  19  20
ENDBRANCH  18  19
ENDBRANCH  17  18
ENDBRANCH  16  17
ENDBRANCH  15  16
ENDBRANCH  14  15
ENDBRANCH  13  14
ENDBRANCH   1  13
TORSDOF 20
ENDMDL
MODEL 5
REMARK VINA RESULT:    -3.886      3.641      8.074
REMARK INTER + INTRA:         -11.199
REMARK INTER:                  -8.882
REMARK INTRA:                  -2.317
REMARK UNBOUND:                -2.770
REMARK SMILES CCCCCCCCCCCCCCCCCCCCCC(=O)[O-]
REMARK SMILES IDX 12 1 11 2 10 3 9 4 8 5 7 6 6 7 5 8 4 9 3 10 2 11 1 12 13 13
REMARK SMILES IDX 14 14 15 15 16 16 17 17 18 18 19 19 20 20 21 21 22 22 23 23
REMARK SMILES IDX 24 24
REMARK H PARENT
REMARK Flexibility Score: inf
ROOT
ATOM      1  C   UNL     1      27.280  -2.207  -1.268  1.00  0.00     0.000 C 
ENDROOT
BRANCH   1   2
ATOM      2  C   UNL     1      27.402  -0.674  -1.200  1.00  0.00     0.000 C 
BRANCH   2   3
ATOM      3  C   UNL     1      26.338  -0.027  -0.302  1.00  0.00     0.000 C 
BRANCH   3   4
ATOM      4  C   UNL     1      26.977   0.960   0.681  1.00  0.00    -0.000 C 
BRANCH   4   5
ATOM      5  C   UNL     1      26.306   0.881   2.059  1.00  0.00    -0.000 C 
BRANCH   5   6
ATOM      6  C   UNL     1      27.293   0.382   3.125  1.00  0.00    -0.000 C 
BRANCH   6   7
ATOM      7  C   UNL     1      28.711   0.177   2.551  1.00  0.00    -0.000 C 
BRANCH   7   8
ATOM      8  C   UNL     1      29.165  -1.297   2.523  1.00  0.00    -0.000 C 
BRANCH   8   9
ATOM      9  C   UNL     1      28.086  -2.316   2.937  1.00  0.00    -0.000 C 
BRANCH   9  10
ATOM     10  C   UNL     1      28.132  -3.631   2.128  1.00  0.00    -0.000 C 
BRANCH  10  11
ATOM     11  C   UNL     1      28.224  -4.887   3.009  1.00  0.00    -0.003 C 
ATOM     12  C   UNL     1      28.301  -4.560   4.499  1.00  0.00     0.004 C 
ENDBRANCH  10  11
ENDBRANCH   9  10
ENDBRANCH   8   9
ENDBRANCH   7   8
ENDBRANCH   6   7
ENDBRANCH   5   6
ENDBRANCH   4   5
ENDBRANCH   3   4
ENDBRANCH   2   3
ENDBRANCH   1   2
BRANCH   1  13
ATOM     13  C   UNL     1      28.564  -2.945  -1.697  1.00  0.00     0.000 C 
BRANCH  13  14
ATOM     14  C   UNL     1      29.554  -2.109  -2.532  1.00  0.00     0.000 C 
BRANCH  14  15
ATOM     15  C   UNL     1      29.531  -2.383  -4.046  1.00  0.00     0.000 C 
BRANCH  15  16
ATOM     16  C   UNL     1      28.372  -1.671  -4.764  1.00  0.00     0.000 C 
BRANCH  16  17
ATOM     17  C   UNL     1      27.142  -2.575  -4.970  1.00  0.00     0.000 C 
BRANCH  17  18
ATOM     18  C   UNL     1      27.449  -4.050  -5.296  1.00  0.00     0.000 C 
BRANCH  18  19
ATOM     19  C   UNL     1      26.360  -5.016  -4.805  1.00  0.00     0.000 C 
BRANCH  19  20
ATOM     20  C   UNL     1      26.932  -6.272  -4.122  1.00  0.00     0.006 C 
BRANCH  20  21
ATOM     21  C   UNL     1      28.238  -6.790  -4.753  1.00  0.00     0.053 C 
BRANCH  21  22
ATOM     22  C   UNL     1      27.998  -7.624  -5.975  1.00  0.00     0.041 C 
ATOM     23  O   UNL     1      28.853  -8.471  -6.343  1.00  0.00    -0.550 OA
ATOM     24  O   UNL     1      26.843  -7.444  -6.726  1.00  0.00    -0.550 OA
ENDBRANCH  21  22
ENDBRANCH  20  21
ENDBRANCH  19  20
ENDBRANCH  18  19
ENDBRANCH  17  18
ENDBRANCH  16  17
ENDBRANCH  15  16
ENDBRANCH  14  15
ENDBRANCH  13  14
ENDBRANCH   1  13
TORSDOF 20
ENDMDL
MODEL 6
REMARK VINA RESULT:    -3.860      1.290      3.775
REMARK INTER + INTRA:         -11.143
REMARK INTER:                  -7.767
REMARK INTRA:                  -3.376
REMARK UNBOUND:                -2.770
REMARK SMILES CCCCCCCCCCCCCCCCCCCCCC(=O)[O-]
REMARK SMILES IDX 12 1 11 2 10 3 9 4 8 5 7 6 6 7 5 8 4 9 3 10 2 11 1 12 13 13
REMARK SMILES IDX 14 14 15 15 16 16 17 17 18 18 19 19 20 20 21 21 22 22 23 23
REMARK SMILES IDX 24 24
REMARK H PARENT
REMARK Flexibility Score: inf
ROOT
ATOM      1  C   UNL     1      26.528  -5.390  -6.179  1.00  0.00     0.000 C 
ENDROOT
BRANCH   1   2
ATOM      2  C   UNL     1      26.882  -6.657  -5.379  1.00  0.00     0.000 C 
BRANCH   2   3
ATOM      3  C   UNL     1      27.879  -7.568  -6.109  1.00  0.00     0.000 C 
BRANCH   3   4
ATOM      4  C   UNL     1      28.862  -8.207  -5.122  1.00  0.00    -0.000 C 
BRANCH   4   5
ATOM      5  C   UNL     1      30.001  -7.240  -4.771  1.00  0.00    -0.000 C 
BRANCH   5   6
ATOM      6  C   UNL     1      29.858  -6.719  -3.332  1.00  0.00    -0.000 C 
BRANCH   6   7
ATOM      7  C   UNL     1      30.012  -5.185  -3.253  1.00  0.00    -0.000 C 
BRANCH   7   8
ATOM      8  C   UNL     1      30.095  -4.494  -4.630  1.00  0.00    -0.000 C 
BRANCH   8   9
ATOM      9  C   UNL     1      30.125  -2.954  -4.582  1.00  0.00    -0.000 C 
BRANCH   9  10
ATOM     10  C   UNL     1      29.660  -2.284  -5.894  1.00  0.00    -0.000 C 
BRANCH  10  11
ATOM     11  C   UNL     1      28.684  -1.118  -5.671  1.00  0.00    -0.003 C 
ATOM     12  C   UNL     1      28.108  -0.570  -6.975  1.00  0.00     0.004 C 
ENDBRANCH  10  11
ENDBRANCH   9  10
ENDBRANCH   8   9
ENDBRANCH   7   8
ENDBRANCH   6   7
ENDBRANCH   5   6
ENDBRANCH   4   5
ENDBRANCH   3   4
ENDBRANCH   2   3
ENDBRANCH   1   2
BRANCH   1  13
ATOM     13  C   UNL     1      26.581  -4.075  -5.375  1.00  0.00     0.000 C 
BRANCH  13  14
ATOM     14  C   UNL     1      26.483  -4.236  -3.845  1.00  0.00     0.000 C 
BRANCH  14  15
ATOM     15  C   UNL     1      26.846  -2.983  -3.029  1.00  0.00     0.000 C 
BRANCH  15  16
ATOM     16  C   UNL     1      27.105  -3.292  -1.544  1.00  0.00     0.000 C 
BRANCH  16  17
ATOM     17  C   UNL     1      28.388  -2.631  -1.005  1.00  0.00     0.000 C 
BRANCH  17  18
ATOM     18  C   UNL     1      28.665  -1.204  -1.517  1.00  0.00     0.000 C 
BRANCH  18  19
ATOM     19  C   UNL     1      27.688  -0.160  -0.952  1.00  0.00     0.000 C 
BRANCH  19  20
ATOM     20  C   UNL     1      28.152   0.435   0.390  1.00  0.00     0.006 C 
BRANCH  20  21
ATOM     21  C   UNL     1      27.656  -0.340   1.625  1.00  0.00     0.053 C 
BRANCH  21  22
ATOM     22  C   UNL     1      28.775  -0.947   2.415  1.00  0.00     0.041 C 
ATOM     23  O   UNL     1      28.596  -1.281   3.615  1.00  0.00    -0.550 OA
ATOM     24  O   UNL     1      30.026  -1.116   1.834  1.00  0.00    -0.550 OA
ENDBRANCH  21  22
ENDBRANCH  20  21
ENDBRANCH  19  20
ENDBRANCH  18  19
ENDBRANCH  17  18
ENDBRANCH  16  17
ENDBRANCH  15  16
ENDBRANCH  14  15
ENDBRANCH  13  14
ENDBRANCH   1  13
TORSDOF 20
ENDMDL
MODEL 7
REMARK VINA RESULT:    -3.820      1.567      3.238
REMARK INTER + INTRA:         -11.056
REMARK INTER:                  -8.907
REMARK INTRA:                  -2.149
REMARK UNBOUND:                -2.770
REMARK SMILES CCCCCCCCCCCCCCCCCCCCCC(=O)[O-]
REMARK SMILES IDX 12 1 11 2 10 3 9 4 8 5 7 6 6 7 5 8 4 9 3 10 2 11 1 12 13 13
REMARK SMILES IDX 14 14 15 15 16 16 17 17 18 18 19 19 20 20 21 21 22 22 23 23
REMARK SMILES IDX 24 24
REMARK H PARENT
REMARK Flexibility Score: inf
ROOT
ATOM      1  C   UNL     1      30.124  -3.560  -3.321  1.00  0.00     0.000 C 
ENDROOT
BRANCH   1   2
ATOM      2  C   UNL     1      29.268  -3.649  -4.597  1.00  0.00     0.000 C 
BRANCH   2   3
ATOM      3  C   UNL     1      28.122  -2.628  -4.622  1.00  0.00     0.000 C 
BRANCH   3   4
ATOM      4  C   UNL     1      26.781  -3.301  -4.305  1.00  0.00    -0.000 C 
BRANCH   4   5
ATOM      5  C   UNL     1      26.792  -4.777  -4.723  1.00  0.00    -0.000 C 
BRANCH   5   6
ATOM      6  C   UNL     1      27.015  -4.920  -6.236  1.00  0.00    -0.000 C 
BRANCH   6   7
ATOM      7  C   UNL     1      26.371  -6.205  -6.798  1.00  0.00    -0.000 C 
BRANCH   7   8
ATOM      8  C   UNL     1      26.893  -7.502  -6.145  1.00  0.00    -0.000 C 
BRANCH   8   9
ATOM      9  C   UNL     1      28.248  -8.000  -6.685  1.00  0.00    -0.000 C 
BRANCH   9  10
ATOM     10  C   UNL     1      29.218  -8.473  -5.580  1.00  0.00    -0.000 C 
BRANCH  10  11
ATOM     11  C   UNL     1      29.701  -7.337  -4.664  1.00  0.00    -0.003 C 
ATOM     12  C   UNL     1      28.956  -7.295  -3.331  1.00  0.00     0.004 C 
ENDBRANCH  10  11
ENDBRANCH   9  10
ENDBRANCH   8   9
ENDBRANCH   7   8
ENDBRANCH   6   7
ENDBRANCH   5   6
ENDBRANCH   4   5
ENDBRANCH   3   4
ENDBRANCH   2   3
ENDBRANCH   1   2
BRANCH   1  13
ATOM     13  C   UNL     1      29.335  -3.294  -2.023  1.00  0.00     0.000 C 
BRANCH  13  14
ATOM     14  C   UNL     1      29.752  -2.028  -1.248  1.00  0.00     0.000 C 
BRANCH  14  15
ATOM     15  C   UNL     1      28.751  -0.861  -1.310  1.00  0.00     0.000 C 
BRANCH  15  16
ATOM     16  C   UNL     1      27.312  -1.290  -0.974  1.00  0.00     0.000 C 
BRANCH  16  17
ATOM     17  C   UNL     1      26.461  -0.145  -0.394  1.00  0.00     0.000 C 
BRANCH  17  18
ATOM     18  C   UNL     1      27.169   0.750   0.643  1.00  0.00     0.000 C 
BRANCH  18  19
ATOM     19  C   UNL     1      26.433   0.812   1.990  1.00  0.00     0.000 C 
BRANCH  19  20
ATOM     20  C   UNL     1      27.325   0.419   3.182  1.00  0.00     0.006 C 
BRANCH  20  21
ATOM     21  C   UNL     1      28.533  -0.457   2.800  1.00  0.00     0.053 C 
BRANCH  21  22
ATOM     22  C   UNL     1      28.300  -1.912   3.069  1.00  0.00     0.041 C 
ATOM     23  O   UNL     1      28.407  -2.754   2.140  1.00  0.00    -0.550 OA
ATOM     24  O   UNL     1      27.932  -2.336   4.340  1.00  0.00    -0.550 OA
ENDBRANCH  21  22
ENDBRANCH  20  21
ENDBRANCH  19  20
ENDBRANCH  18  19
ENDBRANCH  17  18
ENDBRANCH  16  17
ENDBRANCH  15  16
ENDBRANCH  14  15
ENDBRANCH  13  14
ENDBRANCH   1  13
TORSDOF 20
ENDMDL
MODEL 8
REMARK VINA RESULT:    -3.756      1.237      5.008
REMARK INTER + INTRA:         -10.916
REMARK INTER:                  -7.732
REMARK INTRA:                  -3.184
REMARK UNBOUND:                -2.770
REMARK SMILES CCCCCCCCCCCCCCCCCCCCCC(=O)[O-]
REMARK SMILES IDX 12 1 11 2 10 3 9 4 8 5 7 6 6 7 5 8 4 9 3 10 2 11 1 12 13 13
REMARK SMILES IDX 14 14 15 15 16 16 17 17 18 18 19 19 20 20 21 21 22 22 23 23
REMARK SMILES IDX 24 24
REMARK H PARENT
REMARK Flexibility Score: inf
ROOT
ATOM      1  C   UNL     1      27.137  -6.759  -3.921  1.00  0.00     0.000 C 
ENDROOT
BRANCH   1   2
ATOM      2  C   UNL     1      26.866  -6.712  -5.436  1.00  0.00     0.000 C 
BRANCH   2   3
ATOM      3  C   UNL     1      26.669  -5.283  -5.964  1.00  0.00     0.000 C 
BRANCH   3   4
ATOM      4  C   UNL     1      26.407  -4.305  -4.814  1.00  0.00    -0.000 C 
BRANCH   4   5
ATOM      5  C   UNL     1      27.015  -2.928  -5.110  1.00  0.00    -0.000 C 
BRANCH   5   6
ATOM      6  C   UNL     1      28.214  -3.048  -6.064  1.00  0.00    -0.000 C 
BRANCH   6   7
ATOM      7  C   UNL     1      28.955  -1.705  -6.235  1.00  0.00    -0.000 C 
BRANCH   7   8
ATOM      8  C   UNL     1      28.024  -0.510  -6.524  1.00  0.00    -0.000 C 
BRANCH   8   9
ATOM      9  C   UNL     1      28.078   0.622  -5.480  1.00  0.00    -0.000 C 
BRANCH   9  10
ATOM     10  C   UNL     1      27.511   0.220  -4.100  1.00  0.00    -0.000 C 
BRANCH  10  11
ATOM     11  C   UNL     1      28.395   0.665  -2.924  1.00  0.00    -0.003 C 
ATOM     12  C   UNL     1      29.878   0.388  -3.161  1.00  0.00     0.004 C 
ENDBRANCH  10  11
ENDBRANCH   9  10
ENDBRANCH   8   9
ENDBRANCH   7   8
ENDBRANCH   6   7
ENDBRANCH   5   6
ENDBRANCH   4   5
ENDBRANCH   3   4
ENDBRANCH   2   3
ENDBRANCH   1   2
BRANCH   1  13
ATOM     13  C   UNL     1      28.559  -7.208  -3.528  1.00  0.00     0.000 C 
BRANCH  13  14
ATOM     14  C   UNL     1      29.680  -6.745  -4.479  1.00  0.00     0.000 C 
BRANCH  14  15
ATOM     15  C   UNL     1      30.125  -5.282  -4.307  1.00  0.00     0.000 C 
BRANCH  15  16
ATOM     16  C   UNL     1      30.107  -4.822  -2.839  1.00  0.00     0.000 C 
BRANCH  16  17
ATOM     17  C   UNL     1      29.793  -3.322  -2.681  1.00  0.00     0.000 C 
BRANCH  17  18
ATOM     18  C   UNL     1      28.486  -2.993  -1.932  1.00  0.00     0.000 C 
BRANCH  18  19
ATOM     19  C   UNL     1      28.720  -2.267  -0.598  1.00  0.00     0.000 C 
BRANCH  19  20
ATOM     20  C   UNL     1      27.843  -2.810   0.545  1.00  0.00     0.006 C 
BRANCH  20  21
ATOM     21  C   UNL     1      28.495  -2.713   1.937  1.00  0.00     0.053 C 
BRANCH  21  22
ATOM     22  C   UNL     1      28.217  -1.406   2.615  1.00  0.00     0.041 C 
ATOM     23  O   UNL     1      28.622  -1.201   3.789  1.00  0.00    -0.550 OA
ATOM     24  O   UNL     1      27.483  -0.423   1.961  1.00  0.00    -0.550 OA
ENDBRANCH  21  22
ENDBRANCH  20  21
ENDBRANCH  19  20
ENDBRANCH  18  19
ENDBRANCH  17  18
ENDBRANCH  16  17
ENDBRANCH  15  16
ENDBRANCH  14  15
ENDBRANCH  13  14
ENDBRANCH   1  13
TORSDOF 20
ENDMDL
MODEL 9
REMARK VINA RESULT:    -3.696      6.465      7.970
REMARK INTER + INTRA:         -10.786
REMARK INTER:                  -9.484
REMARK INTRA:                  -1.303
REMARK UNBOUND:                -2.770
REMARK SMILES CCCCCCCCCCCCCCCCCCCCCC(=O)[O-]
REMARK SMILES IDX 12 1 11 2 10 3 9 4 8 5 7 6 6 7 5 8 4 9 3 10 2 11 1 12 13 13
REMARK SMILES IDX 14 14 15 15 16 16 17 17 18 18 19 19 20 20 21 21 22 22 23 23
REMARK SMILES IDX 24 24
REMARK H PARENT
REMARK Flexibility Score: inf
ROOT
ATOM      1  C   UNL     1      25.635   0.721  -4.937  1.00  0.00     0.000 C 
ENDROOT
BRANCH   1   2
ATOM      2  C   UNL     1      26.819   0.761  -5.921  1.00  0.00     0.000 C 
BRANCH   2   3
ATOM      3  C   UNL     1      28.154   0.374  -5.268  1.00  0.00     0.000 C 
BRANCH   3   4
ATOM      4  C   UNL     1      28.699  -0.927  -5.868  1.00  0.00    -0.000 C 
BRANCH   4   5
ATOM      5  C   UNL     1      27.818  -2.124  -5.487  1.00  0.00    -0.000 C 
BRANCH   5   6
ATOM      6  C   UNL     1      28.028  -2.517  -4.016  1.00  0.00    -0.000 C 
BRANCH   6   7
ATOM      7  C   UNL     1      27.150  -3.719  -3.607  1.00  0.00    -0.000 C 
BRANCH   7   8
ATOM      8  C   UNL     1      26.584  -4.514  -4.802  1.00  0.00    -0.000 C 
BRANCH   8   9
ATOM      9  C   UNL     1      26.308  -6.003  -4.517  1.00  0.00    -0.000 C 
BRANCH   9  10
ATOM     10  C   UNL     1      26.723  -6.942  -5.672  1.00  0.00    -0.000 C 
BRANCH  10  11
ATOM     11  C   UNL     1      28.230  -6.916  -5.967  1.00  0.00    -0.003 C 
ATOM     12  C   UNL     1      28.965  -8.130  -5.403  1.00  0.00     0.004 C 
ENDBRANCH  10  11
ENDBRANCH   9  10
ENDBRANCH   8   9
ENDBRANCH   7   8
ENDBRANCH   6   7
ENDBRANCH   5   6
ENDBRANCH   4   5
ENDBRANCH   3   4
ENDBRANCH   2   3
ENDBRANCH   1   2
BRANCH   1  13
ATOM     13  C   UNL     1      24.255   0.992  -5.567  1.00  0.00     0.000 C 
BRANCH  13  14
ATOM     14  C   UNL     1      23.090   1.125  -4.566  1.00  0.00     0.000 C 
BRANCH  14  15
ATOM     15  C   UNL     1      21.793   0.401  -4.969  1.00  0.00     0.000 C 
BRANCH  15  16
ATOM     16  C   UNL     1      21.226   0.895  -6.311  1.00  0.00     0.000 C 
BRANCH  16  17
ATOM     17  C   UNL     1      20.564  -0.225  -7.135  1.00  0.00     0.000 C 
BRANCH  17  18
ATOM     18  C   UNL     1      19.438  -0.999  -6.421  1.00  0.00     0.000 C 
BRANCH  18  19
ATOM     19  C   UNL     1      18.032  -0.556  -6.854  1.00  0.00     0.000 C 
BRANCH  19  20
ATOM     20  C   UNL     1      16.983  -0.703  -5.736  1.00  0.00     0.006 C 
BRANCH  20  21
ATOM     21  C   UNL     1      17.406  -0.079  -4.393  1.00  0.00     0.053 C 
BRANCH  21  22
ATOM     22  C   UNL     1      17.319  -1.048  -3.253  1.00  0.00     0.041 C 
ATOM     23  O   UNL     1      16.272  -1.116  -2.557  1.00  0.00    -0.550 OA
ATOM     24  O   UNL     1      18.406  -1.853  -2.938  1.00  0.00    -0.550 OA
ENDBRANCH  21  22
ENDBRANCH  20  21
ENDBRANCH  19  20
ENDBRANCH  18  19
ENDBRANCH  17  18
ENDBRANCH  16  17
ENDBRANCH  15  16
ENDBRANCH  14  15
ENDBRANCH  13  14
ENDBRANCH   1  13
TORSDOF 20
ENDMDL
