MODEL 1
REMARK VINA RESULT:    -5.473      0.000      0.000
REMARK INTER + INTRA:         -15.707
REMARK INTER:                 -11.871
REMARK INTRA:                  -3.836
REMARK UNBOUND:                -3.836
REMARK SMILES CCCCCCCCCCCCCCCCCCCCCC(=O)[O-]
REMARK SMILES IDX 12 1 11 2 10 3 9 4 8 5 7 6 6 7 5 8 4 9 3 10 2 11 1 12 13 13
REMARK SMILES IDX 14 14 15 15 16 16 17 17 18 18 19 19 20 20 21 21 22 22 23 23
REMARK SMILES IDX 24 24
REMARK H PARENT
REMARK Flexibility Score: inf
ROOT
ATOM      1  C   UNL     1      33.048   3.694   4.843  1.00  0.00     0.000 C 
ENDROOT
BRANCH   1   2
ATOM      2  C   UNL     1      34.215   3.682   3.834  1.00  0.00     0.000 C 
BRANCH   2   3
ATOM      3  C   UNL     1      35.038   2.379   3.838  1.00  0.00     0.000 C 
BRANCH   3   4
ATOM      4  C   UNL     1      34.274   1.110   3.415  1.00  0.00    -0.000 C 
BRANCH   4   5
ATOM      5  C   UNL     1      35.139   0.026   2.745  1.00  0.00    -0.000 C 
BRANCH   5   6
ATOM      6  C   UNL     1      35.532  -1.104   3.710  1.00  0.00    -0.000 C 
BRANCH   6   7
ATOM      7  C   UNL     1      37.008  -1.030   4.137  1.00  0.00    -0.000 C 
BRANCH   7   8
ATOM      8  C   UNL     1      37.202  -0.216   5.429  1.00  0.00    -0.000 C 
BRANCH   8   9
ATOM      9  C   UNL     1      36.117  -0.510   6.481  1.00  0.00    -0.000 C 
BRANCH   9  10
ATOM     10  C   UNL     1      35.437   0.762   7.033  1.00  0.00    -0.000 C 
BRANCH  10  11
ATOM     11  C   UNL     1      33.989   0.538   7.507  1.00  0.00    -0.003 C 
ATOM     12  C   UNL     1      33.215  -0.445   6.631  1.00  0.00     0.004 C 
ENDBRANCH  10  11
ENDBRANCH   9  10
ENDBRANCH   8   9
ENDBRANCH   7   8
ENDBRANCH   6   7
ENDBRANCH   5   6
ENDBRANCH   4   5
ENDBRANCH   3   4
ENDBRANCH   2   3
ENDBRANCH   1   2
BRANCH   1  13
ATOM     13  C   UNL     1      33.525   3.823   6.301  1.00  0.00     0.000 C 
BRANCH  13  14
ATOM     14  C   UNL     1      34.162   5.194   6.593  1.00  0.00     0.000 C 
BRANCH  14  15
ATOM     15  C   UNL     1      35.244   5.151   7.693  1.00  0.00     0.000 C 
BRANCH  15  16
ATOM     16  C   UNL     1      36.679   5.030   7.138  1.00  0.00     0.000 C 
BRANCH  16  17
ATOM     17  C   UNL     1      37.235   3.595   7.167  1.00  0.00     0.000 C 
BRANCH  17  18
ATOM     18  C   UNL     1      38.038   3.248   5.901  1.00  0.00     0.000 C 
BRANCH  18  19
ATOM     19  C   UNL     1      37.818   4.271   4.774  1.00  0.00     0.000 C 
BRANCH  19  20
ATOM     20  C   UNL     1      38.487   3.841   3.458  1.00  0.00     0.006 C 
BRANCH  20  21
ATOM     21  C   UNL     1      39.352   2.586   3.633  1.00  0.00     0.053 C 
BRANCH  21  22
ATOM     22  C   UNL     1      40.809   2.890   3.458  1.00  0.00     0.041 C 
ATOM     23  O   UNL     1      41.486   3.329   4.424  1.00  0.00    -0.550 OA
ATOM     24  O   UNL     1      41.417   2.700   2.222  1.00  0.00    -0.550 OA
ENDBRANCH  21  22
ENDBRANCH  20  21
ENDBRANCH  19  20
ENDBRANCH  18  19
ENDBRANCH  17  18
ENDBRANCH  16  17
ENDBRANCH  15  16
ENDBRANCH  14  15
ENDBRANCH  13  14
ENDBRANCH   1  13
TORSDOF 20
ENDMDL
MODEL 2
REMARK VINA RESULT:    -5.412     13.655     17.794
REMARK INTER + INTRA:         -15.576
REMARK INTER:                 -11.589
REMARK INTRA:                  -3.987
REMARK UNBOUND:                -3.836
REMARK SMILES CCCCCCCCCCCCCCCCCCCCCC(=O)[O-]
REMARK SMILES IDX 12 1 11 2 10 3 9 4 8 5 7 6 6 7 5 8 4 9 3 10 2 11 1 12 13 13
REMARK SMILES IDX 14 14 15 15 16 16 17 17 18 18 19 19 20 20 21 21 22 22 23 23
REMARK SMILES IDX 24 24
REMARK H PARENT
REMARK Flexibility Score: inf
ROOT
ATOM      1  C   UNL     1      49.487  11.720  -5.577  1.00  0.00     0.000 C 
ENDROOT
BRANCH   1   2
ATOM      2  C   UNL     1      49.382  11.982  -7.093  1.00  0.00     0.000 C 
BRANCH   2   3
ATOM      3  C   UNL     1      49.855  10.807  -7.970  1.00  0.00     0.000 C 
BRANCH   3   4
ATOM      4  C   UNL     1      49.800   9.418  -7.306  1.00  0.00    -0.000 C 
BRANCH   4   5
ATOM      5  C   UNL     1      48.988   8.362  -8.079  1.00  0.00    -0.000 C 
BRANCH   5   6
ATOM      6  C   UNL     1      47.610   8.095  -7.453  1.00  0.00    -0.000 C 
BRANCH   6   7
ATOM      7  C   UNL     1      46.456   8.350  -8.437  1.00  0.00    -0.000 C 
BRANCH   7   8
ATOM      8  C   UNL     1      46.499   9.769  -9.033  1.00  0.00    -0.000 C 
BRANCH   8   9
ATOM      9  C   UNL     1      45.109  10.271  -9.465  1.00  0.00    -0.000 C 
BRANCH   9  10
ATOM     10  C   UNL     1      44.932  11.797  -9.308  1.00  0.00    -0.000 C 
BRANCH  10  11
ATOM     11  C   UNL     1      46.138  12.500  -8.658  1.00  0.00    -0.003 C 
ATOM     12  C   UNL     1      45.753  13.381  -7.472  1.00  0.00     0.004 C 
ENDBRANCH  10  11
ENDBRANCH   9  10
ENDBRANCH   8   9
ENDBRANCH   7   8
ENDBRANCH   6   7
ENDBRANCH   5   6
ENDBRANCH   4   5
ENDBRANCH   3   4
ENDBRANCH   2   3
ENDBRANCH   1   2
BRANCH   1  13
ATOM     13  C   UNL     1      48.153  11.941  -4.841  1.00  0.00     0.000 C 
BRANCH  13  14
ATOM     14  C   UNL     1      47.412  10.620  -4.559  1.00  0.00     0.000 C 
BRANCH  14  15
ATOM     15  C   UNL     1      46.084  10.480  -5.333  1.00  0.00     0.000 C 
BRANCH  15  16
ATOM     16  C   UNL     1      44.873  11.083  -4.590  1.00  0.00     0.000 C 
BRANCH  16  17
ATOM     17  C   UNL     1      43.514  10.592  -5.121  1.00  0.00     0.000 C 
BRANCH  17  18
ATOM     18  C   UNL     1      43.660   9.494  -6.189  1.00  0.00     0.000 C 
BRANCH  18  19
ATOM     19  C   UNL     1      42.987   8.177  -5.766  1.00  0.00     0.000 C 
BRANCH  19  20
ATOM     20  C   UNL     1      43.776   7.445  -4.669  1.00  0.00     0.006 C 
BRANCH  20  21
ATOM     21  C   UNL     1      45.108   6.889  -5.190  1.00  0.00     0.053 C 
BRANCH  21  22
ATOM     22  C   UNL     1      45.443   5.571  -4.558  1.00  0.00     0.041 C 
ATOM     23  O   UNL     1      45.417   5.443  -3.306  1.00  0.00    -0.550 OA
ATOM     24  O   UNL     1      45.798   4.487  -5.354  1.00  0.00    -0.550 OA
ENDBRANCH  21  22
ENDBRANCH  20  21
ENDBRANCH  19  20
ENDBRANCH  18  19
ENDBRANCH  17  18
ENDBRANCH  16  17
ENDBRANCH  15  16
ENDBRANCH  14  15
ENDBRANCH  13  14
ENDBRANCH   1  13
TORSDOF 20
ENDMDL
MODEL 3
REMARK VINA RESULT:    -5.392      2.904      4.893
REMARK INTER + INTRA:         -15.532
REMARK INTER:                 -11.128
REMARK INTRA:                  -4.404
REMARK UNBOUND:                -3.836
REMARK SMILES CCCCCCCCCCCCCCCCCCCCCC(=O)[O-]
REMARK SMILES IDX 12 1 11 2 10 3 9 4 8 5 7 6 6 7 5 8 4 9 3 10 2 11 1 12 13 13
REMARK SMILES IDX 14 14 15 15 16 16 17 17 18 18 19 19 20 20 21 21 22 22 23 23
REMARK SMILES IDX 24 24
REMARK H PARENT
REMARK Flexibility Score: inf
ROOT
ATOM      1  C   UNL     1      32.899   3.843   4.682  1.00  0.00     0.000 C 
ENDROOT
BRANCH   1   2
ATOM      2  C   UNL     1      33.565   3.354   3.379  1.00  0.00     0.000 C 
BRANCH   2   3
ATOM      3  C   UNL     1      34.462   2.113   3.556  1.00  0.00     0.000 C 
BRANCH   3   4
ATOM      4  C   UNL     1      35.938   2.298   3.158  1.00  0.00    -0.000 C 
BRANCH   4   5
ATOM      5  C   UNL     1      36.762   0.999   3.099  1.00  0.00    -0.000 C 
BRANCH   5   6
ATOM      6  C   UNL     1      38.274   1.245   3.219  1.00  0.00    -0.000 C 
BRANCH   6   7
ATOM      7  C   UNL     1      38.722   2.527   2.495  1.00  0.00    -0.000 C 
BRANCH   7   8
ATOM      8  C   UNL     1      39.408   3.525   3.446  1.00  0.00    -0.000 C 
BRANCH   8   9
ATOM      9  C   UNL     1      38.810   4.940   3.347  1.00  0.00    -0.000 C 
BRANCH   9  10
ATOM     10  C   UNL     1      38.078   5.206   2.014  1.00  0.00    -0.000 C 
BRANCH  10  11
ATOM     11  C   UNL     1      36.620   5.671   2.186  1.00  0.00    -0.003 C 
ATOM     12  C   UNL     1      35.733   5.325   0.992  1.00  0.00     0.004 C 
ENDBRANCH  10  11
ENDBRANCH   9  10
ENDBRANCH   8   9
ENDBRANCH   7   8
ENDBRANCH   6   7
ENDBRANCH   5   6
ENDBRANCH   4   5
ENDBRANCH   3   4
ENDBRANCH   2   3
ENDBRANCH   1   2
BRANCH   1  13
ATOM     13  C   UNL     1      33.475   3.161   5.936  1.00  0.00     0.000 C 
BRANCH  13  14
ATOM     14  C   UNL     1      34.054   4.173   6.942  1.00  0.00     0.000 C 
BRANCH  14  15
ATOM     15  C   UNL     1      35.010   5.202   6.301  1.00  0.00     0.000 C 
BRANCH  15  16
ATOM     16  C   UNL     1      36.438   4.660   6.081  1.00  0.00     0.000 C 
BRANCH  16  17
ATOM     17  C   UNL     1      36.904   3.681   7.173  1.00  0.00     0.000 C 
BRANCH  17  18
ATOM     18  C   UNL     1      38.033   2.753   6.691  1.00  0.00     0.000 C 
BRANCH  18  19
ATOM     19  C   UNL     1      37.721   1.271   6.955  1.00  0.00     0.000 C 
BRANCH  19  20
ATOM     20  C   UNL     1      36.229   0.948   6.770  1.00  0.00     0.006 C 
BRANCH  20  21
ATOM     21  C   UNL     1      36.007  -0.486   6.272  1.00  0.00     0.053 C 
BRANCH  21  22
ATOM     22  C   UNL     1      34.603  -0.695   5.791  1.00  0.00     0.041 C 
ATOM     23  O   UNL     1      33.629  -0.317   6.494  1.00  0.00    -0.550 OA
ATOM     24  O   UNL     1      34.370  -1.319   4.571  1.00  0.00    -0.550 OA
ENDBRANCH  21  22
ENDBRANCH  20  21
ENDBRANCH  19  20
ENDBRANCH  18  19
ENDBRANCH  17  18
ENDBRANCH  16  17
ENDBRANCH  15  16
ENDBRANCH  14  15
ENDBRANCH  13  14
ENDBRANCH   1  13
TORSDOF 20
ENDMDL
MODEL 4
REMARK VINA RESULT:    -5.365     13.796     17.941
REMARK INTER + INTRA:         -15.474
REMARK INTER:                 -11.602
REMARK INTRA:                  -3.871
REMARK UNBOUND:                -3.836
REMARK SMILES CCCCCCCCCCCCCCCCCCCCCC(=O)[O-]
REMARK SMILES IDX 12 1 11 2 10 3 9 4 8 5 7 6 6 7 5 8 4 9 3 10 2 11 1 12 13 13
REMARK SMILES IDX 14 14 15 15 16 16 17 17 18 18 19 19 20 20 21 21 22 22 23 23
REMARK SMILES IDX 24 24
REMARK H PARENT
REMARK Flexibility Score: inf
ROOT
ATOM      1  C   UNL     1      46.795  11.816  -5.141  1.00  0.00     0.000 C 
ENDROOT
BRANCH   1   2
ATOM      2  C   UNL     1      48.174  12.363  -4.716  1.00  0.00     0.000 C 
BRANCH   2   3
ATOM      3  C   UNL     1      49.304  11.315  -4.748  1.00  0.00     0.000 C 
BRANCH   3   4
ATOM      4  C   UNL     1      50.418  11.571  -5.781  1.00  0.00    -0.000 C 
BRANCH   4   5
ATOM      5  C   UNL     1      50.040  11.240  -7.236  1.00  0.00    -0.000 C 
BRANCH   5   6
ATOM      6  C   UNL     1      49.867   9.731  -7.480  1.00  0.00    -0.000 C 
BRANCH   6   7
ATOM      7  C   UNL     1      48.482   9.381  -8.050  1.00  0.00    -0.000 C 
BRANCH   7   8
ATOM      8  C   UNL     1      48.180   7.874  -7.966  1.00  0.00    -0.000 C 
BRANCH   8   9
ATOM      9  C   UNL     1      46.961   7.565  -7.077  1.00  0.00    -0.000 C 
BRANCH   9  10
ATOM     10  C   UNL     1      46.861   8.476  -5.834  1.00  0.00    -0.000 C 
BRANCH  10  11
ATOM     11  C   UNL     1      46.176   7.809  -4.627  1.00  0.00    -0.003 C 
ATOM     12  C   UNL     1      46.636   8.376  -3.286  1.00  0.00     0.004 C 
ENDBRANCH  10  11
ENDBRANCH   9  10
ENDBRANCH   8   9
ENDBRANCH   7   8
ENDBRANCH   6   7
ENDBRANCH   5   6
ENDBRANCH   4   5
ENDBRANCH   3   4
ENDBRANCH   2   3
ENDBRANCH   1   2
BRANCH   1  13
ATOM     13  C   UNL     1      46.104  12.700  -6.195  1.00  0.00     0.000 C 
BRANCH  13  14
ATOM     14  C   UNL     1      46.828  12.669  -7.555  1.00  0.00     0.000 C 
BRANCH  14  15
ATOM     15  C   UNL     1      45.874  12.773  -8.764  1.00  0.00     0.000 C 
BRANCH  15  16
ATOM     16  C   UNL     1      45.909  11.535  -9.683  1.00  0.00     0.000 C 
BRANCH  16  17
ATOM     17  C   UNL     1      44.615  10.701  -9.647  1.00  0.00     0.000 C 
BRANCH  17  18
ATOM     18  C   UNL     1      44.468   9.897  -8.343  1.00  0.00     0.000 C 
BRANCH  18  19
ATOM     19  C   UNL     1      43.364  10.461  -7.433  1.00  0.00     0.000 C 
BRANCH  19  20
ATOM     20  C   UNL     1      43.167   9.618  -6.163  1.00  0.00     0.006 C 
BRANCH  20  21
ATOM     21  C   UNL     1      43.421  10.430  -4.886  1.00  0.00     0.053 C 
BRANCH  21  22
ATOM     22  C   UNL     1      42.631   9.901  -3.727  1.00  0.00     0.041 C 
ATOM     23  O   UNL     1      43.184   9.167  -2.866  1.00  0.00    -0.550 OA
ATOM     24  O   UNL     1      41.280  10.207  -3.606  1.00  0.00    -0.550 OA
ENDBRANCH  21  22
ENDBRANCH  20  21
ENDBRANCH  19  20
ENDBRANCH  18  19
ENDBRANCH  17  18
ENDBRANCH  16  17
ENDBRANCH  15  16
ENDBRANCH  14  15
ENDBRANCH  13  14
ENDBRANCH   1  13
TORSDOF 20
ENDMDL
MODEL 5
REMARK VINA RESULT:    -5.363     14.988     18.936
REMARK INTER + INTRA:         -15.470
REMARK INTER:                 -11.497
REMARK INTRA:                  -3.973
REMARK UNBOUND:                -3.836
REMARK SMILES CCCCCCCCCCCCCCCCCCCCCC(=O)[O-]
REMARK SMILES IDX 12 1 11 2 10 3 9 4 8 5 7 6 6 7 5 8 4 9 3 10 2 11 1 12 13 13
REMARK SMILES IDX 14 14 15 15 16 16 17 17 18 18 19 19 20 20 21 21 22 22 23 23
REMARK SMILES IDX 24 24
REMARK H PARENT
REMARK Flexibility Score: inf
ROOT
ATOM      1  C   UNL     1      45.469  12.861  -8.155  1.00  0.00     0.000 C 
ENDROOT
BRANCH   1   2
ATOM      2  C   UNL     1      45.910  13.041  -6.687  1.00  0.00     0.000 C 
BRANCH   2   3
ATOM      3  C   UNL     1      46.832  11.923  -6.164  1.00  0.00     0.000 C 
BRANCH   3   4
ATOM      4  C   UNL     1      47.736  12.309  -4.977  1.00  0.00    -0.000 C 
BRANCH   4   5
ATOM      5  C   UNL     1      48.480  11.132  -4.320  1.00  0.00    -0.000 C 
BRANCH   5   6
ATOM      6  C   UNL     1      49.865  10.881  -4.940  1.00  0.00    -0.000 C 
BRANCH   6   7
ATOM      7  C   UNL     1      49.867   9.696  -5.920  1.00  0.00    -0.000 C 
BRANCH   7   8
ATOM      8  C   UNL     1      50.387  10.092  -7.313  1.00  0.00    -0.000 C 
BRANCH   8   9
ATOM      9  C   UNL     1      50.288  11.606  -7.574  1.00  0.00    -0.000 C 
BRANCH   9  10
ATOM     10  C   UNL     1      49.963  11.956  -9.043  1.00  0.00    -0.000 C 
BRANCH  10  11
ATOM     11  C   UNL     1      48.456  11.974  -9.360  1.00  0.00    -0.003 C 
ATOM     12  C   UNL     1      48.136  11.512 -10.780  1.00  0.00     0.004 C 
ENDBRANCH  10  11
ENDBRANCH   9  10
ENDBRANCH   8   9
ENDBRANCH   7   8
ENDBRANCH   6   7
ENDBRANCH   5   6
ENDBRANCH   4   5
ENDBRANCH   3   4
ENDBRANCH   2   3
ENDBRANCH   1   2
BRANCH   1  13
ATOM     13  C   UNL     1      44.410  11.757  -8.326  1.00  0.00     0.000 C 
BRANCH  13  14
ATOM     14  C   UNL     1      44.600  10.957  -9.629  1.00  0.00     0.000 C 
BRANCH  14  15
ATOM     15  C   UNL     1      44.436   9.433  -9.447  1.00  0.00     0.000 C 
BRANCH  15  16
ATOM     16  C   UNL     1      45.761   8.652  -9.576  1.00  0.00     0.000 C 
BRANCH  16  17
ATOM     17  C   UNL     1      46.788   8.992  -8.481  1.00  0.00     0.000 C 
BRANCH  17  18
ATOM     18  C   UNL     1      47.056   7.807  -7.536  1.00  0.00     0.000 C 
BRANCH  18  19
ATOM     19  C   UNL     1      46.651   8.117  -6.085  1.00  0.00     0.000 C 
BRANCH  19  20
ATOM     20  C   UNL     1      45.127   8.220  -5.915  1.00  0.00     0.006 C 
BRANCH  20  21
ATOM     21  C   UNL     1      44.730   9.314  -4.914  1.00  0.00     0.053 C 
BRANCH  21  22
ATOM     22  C   UNL     1      43.370   9.869  -5.210  1.00  0.00     0.041 C 
ATOM     23  O   UNL     1      42.727   9.469  -6.216  1.00  0.00    -0.550 OA
ATOM     24  O   UNL     1      42.818  10.840  -4.382  1.00  0.00    -0.550 OA
ENDBRANCH  21  22
ENDBRANCH  20  21
ENDBRANCH  19  20
ENDBRANCH  18  19
ENDBRANCH  17  18
ENDBRANCH  16  17
ENDBRANCH  15  16
ENDBRANCH  14  15
ENDBRANCH  13  14
ENDBRANCH   1  13
TORSDOF 20
ENDMDL
MODEL 6
REMARK VINA RESULT:    -5.345     14.183     17.834
REMARK INTER + INTRA:         -15.431
REMARK INTER:                 -11.582
REMARK INTRA:                  -3.849
REMARK UNBOUND:                -3.836
REMARK SMILES CCCCCCCCCCCCCCCCCCCCCC(=O)[O-]
REMARK SMILES IDX 12 1 11 2 10 3 9 4 8 5 7 6 6 7 5 8 4 9 3 10 2 11 1 12 13 13
REMARK SMILES IDX 14 14 15 15 16 16 17 17 18 18 19 19 20 20 21 21 22 22 23 23
REMARK SMILES IDX 24 24
REMARK H PARENT
REMARK Flexibility Score: inf
ROOT
ATOM      1  C   UNL     1      46.673  11.996  -5.375  1.00  0.00     0.000 C 
ENDROOT
BRANCH   1   2
ATOM      2  C   UNL     1      46.266  12.731  -6.669  1.00  0.00     0.000 C 
BRANCH   2   3
ATOM      3  C   UNL     1      47.099  12.340  -7.905  1.00  0.00     0.000 C 
BRANCH   3   4
ATOM      4  C   UNL     1      46.370  12.444  -9.258  1.00  0.00    -0.000 C 
BRANCH   4   5
ATOM      5  C   UNL     1      46.590  11.252 -10.207  1.00  0.00    -0.000 C 
BRANCH   5   6
ATOM      6  C   UNL     1      45.387  10.296 -10.253  1.00  0.00    -0.000 C 
BRANCH   6   7
ATOM      7  C   UNL     1      44.242  10.743  -9.328  1.00  0.00    -0.000 C 
BRANCH   7   8
ATOM      8  C   UNL     1      43.983   9.738  -8.191  1.00  0.00    -0.000 C 
BRANCH   8   9
ATOM      9  C   UNL     1      43.550  10.423  -6.882  1.00  0.00    -0.000 C 
BRANCH   9  10
ATOM     10  C   UNL     1      43.341   9.437  -5.713  1.00  0.00    -0.000 C 
BRANCH  10  11
ATOM     11  C   UNL     1      42.659  10.065  -4.483  1.00  0.00    -0.003 C 
ATOM     12  C   UNL     1      43.554  11.054  -3.740  1.00  0.00     0.004 C 
ENDBRANCH  10  11
ENDBRANCH   9  10
ENDBRANCH   8   9
ENDBRANCH   7   8
ENDBRANCH   6   7
ENDBRANCH   5   6
ENDBRANCH   4   5
ENDBRANCH   3   4
ENDBRANCH   2   3
ENDBRANCH   1   2
BRANCH   1  13
ATOM     13  C   UNL     1      48.093  12.361  -4.906  1.00  0.00     0.000 C 
BRANCH  13  14
ATOM     14  C   UNL     1      48.958  11.118  -4.626  1.00  0.00     0.000 C 
BRANCH  14  15
ATOM     15  C   UNL     1      50.242  11.054  -5.480  1.00  0.00     0.000 C 
BRANCH  15  16
ATOM     16  C   UNL     1      50.375   9.749  -6.294  1.00  0.00     0.000 C 
BRANCH  16  17
ATOM     17  C   UNL     1      49.506   9.721  -7.565  1.00  0.00     0.000 C 
BRANCH  17  18
ATOM     18  C   UNL     1      48.851   8.349  -7.801  1.00  0.00     0.000 C 
BRANCH  18  19
ATOM     19  C   UNL     1      47.316   8.433  -7.822  1.00  0.00     0.000 C 
BRANCH  19  20
ATOM     20  C   UNL     1      46.670   7.585  -6.714  1.00  0.00     0.006 C 
BRANCH  20  21
ATOM     21  C   UNL     1      46.848   8.216  -5.327  1.00  0.00     0.053 C 
BRANCH  21  22
ATOM     22  C   UNL     1      46.145   7.426  -4.265  1.00  0.00     0.041 C 
ATOM     23  O   UNL     1      45.894   6.205  -4.444  1.00  0.00    -0.550 OA
ATOM     24  O   UNL     1      45.754   8.043  -3.082  1.00  0.00    -0.550 OA
ENDBRANCH  21  22
ENDBRANCH  20  21
ENDBRANCH  19  20
ENDBRANCH  18  19
ENDBRANCH  17  18
ENDBRANCH  16  17
ENDBRANCH  15  16
ENDBRANCH  14  15
ENDBRANCH  13  14
ENDBRANCH   1  13
TORSDOF 20
ENDMDL
MODEL 7
REMARK VINA RESULT:    -5.336      1.591      4.853
REMARK INTER + INTRA:         -15.411
REMARK INTER:                 -11.258
REMARK INTRA:                  -4.153
REMARK UNBOUND:                -3.836
REMARK SMILES CCCCCCCCCCCCCCCCCCCCCC(=O)[O-]
REMARK SMILES IDX 12 1 11 2 10 3 9 4 8 5 7 6 6 7 5 8 4 9 3 10 2 11 1 12 13 13
REMARK SMILES IDX 14 14 15 15 16 16 17 17 18 18 19 19 20 20 21 21 22 22 23 23
REMARK SMILES IDX 24 24
REMARK H PARENT
REMARK Flexibility Score: inf
ROOT
ATOM      1  C   UNL     1      35.656   0.391   2.857  1.00  0.00     0.000 C 
ENDROOT
BRANCH   1   2
ATOM      2  C   UNL     1      34.262   0.993   3.127  1.00  0.00     0.000 C 
BRANCH   2   3
ATOM      3  C   UNL     1      34.292   2.445   3.644  1.00  0.00     0.000 C 
BRANCH   3   4
ATOM      4  C   UNL     1      33.556   2.691   4.974  1.00  0.00    -0.000 C 
BRANCH   4   5
ATOM      5  C   UNL     1      34.470   3.018   6.169  1.00  0.00    -0.000 C 
BRANCH   5   6
ATOM      6  C   UNL     1      34.556   4.525   6.460  1.00  0.00    -0.000 C 
BRANCH   6   7
ATOM      7  C   UNL     1      35.907   5.130   6.043  1.00  0.00    -0.000 C 
BRANCH   7   8
ATOM      8  C   UNL     1      35.905   5.613   4.581  1.00  0.00    -0.000 C 
BRANCH   8   9
ATOM      9  C   UNL     1      37.307   6.011   4.088  1.00  0.00    -0.000 C 
BRANCH   9  10
ATOM     10  C   UNL     1      37.489   5.854   2.562  1.00  0.00    -0.000 C 
BRANCH  10  11
ATOM     11  C   UNL     1      36.580   4.782   1.934  1.00  0.00    -0.003 C 
ATOM     12  C   UNL     1      35.628   5.343   0.880  1.00  0.00     0.004 C 
ENDBRANCH  10  11
ENDBRANCH   9  10
ENDBRANCH   8   9
ENDBRANCH   7   8
ENDBRANCH   6   7
ENDBRANCH   5   6
ENDBRANCH   4   5
ENDBRANCH   3   4
ENDBRANCH   2   3
ENDBRANCH   1   2
BRANCH   1  13
ATOM     13  C   UNL     1      36.034  -0.709   3.865  1.00  0.00     0.000 C 
BRANCH  13  14
ATOM     14  C   UNL     1      35.091  -0.741   5.082  1.00  0.00     0.000 C 
BRANCH  14  15
ATOM     15  C   UNL     1      35.820  -0.568   6.432  1.00  0.00     0.000 C 
BRANCH  15  16
ATOM     16  C   UNL     1      37.247  -0.000   6.292  1.00  0.00     0.000 C 
BRANCH  16  17
ATOM     17  C   UNL     1      37.539   1.181   7.235  1.00  0.00     0.000 C 
BRANCH  17  18
ATOM     18  C   UNL     1      38.219   2.358   6.513  1.00  0.00     0.000 C 
BRANCH  18  19
ATOM     19  C   UNL     1      37.975   2.329   4.995  1.00  0.00     0.000 C 
BRANCH  19  20
ATOM     20  C   UNL     1      39.157   2.911   4.203  1.00  0.00     0.006 C 
BRANCH  20  21
ATOM     21  C   UNL     1      39.301   2.261   2.821  1.00  0.00     0.053 C 
BRANCH  21  22
ATOM     22  C   UNL     1      40.361   2.932   2.001  1.00  0.00     0.041 C 
ATOM     23  O   UNL     1      40.042   3.757   1.105  1.00  0.00    -0.550 OA
ATOM     24  O   UNL     1      41.702   2.635   2.217  1.00  0.00    -0.550 OA
ENDBRANCH  21  22
ENDBRANCH  20  21
ENDBRANCH  19  20
ENDBRANCH  18  19
ENDBRANCH  17  18
ENDBRANCH  16  17
ENDBRANCH  15  16
ENDBRANCH  14  15
ENDBRANCH  13  14
ENDBRANCH   1  13
TORSDOF 20
ENDMDL
MODEL 8
REMARK VINA RESULT:    -5.311      2.899      3.900
REMARK INTER + INTRA:         -15.355
REMARK INTER:                 -11.663
REMARK INTRA:                  -3.693
REMARK UNBOUND:                -3.836
REMARK SMILES CCCCCCCCCCCCCCCCCCCCCC(=O)[O-]
REMARK SMILES IDX 12 1 11 2 10 3 9 4 8 5 7 6 6 7 5 8 4 9 3 10 2 11 1 12 13 13
REMARK SMILES IDX 14 14 15 15 16 16 17 17 18 18 19 19 20 20 21 21 22 22 23 23
REMARK SMILES IDX 24 24
REMARK H PARENT
REMARK Flexibility Score: inf
ROOT
ATOM      1  C   UNL     1      33.804   2.249   5.060  1.00  0.00     0.000 C 
ENDROOT
BRANCH   1   2
ATOM      2  C   UNL     1      34.213   2.247   3.572  1.00  0.00     0.000 C 
BRANCH   2   3
ATOM      3  C   UNL     1      34.675   0.874   3.047  1.00  0.00     0.000 C 
BRANCH   3   4
ATOM      4  C   UNL     1      34.668  -0.269   4.080  1.00  0.00    -0.000 C 
BRANCH   4   5
ATOM      5  C   UNL     1      35.969  -1.089   4.149  1.00  0.00    -0.000 C 
BRANCH   5   6
ATOM      6  C   UNL     1      36.834  -0.733   5.368  1.00  0.00    -0.000 C 
BRANCH   6   7
ATOM      7  C   UNL     1      35.998  -0.248   6.564  1.00  0.00    -0.000 C 
BRANCH   7   8
ATOM      8  C   UNL     1      36.481   1.111   7.102  1.00  0.00    -0.000 C 
BRANCH   8   9
ATOM      9  C   UNL     1      37.899   1.467   6.620  1.00  0.00    -0.000 C 
BRANCH   9  10
ATOM     10  C   UNL     1      37.984   2.847   5.931  1.00  0.00    -0.000 C 
BRANCH  10  11
ATOM     11  C   UNL     1      38.852   2.856   4.660  1.00  0.00    -0.003 C 
ATOM     12  C   UNL     1      38.222   2.096   3.495  1.00  0.00     0.004 C 
ENDBRANCH  10  11
ENDBRANCH   9  10
ENDBRANCH   8   9
ENDBRANCH   7   8
ENDBRANCH   6   7
ENDBRANCH   5   6
ENDBRANCH   4   5
ENDBRANCH   3   4
ENDBRANCH   2   3
ENDBRANCH   1   2
BRANCH   1  13
ATOM     13  C   UNL     1      33.455   3.655   5.579  1.00  0.00     0.000 C 
BRANCH  13  14
ATOM     14  C   UNL     1      34.039   3.928   6.978  1.00  0.00     0.000 C 
BRANCH  14  15
ATOM     15  C   UNL     1      34.987   5.145   7.024  1.00  0.00     0.000 C 
BRANCH  15  16
ATOM     16  C   UNL     1      34.968   5.988   5.732  1.00  0.00     0.000 C 
BRANCH  16  17
ATOM     17  C   UNL     1      36.296   5.957   4.954  1.00  0.00     0.000 C 
BRANCH  17  18
ATOM     18  C   UNL     1      36.173   5.223   3.607  1.00  0.00     0.000 C 
BRANCH  18  19
ATOM     19  C   UNL     1      36.969   5.919   2.490  1.00  0.00     0.000 C 
BRANCH  19  20
ATOM     20  C   UNL     1      38.195   6.672   3.030  1.00  0.00     0.006 C 
BRANCH  20  21
ATOM     21  C   UNL     1      38.871   7.525   1.949  1.00  0.00     0.053 C 
BRANCH  21  22
ATOM     22  C   UNL     1      38.124   8.802   1.703  1.00  0.00     0.041 C 
ATOM     23  O   UNL     1      38.066   9.685   2.598  1.00  0.00    -0.550 OA
ATOM     24  O   UNL     1      37.480   9.009   0.488  1.00  0.00    -0.550 OA
ENDBRANCH  21  22
ENDBRANCH  20  21
ENDBRANCH  19  20
ENDBRANCH  18  19
ENDBRANCH  17  18
ENDBRANCH  16  17
ENDBRANCH  15  16
ENDBRANCH  14  15
ENDBRANCH  13  14
ENDBRANCH   1  13
TORSDOF 20
ENDMDL
MODEL 9
REMARK VINA RESULT:    -5.307     13.879     18.500
REMARK INTER + INTRA:         -15.347
REMARK INTER:                 -11.653
REMARK INTRA:                  -3.694
REMARK UNBOUND:                -3.836
REMARK SMILES CCCCCCCCCCCCCCCCCCCCCC(=O)[O-]
REMARK SMILES IDX 12 1 11 2 10 3 9 4 8 5 7 6 6 7 5 8 4 9 3 10 2 11 1 12 13 13
REMARK SMILES IDX 14 14 15 15 16 16 17 17 18 18 19 19 20 20 21 21 22 22 23 23
REMARK SMILES IDX 24 24
REMARK H PARENT
REMARK Flexibility Score: inf
ROOT
ATOM      1  C   UNL     1      49.284   9.286  -6.646  1.00  0.00     0.000 C 
ENDROOT
BRANCH   1   2
ATOM      2  C   UNL     1      50.357  10.365  -6.896  1.00  0.00     0.000 C 
BRANCH   2   3
ATOM      3  C   UNL     1      50.277  11.568  -5.935  1.00  0.00     0.000 C 
BRANCH   3   4
ATOM      4  C   UNL     1      49.387  11.368  -4.694  1.00  0.00    -0.000 C 
BRANCH   4   5
ATOM      5  C   UNL     1      48.165  12.302  -4.617  1.00  0.00    -0.000 C 
BRANCH   5   6
ATOM      6  C   UNL     1      46.931  11.730  -5.333  1.00  0.00    -0.000 C 
BRANCH   6   7
ATOM      7  C   UNL     1      45.916  12.819  -5.720  1.00  0.00    -0.000 C 
BRANCH   7   8
ATOM      8  C   UNL     1      45.956  13.148  -7.223  1.00  0.00    -0.000 C 
BRANCH   8   9
ATOM      9  C   UNL     1      47.161  12.508  -7.936  1.00  0.00    -0.000 C 
BRANCH   9  10
ATOM     10  C   UNL     1      46.829  11.979  -9.349  1.00  0.00    -0.000 C 
BRANCH  10  11
ATOM     11  C   UNL     1      48.034  11.364 -10.083  1.00  0.00    -0.003 C 
ATOM     12  C   UNL     1      49.337  12.124  -9.842  1.00  0.00     0.004 C 
ENDBRANCH  10  11
ENDBRANCH   9  10
ENDBRANCH   8   9
ENDBRANCH   7   8
ENDBRANCH   6   7
ENDBRANCH   5   6
ENDBRANCH   4   5
ENDBRANCH   3   4
ENDBRANCH   2   3
ENDBRANCH   1   2
BRANCH   1  13
ATOM     13  C   UNL     1      49.204   8.252  -7.784  1.00  0.00     0.000 C 
BRANCH  13  14
ATOM     14  C   UNL     1      47.752   7.899  -8.157  1.00  0.00     0.000 C 
BRANCH  14  15
ATOM     15  C   UNL     1      46.698   8.656  -7.322  1.00  0.00     0.000 C 
BRANCH  15  16
ATOM     16  C   UNL     1      45.409   8.981  -8.107  1.00  0.00     0.000 C 
BRANCH  16  17
ATOM     17  C   UNL     1      44.316   9.649  -7.253  1.00  0.00     0.000 C 
BRANCH  17  18
ATOM     18  C   UNL     1      44.343   9.178  -5.788  1.00  0.00     0.000 C 
BRANCH  18  19
ATOM     19  C   UNL     1      43.047   8.455  -5.386  1.00  0.00     0.000 C 
BRANCH  19  20
ATOM     20  C   UNL     1      43.304   7.305  -4.398  1.00  0.00     0.006 C 
BRANCH  20  21
ATOM     21  C   UNL     1      44.079   6.150  -5.046  1.00  0.00     0.053 C 
BRANCH  21  22
ATOM     22  C   UNL     1      45.368   5.879  -4.332  1.00  0.00     0.041 C 
ATOM     23  O   UNL     1      45.972   6.810  -3.737  1.00  0.00    -0.550 OA
ATOM     24  O   UNL     1      45.911   4.599  -4.336  1.00  0.00    -0.550 OA
ENDBRANCH  21  22
ENDBRANCH  20  21
ENDBRANCH  19  20
ENDBRANCH  18  19
ENDBRANCH  17  18
ENDBRANCH  16  17
ENDBRANCH  15  16
ENDBRANCH  14  15
ENDBRANCH  13  14
ENDBRANCH   1  13
TORSDOF 20
ENDMDL
