MODEL 1
REMARK VINA RESULT:    -5.166      0.000      0.000
REMARK INTER + INTRA:          -8.003
REMARK INTER:                  -6.978
REMARK INTRA:                  -1.024
REMARK UNBOUND:                -1.024
REMARK SMILES CC(=O)CCC=C(C)CCC=C(C)C
REMARK SMILES IDX 7 1 6 2 8 3 9 4 10 5 11 6 13 7 12 8 14 9 5 10 4 11 2 12 3 13
REMARK SMILES IDX 1 14
REMARK H PARENT
REMARK Flexibility Score: inf
ROOT
ATOM      1  C   UNL     1      15.603 -32.636  22.084  1.00  0.00    -0.077 C 
ATOM      2  C   UNL     1      14.991 -33.718  21.558  1.00  0.00    -0.028 C 
ATOM      3  C   UNL     1      16.496 -31.750  21.247  1.00  0.00     0.039 C 
ENDROOT
BRANCH   1   4
ATOM      4  C   UNL     1      15.390 -32.300  23.546  1.00  0.00     0.034 C 
BRANCH   4   5
ATOM      5  C   UNL     1      13.903 -32.118  23.881  1.00  0.00     0.032 C 
BRANCH   5   6
ATOM      6  C   UNL     1      13.503 -30.661  23.877  1.00  0.00    -0.028 C 
ATOM      7  C   UNL     1      12.391 -30.794  21.636  1.00  0.00     0.039 C 
ATOM      8  C   UNL     1      12.851 -30.046  22.865  1.00  0.00    -0.080 C 
ATOM      9  C   UNL     1      12.567 -28.571  22.988  1.00  0.00     0.039 C 
ENDBRANCH   5   6
ENDBRANCH   4   5
ENDBRANCH   1   4
BRANCH   2  10
ATOM     10  C   UNL     1      15.151 -34.135  20.114  1.00  0.00     0.035 C 
BRANCH  10  11
ATOM     11  C   UNL     1      15.829 -35.505  19.978  1.00  0.00     0.079 C 
BRANCH  11  12
ATOM     12  C   UNL     1      17.176 -35.406  19.311  1.00  0.00     0.130 C 
ATOM     13  O   UNL     1      17.879 -36.401  19.213  1.00  0.00    -0.300 OA
ATOM     14  C   UNL     1      17.645 -34.105  18.732  1.00  0.00     0.087 C 
ENDBRANCH  11  12
ENDBRANCH  10  11
ENDBRANCH   2  10
TORSDOF 6
ENDMDL
MODEL 2
REMARK VINA RESULT:    -5.135      1.321      1.906
REMARK INTER + INTRA:          -7.960
REMARK INTER:                  -7.384
REMARK INTRA:                  -0.577
REMARK UNBOUND:                -1.024
REMARK SMILES CC(=O)CCC=C(C)CCC=C(C)C
REMARK SMILES IDX 7 1 6 2 8 3 9 4 10 5 11 6 13 7 12 8 14 9 5 10 4 11 2 12 3 13
REMARK SMILES IDX 1 14
REMARK H PARENT
REMARK Flexibility Score: inf
ROOT
ATOM      1  C   UNL     1      14.159 -31.842  21.681  1.00  0.00    -0.077 C 
ATOM      2  C   UNL     1      14.854 -32.966  21.403  1.00  0.00    -0.028 C 
ATOM      3  C   UNL     1      13.086 -31.328  20.750  1.00  0.00     0.039 C 
ENDROOT
BRANCH   1   4
ATOM      4  C   UNL     1      14.460 -31.079  22.955  1.00  0.00     0.034 C 
BRANCH   4   5
ATOM      5  C   UNL     1      13.178 -30.631  23.670  1.00  0.00     0.032 C 
BRANCH   5   6
ATOM      6  C   UNL     1      13.181 -29.146  23.946  1.00  0.00    -0.028 C 
ATOM      7  C   UNL     1      11.053 -28.733  22.692  1.00  0.00     0.039 C 
ATOM      8  C   UNL     1      12.252 -28.278  23.490  1.00  0.00    -0.080 C 
ATOM      9  C   UNL     1      12.420 -26.815  23.808  1.00  0.00     0.039 C 
ENDBRANCH   5   6
ENDBRANCH   4   5
ENDBRANCH   1   4
BRANCH   2  10
ATOM     10  C   UNL     1      14.629 -33.787  20.154  1.00  0.00     0.035 C 
BRANCH  10  11
ATOM     11  C   UNL     1      15.427 -35.098  20.170  1.00  0.00     0.079 C 
BRANCH  11  12
ATOM     12  C   UNL     1      16.673 -35.012  19.327  1.00  0.00     0.130 C 
ATOM     13  O   UNL     1      16.900 -34.001  18.680  1.00  0.00    -0.300 OA
ATOM     14  C   UNL     1      17.656 -36.144  19.305  1.00  0.00     0.087 C 
ENDBRANCH  11  12
ENDBRANCH  10  11
ENDBRANCH   2  10
TORSDOF 6
ENDMDL
MODEL 3
REMARK VINA RESULT:    -5.110      1.278      2.024
REMARK INTER + INTRA:          -7.927
REMARK INTER:                  -7.063
REMARK INTRA:                  -0.864
REMARK UNBOUND:                -1.024
REMARK SMILES CC(=O)CCC=C(C)CCC=C(C)C
REMARK SMILES IDX 7 1 6 2 8 3 9 4 10 5 11 6 13 7 12 8 14 9 5 10 4 11 2 12 3 13
REMARK SMILES IDX 1 14
REMARK H PARENT
REMARK Flexibility Score: inf
ROOT
ATOM      1  C   UNL     1      15.116 -31.868  22.953  1.00  0.00    -0.077 C 
ATOM      2  C   UNL     1      15.478 -32.478  21.804  1.00  0.00    -0.028 C 
ATOM      3  C   UNL     1      14.220 -32.551  23.960  1.00  0.00     0.039 C 
ENDROOT
BRANCH   1   4
ATOM      4  C   UNL     1      15.619 -30.468  23.241  1.00  0.00     0.034 C 
BRANCH   4   5
ATOM      5  C   UNL     1      14.915 -29.417  22.371  1.00  0.00     0.032 C 
BRANCH   5   6
ATOM      6  C   UNL     1      13.775 -28.754  23.107  1.00  0.00    -0.028 C 
ATOM      7  C   UNL     1      12.022 -30.187  22.037  1.00  0.00     0.039 C 
ATOM      8  C   UNL     1      12.471 -29.068  22.946  1.00  0.00    -0.080 C 
ATOM      9  C   UNL     1      11.443 -28.279  23.716  1.00  0.00     0.039 C 
ENDBRANCH   5   6
ENDBRANCH   4   5
ENDBRANCH   1   4
BRANCH   2  10
ATOM     10  C   UNL     1      15.018 -33.868  21.428  1.00  0.00     0.035 C 
BRANCH  10  11
ATOM     11  C   UNL     1      14.985 -34.076  19.908  1.00  0.00     0.079 C 
BRANCH  11  12
ATOM     12  C   UNL     1      16.273 -34.662  19.389  1.00  0.00     0.130 C 
ATOM     13  O   UNL     1      17.079 -33.944  18.818  1.00  0.00    -0.300 OA
ATOM     14  C   UNL     1      16.589 -36.112  19.601  1.00  0.00     0.087 C 
ENDBRANCH  11  12
ENDBRANCH  10  11
ENDBRANCH   2  10
TORSDOF 6
ENDMDL
MODEL 4
REMARK VINA RESULT:    -5.073      3.090      6.758
REMARK INTER + INTRA:          -7.877
REMARK INTER:                  -7.227
REMARK INTRA:                  -0.650
REMARK UNBOUND:                -1.024
REMARK SMILES CC(=O)CCC=C(C)CCC=C(C)C
REMARK SMILES IDX 7 1 6 2 8 3 9 4 10 5 11 6 13 7 12 8 14 9 5 10 4 11 2 12 3 13
REMARK SMILES IDX 1 14
REMARK H PARENT
REMARK Flexibility Score: inf
ROOT
ATOM      1  C   UNL     1      14.940 -32.561  21.526  1.00  0.00    -0.077 C 
ATOM      2  C   UNL     1      13.764 -32.200  20.969  1.00  0.00    -0.028 C 
ATOM      3  C   UNL     1      15.842 -31.546  22.188  1.00  0.00     0.039 C 
ENDROOT
BRANCH   1   4
ATOM      4  C   UNL     1      15.366 -34.014  21.487  1.00  0.00     0.034 C 
BRANCH   4   5
ATOM      5  C   UNL     1      15.234 -34.612  20.080  1.00  0.00     0.032 C 
BRANCH   5   6
ATOM      6  C   UNL     1      16.026 -35.890  19.938  1.00  0.00    -0.028 C 
ATOM      7  C   UNL     1      18.068 -34.734  19.064  1.00  0.00     0.039 C 
ATOM      8  C   UNL     1      17.286 -35.965  19.456  1.00  0.00    -0.080 C 
ATOM      9  C   UNL     1      17.925 -37.324  19.327  1.00  0.00     0.039 C 
ENDBRANCH   5   6
ENDBRANCH   4   5
ENDBRANCH   1   4
BRANCH   2  10
ATOM     10  C   UNL     1      13.262 -30.775  20.951  1.00  0.00     0.035 C 
BRANCH  10  11
ATOM     11  C   UNL     1      11.982 -30.600  21.779  1.00  0.00     0.079 C 
BRANCH  11  12
ATOM     12  C   UNL     1      12.108 -29.488  22.788  1.00  0.00     0.130 C 
ATOM     13  O   UNL     1      11.351 -28.531  22.734  1.00  0.00    -0.300 OA
ATOM     14  C   UNL     1      13.132 -29.565  23.881  1.00  0.00     0.087 C 
ENDBRANCH  11  12
ENDBRANCH  10  11
ENDBRANCH   2  10
TORSDOF 6
ENDMDL
MODEL 5
REMARK VINA RESULT:    -4.985      1.830      3.135
REMARK INTER + INTRA:          -7.758
REMARK INTER:                  -7.073
REMARK INTRA:                  -0.684
REMARK UNBOUND:                -1.024
REMARK SMILES CC(=O)CCC=C(C)CCC=C(C)C
REMARK SMILES IDX 7 1 6 2 8 3 9 4 10 5 11 6 13 7 12 8 14 9 5 10 4 11 2 12 3 13
REMARK SMILES IDX 1 14
REMARK H PARENT
REMARK Flexibility Score: inf
ROOT
ATOM      1  C   UNL     1      16.034 -34.596  19.529  1.00  0.00    -0.077 C 
ATOM      2  C   UNL     1      16.150 -35.900  19.858  1.00  0.00    -0.028 C 
ATOM      3  C   UNL     1      17.185 -33.831  18.920  1.00  0.00     0.039 C 
ENDROOT
BRANCH   1   4
ATOM      4  C   UNL     1      14.720 -33.882  19.776  1.00  0.00     0.034 C 
BRANCH   4   5
ATOM      5  C   UNL     1      14.760 -33.035  21.055  1.00  0.00     0.032 C 
BRANCH   5   6
ATOM      6  C   UNL     1      13.699 -31.961  21.049  1.00  0.00    -0.028 C 
ATOM      7  C   UNL     1      13.675 -31.726  23.542  1.00  0.00     0.039 C 
ATOM      8  C   UNL     1      13.180 -31.386  22.156  1.00  0.00    -0.080 C 
ATOM      9  C   UNL     1      12.087 -30.362  21.988  1.00  0.00     0.039 C 
ENDBRANCH   5   6
ENDBRANCH   4   5
ENDBRANCH   1   4
BRANCH   2  10
ATOM     10  C   UNL     1      17.423 -36.691  19.658  1.00  0.00     0.035 C 
BRANCH  10  11
ATOM     11  C   UNL     1      18.061 -37.109  20.989  1.00  0.00     0.079 C 
BRANCH  11  12
ATOM     12  C   UNL     1      18.507 -35.921  21.801  1.00  0.00     0.130 C 
ATOM     13  O   UNL     1      19.419 -35.216  21.395  1.00  0.00    -0.300 OA
ATOM     14  C   UNL     1      17.814 -35.574  23.084  1.00  0.00     0.087 C 
ENDBRANCH  11  12
ENDBRANCH  10  11
ENDBRANCH   2  10
TORSDOF 6
ENDMDL
MODEL 6
REMARK VINA RESULT:    -4.973      3.230      6.986
REMARK INTER + INTRA:          -7.742
REMARK INTER:                  -7.304
REMARK INTRA:                  -0.438
REMARK UNBOUND:                -1.024
REMARK SMILES CC(=O)CCC=C(C)CCC=C(C)C
REMARK SMILES IDX 7 1 6 2 8 3 9 4 10 5 11 6 13 7 12 8 14 9 5 10 4 11 2 12 3 13
REMARK SMILES IDX 1 14
REMARK H PARENT
REMARK Flexibility Score: inf
ROOT
ATOM      1  C   UNL     1      14.447 -32.463  22.634  1.00  0.00    -0.077 C 
ATOM      2  C   UNL     1      13.872 -31.434  21.976  1.00  0.00    -0.028 C 
ATOM      3  C   UNL     1      14.079 -32.789  24.063  1.00  0.00     0.039 C 
ENDROOT
BRANCH   1   4
ATOM      4  C   UNL     1      15.485 -33.310  21.926  1.00  0.00     0.034 C 
BRANCH   4   5
ATOM      5  C   UNL     1      14.951 -33.886  20.608  1.00  0.00     0.032 C 
BRANCH   5   6
ATOM      6  C   UNL     1      15.649 -35.172  20.235  1.00  0.00    -0.028 C 
ATOM      7  C   UNL     1      17.387 -34.028  18.841  1.00  0.00     0.039 C 
ATOM      8  C   UNL     1      16.724 -35.255  19.420  1.00  0.00    -0.080 C 
ATOM      9  C   UNL     1      17.278 -36.619  19.100  1.00  0.00     0.039 C 
ENDBRANCH   5   6
ENDBRANCH   4   5
ENDBRANCH   1   4
BRANCH   2  10
ATOM     10  C   UNL     1      12.836 -30.530  22.603  1.00  0.00     0.035 C 
BRANCH  10  11
ATOM     11  C   UNL     1      13.461 -29.274  23.224  1.00  0.00     0.079 C 
BRANCH  11  12
ATOM     12  C   UNL     1      12.429 -28.392  23.877  1.00  0.00     0.130 C 
ATOM     13  O   UNL     1      12.729 -27.735  24.863  1.00  0.00    -0.300 OA
ATOM     14  C   UNL     1      11.048 -28.285  23.305  1.00  0.00     0.087 C 
ENDBRANCH  11  12
ENDBRANCH  10  11
ENDBRANCH   2  10
TORSDOF 6
ENDMDL
MODEL 7
REMARK VINA RESULT:    -4.950      1.547      2.683
REMARK INTER + INTRA:          -7.710
REMARK INTER:                  -6.476
REMARK INTRA:                  -1.234
REMARK UNBOUND:                -1.024
REMARK SMILES CC(=O)CCC=C(C)CCC=C(C)C
REMARK SMILES IDX 7 1 6 2 8 3 9 4 10 5 11 6 13 7 12 8 14 9 5 10 4 11 2 12 3 13
REMARK SMILES IDX 1 14
REMARK H PARENT
REMARK Flexibility Score: inf
ROOT
ATOM      1  C   UNL     1      17.386 -31.255  21.574  1.00  0.00    -0.077 C 
ATOM      2  C   UNL     1      17.878 -31.672  20.388  1.00  0.00    -0.028 C 
ATOM      3  C   UNL     1      17.169 -32.215  22.719  1.00  0.00     0.039 C 
ENDROOT
BRANCH   1   4
ATOM      4  C   UNL     1      17.046 -29.790  21.763  1.00  0.00     0.034 C 
BRANCH   4   5
ATOM      5  C   UNL     1      15.738 -29.603  22.545  1.00  0.00     0.032 C 
BRANCH   5   6
ATOM      6  C   UNL     1      14.529 -29.932  21.701  1.00  0.00    -0.028 C 
ATOM      7  C   UNL     1      13.604 -31.569  23.355  1.00  0.00     0.039 C 
ATOM      8  C   UNL     1      13.580 -30.833  22.037  1.00  0.00    -0.080 C 
ATOM      9  C   UNL     1      12.458 -31.089  21.063  1.00  0.00     0.039 C 
ENDBRANCH   5   6
ENDBRANCH   4   5
ENDBRANCH   1   4
BRANCH   2  10
ATOM     10  C   UNL     1      18.237 -33.113  20.105  1.00  0.00     0.035 C 
BRANCH  10  11
ATOM     11  C   UNL     1      17.323 -33.741  19.044  1.00  0.00     0.079 C 
BRANCH  11  12
ATOM     12  C   UNL     1      16.159 -34.471  19.661  1.00  0.00     0.130 C 
ATOM     13  O   UNL     1      16.247 -35.667  19.894  1.00  0.00    -0.300 OA
ATOM     14  C   UNL     1      14.905 -33.734  20.026  1.00  0.00     0.087 C 
ENDBRANCH  11  12
ENDBRANCH  10  11
ENDBRANCH   2  10
TORSDOF 6
ENDMDL
MODEL 8
REMARK VINA RESULT:    -4.908      1.186      1.908
REMARK INTER + INTRA:          -7.654
REMARK INTER:                  -6.527
REMARK INTRA:                  -1.127
REMARK UNBOUND:                -1.024
REMARK SMILES CC(=O)CCC=C(C)CCC=C(C)C
REMARK SMILES IDX 7 1 6 2 8 3 9 4 10 5 11 6 13 7 12 8 14 9 5 10 4 11 2 12 3 13
REMARK SMILES IDX 1 14
REMARK H PARENT
REMARK Flexibility Score: inf
ROOT
ATOM      1  C   UNL     1      15.471 -32.570  22.295  1.00  0.00    -0.077 C 
ATOM      2  C   UNL     1      16.633 -31.902  22.137  1.00  0.00    -0.028 C 
ATOM      3  C   UNL     1      14.678 -33.063  21.107  1.00  0.00     0.039 C 
ENDROOT
BRANCH   1   4
ATOM      4  C   UNL     1      14.948 -32.831  23.693  1.00  0.00     0.034 C 
BRANCH   4   5
ATOM      5  C   UNL     1      13.578 -32.176  23.923  1.00  0.00     0.032 C 
BRANCH   5   6
ATOM      6  C   UNL     1      13.664 -30.669  23.881  1.00  0.00    -0.028 C 
ATOM      7  C   UNL     1      12.102 -30.461  21.935  1.00  0.00     0.039 C 
ATOM      8  C   UNL     1      13.033 -29.888  22.978  1.00  0.00    -0.080 C 
ATOM      9  C   UNL     1      13.259 -28.399  23.034  1.00  0.00     0.039 C 
ENDBRANCH   5   6
ENDBRANCH   4   5
ENDBRANCH   1   4
BRANCH   2  10
ATOM     10  C   UNL     1      17.227 -31.588  20.784  1.00  0.00     0.035 C 
BRANCH  10  11
ATOM     11  C   UNL     1      18.504 -32.395  20.509  1.00  0.00     0.079 C 
BRANCH  11  12
ATOM     12  C   UNL     1      18.198 -33.793  20.037  1.00  0.00     0.130 C 
ATOM     13  O   UNL     1      18.514 -34.749  20.730  1.00  0.00    -0.300 OA
ATOM     14  C   UNL     1      17.477 -34.019  18.743  1.00  0.00     0.087 C 
ENDBRANCH  11  12
ENDBRANCH  10  11
ENDBRANCH   2  10
TORSDOF 6
ENDMDL
MODEL 9
REMARK VINA RESULT:    -4.817      2.888      5.783
REMARK INTER + INTRA:          -7.531
REMARK INTER:                  -6.049
REMARK INTRA:                  -1.482
REMARK UNBOUND:                -1.024
REMARK SMILES CC(=O)CCC=C(C)CCC=C(C)C
REMARK SMILES IDX 7 1 6 2 8 3 9 4 10 5 11 6 13 7 12 8 14 9 5 10 4 11 2 12 3 13
REMARK SMILES IDX 1 14
REMARK H PARENT
REMARK Flexibility Score: inf
ROOT
ATOM      1  C   UNL     1      16.484 -35.128  19.476  1.00  0.00    -0.077 C 
ATOM      2  C   UNL     1      15.352 -34.952  20.189  1.00  0.00    -0.028 C 
ATOM      3  C   UNL     1      17.136 -33.983  18.736  1.00  0.00     0.039 C 
ENDROOT
BRANCH   1   4
ATOM      4  C   UNL     1      17.117 -36.504  19.415  1.00  0.00     0.034 C 
BRANCH   4   5
ATOM      5  C   UNL     1      17.656 -36.947  20.782  1.00  0.00     0.032 C 
BRANCH   5   6
ATOM      6  C   UNL     1      18.795 -36.070  21.246  1.00  0.00    -0.028 C 
ATOM      7  C   UNL     1      17.523 -35.150  23.197  1.00  0.00     0.039 C 
ATOM      8  C   UNL     1      18.741 -35.237  22.308  1.00  0.00    -0.080 C 
ATOM      9  C   UNL     1      19.947 -34.386  22.614  1.00  0.00     0.039 C 
ENDBRANCH   5   6
ENDBRANCH   4   5
ENDBRANCH   1   4
BRANCH   2  10
ATOM     10  C   UNL     1      14.645 -33.620  20.300  1.00  0.00     0.035 C 
BRANCH  10  11
ATOM     11  C   UNL     1      14.885 -32.947  21.658  1.00  0.00     0.079 C 
BRANCH  11  12
ATOM     12  C   UNL     1      15.684 -31.676  21.527  1.00  0.00     0.130 C 
ATOM     13  O   UNL     1      15.107 -30.612  21.363  1.00  0.00    -0.300 OA
ATOM     14  C   UNL     1      17.178 -31.703  21.634  1.00  0.00     0.087 C 
ENDBRANCH  11  12
ENDBRANCH  10  11
ENDBRANCH   2  10
TORSDOF 6
ENDMDL
