MODEL 1
REMARK VINA RESULT:     3.381      0.000      0.000
REMARK INTER + INTRA:           6.394
REMARK INTER:                   7.334
REMARK INTRA:                  -0.939
REMARK UNBOUND:                -0.939
REMARK SMILES CCCCCCCCCCCCCCCCCCCCCC(=O)[O-]
REMARK SMILES IDX 12 1 11 2 10 3 9 4 8 5 7 6 6 7 5 8 4 9 3 10 2 11 1 12 13 13
REMARK SMILES IDX 14 14 15 15 16 16 17 17 18 18 19 19 20 20 21 21 22 22 23 23
REMARK SMILES IDX 24 24
REMARK H PARENT
REMARK Flexibility Score: inf
ROOT
ATOM      1  C   UNL     1      -3.419  -2.733  -1.471  1.00  0.00     0.000 C 
ENDROOT
BRANCH   1   2
ATOM      2  C   UNL     1      -3.382  -3.658  -0.245  1.00  0.00     0.000 C 
BRANCH   2   3
ATOM      3  C   UNL     1      -3.326  -5.151  -0.617  1.00  0.00     0.000 C 
BRANCH   3   4
ATOM      4  C   UNL     1      -1.911  -5.728  -0.813  1.00  0.00    -0.000 C 
BRANCH   4   5
ATOM      5  C   UNL     1      -0.826  -4.914  -0.091  1.00  0.00    -0.000 C 
BRANCH   5   6
ATOM      6  C   UNL     1       0.073  -4.117  -1.056  1.00  0.00    -0.000 C 
BRANCH   6   7
ATOM      7  C   UNL     1       0.191  -2.610  -0.761  1.00  0.00    -0.000 C 
BRANCH   7   8
ATOM      8  C   UNL     1       1.225  -1.901  -1.652  1.00  0.00    -0.000 C 
BRANCH   8   9
ATOM      9  C   UNL     1       1.567  -0.481  -1.164  1.00  0.00    -0.000 C 
BRANCH   9  10
ATOM     10  C   UNL     1       1.922   0.527  -2.273  1.00  0.00    -0.000 C 
BRANCH  10  11
ATOM     11  C   UNL     1       2.893   1.620  -1.803  1.00  0.00    -0.003 C 
ATOM     12  C   UNL     1       3.465   1.294  -0.426  1.00  0.00     0.004 C 
ENDBRANCH  10  11
ENDBRANCH   9  10
ENDBRANCH   8   9
ENDBRANCH   7   8
ENDBRANCH   6   7
ENDBRANCH   5   6
ENDBRANCH   4   5
ENDBRANCH   3   4
ENDBRANCH   2   3
ENDBRANCH   1   2
BRANCH   1  13
ATOM     13  C   UNL     1      -3.066  -1.289  -1.082  1.00  0.00     0.000 C 
BRANCH  13  14
ATOM     14  C   UNL     1      -2.032  -0.657  -2.028  1.00  0.00     0.000 C 
BRANCH  14  15
ATOM     15  C   UNL     1      -1.486   0.681  -1.496  1.00  0.00     0.000 C 
BRANCH  15  16
ATOM     16  C   UNL     1      -0.890   0.557  -0.084  1.00  0.00     0.000 C 
BRANCH  16  17
ATOM     17  C   UNL     1      -0.120   1.817   0.349  1.00  0.00     0.000 C 
BRANCH  17  18
ATOM     18  C   UNL     1      -0.093   2.896  -0.746  1.00  0.00     0.000 C 
BRANCH  18  19
ATOM     19  C   UNL     1       0.208   4.298  -0.188  1.00  0.00     0.000 C 
BRANCH  19  20
ATOM     20  C   UNL     1       1.455   4.936  -0.827  1.00  0.00     0.006 C 
BRANCH  20  21
ATOM     21  C   UNL     1       2.767   4.656  -0.076  1.00  0.00     0.053 C 
BRANCH  21  22
ATOM     22  C   UNL     1       3.720   5.807  -0.162  1.00  0.00     0.041 C 
ATOM     23  O   UNL     1       4.909   5.678   0.231  1.00  0.00    -0.550 OA
ATOM     24  O   UNL     1       3.286   7.034  -0.651  1.00  0.00    -0.550 OA
ENDBRANCH  21  22
ENDBRANCH  20  21
ENDBRANCH  19  20
ENDBRANCH  18  19
ENDBRANCH  17  18
ENDBRANCH  16  17
ENDBRANCH  15  16
ENDBRANCH  14  15
ENDBRANCH  13  14
ENDBRANCH   1  13
TORSDOF 20
ENDMDL
MODEL 2
REMARK VINA RESULT:     3.681      4.235      8.741
REMARK INTER + INTRA:           7.045
REMARK INTER:                   7.976
REMARK INTRA:                  -0.931
REMARK UNBOUND:                -0.939
REMARK SMILES CCCCCCCCCCCCCCCCCCCCCC(=O)[O-]
REMARK SMILES IDX 12 1 11 2 10 3 9 4 8 5 7 6 6 7 5 8 4 9 3 10 2 11 1 12 13 13
REMARK SMILES IDX 14 14 15 15 16 16 17 17 18 18 19 19 20 20 21 21 22 22 23 23
REMARK SMILES IDX 24 24
REMARK H PARENT
REMARK Flexibility Score: inf
ROOT
ATOM      1  C   UNL     1       3.244   2.669  -1.290  1.00  0.00     0.000 C 
ENDROOT
BRANCH   1   2
ATOM      2  C   UNL     1       3.400   3.563  -0.051  1.00  0.00     0.000 C 
BRANCH   2   3
ATOM      3  C   UNL     1       3.056   5.040  -0.324  1.00  0.00     0.000 C 
BRANCH   3   4
ATOM      4  C   UNL     1       1.600   5.306  -0.752  1.00  0.00    -0.000 C 
BRANCH   4   5
ATOM      5  C   UNL     1       0.575   4.524   0.085  1.00  0.00    -0.000 C 
BRANCH   5   6
ATOM      6  C   UNL     1      -0.394   3.690  -0.774  1.00  0.00    -0.000 C 
BRANCH   6   7
ATOM      7  C   UNL     1      -0.354   2.169  -0.532  1.00  0.00    -0.000 C 
BRANCH   7   8
ATOM      8  C   UNL     1      -0.884   1.355  -1.725  1.00  0.00    -0.000 C 
BRANCH   8   9
ATOM      9  C   UNL     1      -1.989   0.358  -1.330  1.00  0.00    -0.000 C 
BRANCH   9  10
ATOM     10  C   UNL     1      -2.187  -0.822  -2.299  1.00  0.00    -0.000 C 
BRANCH  10  11
ATOM     11  C   UNL     1      -2.988  -1.978  -1.683  1.00  0.00    -0.003 C 
ATOM     12  C   UNL     1      -3.780  -1.511  -0.464  1.00  0.00     0.004 C 
ENDBRANCH  10  11
ENDBRANCH   9  10
ENDBRANCH   8   9
ENDBRANCH   7   8
ENDBRANCH   6   7
ENDBRANCH   5   6
ENDBRANCH   4   5
ENDBRANCH   3   4
ENDBRANCH   2   3
ENDBRANCH   1   2
BRANCH   1  13
ATOM     13  C   UNL     1       3.349   1.183  -0.913  1.00  0.00     0.000 C 
BRANCH  13  14
ATOM     14  C   UNL     1       1.975   0.506  -0.787  1.00  0.00     0.000 C 
BRANCH  14  15
ATOM     15  C   UNL     1       1.673  -0.439  -1.964  1.00  0.00     0.000 C 
BRANCH  15  16
ATOM     16  C   UNL     1       0.950  -1.723  -1.522  1.00  0.00     0.000 C 
BRANCH  16  17
ATOM     17  C   UNL     1       0.391  -1.627  -0.091  1.00  0.00     0.000 C 
BRANCH  17  18
ATOM     18  C   UNL     1      -0.439  -2.861   0.299  1.00  0.00     0.000 C 
BRANCH  18  19
ATOM     19  C   UNL     1      -0.373  -3.977  -0.758  1.00  0.00     0.000 C 
BRANCH  19  20
ATOM     20  C   UNL     1      -1.033  -5.285  -0.283  1.00  0.00     0.006 C 
BRANCH  20  21
ATOM     21  C   UNL     1      -2.258  -5.713  -1.106  1.00  0.00     0.053 C 
BRANCH  21  22
ATOM     22  C   UNL     1      -3.536  -5.528  -0.347  1.00  0.00     0.041 C 
ATOM     23  O   UNL     1      -3.710  -4.503   0.362  1.00  0.00    -0.550 OA
ATOM     24  O   UNL     1      -4.524  -6.504  -0.402  1.00  0.00    -0.550 OA
ENDBRANCH  21  22
ENDBRANCH  20  21
ENDBRANCH  19  20
ENDBRANCH  18  19
ENDBRANCH  17  18
ENDBRANCH  16  17
ENDBRANCH  15  16
ENDBRANCH  14  15
ENDBRANCH  13  14
ENDBRANCH   1  13
TORSDOF 20
ENDMDL
MODEL 3
REMARK VINA RESULT:     3.822      4.608      7.596
REMARK INTER + INTRA:           7.350
REMARK INTER:                   9.187
REMARK INTRA:                  -1.837
REMARK UNBOUND:                -0.939
REMARK SMILES CCCCCCCCCCCCCCCCCCCCCC(=O)[O-]
REMARK SMILES IDX 12 1 11 2 10 3 9 4 8 5 7 6 6 7 5 8 4 9 3 10 2 11 1 12 13 13
REMARK SMILES IDX 14 14 15 15 16 16 17 17 18 18 19 19 20 20 21 21 22 22 23 23
REMARK SMILES IDX 24 24
REMARK H PARENT
REMARK Flexibility Score: inf
ROOT
ATOM      1  C   UNL     1      -0.693   0.371   0.654  1.00  0.00     0.000 C 
ENDROOT
BRANCH   1   2
ATOM      2  C   UNL     1       0.418  -0.689   0.650  1.00  0.00     0.000 C 
BRANCH   2   3
ATOM      3  C   UNL     1       0.241  -1.745  -0.457  1.00  0.00     0.000 C 
BRANCH   3   4
ATOM      4  C   UNL     1       1.241  -1.646  -1.625  1.00  0.00    -0.000 C 
BRANCH   4   5
ATOM      5  C   UNL     1       2.229  -0.478  -1.473  1.00  0.00    -0.000 C 
BRANCH   5   6
ATOM      6  C   UNL     1       2.006   0.638  -2.511  1.00  0.00    -0.000 C 
BRANCH   6   7
ATOM      7  C   UNL     1       2.345   2.064  -2.036  1.00  0.00    -0.000 C 
BRANCH   7   8
ATOM      8  C   UNL     1       3.123   2.087  -0.710  1.00  0.00    -0.000 C 
BRANCH   8   9
ATOM      9  C   UNL     1       2.849   3.352   0.126  1.00  0.00    -0.000 C 
BRANCH   9  10
ATOM     10  C   UNL     1       2.025   4.442  -0.584  1.00  0.00    -0.000 C 
BRANCH  10  11
ATOM     11  C   UNL     1       2.750   5.795  -0.654  1.00  0.00    -0.003 C 
ATOM     12  C   UNL     1       4.116   5.722   0.023  1.00  0.00     0.004 C 
ENDBRANCH  10  11
ENDBRANCH   9  10
ENDBRANCH   8   9
ENDBRANCH   7   8
ENDBRANCH   6   7
ENDBRANCH   5   6
ENDBRANCH   4   5
ENDBRANCH   3   4
ENDBRANCH   2   3
ENDBRANCH   1   2
BRANCH   1  13
ATOM     13  C   UNL     1      -0.456   1.420  -0.443  1.00  0.00     0.000 C 
BRANCH  13  14
ATOM     14  C   UNL     1      -1.573   1.435  -1.500  1.00  0.00     0.000 C 
BRANCH  14  15
ATOM     15  C   UNL     1      -1.404   0.325  -2.552  1.00  0.00     0.000 C 
BRANCH  15  16
ATOM     16  C   UNL     1      -2.260  -0.915  -2.247  1.00  0.00     0.000 C 
BRANCH  16  17
ATOM     17  C   UNL     1      -3.178  -0.719  -1.027  1.00  0.00     0.000 C 
BRANCH  17  18
ATOM     18  C   UNL     1      -3.580  -2.050  -0.373  1.00  0.00     0.000 C 
BRANCH  18  19
ATOM     19  C   UNL     1      -3.141  -3.272  -1.199  1.00  0.00     0.000 C 
BRANCH  19  20
ATOM     20  C   UNL     1      -2.506  -4.377  -0.335  1.00  0.00     0.006 C 
BRANCH  20  21
ATOM     21  C   UNL     1      -2.470  -5.762  -1.001  1.00  0.00     0.053 C 
BRANCH  21  22
ATOM     22  C   UNL     1      -3.627  -6.615  -0.584  1.00  0.00     0.041 C 
ATOM     23  O   UNL     1      -4.702  -6.084  -0.199  1.00  0.00    -0.550 OA
ATOM     24  O   UNL     1      -3.510  -8.000  -0.595  1.00  0.00    -0.550 OA
ENDBRANCH  21  22
ENDBRANCH  20  21
ENDBRANCH  19  20
ENDBRANCH  18  19
ENDBRANCH  17  18
ENDBRANCH  16  17
ENDBRANCH  15  16
ENDBRANCH  14  15
ENDBRANCH  13  14
ENDBRANCH   1  13
TORSDOF 20
ENDMDL
MODEL 4
REMARK VINA RESULT:     3.825      4.585      8.261
REMARK INTER + INTRA:           7.358
REMARK INTER:                   8.599
REMARK INTRA:                  -1.241
REMARK UNBOUND:                -0.939
REMARK SMILES CCCCCCCCCCCCCCCCCCCCCC(=O)[O-]
REMARK SMILES IDX 12 1 11 2 10 3 9 4 8 5 7 6 6 7 5 8 4 9 3 10 2 11 1 12 13 13
REMARK SMILES IDX 14 14 15 15 16 16 17 17 18 18 19 19 20 20 21 21 22 22 23 23
REMARK SMILES IDX 24 24
REMARK H PARENT
REMARK Flexibility Score: inf
ROOT
ATOM      1  C   UNL     1       1.618  -1.553  -1.862  1.00  0.00     0.000 C 
ENDROOT
BRANCH   1   2
ATOM      2  C   UNL     1       1.344  -0.209  -2.554  1.00  0.00     0.000 C 
BRANCH   2   3
ATOM      3  C   UNL     1       1.893   0.997  -1.768  1.00  0.00     0.000 C 
BRANCH   3   4
ATOM      4  C   UNL     1       3.023   0.673  -0.772  1.00  0.00    -0.000 C 
BRANCH   4   5
ATOM      5  C   UNL     1       3.606   1.926  -0.099  1.00  0.00    -0.000 C 
BRANCH   5   6
ATOM      6  C   UNL     1       3.333   3.219  -0.892  1.00  0.00    -0.000 C 
BRANCH   6   7
ATOM      7  C   UNL     1       3.556   4.532  -0.117  1.00  0.00    -0.000 C 
BRANCH   7   8
ATOM      8  C   UNL     1       2.533   5.623  -0.476  1.00  0.00    -0.000 C 
BRANCH   8   9
ATOM      9  C   UNL     1       1.190   5.050  -0.966  1.00  0.00    -0.000 C 
BRANCH   9  10
ATOM     10  C   UNL     1       0.250   4.539   0.141  1.00  0.00    -0.000 C 
BRANCH  10  11
ATOM     11  C   UNL     1      -0.041   3.035   0.036  1.00  0.00    -0.003 C 
ATOM     12  C   UNL     1      -0.855   2.718  -1.216  1.00  0.00     0.004 C 
ENDBRANCH  10  11
ENDBRANCH   9  10
ENDBRANCH   8   9
ENDBRANCH   7   8
ENDBRANCH   6   7
ENDBRANCH   5   6
ENDBRANCH   4   5
ENDBRANCH   3   4
ENDBRANCH   2   3
ENDBRANCH   1   2
BRANCH   1  13
ATOM     13  C   UNL     1       0.395  -2.014  -1.054  1.00  0.00     0.000 C 
BRANCH  13  14
ATOM     14  C   UNL     1      -0.087  -0.953  -0.051  1.00  0.00     0.000 C 
BRANCH  14  15
ATOM     15  C   UNL     1      -1.367  -0.238  -0.520  1.00  0.00     0.000 C 
BRANCH  15  16
ATOM     16  C   UNL     1      -1.854  -0.734  -1.891  1.00  0.00     0.000 C 
BRANCH  16  17
ATOM     17  C   UNL     1      -3.135  -1.583  -1.795  1.00  0.00     0.000 C 
BRANCH  17  18
ATOM     18  C   UNL     1      -3.509  -1.922  -0.343  1.00  0.00     0.000 C 
BRANCH  18  19
ATOM     19  C   UNL     1      -3.040  -3.326   0.077  1.00  0.00     0.000 C 
BRANCH  19  20
ATOM     20  C   UNL     1      -2.718  -4.230  -1.127  1.00  0.00     0.006 C 
BRANCH  20  21
ATOM     21  C   UNL     1      -2.365  -5.679  -0.757  1.00  0.00     0.053 C 
BRANCH  21  22
ATOM     22  C   UNL     1      -3.587  -6.526  -0.577  1.00  0.00     0.041 C 
ATOM     23  O   UNL     1      -4.680  -6.000  -0.238  1.00  0.00    -0.550 OA
ATOM     24  O   UNL     1      -3.512  -7.902  -0.757  1.00  0.00    -0.550 OA
ENDBRANCH  21  22
ENDBRANCH  20  21
ENDBRANCH  19  20
ENDBRANCH  18  19
ENDBRANCH  17  18
ENDBRANCH  16  17
ENDBRANCH  15  16
ENDBRANCH  14  15
ENDBRANCH  13  14
ENDBRANCH   1  13
TORSDOF 20
ENDMDL
MODEL 5
REMARK VINA RESULT:     3.909      0.933      4.000
REMARK INTER + INTRA:           7.539
REMARK INTER:                   8.768
REMARK INTRA:                  -1.229
REMARK UNBOUND:                -0.939
REMARK SMILES CCCCCCCCCCCCCCCCCCCCCC(=O)[O-]
REMARK SMILES IDX 12 1 11 2 10 3 9 4 8 5 7 6 6 7 5 8 4 9 3 10 2 11 1 12 13 13
REMARK SMILES IDX 14 14 15 15 16 16 17 17 18 18 19 19 20 20 21 21 22 22 23 23
REMARK SMILES IDX 24 24
REMARK H PARENT
REMARK Flexibility Score: inf
ROOT
ATOM      1  C   UNL     1      -1.614   1.059  -1.578  1.00  0.00     0.000 C 
ENDROOT
BRANCH   1   2
ATOM      2  C   UNL     1      -1.466  -0.267  -2.339  1.00  0.00     0.000 C 
BRANCH   2   3
ATOM      3  C   UNL     1      -2.487  -1.333  -1.899  1.00  0.00     0.000 C 
BRANCH   3   4
ATOM      4  C   UNL     1      -3.058  -1.150  -0.479  1.00  0.00    -0.000 C 
BRANCH   4   5
ATOM      5  C   UNL     1      -3.732  -2.419   0.065  1.00  0.00    -0.000 C 
BRANCH   5   6
ATOM      6  C   UNL     1      -3.650  -3.610  -0.909  1.00  0.00    -0.000 C 
BRANCH   6   7
ATOM      7  C   UNL     1      -3.793  -5.003  -0.267  1.00  0.00    -0.000 C 
BRANCH   7   8
ATOM      8  C   UNL     1      -2.739  -6.006  -0.765  1.00  0.00    -0.000 C 
BRANCH   8   9
ATOM      9  C   UNL     1      -1.395  -5.341  -1.115  1.00  0.00    -0.000 C 
BRANCH   9  10
ATOM     10  C   UNL     1      -0.668  -4.669   0.065  1.00  0.00    -0.000 C 
BRANCH  10  11
ATOM     11  C   UNL     1      -0.044  -3.315  -0.306  1.00  0.00    -0.003 C 
ATOM     12  C   UNL     1       0.700  -3.398  -1.636  1.00  0.00     0.004 C 
ENDBRANCH  10  11
ENDBRANCH   9  10
ENDBRANCH   8   9
ENDBRANCH   7   8
ENDBRANCH   6   7
ENDBRANCH   5   6
ENDBRANCH   4   5
ENDBRANCH   3   4
ENDBRANCH   2   3
ENDBRANCH   1   2
BRANCH   1  13
ATOM     13  C   UNL     1      -0.371   1.342  -0.720  1.00  0.00     0.000 C 
BRANCH  13  14
ATOM     14  C   UNL     1       0.341   0.056  -0.268  1.00  0.00     0.000 C 
BRANCH  14  15
ATOM     15  C   UNL     1       1.551  -0.290  -1.154  1.00  0.00     0.000 C 
BRANCH  15  16
ATOM     16  C   UNL     1       1.828   0.781  -2.222  1.00  0.00     0.000 C 
BRANCH  16  17
ATOM     17  C   UNL     1       3.077   1.624  -1.908  1.00  0.00     0.000 C 
BRANCH  17  18
ATOM     18  C   UNL     1       3.328   1.765  -0.397  1.00  0.00     0.000 C 
BRANCH  18  19
ATOM     19  C   UNL     1       2.633   2.998   0.205  1.00  0.00     0.000 C 
BRANCH  19  20
ATOM     20  C   UNL     1       2.089   3.958  -0.869  1.00  0.00     0.006 C 
BRANCH  20  21
ATOM     21  C   UNL     1       2.100   5.439  -0.462  1.00  0.00     0.053 C 
BRANCH  21  22
ATOM     22  C   UNL     1       3.493   5.961  -0.284  1.00  0.00     0.041 C 
ATOM     23  O   UNL     1       4.401   5.210   0.158  1.00  0.00    -0.550 OA
ATOM     24  O   UNL     1       3.781   7.288  -0.580  1.00  0.00    -0.550 OA
ENDBRANCH  21  22
ENDBRANCH  20  21
ENDBRANCH  19  20
ENDBRANCH  18  19
ENDBRANCH  17  18
ENDBRANCH  16  17
ENDBRANCH  15  16
ENDBRANCH  14  15
ENDBRANCH  13  14
ENDBRANCH   1  13
TORSDOF 20
ENDMDL
MODEL 6
REMARK VINA RESULT:     3.979      1.630      5.177
REMARK INTER + INTRA:           7.693
REMARK INTER:                   8.894
REMARK INTRA:                  -1.201
REMARK UNBOUND:                -0.939
REMARK SMILES CCCCCCCCCCCCCCCCCCCCCC(=O)[O-]
REMARK SMILES IDX 12 1 11 2 10 3 9 4 8 5 7 6 6 7 5 8 4 9 3 10 2 11 1 12 13 13
REMARK SMILES IDX 14 14 15 15 16 16 17 17 18 18 19 19 20 20 21 21 22 22 23 23
REMARK SMILES IDX 24 24
REMARK H PARENT
REMARK Flexibility Score: inf
ROOT
ATOM      1  C   UNL     1      -3.853  -2.259  -0.366  1.00  0.00     0.000 C 
ENDROOT
BRANCH   1   2
ATOM      2  C   UNL     1      -3.311  -0.885  -0.786  1.00  0.00     0.000 C 
BRANCH   2   3
ATOM      3  C   UNL     1      -2.415  -0.946  -2.038  1.00  0.00     0.000 C 
BRANCH   3   4
ATOM      4  C   UNL     1      -1.480   0.262  -2.236  1.00  0.00    -0.000 C 
BRANCH   4   5
ATOM      5  C   UNL     1      -1.225   1.044  -0.937  1.00  0.00    -0.000 C 
BRANCH   5   6
ATOM      6  C   UNL     1      -0.530   2.398  -1.174  1.00  0.00    -0.000 C 
BRANCH   6   7
ATOM      7  C   UNL     1       0.225   2.978   0.037  1.00  0.00    -0.000 C 
BRANCH   7   8
ATOM      8  C   UNL     1       0.390   4.505  -0.032  1.00  0.00    -0.000 C 
BRANCH   8   9
ATOM      9  C   UNL     1       1.680   4.938  -0.754  1.00  0.00    -0.000 C 
BRANCH   9  10
ATOM     10  C   UNL     1       2.991   4.480  -0.088  1.00  0.00    -0.000 C 
BRANCH  10  11
ATOM     11  C   UNL     1       4.061   5.582  -0.048  1.00  0.00    -0.003 C 
ATOM     12  C   UNL     1       3.474   6.934  -0.442  1.00  0.00     0.004 C 
ENDBRANCH  10  11
ENDBRANCH   9  10
ENDBRANCH   8   9
ENDBRANCH   7   8
ENDBRANCH   6   7
ENDBRANCH   5   6
ENDBRANCH   4   5
ENDBRANCH   3   4
ENDBRANCH   2   3
ENDBRANCH   1   2
BRANCH   1  13
ATOM     13  C   UNL     1      -3.176  -3.385  -1.163  1.00  0.00     0.000 C 
BRANCH  13  14
ATOM     14  C   UNL     1      -2.988  -4.667  -0.336  1.00  0.00     0.000 C 
BRANCH  14  15
ATOM     15  C   UNL     1      -1.695  -5.419  -0.698  1.00  0.00     0.000 C 
BRANCH  15  16
ATOM     16  C   UNL     1      -0.476  -4.487  -0.794  1.00  0.00     0.000 C 
BRANCH  16  17
ATOM     17  C   UNL     1      -0.436  -3.442   0.335  1.00  0.00     0.000 C 
BRANCH  17  18
ATOM     18  C   UNL     1       0.084  -2.077  -0.144  1.00  0.00     0.000 C 
BRANCH  18  19
ATOM     19  C   UNL     1       0.750  -2.151  -1.530  1.00  0.00     0.000 C 
BRANCH  19  20
ATOM     20  C   UNL     1       1.516  -0.865  -1.890  1.00  0.00     0.006 C 
BRANCH  20  21
ATOM     21  C   UNL     1       1.967  -0.034  -0.679  1.00  0.00     0.053 C 
BRANCH  21  22
ATOM     22  C   UNL     1       2.874   1.089  -1.075  1.00  0.00     0.041 C 
ATOM     23  O   UNL     1       3.826   1.431  -0.326  1.00  0.00    -0.550 OA
ATOM     24  O   UNL     1       2.650   1.778  -2.262  1.00  0.00    -0.550 OA
ENDBRANCH  21  22
ENDBRANCH  20  21
ENDBRANCH  19  20
ENDBRANCH  18  19
ENDBRANCH  17  18
ENDBRANCH  16  17
ENDBRANCH  15  16
ENDBRANCH  14  15
ENDBRANCH  13  14
ENDBRANCH   1  13
TORSDOF 20
ENDMDL
MODEL 7
REMARK VINA RESULT:     4.147      4.397      8.181
REMARK INTER + INTRA:           8.056
REMARK INTER:                   8.680
REMARK INTRA:                  -0.624
REMARK UNBOUND:                -0.939
REMARK SMILES CCCCCCCCCCCCCCCCCCCCCC(=O)[O-]
REMARK SMILES IDX 12 1 11 2 10 3 9 4 8 5 7 6 6 7 5 8 4 9 3 10 2 11 1 12 13 13
REMARK SMILES IDX 14 14 15 15 16 16 17 17 18 18 19 19 20 20 21 21 22 22 23 23
REMARK SMILES IDX 24 24
REMARK H PARENT
REMARK Flexibility Score: inf
ROOT
ATOM      1  C   UNL     1       0.536   4.124   0.069  1.00  0.00     0.000 C 
ENDROOT
BRANCH   1   2
ATOM      2  C   UNL     1       1.576   4.984  -0.665  1.00  0.00     0.000 C 
BRANCH   2   3
ATOM      3  C   UNL     1       2.985   4.364  -0.659  1.00  0.00     0.000 C 
BRANCH   3   4
ATOM      4  C   UNL     1       3.200   3.230   0.362  1.00  0.00    -0.000 C 
BRANCH   4   5
ATOM      5  C   UNL     1       3.285   1.841  -0.292  1.00  0.00    -0.000 C 
BRANCH   5   6
ATOM      6  C   UNL     1       2.788   1.832  -1.751  1.00  0.00    -0.000 C 
BRANCH   6   7
ATOM      7  C   UNL     1       1.781   0.719  -2.101  1.00  0.00    -0.000 C 
BRANCH   7   8
ATOM      8  C   UNL     1       1.862  -0.487  -1.151  1.00  0.00    -0.000 C 
BRANCH   8   9
ATOM      9  C   UNL     1       0.799  -0.449  -0.038  1.00  0.00    -0.000 C 
BRANCH   9  10
ATOM     10  C   UNL     1      -0.068  -1.716   0.087  1.00  0.00    -0.000 C 
BRANCH  10  11
ATOM     11  C   UNL     1       0.250  -2.769  -0.985  1.00  0.00    -0.003 C 
ATOM     12  C   UNL     1       0.024  -4.181  -0.452  1.00  0.00     0.004 C 
ENDBRANCH  10  11
ENDBRANCH   9  10
ENDBRANCH   8   9
ENDBRANCH   7   8
ENDBRANCH   6   7
ENDBRANCH   5   6
ENDBRANCH   4   5
ENDBRANCH   3   4
ENDBRANCH   2   3
ENDBRANCH   1   2
BRANCH   1  13
ATOM     13  C   UNL     1      -0.500   3.556  -0.914  1.00  0.00     0.000 C 
BRANCH  13  14
ATOM     14  C   UNL     1      -0.689   2.038  -0.763  1.00  0.00     0.000 C 
BRANCH  14  15
ATOM     15  C   UNL     1      -1.825   1.494  -1.648  1.00  0.00     0.000 C 
BRANCH  15  16
ATOM     16  C   UNL     1      -1.405   0.257  -2.458  1.00  0.00     0.000 C 
BRANCH  16  17
ATOM     17  C   UNL     1      -2.269  -0.979  -2.148  1.00  0.00     0.000 C 
BRANCH  17  18
ATOM     18  C   UNL     1      -3.071  -0.824  -0.846  1.00  0.00     0.000 C 
BRANCH  18  19
ATOM     19  C   UNL     1      -3.849  -2.100  -0.476  1.00  0.00     0.000 C 
BRANCH  19  20
ATOM     20  C   UNL     1      -3.253  -3.366  -1.118  1.00  0.00     0.006 C 
BRANCH  20  21
ATOM     21  C   UNL     1      -2.915  -4.485  -0.120  1.00  0.00     0.053 C 
BRANCH  21  22
ATOM     22  C   UNL     1      -3.585  -5.776  -0.477  1.00  0.00     0.041 C 
ATOM     23  O   UNL     1      -2.994  -6.619  -1.202  1.00  0.00    -0.550 OA
ATOM     24  O   UNL     1      -4.875  -6.037  -0.030  1.00  0.00    -0.550 OA
ENDBRANCH  21  22
ENDBRANCH  20  21
ENDBRANCH  19  20
ENDBRANCH  18  19
ENDBRANCH  17  18
ENDBRANCH  16  17
ENDBRANCH  15  16
ENDBRANCH  14  15
ENDBRANCH  13  14
ENDBRANCH   1  13
TORSDOF 20
ENDMDL
MODEL 8
REMARK VINA RESULT:     4.203      3.028      7.332
REMARK INTER + INTRA:           8.178
REMARK INTER:                   8.465
REMARK INTRA:                  -0.286
REMARK UNBOUND:                -0.939
REMARK SMILES CCCCCCCCCCCCCCCCCCCCCC(=O)[O-]
REMARK SMILES IDX 12 1 11 2 10 3 9 4 8 5 7 6 6 7 5 8 4 9 3 10 2 11 1 12 13 13
REMARK SMILES IDX 14 14 15 15 16 16 17 17 18 18 19 19 20 20 21 21 22 22 23 23
REMARK SMILES IDX 24 24
REMARK H PARENT
REMARK Flexibility Score: inf
ROOT
ATOM      1  C   UNL     1       0.145  -0.742   0.463  1.00  0.00     0.000 C 
ENDROOT
BRANCH   1   2
ATOM      2  C   UNL     1      -0.399   0.694   0.453  1.00  0.00     0.000 C 
BRANCH   2   3
ATOM      3  C   UNL     1      -0.531   1.280  -0.965  1.00  0.00     0.000 C 
BRANCH   3   4
ATOM      4  C   UNL     1      -0.582   2.818  -1.039  1.00  0.00    -0.000 C 
BRANCH   4   5
ATOM      5  C   UNL     1       0.224   3.499   0.079  1.00  0.00    -0.000 C 
BRANCH   5   6
ATOM      6  C   UNL     1       0.604   4.955  -0.254  1.00  0.00    -0.000 C 
BRANCH   6   7
ATOM      7  C   UNL     1       2.079   5.184  -0.635  1.00  0.00    -0.000 C 
BRANCH   7   8
ATOM      8  C   UNL     1       3.033   4.159   0.001  1.00  0.00    -0.000 C 
BRANCH   8   9
ATOM      9  C   UNL     1       3.356   2.978  -0.932  1.00  0.00    -0.000 C 
BRANCH   9  10
ATOM     10  C   UNL     1       3.164   1.581  -0.314  1.00  0.00    -0.000 C 
BRANCH  10  11
ATOM     11  C   UNL     1       3.035   0.470  -1.368  1.00  0.00    -0.003 C 
ATOM     12  C   UNL     1       2.028   0.851  -2.449  1.00  0.00     0.004 C 
ENDBRANCH  10  11
ENDBRANCH   9  10
ENDBRANCH   8   9
ENDBRANCH   7   8
ENDBRANCH   6   7
ENDBRANCH   5   6
ENDBRANCH   4   5
ENDBRANCH   3   4
ENDBRANCH   2   3
ENDBRANCH   1   2
BRANCH   1  13
ATOM     13  C   UNL     1       0.426  -1.234  -0.965  1.00  0.00     0.000 C 
BRANCH  13  14
ATOM     14  C   UNL     1       0.247  -2.754  -1.114  1.00  0.00     0.000 C 
BRANCH  14  15
ATOM     15  C   UNL     1      -0.139  -3.436   0.210  1.00  0.00     0.000 C 
BRANCH  15  16
ATOM     16  C   UNL     1      -0.463  -4.929   0.035  1.00  0.00     0.000 C 
BRANCH  16  17
ATOM     17  C   UNL     1      -1.416  -5.196  -1.144  1.00  0.00     0.000 C 
BRANCH  17  18
ATOM     18  C   UNL     1      -2.630  -6.047  -0.737  1.00  0.00     0.000 C 
BRANCH  18  19
ATOM     19  C   UNL     1      -3.854  -5.192  -0.365  1.00  0.00     0.000 C 
BRANCH  19  20
ATOM     20  C   UNL     1      -3.508  -3.701  -0.197  1.00  0.00     0.006 C 
BRANCH  20  21
ATOM     21  C   UNL     1      -3.436  -2.914  -1.514  1.00  0.00     0.053 C 
BRANCH  21  22
ATOM     22  C   UNL     1      -3.024  -1.491  -1.296  1.00  0.00     0.041 C 
ATOM     23  O   UNL     1      -3.379  -0.880  -0.254  1.00  0.00    -0.550 OA
ATOM     24  O   UNL     1      -2.269  -0.830  -2.258  1.00  0.00    -0.550 OA
ENDBRANCH  21  22
ENDBRANCH  20  21
ENDBRANCH  19  20
ENDBRANCH  18  19
ENDBRANCH  17  18
ENDBRANCH  16  17
ENDBRANCH  15  16
ENDBRANCH  14  15
ENDBRANCH  13  14
ENDBRANCH   1  13
TORSDOF 20
ENDMDL
MODEL 9
REMARK VINA RESULT:     4.243      0.998      4.688
REMARK INTER + INTRA:           8.265
REMARK INTER:                   8.359
REMARK INTRA:                  -0.094
REMARK UNBOUND:                -0.939
REMARK SMILES CCCCCCCCCCCCCCCCCCCCCC(=O)[O-]
REMARK SMILES IDX 12 1 11 2 10 3 9 4 8 5 7 6 6 7 5 8 4 9 3 10 2 11 1 12 13 13
REMARK SMILES IDX 14 14 15 15 16 16 17 17 18 18 19 19 20 20 21 21 22 22 23 23
REMARK SMILES IDX 24 24
REMARK H PARENT
REMARK Flexibility Score: inf
ROOT
ATOM      1  C   UNL     1      -0.710   1.134  -0.793  1.00  0.00     0.000 C 
ENDROOT
BRANCH   1   2
ATOM      2  C   UNL     1      -1.956   0.554  -1.478  1.00  0.00     0.000 C 
BRANCH   2   3
ATOM      3  C   UNL     1      -1.659  -0.718  -2.295  1.00  0.00     0.000 C 
BRANCH   3   4
ATOM      4  C   UNL     1      -2.729  -1.823  -2.204  1.00  0.00    -0.000 C 
BRANCH   4   5
ATOM      5  C   UNL     1      -3.308  -1.982  -0.789  1.00  0.00    -0.000 C 
BRANCH   5   6
ATOM      6  C   UNL     1      -2.540  -3.009   0.064  1.00  0.00    -0.000 C 
BRANCH   6   7
ATOM      7  C   UNL     1      -1.004  -2.893   0.020  1.00  0.00    -0.000 C 
BRANCH   7   8
ATOM      8  C   UNL     1      -0.316  -4.180  -0.466  1.00  0.00    -0.000 C 
BRANCH   8   9
ATOM      9  C   UNL     1      -1.210  -5.427  -0.330  1.00  0.00    -0.000 C 
BRANCH   9  10
ATOM     10  C   UNL     1      -2.483  -5.420  -1.197  1.00  0.00    -0.000 C 
BRANCH  10  11
ATOM     11  C   UNL     1      -3.457  -6.555  -0.845  1.00  0.00    -0.003 C 
ATOM     12  C   UNL     1      -4.593  -6.050   0.040  1.00  0.00     0.004 C 
ENDBRANCH  10  11
ENDBRANCH   9  10
ENDBRANCH   8   9
ENDBRANCH   7   8
ENDBRANCH   6   7
ENDBRANCH   5   6
ENDBRANCH   4   5
ENDBRANCH   3   4
ENDBRANCH   2   3
ENDBRANCH   1   2
BRANCH   1  13
ATOM     13  C   UNL     1       0.076   0.036  -0.061  1.00  0.00     0.000 C 
BRANCH  13  14
ATOM     14  C   UNL     1       1.287  -0.464  -0.866  1.00  0.00     0.000 C 
BRANCH  14  15
ATOM     15  C   UNL     1       1.471   0.300  -2.189  1.00  0.00     0.000 C 
BRANCH  15  16
ATOM     16  C   UNL     1       2.429   1.495  -2.054  1.00  0.00     0.000 C 
BRANCH  16  17
ATOM     17  C   UNL     1       3.156   1.525  -0.698  1.00  0.00     0.000 C 
BRANCH  17  18
ATOM     18  C   UNL     1       3.088   2.905  -0.024  1.00  0.00     0.000 C 
BRANCH  18  19
ATOM     19  C   UNL     1       1.643   3.360   0.249  1.00  0.00     0.000 C 
BRANCH  19  20
ATOM     20  C   UNL     1       1.385   4.812  -0.193  1.00  0.00     0.006 C 
BRANCH  20  21
ATOM     21  C   UNL     1       2.457   5.392  -1.129  1.00  0.00     0.053 C 
BRANCH  21  22
ATOM     22  C   UNL     1       3.460   6.220  -0.387  1.00  0.00     0.041 C 
ATOM     23  O   UNL     1       3.375   7.476  -0.393  1.00  0.00    -0.550 OA
ATOM     24  O   UNL     1       4.508   5.604   0.288  1.00  0.00    -0.550 OA
ENDBRANCH  21  22
ENDBRANCH  20  21
ENDBRANCH  19  20
ENDBRANCH  18  19
ENDBRANCH  17  18
ENDBRANCH  16  17
ENDBRANCH  15  16
ENDBRANCH  14  15
ENDBRANCH  13  14
ENDBRANCH   1  13
TORSDOF 20
ENDMDL
