MODEL 1
REMARK VINA RESULT:    -0.316      0.000      0.000
REMARK INTER + INTRA:          -1.366
REMARK INTER:                  -0.594
REMARK INTRA:                  -0.772
REMARK UNBOUND:                -0.772
REMARK SMILES O=C([O-])CCCCCCCCCCCCCCC(=O)[O-]
REMARK SMILES IDX 10 1 9 2 8 3 7 4 6 5 5 6 4 7 2 8 1 9 3 10 11 11 12 12 13 13
REMARK SMILES IDX 14 14 15 15 16 16 17 17 18 18 19 19 20 20
REMARK H PARENT
REMARK Flexibility Score: inf
ROOT
ATOM      1  C   UNL     1      36.524 105.597 263.112  1.00  0.00     0.000 C 
ENDROOT
BRANCH   1   2
ATOM      2  C   UNL     1      37.500 106.715 263.507  1.00  0.00     0.000 C 
BRANCH   2   3
ATOM      3  C   UNL     1      38.901 106.529 262.896  1.00  0.00     0.000 C 
BRANCH   3   4
ATOM      4  C   UNL     1      38.950 106.574 261.355  1.00  0.00     0.000 C 
BRANCH   4   5
ATOM      5  C   UNL     1      39.284 105.233 260.670  1.00  0.00     0.000 C 
BRANCH   5   6
ATOM      6  C   UNL     1      38.380 104.870 259.480  1.00  0.00     0.006 C 
BRANCH   6   7
ATOM      7  C   UNL     1      36.887 104.996 259.805  1.00  0.00     0.053 C 
BRANCH   7   8
ATOM      8  C   UNL     1      36.219 105.925 258.843  1.00  0.00     0.041 C 
ATOM      9  O   UNL     1      36.469 107.159 258.875  1.00  0.00    -0.550 OA
ATOM     10  O   UNL     1      35.357 105.422 257.875  1.00  0.00    -0.550 OA
ENDBRANCH   7   8
ENDBRANCH   6   7
ENDBRANCH   5   6
ENDBRANCH   4   5
ENDBRANCH   3   4
ENDBRANCH   2   3
ENDBRANCH   1   2
BRANCH   1  11
ATOM     11  C   UNL     1      35.127 105.859 263.694  1.00  0.00     0.000 C 
BRANCH  11  12
ATOM     12  C   UNL     1      34.883 105.107 265.012  1.00  0.00     0.000 C 
BRANCH  12  13
ATOM     13  C   UNL     1      34.877 106.039 266.233  1.00  0.00     0.000 C 
BRANCH  13  14
ATOM     14  C   UNL     1      34.988 107.507 265.805  1.00  0.00     0.000 C 
BRANCH  14  15
ATOM     15  C   UNL     1      35.076 108.431 267.028  1.00  0.00     0.000 C 
BRANCH  15  16
ATOM     16  C   UNL     1      35.873 107.809 268.190  1.00  0.00     0.006 C 
BRANCH  16  17
ATOM     17  C   UNL     1      35.005 107.113 269.251  1.00  0.00     0.053 C 
BRANCH  17  18
ATOM     18  C   UNL     1      35.751 106.024 269.959  1.00  0.00     0.041 C 
ATOM     19  O   UNL     1      35.291 104.851 269.982  1.00  0.00    -0.550 OA
ATOM     20  O   UNL     1      36.939 106.310 270.620  1.00  0.00    -0.550 OA
ENDBRANCH  17  18
ENDBRANCH  16  17
ENDBRANCH  15  16
ENDBRANCH  14  15
ENDBRANCH  13  14
ENDBRANCH  12  13
ENDBRANCH  11  12
ENDBRANCH   1  11
TORSDOF 15
ENDMDL
MODEL 2
REMARK VINA RESULT:    -0.002      2.142      7.930
REMARK INTER + INTRA:          -0.776
REMARK INTER:                  -2.093
REMARK INTRA:                   1.317
REMARK UNBOUND:                -0.772
REMARK SMILES O=C([O-])CCCCCCCCCCCCCCC(=O)[O-]
REMARK SMILES IDX 10 1 9 2 8 3 7 4 6 5 5 6 4 7 2 8 1 9 3 10 11 11 12 12 13 13
REMARK SMILES IDX 14 14 15 15 16 16 17 17 18 18 19 19 20 20
REMARK H PARENT
REMARK Flexibility Score: inf
ROOT
ATOM      1  C   UNL     1      36.201 107.631 266.735  1.00  0.00     0.000 C 
ENDROOT
BRANCH   1   2
ATOM      2  C   UNL     1      35.244 107.147 267.834  1.00  0.00     0.000 C 
BRANCH   2   3
ATOM      3  C   UNL     1      35.861 107.222 269.242  1.00  0.00     0.000 C 
BRANCH   3   4
ATOM      4  C   UNL     1      35.547 106.020 270.155  1.00  0.00     0.000 C 
BRANCH   4   5
ATOM      5  C   UNL     1      34.875 104.821 269.454  1.00  0.00     0.000 C 
BRANCH   5   6
ATOM      6  C   UNL     1      35.012 104.807 267.922  1.00  0.00     0.006 C 
BRANCH   6   7
ATOM      7  C   UNL     1      34.875 103.401 267.325  1.00  0.00     0.053 C 
BRANCH   7   8
ATOM      8  C   UNL     1      35.608 103.312 266.024  1.00  0.00     0.041 C 
ATOM      9  O   UNL     1      35.104 103.801 264.978  1.00  0.00    -0.550 OA
ATOM     10  O   UNL     1      36.871 102.735 265.974  1.00  0.00    -0.550 OA
ENDBRANCH   7   8
ENDBRANCH   6   7
ENDBRANCH   5   6
ENDBRANCH   4   5
ENDBRANCH   3   4
ENDBRANCH   2   3
ENDBRANCH   1   2
BRANCH   1  11
ATOM     11  C   UNL     1      35.438 107.936 265.437  1.00  0.00     0.000 C 
BRANCH  11  12
ATOM     12  C   UNL     1      34.937 106.666 264.732  1.00  0.00     0.000 C 
BRANCH  12  13
ATOM     13  C   UNL     1      34.939 106.799 263.201  1.00  0.00     0.000 C 
BRANCH  13  14
ATOM     14  C   UNL     1      35.899 105.787 262.563  1.00  0.00     0.000 C 
BRANCH  14  15
ATOM     15  C   UNL     1      37.291 106.403 262.359  1.00  0.00     0.000 C 
BRANCH  15  16
ATOM     16  C   UNL     1      37.983 105.901 261.078  1.00  0.00     0.006 C 
BRANCH  16  17
ATOM     17  C   UNL     1      37.144 104.911 260.252  1.00  0.00     0.053 C 
BRANCH  17  18
ATOM     18  C   UNL     1      37.337 105.106 258.779  1.00  0.00     0.041 C 
ATOM     19  O   UNL     1      38.463 104.901 258.253  1.00  0.00    -0.550 OA
ATOM     20  O   UNL     1      36.280 105.546 257.992  1.00  0.00    -0.550 OA
ENDBRANCH  17  18
ENDBRANCH  16  17
ENDBRANCH  15  16
ENDBRANCH  14  15
ENDBRANCH  13  14
ENDBRANCH  12  13
ENDBRANCH  11  12
ENDBRANCH   1  11
TORSDOF 15
ENDMDL
MODEL 3
REMARK VINA RESULT:     0.424      1.465      9.059
REMARK INTER + INTRA:           0.023
REMARK INTER:                  -0.527
REMARK INTRA:                   0.549
REMARK UNBOUND:                -0.772
REMARK SMILES O=C([O-])CCCCCCCCCCCCCCC(=O)[O-]
REMARK SMILES IDX 10 1 9 2 8 3 7 4 6 5 5 6 4 7 2 8 1 9 3 10 11 11 12 12 13 13
REMARK SMILES IDX 14 14 15 15 16 16 17 17 18 18 19 19 20 20
REMARK H PARENT
REMARK Flexibility Score: inf
ROOT
ATOM      1  C   UNL     1      35.935 108.094 266.107  1.00  0.00     0.000 C 
ENDROOT
BRANCH   1   2
ATOM      2  C   UNL     1      34.993 108.601 267.208  1.00  0.00     0.000 C 
BRANCH   2   3
ATOM      3  C   UNL     1      34.882 107.629 268.396  1.00  0.00     0.000 C 
BRANCH   3   4
ATOM      4  C   UNL     1      34.876 106.134 268.015  1.00  0.00     0.000 C 
BRANCH   4   5
ATOM      5  C   UNL     1      35.356 105.174 269.122  1.00  0.00     0.000 C 
BRANCH   5   6
ATOM      6  C   UNL     1      35.850 105.860 270.407  1.00  0.00     0.006 C 
BRANCH   6   7
ATOM      7  C   UNL     1      37.070 106.758 270.171  1.00  0.00     0.053 C 
BRANCH   7   8
ATOM      8  C   UNL     1      38.255 106.238 270.920  1.00  0.00     0.041 C 
ATOM      9  O   UNL     1      38.265 105.054 271.349  1.00  0.00    -0.550 OA
ATOM     10  O   UNL     1      39.373 107.044 271.101  1.00  0.00    -0.550 OA
ENDBRANCH   7   8
ENDBRANCH   6   7
ENDBRANCH   5   6
ENDBRANCH   4   5
ENDBRANCH   3   4
ENDBRANCH   2   3
ENDBRANCH   1   2
BRANCH   1  11
ATOM     11  C   UNL     1      35.158 107.312 265.037  1.00  0.00     0.000 C 
BRANCH  11  12
ATOM     12  C   UNL     1      35.269 105.790 265.217  1.00  0.00     0.000 C 
BRANCH  12  13
ATOM     13  C   UNL     1      35.351 105.040 263.879  1.00  0.00     0.000 C 
BRANCH  13  14
ATOM     14  C   UNL     1      35.610 106.010 262.720  1.00  0.00     0.000 C 
BRANCH  14  15
ATOM     15  C   UNL     1      36.281 105.291 261.541  1.00  0.00     0.000 C 
BRANCH  15  16
ATOM     16  C   UNL     1      37.580 105.980 261.082  1.00  0.00     0.006 C 
BRANCH  16  17
ATOM     17  C   UNL     1      38.166 105.421 259.776  1.00  0.00     0.053 C 
BRANCH  17  18
ATOM     18  C   UNL     1      37.225 105.589 258.622  1.00  0.00     0.041 C 
ATOM     19  O   UNL     1      36.760 106.726 258.343  1.00  0.00    -0.550 OA
ATOM     20  O   UNL     1      36.836 104.484 257.875  1.00  0.00    -0.550 OA
ENDBRANCH  17  18
ENDBRANCH  16  17
ENDBRANCH  15  16
ENDBRANCH  14  15
ENDBRANCH  13  14
ENDBRANCH  12  13
ENDBRANCH  11  12
ENDBRANCH   1  11
TORSDOF 15
ENDMDL
MODEL 4
REMARK VINA RESULT:     0.674      1.678      8.265
REMARK INTER + INTRA:           0.493
REMARK INTER:                   0.120
REMARK INTRA:                   0.373
REMARK UNBOUND:                -0.772
REMARK SMILES O=C([O-])CCCCCCCCCCCCCCC(=O)[O-]
REMARK SMILES IDX 10 1 9 2 8 3 7 4 6 5 5 6 4 7 2 8 1 9 3 10 11 11 12 12 13 13
REMARK SMILES IDX 14 14 15 15 16 16 17 17 18 18 19 19 20 20
REMARK H PARENT
REMARK Flexibility Score: inf
ROOT
ATOM      1  C   UNL     1      37.356 106.694 263.330  1.00  0.00     0.000 C 
ENDROOT
BRANCH   1   2
ATOM      2  C   UNL     1      36.465 105.741 262.520  1.00  0.00     0.000 C 
BRANCH   2   3
ATOM      3  C   UNL     1      35.423 105.013 263.388  1.00  0.00     0.000 C 
BRANCH   3   4
ATOM      4  C   UNL     1      35.972 104.415 264.699  1.00  0.00     0.000 C 
BRANCH   4   5
ATOM      5  C   UNL     1      34.920 104.169 265.799  1.00  0.00     0.000 C 
BRANCH   5   6
ATOM      6  C   UNL     1      34.875 105.237 266.905  1.00  0.00     0.006 C 
BRANCH   6   7
ATOM      7  C   UNL     1      35.718 106.474 266.573  1.00  0.00     0.053 C 
BRANCH   7   8
ATOM      8  C   UNL     1      35.209 107.669 267.314  1.00  0.00     0.041 C 
ATOM      9  O   UNL     1      35.028 108.760 266.711  1.00  0.00    -0.550 OA
ATOM     10  O   UNL     1      34.884 107.565 268.661  1.00  0.00    -0.550 OA
ENDBRANCH   7   8
ENDBRANCH   6   7
ENDBRANCH   5   6
ENDBRANCH   4   5
ENDBRANCH   3   4
ENDBRANCH   2   3
ENDBRANCH   1   2
BRANCH   1  11
ATOM     11  C   UNL     1      38.828 106.555 262.912  1.00  0.00     0.000 C 
BRANCH  11  12
ATOM     12  C   UNL     1      38.999 106.356 261.398  1.00  0.00     0.000 C 
BRANCH  12  13
ATOM     13  C   UNL     1      38.066 105.273 260.835  1.00  0.00     0.000 C 
BRANCH  13  14
ATOM     14  C   UNL     1      38.647 104.657 259.557  1.00  0.00     0.000 C 
BRANCH  14  15
ATOM     15  C   UNL     1      37.657 104.774 258.389  1.00  0.00     0.000 C 
BRANCH  15  16
ATOM     16  C   UNL     1      36.238 105.160 258.847  1.00  0.00     0.006 C 
BRANCH  16  17
ATOM     17  C   UNL     1      35.532 106.174 257.931  1.00  0.00     0.053 C 
BRANCH  17  18
ATOM     18  C   UNL     1      35.687 107.579 258.426  1.00  0.00     0.041 C 
ATOM     19  O   UNL     1      36.492 107.839 259.359  1.00  0.00    -0.550 OA
ATOM     20  O   UNL     1      34.918 108.598 257.878  1.00  0.00    -0.550 OA
ENDBRANCH  17  18
ENDBRANCH  16  17
ENDBRANCH  15  16
ENDBRANCH  14  15
ENDBRANCH  13  14
ENDBRANCH  12  13
ENDBRANCH  11  12
ENDBRANCH   1  11
TORSDOF 15
ENDMDL
MODEL 5
REMARK VINA RESULT:     0.863      1.749      2.998
REMARK INTER + INTRA:           0.848
REMARK INTER:                  -0.121
REMARK INTRA:                   0.969
REMARK UNBOUND:                -0.772
REMARK SMILES O=C([O-])CCCCCCCCCCCCCCC(=O)[O-]
REMARK SMILES IDX 10 1 9 2 8 3 7 4 6 5 5 6 4 7 2 8 1 9 3 10 11 11 12 12 13 13
REMARK SMILES IDX 14 14 15 15 16 16 17 17 18 18 19 19 20 20
REMARK H PARENT
REMARK Flexibility Score: inf
ROOT
ATOM      1  C   UNL     1      35.009 104.250 265.410  1.00  0.00     0.000 C 
ENDROOT
BRANCH   1   2
ATOM      2  C   UNL     1      34.879 103.017 264.503  1.00  0.00     0.000 C 
BRANCH   2   3
ATOM      3  C   UNL     1      34.899 103.371 263.005  1.00  0.00     0.000 C 
BRANCH   3   4
ATOM      4  C   UNL     1      35.305 104.824 262.685  1.00  0.00     0.000 C 
BRANCH   4   5
ATOM      5  C   UNL     1      36.172 104.999 261.422  1.00  0.00     0.000 C 
BRANCH   5   6
ATOM      6  C   UNL     1      37.251 106.091 261.522  1.00  0.00     0.006 C 
BRANCH   6   7
ATOM      7  C   UNL     1      38.215 106.087 260.330  1.00  0.00     0.053 C 
BRANCH   7   8
ATOM      8  C   UNL     1      37.486 105.748 259.069  1.00  0.00     0.041 C 
ATOM      9  O   UNL     1      37.830 104.746 258.388  1.00  0.00    -0.550 OA
ATOM     10  O   UNL     1      36.393 106.508 258.671  1.00  0.00    -0.550 OA
ENDBRANCH   7   8
ENDBRANCH   6   7
ENDBRANCH   5   6
ENDBRANCH   4   5
ENDBRANCH   3   4
ENDBRANCH   2   3
ENDBRANCH   1   2
BRANCH   1  11
ATOM     11  C   UNL     1      34.921 103.853 266.891  1.00  0.00     0.000 C 
BRANCH  11  12
ATOM     12  C   UNL     1      34.961 105.065 267.833  1.00  0.00     0.000 C 
BRANCH  12  13
ATOM     13  C   UNL     1      34.875 106.403 267.082  1.00  0.00     0.000 C 
BRANCH  13  14
ATOM     14  C   UNL     1      35.076 107.584 268.038  1.00  0.00     0.000 C 
BRANCH  14  15
ATOM     15  C   UNL     1      34.971 107.131 269.502  1.00  0.00     0.000 C 
BRANCH  15  16
ATOM     16  C   UNL     1      35.953 105.996 269.847  1.00  0.00     0.006 C 
BRANCH  16  17
ATOM     17  C   UNL     1      37.436 106.384 269.727  1.00  0.00     0.053 C 
BRANCH  17  18
ATOM     18  C   UNL     1      38.189 106.119 270.995  1.00  0.00     0.041 C 
ATOM     19  O   UNL     1      38.074 105.011 271.582  1.00  0.00    -0.550 OA
ATOM     20  O   UNL     1      38.992 107.109 271.546  1.00  0.00    -0.550 OA
ENDBRANCH  17  18
ENDBRANCH  16  17
ENDBRANCH  15  16
ENDBRANCH  14  15
ENDBRANCH  13  14
ENDBRANCH  12  13
ENDBRANCH  11  12
ENDBRANCH   1  11
TORSDOF 15
ENDMDL
MODEL 6
REMARK VINA RESULT:     1.319      2.287      3.498
REMARK INTER + INTRA:           1.704
REMARK INTER:                   2.215
REMARK INTRA:                  -0.511
REMARK UNBOUND:                -0.772
REMARK SMILES O=C([O-])CCCCCCCCCCCCCCC(=O)[O-]
REMARK SMILES IDX 10 1 9 2 8 3 7 4 6 5 5 6 4 7 2 8 1 9 3 10 11 11 12 12 13 13
REMARK SMILES IDX 14 14 15 15 16 16 17 17 18 18 19 19 20 20
REMARK H PARENT
REMARK Flexibility Score: inf
ROOT
ATOM      1  C   UNL     1      36.099 103.730 265.681  1.00  0.00     0.000 C 
ENDROOT
BRANCH   1   2
ATOM      2  C   UNL     1      35.657 104.187 264.283  1.00  0.00     0.000 C 
BRANCH   2   3
ATOM      3  C   UNL     1      35.170 105.646 264.257  1.00  0.00     0.000 C 
BRANCH   3   4
ATOM      4  C   UNL     1      35.317 106.357 262.896  1.00  0.00     0.000 C 
BRANCH   4   5
ATOM      5  C   UNL     1      36.016 105.531 261.797  1.00  0.00     0.000 C 
BRANCH   5   6
ATOM      6  C   UNL     1      36.982 106.327 260.903  1.00  0.00     0.006 C 
BRANCH   6   7
ATOM      7  C   UNL     1      38.175 105.492 260.423  1.00  0.00     0.053 C 
BRANCH   7   8
ATOM      8  C   UNL     1      37.869 104.854 259.105  1.00  0.00     0.041 C 
ATOM      9  O   UNL     1      36.689 104.520 258.821  1.00  0.00    -0.550 OA
ATOM     10  O   UNL     1      38.880 104.675 258.168  1.00  0.00    -0.550 OA
ENDBRANCH   7   8
ENDBRANCH   6   7
ENDBRANCH   5   6
ENDBRANCH   4   5
ENDBRANCH   3   4
ENDBRANCH   2   3
ENDBRANCH   1   2
BRANCH   1  11
ATOM     11  C   UNL     1      34.911 103.718 266.655  1.00  0.00     0.000 C 
BRANCH  11  12
ATOM     12  C   UNL     1      34.962 104.873 267.667  1.00  0.00     0.000 C 
BRANCH  12  13
ATOM     13  C   UNL     1      35.799 104.536 268.910  1.00  0.00     0.000 C 
BRANCH  13  14
ATOM     14  C   UNL     1      35.597 105.585 270.010  1.00  0.00     0.000 C 
BRANCH  14  15
ATOM     15  C   UNL     1      34.895 106.834 269.457  1.00  0.00     0.000 C 
BRANCH  15  16
ATOM     16  C   UNL     1      35.885 107.889 268.928  1.00  0.00     0.006 C 
BRANCH  16  17
ATOM     17  C   UNL     1      35.253 108.941 268.001  1.00  0.00     0.053 C 
BRANCH  17  18
ATOM     18  C   UNL     1      35.496 108.632 266.555  1.00  0.00     0.041 C 
ATOM     19  O   UNL     1      36.277 107.699 266.228  1.00  0.00    -0.550 OA
ATOM     20  O   UNL     1      34.886 109.397 265.569  1.00  0.00    -0.550 OA
ENDBRANCH  17  18
ENDBRANCH  16  17
ENDBRANCH  15  16
ENDBRANCH  14  15
ENDBRANCH  13  14
ENDBRANCH  12  13
ENDBRANCH  11  12
ENDBRANCH   1  11
TORSDOF 15
ENDMDL
MODEL 7
REMARK VINA RESULT:     1.442      2.023      8.382
REMARK INTER + INTRA:           1.934
REMARK INTER:                   1.824
REMARK INTRA:                   0.109
REMARK UNBOUND:                -0.772
REMARK SMILES O=C([O-])CCCCCCCCCCCCCCC(=O)[O-]
REMARK SMILES IDX 10 1 9 2 8 3 7 4 6 5 5 6 4 7 2 8 1 9 3 10 11 11 12 12 13 13
REMARK SMILES IDX 14 14 15 15 16 16 17 17 18 18 19 19 20 20
REMARK H PARENT
REMARK Flexibility Score: inf
ROOT
ATOM      1  C   UNL     1      34.875 105.740 264.346  1.00  0.00     0.000 C 
ENDROOT
BRANCH   1   2
ATOM      2  C   UNL     1      35.805 106.850 264.857  1.00  0.00     0.000 C 
BRANCH   2   3
ATOM      3  C   UNL     1      35.272 107.539 266.127  1.00  0.00     0.000 C 
BRANCH   3   4
ATOM      4  C   UNL     1      34.898 106.583 267.277  1.00  0.00     0.000 C 
BRANCH   4   5
ATOM      5  C   UNL     1      35.231 107.098 268.692  1.00  0.00     0.000 C 
BRANCH   5   6
ATOM      6  C   UNL     1      35.854 106.053 269.633  1.00  0.00     0.006 C 
BRANCH   6   7
ATOM      7  C   UNL     1      36.550 106.682 270.846  1.00  0.00     0.053 C 
BRANCH   7   8
ATOM      8  C   UNL     1      37.948 106.167 270.972  1.00  0.00     0.041 C 
ATOM      9  O   UNL     1      38.926 106.953 270.862  1.00  0.00    -0.550 OA
ATOM     10  O   UNL     1      38.172 104.826 271.261  1.00  0.00    -0.550 OA
ENDBRANCH   7   8
ENDBRANCH   6   7
ENDBRANCH   5   6
ENDBRANCH   4   5
ENDBRANCH   3   4
ENDBRANCH   2   3
ENDBRANCH   1   2
BRANCH   1  11
ATOM     11  C   UNL     1      35.634 104.411 264.203  1.00  0.00     0.000 C 
BRANCH  11  12
ATOM     12  C   UNL     1      34.913 103.413 263.284  1.00  0.00     0.000 C 
BRANCH  12  13
ATOM     13  C   UNL     1      35.343 103.543 261.815  1.00  0.00     0.000 C 
BRANCH  13  14
ATOM     14  C   UNL     1      35.925 104.934 261.534  1.00  0.00     0.000 C 
BRANCH  14  15
ATOM     15  C   UNL     1      36.310 105.080 260.054  1.00  0.00     0.000 C 
BRANCH  15  16
ATOM     16  C   UNL     1      37.776 105.510 259.859  1.00  0.00     0.006 C 
BRANCH  16  17
ATOM     17  C   UNL     1      38.712 105.107 261.011  1.00  0.00     0.053 C 
BRANCH  17  18
ATOM     18  C   UNL     1      38.957 106.242 261.958  1.00  0.00     0.041 C 
ATOM     19  O   UNL     1      40.129 106.520 262.326  1.00  0.00    -0.550 OA
ATOM     20  O   UNL     1      37.887 106.973 262.458  1.00  0.00    -0.550 OA
ENDBRANCH  17  18
ENDBRANCH  16  17
ENDBRANCH  15  16
ENDBRANCH  14  15
ENDBRANCH  13  14
ENDBRANCH  12  13
ENDBRANCH  11  12
ENDBRANCH   1  11
TORSDOF 15
ENDMDL
MODEL 8
REMARK VINA RESULT:     1.676      2.476      4.140
REMARK INTER + INTRA:           2.373
REMARK INTER:                   2.985
REMARK INTRA:                  -0.612
REMARK UNBOUND:                -0.772
REMARK SMILES O=C([O-])CCCCCCCCCCCCCCC(=O)[O-]
REMARK SMILES IDX 10 1 9 2 8 3 7 4 6 5 5 6 4 7 2 8 1 9 3 10 11 11 12 12 13 13
REMARK SMILES IDX 14 14 15 15 16 16 17 17 18 18 19 19 20 20
REMARK H PARENT
REMARK Flexibility Score: inf
ROOT
ATOM      1  C   UNL     1      35.755 107.985 266.662  1.00  0.00     0.000 C 
ENDROOT
BRANCH   1   2
ATOM      2  C   UNL     1      35.325 106.691 265.956  1.00  0.00     0.000 C 
BRANCH   2   3
ATOM      3  C   UNL     1      34.876 106.924 264.503  1.00  0.00     0.000 C 
BRANCH   3   4
ATOM      4  C   UNL     1      35.269 105.808 263.514  1.00  0.00     0.000 C 
BRANCH   4   5
ATOM      5  C   UNL     1      36.556 106.071 262.706  1.00  0.00     0.000 C 
BRANCH   5   6
ATOM      6  C   UNL     1      36.605 105.394 261.326  1.00  0.00     0.006 C 
BRANCH   6   7
ATOM      7  C   UNL     1      37.206 106.296 260.241  1.00  0.00     0.053 C 
BRANCH   7   8
ATOM      8  C   UNL     1      36.708 105.893 258.890  1.00  0.00     0.041 C 
ATOM      9  O   UNL     1      36.924 104.731 258.456  1.00  0.00    -0.550 OA
ATOM     10  O   UNL     1      35.959 106.784 258.130  1.00  0.00    -0.550 OA
ENDBRANCH   7   8
ENDBRANCH   6   7
ENDBRANCH   5   6
ENDBRANCH   4   5
ENDBRANCH   3   4
ENDBRANCH   2   3
ENDBRANCH   1   2
BRANCH   1  11
ATOM     11  C   UNL     1      35.122 108.085 268.059  1.00  0.00     0.000 C 
BRANCH  11  12
ATOM     12  C   UNL     1      34.886 106.710 268.702  1.00  0.00     0.000 C 
BRANCH  12  13
ATOM     13  C   UNL     1      35.421 106.628 270.139  1.00  0.00     0.000 C 
BRANCH  13  14
ATOM     14  C   UNL     1      36.557 105.603 270.245  1.00  0.00     0.000 C 
BRANCH  14  15
ATOM     15  C   UNL     1      37.862 106.272 270.700  1.00  0.00     0.000 C 
BRANCH  15  16
ATOM     16  C   UNL     1      38.583 105.482 271.808  1.00  0.00     0.006 C 
BRANCH  16  17
ATOM     17  C   UNL     1      38.033 104.064 272.034  1.00  0.00     0.053 C 
BRANCH  17  18
ATOM     18  C   UNL     1      38.705 103.378 273.184  1.00  0.00     0.041 C 
ATOM     19  O   UNL     1      39.905 103.008 273.088  1.00  0.00    -0.550 OA
ATOM     20  O   UNL     1      37.996 103.119 274.349  1.00  0.00    -0.550 OA
ENDBRANCH  17  18
ENDBRANCH  16  17
ENDBRANCH  15  16
ENDBRANCH  14  15
ENDBRANCH  13  14
ENDBRANCH  12  13
ENDBRANCH  11  12
ENDBRANCH   1  11
TORSDOF 15
ENDMDL
