MODEL 1
REMARK VINA RESULT:    -7.637      0.000      0.000
REMARK INTER + INTRA:         -14.940
REMARK INTER:                 -13.888
REMARK INTRA:                  -1.052
REMARK UNBOUND:                -1.052
REMARK SMILES CCCCCCCCCCCCCCCC(=O)[O-]
REMARK SMILES IDX 9 1 10 2 11 3 12 4 13 5 14 6 15 7 16 8 17 9 18 10 8 11 7 12
REMARK SMILES IDX 6 13 5 14 4 15 3 16 2 17 1 18
REMARK H PARENT
REMARK Flexibility Score: inf
ROOT
ATOM      1  C   UNL     1       6.104  -2.007  21.795  1.00  0.00     0.000 C 
ENDROOT
BRANCH   1   2
ATOM      2  C   UNL     1       6.607  -2.389  20.389  1.00  0.00     0.000 C 
BRANCH   2   3
ATOM      3  C   UNL     1       7.491  -3.655  20.367  1.00  0.00     0.000 C 
BRANCH   3   4
ATOM      4  C   UNL     1       6.684  -4.924  20.040  1.00  0.00     0.000 C 
BRANCH   4   5
ATOM      5  C   UNL     1       6.489  -5.843  21.259  1.00  0.00     0.000 C 
BRANCH   5   6
ATOM      6  C   UNL     1       7.692  -6.743  21.593  1.00  0.00     0.006 C 
BRANCH   6   7
ATOM      7  C   UNL     1       7.443  -8.220  21.264  1.00  0.00     0.053 C 
BRANCH   7   8
ATOM      8  C   UNL     1       6.961  -8.953  22.477  1.00  0.00     0.041 C 
ATOM      9  O   UNL     1       7.258  -8.535  23.627  1.00  0.00    -0.550 OA
ATOM     10  O   UNL     1       6.228 -10.124  22.336  1.00  0.00    -0.550 OA
ENDBRANCH   7   8
ENDBRANCH   6   7
ENDBRANCH   5   6
ENDBRANCH   4   5
ENDBRANCH   3   4
ENDBRANCH   2   3
ENDBRANCH   1   2
BRANCH   1  11
ATOM     11  C   UNL     1       4.757  -2.636  22.201  1.00  0.00     0.000 C 
BRANCH  11  12
ATOM     12  C   UNL     1       3.513  -1.863  21.726  1.00  0.00    -0.000 C 
BRANCH  12  13
ATOM     13  C   UNL     1       2.989  -2.355  20.367  1.00  0.00    -0.000 C 
BRANCH  13  14
ATOM     14  C   UNL     1       2.302  -1.244  19.554  1.00  0.00    -0.000 C 
BRANCH  14  15
ATOM     15  C   UNL     1       3.219  -0.040  19.250  1.00  0.00    -0.000 C 
BRANCH  15  16
ATOM     16  C   UNL     1       3.101   0.422  17.787  1.00  0.00    -0.000 C 
BRANCH  16  17
ATOM     17  C   UNL     1       1.664   0.815  17.408  1.00  0.00    -0.003 C 
ATOM     18  C   UNL     1       1.193   2.082  18.122  1.00  0.00     0.004 C 
ENDBRANCH  16  17
ENDBRANCH  15  16
ENDBRANCH  14  15
ENDBRANCH  13  14
ENDBRANCH  12  13
ENDBRANCH  11  12
ENDBRANCH   1  11
TORSDOF 14
ENDMDL
MODEL 2
REMARK VINA RESULT:    -7.506      4.457      8.698
REMARK INTER + INTRA:         -14.702
REMARK INTER:                 -13.594
REMARK INTRA:                  -1.107
REMARK UNBOUND:                -1.052
REMARK SMILES CCCCCCCCCCCCCCCC(=O)[O-]
REMARK SMILES IDX 9 1 10 2 11 3 12 4 13 5 14 6 15 7 16 8 17 9 18 10 8 11 7 12
REMARK SMILES IDX 6 13 5 14 4 15 3 16 2 17 1 18
REMARK H PARENT
REMARK Flexibility Score: inf
ROOT
ATOM      1  C   UNL     1       5.676  -1.819  21.880  1.00  0.00     0.000 C 
ENDROOT
BRANCH   1   2
ATOM      2  C   UNL     1       6.073  -0.992  20.640  1.00  0.00     0.000 C 
BRANCH   2   3
ATOM      3  C   UNL     1       4.914  -0.770  19.644  1.00  0.00     0.000 C 
BRANCH   3   4
ATOM      4  C   UNL     1       3.831  -1.857  19.757  1.00  0.00     0.000 C 
BRANCH   4   5
ATOM      5  C   UNL     1       2.448  -1.290  20.123  1.00  0.00     0.000 C 
BRANCH   5   6
ATOM      6  C   UNL     1       1.524  -1.008  18.926  1.00  0.00     0.006 C 
BRANCH   6   7
ATOM      7  C   UNL     1       0.890   0.389  18.975  1.00  0.00     0.053 C 
BRANCH   7   8
ATOM      8  C   UNL     1       1.599   1.317  18.040  1.00  0.00     0.041 C 
ATOM      9  O   UNL     1       1.340   2.550  18.054  1.00  0.00    -0.550 OA
ATOM     10  O   UNL     1       2.509   0.815  17.118  1.00  0.00    -0.550 OA
ENDBRANCH   7   8
ENDBRANCH   6   7
ENDBRANCH   5   6
ENDBRANCH   4   5
ENDBRANCH   3   4
ENDBRANCH   2   3
ENDBRANCH   1   2
BRANCH   1  11
ATOM     11  C   UNL     1       6.526  -3.081  22.123  1.00  0.00     0.000 C 
BRANCH  11  12
ATOM     12  C   UNL     1       7.319  -3.573  20.897  1.00  0.00    -0.000 C 
BRANCH  12  13
ATOM     13  C   UNL     1       6.650  -4.766  20.194  1.00  0.00    -0.000 C 
BRANCH  13  14
ATOM     14  C   UNL     1       6.358  -5.935  21.150  1.00  0.00    -0.000 C 
BRANCH  14  15
ATOM     15  C   UNL     1       7.617  -6.722  21.572  1.00  0.00    -0.000 C 
BRANCH  15  16
ATOM     16  C   UNL     1       7.511  -8.216  21.220  1.00  0.00    -0.000 C 
BRANCH  16  17
ATOM     17  C   UNL     1       6.753  -9.020  22.288  1.00  0.00    -0.003 C 
ATOM     18  C   UNL     1       7.120  -8.599  23.711  1.00  0.00     0.004 C 
ENDBRANCH  16  17
ENDBRANCH  15  16
ENDBRANCH  14  15
ENDBRANCH  13  14
ENDBRANCH  12  13
ENDBRANCH  11  12
ENDBRANCH   1  11
TORSDOF 14
ENDMDL
MODEL 3
REMARK VINA RESULT:    -7.398      0.992      1.604
REMARK INTER + INTRA:         -14.505
REMARK INTER:                 -13.751
REMARK INTRA:                  -0.754
REMARK UNBOUND:                -1.052
REMARK SMILES CCCCCCCCCCCCCCCC(=O)[O-]
REMARK SMILES IDX 9 1 10 2 11 3 12 4 13 5 14 6 15 7 16 8 17 9 18 10 8 11 7 12
REMARK SMILES IDX 6 13 5 14 4 15 3 16 2 17 1 18
REMARK H PARENT
REMARK Flexibility Score: inf
ROOT
ATOM      1  C   UNL     1       6.122  -0.935  21.026  1.00  0.00     0.000 C 
ENDROOT
BRANCH   1   2
ATOM      2  C   UNL     1       5.925  -2.218  21.857  1.00  0.00     0.000 C 
BRANCH   2   3
ATOM      3  C   UNL     1       6.859  -3.376  21.444  1.00  0.00     0.000 C 
BRANCH   3   4
ATOM      4  C   UNL     1       6.135  -4.734  21.436  1.00  0.00     0.000 C 
BRANCH   4   5
ATOM      5  C   UNL     1       6.924  -5.830  20.698  1.00  0.00     0.000 C 
BRANCH   5   6
ATOM      6  C   UNL     1       7.678  -6.814  21.610  1.00  0.00     0.006 C 
BRANCH   6   7
ATOM      7  C   UNL     1       7.400  -8.283  21.263  1.00  0.00     0.053 C 
BRANCH   7   8
ATOM      8  C   UNL     1       6.910  -9.022  22.468  1.00  0.00     0.041 C 
ATOM      9  O   UNL     1       6.222 -10.068  22.333  1.00  0.00    -0.550 OA
ATOM     10  O   UNL     1       7.169  -8.527  23.740  1.00  0.00    -0.550 OA
ENDBRANCH   7   8
ENDBRANCH   6   7
ENDBRANCH   5   6
ENDBRANCH   4   5
ENDBRANCH   3   4
ENDBRANCH   2   3
ENDBRANCH   1   2
BRANCH   1  11
ATOM     11  C   UNL     1       5.182  -0.790  19.814  1.00  0.00     0.000 C 
BRANCH  11  12
ATOM     12  C   UNL     1       4.221  -1.974  19.596  1.00  0.00    -0.000 C 
BRANCH  12  13
ATOM     13  C   UNL     1       2.891  -1.810  20.351  1.00  0.00    -0.000 C 
BRANCH  13  14
ATOM     14  C   UNL     1       2.112  -0.555  19.922  1.00  0.00    -0.000 C 
BRANCH  14  15
ATOM     15  C   UNL     1       1.123  -0.805  18.763  1.00  0.00    -0.000 C 
BRANCH  15  16
ATOM     16  C   UNL     1       1.082   0.372  17.773  1.00  0.00    -0.000 C 
BRANCH  16  17
ATOM     17  C   UNL     1       1.794   1.621  18.315  1.00  0.00    -0.003 C 
ATOM     18  C   UNL     1       1.294   2.912  17.665  1.00  0.00     0.004 C 
ENDBRANCH  16  17
ENDBRANCH  15  16
ENDBRANCH  14  15
ENDBRANCH  13  14
ENDBRANCH  12  13
ENDBRANCH  11  12
ENDBRANCH   1  11
TORSDOF 14
ENDMDL
MODEL 4
REMARK VINA RESULT:    -7.235      2.913      7.688
REMARK INTER + INTRA:         -14.210
REMARK INTER:                 -13.005
REMARK INTRA:                  -1.205
REMARK UNBOUND:                -1.052
REMARK SMILES CCCCCCCCCCCCCCCC(=O)[O-]
REMARK SMILES IDX 9 1 10 2 11 3 12 4 13 5 14 6 15 7 16 8 17 9 18 10 8 11 7 12
REMARK SMILES IDX 6 13 5 14 4 15 3 16 2 17 1 18
REMARK H PARENT
REMARK Flexibility Score: inf
ROOT
ATOM      1  C   UNL     1       6.652  -1.950  20.799  1.00  0.00     0.000 C 
ENDROOT
BRANCH   1   2
ATOM      2  C   UNL     1       6.123  -0.502  20.818  1.00  0.00     0.000 C 
BRANCH   2   3
ATOM      3  C   UNL     1       5.738   0.038  19.424  1.00  0.00     0.000 C 
BRANCH   3   4
ATOM      4  C   UNL     1       4.454   0.885  19.461  1.00  0.00     0.000 C 
BRANCH   4   5
ATOM      5  C   UNL     1       3.364   0.365  18.508  1.00  0.00     0.000 C 
BRANCH   5   6
ATOM      6  C   UNL     1       2.015   0.047  19.176  1.00  0.00     0.006 C 
BRANCH   6   7
ATOM      7  C   UNL     1       1.721  -1.458  19.243  1.00  0.00     0.053 C 
BRANCH   7   8
ATOM      8  C   UNL     1       2.798  -2.167  20.002  1.00  0.00     0.041 C 
ATOM      9  O   UNL     1       2.973  -1.928  21.226  1.00  0.00    -0.550 OA
ATOM     10  O   UNL     1       3.642  -3.055  19.347  1.00  0.00    -0.550 OA
ENDBRANCH   7   8
ENDBRANCH   6   7
ENDBRANCH   5   6
ENDBRANCH   4   5
ENDBRANCH   3   4
ENDBRANCH   2   3
ENDBRANCH   1   2
BRANCH   1  11
ATOM     11  C   UNL     1       6.170  -2.838  21.962  1.00  0.00     0.000 C 
BRANCH  11  12
ATOM     12  C   UNL     1       5.733  -4.257  21.553  1.00  0.00    -0.000 C 
BRANCH  12  13
ATOM     13  C   UNL     1       6.688  -4.905  20.537  1.00  0.00    -0.000 C 
BRANCH  13  14
ATOM     14  C   UNL     1       8.033  -5.318  21.161  1.00  0.00    -0.000 C 
BRANCH  14  15
ATOM     15  C   UNL     1       7.976  -6.654  21.930  1.00  0.00    -0.000 C 
BRANCH  15  16
ATOM     16  C   UNL     1       7.187  -7.730  21.164  1.00  0.00    -0.000 C 
BRANCH  16  17
ATOM     17  C   UNL     1       6.833  -8.939  22.044  1.00  0.00    -0.003 C 
ATOM     18  C   UNL     1       7.104  -8.686  23.527  1.00  0.00     0.004 C 
ENDBRANCH  16  17
ENDBRANCH  15  16
ENDBRANCH  14  15
ENDBRANCH  13  14
ENDBRANCH  12  13
ENDBRANCH  11  12
ENDBRANCH   1  11
TORSDOF 14
ENDMDL
MODEL 5
REMARK VINA RESULT:    -7.194      0.907      1.456
REMARK INTER + INTRA:         -14.134
REMARK INTER:                 -13.482
REMARK INTRA:                  -0.652
REMARK UNBOUND:                -1.052
REMARK SMILES CCCCCCCCCCCCCCCC(=O)[O-]
REMARK SMILES IDX 9 1 10 2 11 3 12 4 13 5 14 6 15 7 16 8 17 9 18 10 8 11 7 12
REMARK SMILES IDX 6 13 5 14 4 15 3 16 2 17 1 18
REMARK H PARENT
REMARK Flexibility Score: inf
ROOT
ATOM      1  C   UNL     1       4.540  -2.397  21.986  1.00  0.00     0.000 C 
ENDROOT
BRANCH   1   2
ATOM      2  C   UNL     1       5.319  -3.435  21.156  1.00  0.00     0.000 C 
BRANCH   2   3
ATOM      3  C   UNL     1       6.833  -3.144  21.058  1.00  0.00     0.000 C 
BRANCH   3   4
ATOM      4  C   UNL     1       7.620  -4.337  20.489  1.00  0.00     0.000 C 
BRANCH   4   5
ATOM      5  C   UNL     1       7.764  -5.495  21.492  1.00  0.00     0.000 C 
BRANCH   5   6
ATOM      6  C   UNL     1       6.919  -6.741  21.172  1.00  0.00     0.006 C 
BRANCH   6   7
ATOM      7  C   UNL     1       7.666  -8.054  21.441  1.00  0.00     0.053 C 
BRANCH   7   8
ATOM      8  C   UNL     1       7.047  -8.781  22.594  1.00  0.00     0.041 C 
ATOM      9  O   UNL     1       7.404  -8.519  23.773  1.00  0.00    -0.550 OA
ATOM     10  O   UNL     1       6.112  -9.782  22.364  1.00  0.00    -0.550 OA
ENDBRANCH   7   8
ENDBRANCH   6   7
ENDBRANCH   5   6
ENDBRANCH   4   5
ENDBRANCH   3   4
ENDBRANCH   2   3
ENDBRANCH   1   2
BRANCH   1  11
ATOM     11  C   UNL     1       3.270  -1.841  21.313  1.00  0.00     0.000 C 
BRANCH  11  12
ATOM     12  C   UNL     1       3.066  -2.285  19.852  1.00  0.00    -0.000 C 
BRANCH  12  13
ATOM     13  C   UNL     1       1.825  -1.648  19.204  1.00  0.00    -0.000 C 
BRANCH  13  14
ATOM     14  C   UNL     1       1.756  -0.126  19.415  1.00  0.00    -0.000 C 
BRANCH  14  15
ATOM     15  C   UNL     1       2.474   0.687  18.316  1.00  0.00    -0.000 C 
BRANCH  15  16
ATOM     16  C   UNL     1       1.481   1.412  17.392  1.00  0.00    -0.000 C 
BRANCH  16  17
ATOM     17  C   UNL     1       0.876   2.665  18.045  1.00  0.00    -0.003 C 
ATOM     18  C   UNL     1       1.164   3.940  17.252  1.00  0.00     0.004 C 
ENDBRANCH  16  17
ENDBRANCH  15  16
ENDBRANCH  14  15
ENDBRANCH  13  14
ENDBRANCH  12  13
ENDBRANCH  11  12
ENDBRANCH   1  11
TORSDOF 14
ENDMDL
MODEL 6
REMARK VINA RESULT:    -6.699      1.205      2.160
REMARK INTER + INTRA:         -13.234
REMARK INTER:                 -11.725
REMARK INTRA:                  -1.508
REMARK UNBOUND:                -1.052
REMARK SMILES CCCCCCCCCCCCCCCC(=O)[O-]
REMARK SMILES IDX 9 1 10 2 11 3 12 4 13 5 14 6 15 7 16 8 17 9 18 10 8 11 7 12
REMARK SMILES IDX 6 13 5 14 4 15 3 16 2 17 1 18
REMARK H PARENT
REMARK Flexibility Score: inf
ROOT
ATOM      1  C   UNL     1       4.428  -3.111  19.440  1.00  0.00     0.000 C 
ENDROOT
BRANCH   1   2
ATOM      2  C   UNL     1       5.723  -3.942  19.342  1.00  0.00     0.000 C 
BRANCH   2   3
ATOM      3  C   UNL     1       6.914  -3.332  20.112  1.00  0.00     0.000 C 
BRANCH   3   4
ATOM      4  C   UNL     1       7.245  -4.118  21.393  1.00  0.00     0.000 C 
BRANCH   4   5
ATOM      5  C   UNL     1       7.799  -5.525  21.107  1.00  0.00     0.000 C 
BRANCH   5   6
ATOM      6  C   UNL     1       6.855  -6.683  21.477  1.00  0.00     0.006 C 
BRANCH   6   7
ATOM      7  C   UNL     1       7.555  -8.048  21.478  1.00  0.00     0.053 C 
BRANCH   7   8
ATOM      8  C   UNL     1       6.984  -8.927  22.547  1.00  0.00     0.041 C 
ATOM      9  O   UNL     1       6.246  -9.899  22.239  1.00  0.00    -0.550 OA
ATOM     10  O   UNL     1       7.228  -8.642  23.884  1.00  0.00    -0.550 OA
ENDBRANCH   7   8
ENDBRANCH   6   7
ENDBRANCH   5   6
ENDBRANCH   4   5
ENDBRANCH   3   4
ENDBRANCH   2   3
ENDBRANCH   1   2
BRANCH   1  11
ATOM     11  C   UNL     1       3.998  -2.738  20.872  1.00  0.00     0.000 C 
BRANCH  11  12
ATOM     12  C   UNL     1       2.770  -1.812  20.957  1.00  0.00    -0.000 C 
BRANCH  12  13
ATOM     13  C   UNL     1       2.108  -1.572  19.590  1.00  0.00    -0.000 C 
BRANCH  13  14
ATOM     14  C   UNL     1       2.000  -0.079  19.233  1.00  0.00    -0.000 C 
BRANCH  14  15
ATOM     15  C   UNL     1       2.708   0.296  17.913  1.00  0.00    -0.000 C 
BRANCH  15  16
ATOM     16  C   UNL     1       4.239   0.315  18.064  1.00  0.00    -0.000 C 
BRANCH  16  17
ATOM     17  C   UNL     1       4.689   0.828  19.441  1.00  0.00    -0.003 C 
ATOM     18  C   UNL     1       6.026   0.233  19.882  1.00  0.00     0.004 C 
ENDBRANCH  16  17
ENDBRANCH  15  16
ENDBRANCH  14  15
ENDBRANCH  13  14
ENDBRANCH  12  13
ENDBRANCH  11  12
ENDBRANCH   1  11
TORSDOF 14
ENDMDL
MODEL 7
REMARK VINA RESULT:    -6.615      6.704     11.175
REMARK INTER + INTRA:         -13.082
REMARK INTER:                 -12.617
REMARK INTRA:                  -0.464
REMARK UNBOUND:                -1.052
REMARK SMILES CCCCCCCCCCCCCCCC(=O)[O-]
REMARK SMILES IDX 9 1 10 2 11 3 12 4 13 5 14 6 15 7 16 8 17 9 18 10 8 11 7 12
REMARK SMILES IDX 6 13 5 14 4 15 3 16 2 17 1 18
REMARK H PARENT
REMARK Flexibility Score: inf
ROOT
ATOM      1  C   UNL     1       3.355   0.143  18.899  1.00  0.00     0.000 C 
ENDROOT
BRANCH   1   2
ATOM      2  C   UNL     1       2.550   0.846  17.788  1.00  0.00     0.000 C 
BRANCH   2   3
ATOM      3  C   UNL     1       1.250   1.512  18.288  1.00  0.00     0.000 C 
BRANCH   3   4
ATOM      4  C   UNL     1       0.875   2.753  17.459  1.00  0.00     0.000 C 
BRANCH   4   5
ATOM      5  C   UNL     1       1.730   3.986  17.803  1.00  0.00     0.000 C 
BRANCH   5   6
ATOM      6  C   UNL     1       1.312   5.285  17.093  1.00  0.00     0.006 C 
BRANCH   6   7
ATOM      7  C   UNL     1       2.391   6.374  17.153  1.00  0.00     0.053 C 
BRANCH   7   8
ATOM      8  C   UNL     1       2.019   7.529  16.278  1.00  0.00     0.041 C 
ATOM      9  O   UNL     1       1.199   8.394  16.686  1.00  0.00    -0.550 OA
ATOM     10  O   UNL     1       2.537   7.624  14.993  1.00  0.00    -0.550 OA
ENDBRANCH   7   8
ENDBRANCH   6   7
ENDBRANCH   5   6
ENDBRANCH   4   5
ENDBRANCH   3   4
ENDBRANCH   2   3
ENDBRANCH   1   2
BRANCH   1  11
ATOM     11  C   UNL     1       3.055  -1.359  19.074  1.00  0.00     0.000 C 
BRANCH  11  12
ATOM     12  C   UNL     1       3.704  -2.008  20.310  1.00  0.00    -0.000 C 
BRANCH  12  13
ATOM     13  C   UNL     1       5.172  -1.594  20.499  1.00  0.00    -0.000 C 
BRANCH  13  14
ATOM     14  C   UNL     1       5.904  -2.451  21.547  1.00  0.00    -0.000 C 
BRANCH  14  15
ATOM     15  C   UNL     1       6.962  -3.399  20.944  1.00  0.00    -0.000 C 
BRANCH  15  16
ATOM     16  C   UNL     1       6.463  -4.853  20.873  1.00  0.00    -0.000 C 
BRANCH  16  17
ATOM     17  C   UNL     1       7.547  -5.867  21.269  1.00  0.00    -0.003 C 
ATOM     18  C   UNL     1       7.029  -7.305  21.289  1.00  0.00     0.004 C 
ENDBRANCH  16  17
ENDBRANCH  15  16
ENDBRANCH  14  15
ENDBRANCH  13  14
ENDBRANCH  12  13
ENDBRANCH  11  12
ENDBRANCH   1  11
TORSDOF 14
ENDMDL
MODEL 8
REMARK VINA RESULT:    -6.508      2.860      5.225
REMARK INTER + INTRA:         -12.888
REMARK INTER:                 -12.163
REMARK INTRA:                  -0.725
REMARK UNBOUND:                -1.052
REMARK SMILES CCCCCCCCCCCCCCCC(=O)[O-]
REMARK SMILES IDX 9 1 10 2 11 3 12 4 13 5 14 6 15 7 16 8 17 9 18 10 8 11 7 12
REMARK SMILES IDX 6 13 5 14 4 15 3 16 2 17 1 18
REMARK H PARENT
REMARK Flexibility Score: inf
ROOT
ATOM      1  C   UNL     1       3.106   0.293  18.812  1.00  0.00     0.000 C 
ENDROOT
BRANCH   1   2
ATOM      2  C   UNL     1       2.261  -0.817  19.467  1.00  0.00     0.000 C 
BRANCH   2   3
ATOM      3  C   UNL     1       3.007  -1.598  20.571  1.00  0.00     0.000 C 
BRANCH   3   4
ATOM      4  C   UNL     1       4.373  -2.122  20.093  1.00  0.00     0.000 C 
BRANCH   4   5
ATOM      5  C   UNL     1       5.554  -1.519  20.875  1.00  0.00     0.000 C 
BRANCH   5   6
ATOM      6  C   UNL     1       6.420  -2.541  21.633  1.00  0.00     0.006 C 
BRANCH   6   7
ATOM      7  C   UNL     1       5.894  -3.977  21.512  1.00  0.00     0.053 C 
BRANCH   7   8
ATOM      8  C   UNL     1       6.935  -4.866  20.906  1.00  0.00     0.041 C 
ATOM      9  O   UNL     1       6.840  -6.117  21.014  1.00  0.00    -0.550 OA
ATOM     10  O   UNL     1       8.035  -4.311  20.265  1.00  0.00    -0.550 OA
ENDBRANCH   7   8
ENDBRANCH   6   7
ENDBRANCH   5   6
ENDBRANCH   4   5
ENDBRANCH   3   4
ENDBRANCH   2   3
ENDBRANCH   1   2
BRANCH   1  11
ATOM     11  C   UNL     1       2.699   0.660  17.371  1.00  0.00     0.000 C 
BRANCH  11  12
ATOM     12  C   UNL     1       1.284   1.252  17.230  1.00  0.00    -0.000 C 
BRANCH  12  13
ATOM     13  C   UNL     1       1.061   2.483  18.123  1.00  0.00    -0.000 C 
BRANCH  13  14
ATOM     14  C   UNL     1       0.985   3.795  17.322  1.00  0.00    -0.000 C 
BRANCH  14  15
ATOM     15  C   UNL     1       1.665   4.990  18.024  1.00  0.00    -0.000 C 
BRANCH  15  16
ATOM     16  C   UNL     1       1.593   6.274  17.179  1.00  0.00    -0.000 C 
BRANCH  16  17
ATOM     17  C   UNL     1       2.580   6.259  16.000  1.00  0.00    -0.003 C 
ATOM     18  C   UNL     1       2.379   7.439  15.050  1.00  0.00     0.004 C 
ENDBRANCH  16  17
ENDBRANCH  15  16
ENDBRANCH  14  15
ENDBRANCH  13  14
ENDBRANCH  12  13
ENDBRANCH  11  12
ENDBRANCH   1  11
TORSDOF 14
ENDMDL
