MODEL 1
REMARK VINA RESULT:    -4.091      0.000      0.000
REMARK INTER + INTRA:          -4.464
REMARK INTER:                  -4.450
REMARK INTRA:                  -0.013
REMARK UNBOUND:                -0.013
REMARK SMILES OCc1ccco1
REMARK SMILES IDX 2 1 3 2 5 3 6 4 4 5 7 6 1 7
REMARK H PARENT 1 8
REMARK Flexibility Score: inf
ROOT
ATOM      1  C   UNL     1      44.999  -9.628 -38.960  1.00  0.00     0.231 C 
ENDROOT
BRANCH   1   2
ATOM      2  C   UNL     1      44.480 -10.497 -40.061  1.00  0.00     0.129 A 
ATOM      3  C   UNL     1      43.976 -12.238 -41.302  1.00  0.00     0.042 A 
ATOM      4  C   UNL     1      43.456 -11.076 -41.838  1.00  0.00     0.195 A 
ATOM      5  C   UNL     1      44.636 -11.865 -40.151  1.00  0.00     0.048 A 
ATOM      6  O   UNL     1      43.771 -10.056 -41.074  1.00  0.00    -0.467 OA
ENDBRANCH   1   2
BRANCH   1   7
ATOM      7  O   UNL     1      46.164  -8.971 -39.375  1.00  0.00    -0.388 OA
ATOM      8  H   UNL     1      46.155  -8.076 -38.942  1.00  0.00     0.211 HD
ENDBRANCH   1   7
TORSDOF 2
ENDMDL
MODEL 2
REMARK VINA RESULT:    -3.965      2.643      3.281
REMARK INTER + INTRA:          -4.326
REMARK INTER:                  -4.312
REMARK INTRA:                  -0.014
REMARK UNBOUND:                -0.013
REMARK SMILES OCc1ccco1
REMARK SMILES IDX 2 1 3 2 5 3 6 4 4 5 7 6 1 7
REMARK H PARENT 1 8
REMARK Flexibility Score: inf
ROOT
ATOM      1  C   UNL     1      45.015  -9.485 -39.031  1.00  0.00     0.231 C 
ENDROOT
BRANCH   1   2
ATOM      2  C   UNL     1      43.892 -10.139 -38.291  1.00  0.00     0.129 A 
ATOM      3  C   UNL     1      41.911 -10.904 -37.729  1.00  0.00     0.042 A 
ATOM      4  C   UNL     1      42.867 -11.265 -36.799  1.00  0.00     0.195 A 
ATOM      5  C   UNL     1      42.574 -10.178 -38.696  1.00  0.00     0.048 A 
ATOM      6  O   UNL     1      44.038 -10.796 -37.164  1.00  0.00    -0.467 OA
ENDBRANCH   1   2
BRANCH   1   7
ATOM      7  O   UNL     1      45.413  -8.318 -38.367  1.00  0.00    -0.388 OA
ATOM      8  H   UNL     1      46.406  -8.330 -38.340  1.00  0.00     0.211 HD
ENDBRANCH   1   7
TORSDOF 2
ENDMDL
MODEL 3
REMARK VINA RESULT:    -3.934      2.390      2.756
REMARK INTER + INTRA:          -4.292
REMARK INTER:                  -4.278
REMARK INTRA:                  -0.014
REMARK UNBOUND:                -0.013
REMARK SMILES OCc1ccco1
REMARK SMILES IDX 2 1 3 2 5 3 6 4 4 5 7 6 1 7
REMARK H PARENT 1 8
REMARK Flexibility Score: inf
ROOT
ATOM      1  C   UNL     1      45.067  -9.463 -38.995  1.00  0.00     0.231 C 
ENDROOT
BRANCH   1   2
ATOM      2  C   UNL     1      43.716  -9.982 -38.617  1.00  0.00     0.129 A 
ATOM      3  C   UNL     1      42.055 -10.913 -37.523  1.00  0.00     0.042 A 
ATOM      4  C   UNL     1      41.622 -10.366 -38.715  1.00  0.00     0.195 A 
ATOM      5  C   UNL     1      43.409 -10.663 -37.457  1.00  0.00     0.048 A 
ATOM      6  O   UNL     1      42.635  -9.816 -39.344  1.00  0.00    -0.467 OA
ENDBRANCH   1   2
BRANCH   1   7
ATOM      7  O   UNL     1      45.338  -8.278 -38.300  1.00  0.00    -0.388 OA
ATOM      8  H   UNL     1      45.888  -7.713 -38.904  1.00  0.00     0.211 HD
ENDBRANCH   1   7
TORSDOF 2
ENDMDL
MODEL 4
REMARK VINA RESULT:    -3.848      3.589      4.097
REMARK INTER + INTRA:          -4.199
REMARK INTER:                  -4.178
REMARK INTRA:                  -0.021
REMARK UNBOUND:                -0.013
REMARK SMILES OCc1ccco1
REMARK SMILES IDX 2 1 3 2 5 3 6 4 4 5 7 6 1 7
REMARK H PARENT 1 8
REMARK Flexibility Score: inf
ROOT
ATOM      1  C   UNL     1      42.345  -8.991 -38.551  1.00  0.00     0.231 C 
ENDROOT
BRANCH   1   2
ATOM      2  C   UNL     1      42.445 -10.210 -37.690  1.00  0.00     0.129 A 
ATOM      3  C   UNL     1      42.012 -12.120 -36.695  1.00  0.00     0.042 A 
ATOM      4  C   UNL     1      43.270 -11.658 -36.361  1.00  0.00     0.195 A 
ATOM      5  C   UNL     1      41.479 -11.186 -37.557  1.00  0.00     0.048 A 
ATOM      6  O   UNL     1      43.500 -10.518 -36.972  1.00  0.00    -0.467 OA
ENDBRANCH   1   2
BRANCH   1   7
ATOM      7  O   UNL     1      43.326  -8.061 -38.184  1.00  0.00    -0.388 OA
ATOM      8  H   UNL     1      43.696  -7.690 -39.028  1.00  0.00     0.211 HD
ENDBRANCH   1   7
TORSDOF 2
ENDMDL
MODEL 5
REMARK VINA RESULT:    -3.798      5.220      5.984
REMARK INTER + INTRA:          -4.144
REMARK INTER:                  -4.131
REMARK INTRA:                  -0.013
REMARK UNBOUND:                -0.013
REMARK SMILES OCc1ccco1
REMARK SMILES IDX 2 1 3 2 5 3 6 4 4 5 7 6 1 7
REMARK H PARENT 1 8
REMARK Flexibility Score: inf
ROOT
ATOM      1  C   UNL     1      40.870  -8.019 -45.567  1.00  0.00     0.231 C 
ENDROOT
BRANCH   1   2
ATOM      2  C   UNL     1      40.724  -9.031 -44.475  1.00  0.00     0.129 A 
ATOM      3  C   UNL     1      40.788 -10.041 -42.526  1.00  0.00     0.042 A 
ATOM      4  C   UNL     1      40.142 -10.817 -43.469  1.00  0.00     0.195 A 
ATOM      5  C   UNL     1      41.162  -8.884 -43.175  1.00  0.00     0.048 A 
ATOM      6  O   UNL     1      40.118 -10.186 -44.620  1.00  0.00    -0.467 OA
ENDBRANCH   1   2
BRANCH   1   7
ATOM      7  O   UNL     1      42.043  -8.260 -46.292  1.00  0.00    -0.388 OA
ATOM      8  H   UNL     1      42.795  -8.197 -45.645  1.00  0.00     0.211 HD
ENDBRANCH   1   7
TORSDOF 2
ENDMDL
MODEL 6
REMARK VINA RESULT:    -3.782      2.125      2.659
REMARK INTER + INTRA:          -4.127
REMARK INTER:                  -4.113
REMARK INTRA:                  -0.014
REMARK UNBOUND:                -0.013
REMARK SMILES OCc1ccco1
REMARK SMILES IDX 2 1 3 2 5 3 6 4 4 5 7 6 1 7
REMARK H PARENT 1 8
REMARK Flexibility Score: inf
ROOT
ATOM      1  C   UNL     1      45.000  -9.634 -39.112  1.00  0.00     0.231 C 
ENDROOT
BRANCH   1   2
ATOM      2  C   UNL     1      45.239 -11.096 -38.911  1.00  0.00     0.129 A 
ATOM      3  C   UNL     1      45.940 -13.163 -39.157  1.00  0.00     0.042 A 
ATOM      4  C   UNL     1      45.215 -13.019 -37.991  1.00  0.00     0.195 A 
ATOM      5  C   UNL     1      45.960 -11.919 -39.751  1.00  0.00     0.048 A 
ATOM      6  O   UNL     1      44.812 -11.775 -37.871  1.00  0.00    -0.467 OA
ENDBRANCH   1   2
BRANCH   1   7
ATOM      7  O   UNL     1      46.211  -8.982 -39.382  1.00  0.00    -0.388 OA
ATOM      8  H   UNL     1      46.237  -8.178 -38.799  1.00  0.00     0.211 HD
ENDBRANCH   1   7
TORSDOF 2
ENDMDL
MODEL 7
REMARK VINA RESULT:    -3.737      8.872      8.921
REMARK INTER + INTRA:          -4.078
REMARK INTER:                  -4.057
REMARK INTRA:                  -0.021
REMARK UNBOUND:                -0.013
REMARK SMILES OCc1ccco1
REMARK SMILES IDX 2 1 3 2 5 3 6 4 4 5 7 6 1 7
REMARK H PARENT 1 8
REMARK Flexibility Score: inf
ROOT
ATOM      1  C   UNL     1      47.730 -13.089 -32.300  1.00  0.00     0.231 C 
ENDROOT
BRANCH   1   2
ATOM      2  C   UNL     1      46.409 -13.784 -32.404  1.00  0.00     0.129 A 
ATOM      3  C   UNL     1      44.858 -15.312 -32.691  1.00  0.00     0.042 A 
ATOM      4  C   UNL     1      44.306 -14.109 -32.298  1.00  0.00     0.195 A 
ATOM      5  C   UNL     1      46.219 -15.104 -32.757  1.00  0.00     0.048 A 
ATOM      6  O   UNL     1      45.256 -13.219 -32.132  1.00  0.00    -0.467 OA
ENDBRANCH   1   2
BRANCH   1   7
ATOM      7  O   UNL     1      47.638 -12.018 -31.401  1.00  0.00    -0.388 OA
ATOM      8  H   UNL     1      48.359 -12.148 -30.730  1.00  0.00     0.211 HD
ENDBRANCH   1   7
TORSDOF 2
ENDMDL
MODEL 8
REMARK VINA RESULT:    -3.661      2.446      3.570
REMARK INTER + INTRA:          -3.996
REMARK INTER:                  -3.981
REMARK INTRA:                  -0.014
REMARK UNBOUND:                -0.013
REMARK SMILES OCc1ccco1
REMARK SMILES IDX 2 1 3 2 5 3 6 4 4 5 7 6 1 7
REMARK H PARENT 1 8
REMARK Flexibility Score: inf
ROOT
ATOM      1  C   UNL     1      43.500 -10.978 -41.688  1.00  0.00     0.231 C 
ENDROOT
BRANCH   1   2
ATOM      2  C   UNL     1      42.796 -11.244 -42.981  1.00  0.00     0.129 A 
ATOM      3  C   UNL     1      42.294 -11.997 -44.982  1.00  0.00     0.042 A 
ATOM      4  C   UNL     1      41.263 -11.240 -44.462  1.00  0.00     0.195 A 
ATOM      5  C   UNL     1      43.285 -12.004 -44.024  1.00  0.00     0.048 A 
ATOM      6  O   UNL     1      41.592 -10.807 -43.266  1.00  0.00    -0.467 OA
ENDBRANCH   1   2
BRANCH   1   7
ATOM      7  O   UNL     1      43.874  -9.631 -41.613  1.00  0.00    -0.388 OA
ATOM      8  H   UNL     1      43.061  -9.124 -41.350  1.00  0.00     0.211 HD
ENDBRANCH   1   7
TORSDOF 2
ENDMDL
MODEL 9
REMARK VINA RESULT:    -3.638      7.534      8.230
REMARK INTER + INTRA:          -3.970
REMARK INTER:                  -3.956
REMARK INTRA:                  -0.015
REMARK UNBOUND:                -0.013
REMARK SMILES OCc1ccco1
REMARK SMILES IDX 2 1 3 2 5 3 6 4 4 5 7 6 1 7
REMARK H PARENT 1 8
REMARK Flexibility Score: inf
ROOT
ATOM      1  C   UNL     1      48.187 -13.042 -32.131  1.00  0.00     0.231 C 
ENDROOT
BRANCH   1   2
ATOM      2  C   UNL     1      47.129 -13.642 -33.003  1.00  0.00     0.129 A 
ATOM      3  C   UNL     1      45.513 -14.918 -33.768  1.00  0.00     0.042 A 
ATOM      4  C   UNL     1      45.803 -13.897 -34.652  1.00  0.00     0.195 A 
ATOM      5  C   UNL     1      46.368 -14.752 -32.699  1.00  0.00     0.048 A 
ATOM      6  O   UNL     1      46.769 -13.151 -34.166  1.00  0.00    -0.467 OA
ENDBRANCH   1   2
BRANCH   1   7
ATOM      7  O   UNL     1      47.664 -11.953 -31.423  1.00  0.00    -0.388 OA
ATOM      8  H   UNL     1      48.310 -11.206 -31.534  1.00  0.00     0.211 HD
ENDBRANCH   1   7
TORSDOF 2
ENDMDL
