MODEL 1
REMARK VINA RESULT:    -3.206      0.000      0.000
REMARK INTER + INTRA:         -11.856
REMARK INTER:                  -7.330
REMARK INTRA:                  -4.526
REMARK UNBOUND:                -4.526
REMARK SMILES CCCCCCCCCCCCCCCCCCCCCCCC(=O)[O-]
REMARK SMILES IDX 13 1 14 2 15 3 16 4 17 5 18 6 19 7 20 8 21 9 22 10 23 11
REMARK SMILES IDX 24 12 25 13 26 14 12 15 11 16 10 17 9 18 8 19 7 20 6 21 5 22
REMARK SMILES IDX 4 23 3 24 2 25 1 26
REMARK H PARENT
REMARK Flexibility Score: inf
ROOT
ATOM      1  C   UNL     1      58.147  28.617  50.459  1.00  0.00     0.000 C 
ENDROOT
BRANCH   1   2
ATOM      2  C   UNL     1      59.502  28.545  49.736  1.00  0.00     0.000 C 
BRANCH   2   3
ATOM      3  C   UNL     1      59.981  27.101  49.520  1.00  0.00     0.000 C 
BRANCH   3   4
ATOM      4  C   UNL     1      61.414  26.914  50.042  1.00  0.00     0.000 C 
BRANCH   4   5
ATOM      5  C   UNL     1      61.676  27.683  51.348  1.00  0.00     0.000 C 
BRANCH   5   6
ATOM      6  C   UNL     1      61.742  26.761  52.575  1.00  0.00     0.000 C 
BRANCH   6   7
ATOM      7  C   UNL     1      60.416  26.012  52.774  1.00  0.00     0.000 C 
BRANCH   7   8
ATOM      8  C   UNL     1      60.585  24.697  53.558  1.00  0.00     0.000 C 
BRANCH   8   9
ATOM      9  C   UNL     1      60.531  23.416  52.702  1.00  0.00     0.000 C 
BRANCH   9  10
ATOM     10  C   UNL     1      60.204  23.640  51.211  1.00  0.00     0.006 C 
BRANCH  10  11
ATOM     11  C   UNL     1      61.176  22.954  50.239  1.00  0.00     0.053 C 
BRANCH  11  12
ATOM     12  C   UNL     1      62.572  22.910  50.783  1.00  0.00     0.041 C 
ATOM     13  O   UNL     1      63.066  21.820  51.174  1.00  0.00    -0.550 OA
ATOM     14  O   UNL     1      63.311  24.081  50.894  1.00  0.00    -0.550 OA
ENDBRANCH  11  12
ENDBRANCH  10  11
ENDBRANCH   9  10
ENDBRANCH   8   9
ENDBRANCH   7   8
ENDBRANCH   6   7
ENDBRANCH   5   6
ENDBRANCH   4   5
ENDBRANCH   3   4
ENDBRANCH   2   3
ENDBRANCH   1   2
BRANCH   1  15
ATOM     15  C   UNL     1      58.288  28.971  51.949  1.00  0.00     0.000 C 
BRANCH  15  16
ATOM     16  C   UNL     1      56.981  28.770  52.735  1.00  0.00     0.000 C 
BRANCH  16  17
ATOM     17  C   UNL     1      55.692  28.859  51.894  1.00  0.00     0.000 C 
BRANCH  17  18
ATOM     18  C   UNL     1      54.433  28.285  52.572  1.00  0.00    -0.000 C 
BRANCH  18  19
ATOM     19  C   UNL     1      53.465  27.539  51.631  1.00  0.00    -0.000 C 
BRANCH  19  20
ATOM     20  C   UNL     1      53.935  27.409  50.171  1.00  0.00    -0.000 C 
BRANCH  20  21
ATOM     21  C   UNL     1      53.758  25.991  49.607  1.00  0.00    -0.000 C 
BRANCH  21  22
ATOM     22  C   UNL     1      54.856  25.021  50.078  1.00  0.00    -0.000 C 
BRANCH  22  23
ATOM     23  C   UNL     1      56.281  25.607  49.996  1.00  0.00    -0.000 C 
BRANCH  23  24
ATOM     24  C   UNL     1      57.129  25.245  51.228  1.00  0.00    -0.000 C 
BRANCH  24  25
ATOM     25  C   UNL     1      56.287  25.097  52.504  1.00  0.00    -0.003 C 
ATOM     26  C   UNL     1      56.866  24.074  53.480  1.00  0.00     0.004 C 
ENDBRANCH  24  25
ENDBRANCH  23  24
ENDBRANCH  22  23
ENDBRANCH  21  22
ENDBRANCH  20  21
ENDBRANCH  19  20
ENDBRANCH  18  19
ENDBRANCH  17  18
ENDBRANCH  16  17
ENDBRANCH  15  16
ENDBRANCH   1  15
TORSDOF 22
ENDMDL
MODEL 2
REMARK VINA RESULT:    -3.077      2.307      3.946
REMARK INTER + INTRA:         -11.560
REMARK INTER:                  -7.887
REMARK INTRA:                  -3.673
REMARK UNBOUND:                -4.526
REMARK SMILES CCCCCCCCCCCCCCCCCCCCCCCC(=O)[O-]
REMARK SMILES IDX 13 1 14 2 15 3 16 4 17 5 18 6 19 7 20 8 21 9 22 10 23 11
REMARK SMILES IDX 24 12 25 13 26 14 12 15 11 16 10 17 9 18 8 19 7 20 6 21 5 22
REMARK SMILES IDX 4 23 3 24 2 25 1 26
REMARK H PARENT
REMARK Flexibility Score: inf
ROOT
ATOM      1  C   UNL     1      58.487  28.660  50.745  1.00  0.00     0.000 C 
ENDROOT
BRANCH   1   2
ATOM      2  C   UNL     1      59.286  28.405  49.457  1.00  0.00     0.000 C 
BRANCH   2   3
ATOM      3  C   UNL     1      60.440  27.411  49.666  1.00  0.00     0.000 C 
BRANCH   3   4
ATOM      4  C   UNL     1      59.926  25.963  49.650  1.00  0.00     0.000 C 
BRANCH   4   5
ATOM      5  C   UNL     1      60.114  25.250  51.000  1.00  0.00     0.000 C 
BRANCH   5   6
ATOM      6  C   UNL     1      60.457  23.762  50.842  1.00  0.00     0.000 C 
BRANCH   6   7
ATOM      7  C   UNL     1      61.914  23.577  50.393  1.00  0.00     0.000 C 
BRANCH   7   8
ATOM      8  C   UNL     1      62.906  24.404  51.230  1.00  0.00     0.000 C 
BRANCH   8   9
ATOM      9  C   UNL     1      64.013  25.110  50.420  1.00  0.00     0.000 C 
BRANCH   9  10
ATOM     10  C   UNL     1      63.935  26.650  50.413  1.00  0.00     0.006 C 
BRANCH  10  11
ATOM     11  C   UNL     1      64.130  27.288  49.029  1.00  0.00     0.053 C 
BRANCH  11  12
ATOM     12  C   UNL     1      65.017  28.494  49.090  1.00  0.00     0.041 C 
ATOM     13  O   UNL     1      64.549  29.638  48.846  1.00  0.00    -0.550 OA
ATOM     14  O   UNL     1      66.368  28.350  49.376  1.00  0.00    -0.550 OA
ENDBRANCH  11  12
ENDBRANCH  10  11
ENDBRANCH   9  10
ENDBRANCH   8   9
ENDBRANCH   7   8
ENDBRANCH   6   7
ENDBRANCH   5   6
ENDBRANCH   4   5
ENDBRANCH   3   4
ENDBRANCH   2   3
ENDBRANCH   1   2
BRANCH   1  15
ATOM     15  C   UNL     1      57.127  27.942  50.750  1.00  0.00     0.000 C 
BRANCH  15  16
ATOM     16  C   UNL     1      57.017  26.885  51.864  1.00  0.00     0.000 C 
BRANCH  16  17
ATOM     17  C   UNL     1      56.423  25.531  51.424  1.00  0.00     0.000 C 
BRANCH  17  18
ATOM     18  C   UNL     1      55.978  25.466  49.950  1.00  0.00    -0.000 C 
BRANCH  18  19
ATOM     19  C   UNL     1      54.500  25.090  49.729  1.00  0.00    -0.000 C 
BRANCH  19  20
ATOM     20  C   UNL     1      53.476  26.005  50.425  1.00  0.00    -0.000 C 
BRANCH  20  21
ATOM     21  C   UNL     1      53.279  27.346  49.703  1.00  0.00    -0.000 C 
BRANCH  21  22
ATOM     22  C   UNL     1      53.551  28.558  50.611  1.00  0.00    -0.000 C 
BRANCH  22  23
ATOM     23  C   UNL     1      53.136  28.339  52.081  1.00  0.00    -0.000 C 
BRANCH  23  24
ATOM     24  C   UNL     1      54.237  28.771  53.065  1.00  0.00    -0.000 C 
BRANCH  24  25
ATOM     25  C   UNL     1      54.224  27.952  54.365  1.00  0.00    -0.003 C 
ATOM     26  C   UNL     1      54.034  26.455  54.119  1.00  0.00     0.004 C 
ENDBRANCH  24  25
ENDBRANCH  23  24
ENDBRANCH  22  23
ENDBRANCH  21  22
ENDBRANCH  20  21
ENDBRANCH  19  20
ENDBRANCH  18  19
ENDBRANCH  17  18
ENDBRANCH  16  17
ENDBRANCH  15  16
ENDBRANCH   1  15
TORSDOF 22
ENDMDL
MODEL 3
REMARK VINA RESULT:    -2.927      3.115      6.861
REMARK INTER + INTRA:         -11.218
REMARK INTER:                  -7.043
REMARK INTRA:                  -4.175
REMARK UNBOUND:                -4.526
REMARK SMILES CCCCCCCCCCCCCCCCCCCCCCCC(=O)[O-]
REMARK SMILES IDX 13 1 14 2 15 3 16 4 17 5 18 6 19 7 20 8 21 9 22 10 23 11
REMARK SMILES IDX 24 12 25 13 26 14 12 15 11 16 10 17 9 18 8 19 7 20 6 21 5 22
REMARK SMILES IDX 4 23 3 24 2 25 1 26
REMARK H PARENT
REMARK Flexibility Score: inf
ROOT
ATOM      1  C   UNL     1      57.700  28.525  53.527  1.00  0.00     0.000 C 
ENDROOT
BRANCH   1   2
ATOM      2  C   UNL     1      56.362  28.996  54.120  1.00  0.00     0.000 C 
BRANCH   2   3
ATOM      3  C   UNL     1      55.156  28.255  53.521  1.00  0.00     0.000 C 
BRANCH   3   4
ATOM      4  C   UNL     1      53.953  29.198  53.369  1.00  0.00     0.000 C 
BRANCH   4   5
ATOM      5  C   UNL     1      54.058  30.101  52.128  1.00  0.00     0.000 C 
BRANCH   5   6
ATOM      6  C   UNL     1      54.385  29.315  50.850  1.00  0.00     0.000 C 
BRANCH   6   7
ATOM      7  C   UNL     1      53.165  28.517  50.365  1.00  0.00     0.000 C 
BRANCH   7   8
ATOM      8  C   UNL     1      53.531  27.103  49.878  1.00  0.00     0.000 C 
BRANCH   8   9
ATOM      9  C   UNL     1      54.992  26.683  50.134  1.00  0.00     0.000 C 
BRANCH   9  10
ATOM     10  C   UNL     1      55.203  25.179  50.401  1.00  0.00     0.006 C 
BRANCH  10  11
ATOM     11  C   UNL     1      53.914  24.344  50.371  1.00  0.00     0.053 C 
BRANCH  11  12
ATOM     12  C   UNL     1      53.481  23.936  51.747  1.00  0.00     0.041 C 
ATOM     13  O   UNL     1      53.070  24.801  52.565  1.00  0.00    -0.550 OA
ATOM     14  O   UNL     1      53.570  22.606  52.137  1.00  0.00    -0.550 OA
ENDBRANCH  11  12
ENDBRANCH  10  11
ENDBRANCH   9  10
ENDBRANCH   8   9
ENDBRANCH   7   8
ENDBRANCH   6   7
ENDBRANCH   5   6
ENDBRANCH   4   5
ENDBRANCH   3   4
ENDBRANCH   2   3
ENDBRANCH   1   2
BRANCH   1  15
ATOM     15  C   UNL     1      58.045  29.234  52.208  1.00  0.00     0.000 C 
BRANCH  15  16
ATOM     16  C   UNL     1      58.073  28.273  51.006  1.00  0.00     0.000 C 
BRANCH  16  17
ATOM     17  C   UNL     1      59.027  28.681  49.865  1.00  0.00     0.000 C 
BRANCH  17  18
ATOM     18  C   UNL     1      59.935  27.551  49.343  1.00  0.00    -0.000 C 
BRANCH  18  19
ATOM     19  C   UNL     1      61.343  27.500  49.970  1.00  0.00    -0.000 C 
BRANCH  19  20
ATOM     20  C   UNL     1      61.734  28.727  50.813  1.00  0.00    -0.000 C 
BRANCH  20  21
ATOM     21  C   UNL     1      61.794  28.427  52.319  1.00  0.00    -0.000 C 
BRANCH  21  22
ATOM     22  C   UNL     1      61.755  26.920  52.628  1.00  0.00    -0.000 C 
BRANCH  22  23
ATOM     23  C   UNL     1      60.601  26.507  53.566  1.00  0.00    -0.000 C 
BRANCH  23  24
ATOM     24  C   UNL     1      60.112  25.076  53.288  1.00  0.00    -0.000 C 
BRANCH  24  25
ATOM     25  C   UNL     1      58.756  25.044  52.565  1.00  0.00    -0.003 C 
ATOM     26  C   UNL     1      58.877  24.630  51.099  1.00  0.00     0.004 C 
ENDBRANCH  24  25
ENDBRANCH  23  24
ENDBRANCH  22  23
ENDBRANCH  21  22
ENDBRANCH  20  21
ENDBRANCH  19  20
ENDBRANCH  18  19
ENDBRANCH  17  18
ENDBRANCH  16  17
ENDBRANCH  15  16
ENDBRANCH   1  15
TORSDOF 22
ENDMDL
MODEL 4
REMARK VINA RESULT:    -2.926      2.894      4.919
REMARK INTER + INTRA:         -11.216
REMARK INTER:                  -6.800
REMARK INTRA:                  -4.416
REMARK UNBOUND:                -4.526
REMARK SMILES CCCCCCCCCCCCCCCCCCCCCCCC(=O)[O-]
REMARK SMILES IDX 13 1 14 2 15 3 16 4 17 5 18 6 19 7 20 8 21 9 22 10 23 11
REMARK SMILES IDX 24 12 25 13 26 14 12 15 11 16 10 17 9 18 8 19 7 20 6 21 5 22
REMARK SMILES IDX 4 23 3 24 2 25 1 26
REMARK H PARENT
REMARK Flexibility Score: inf
ROOT
ATOM      1  C   UNL     1      59.034  25.038  50.074  1.00  0.00     0.000 C 
ENDROOT
BRANCH   1   2
ATOM      2  C   UNL     1      60.496  25.513  50.060  1.00  0.00     0.000 C 
BRANCH   2   3
ATOM      3  C   UNL     1      60.642  26.988  50.468  1.00  0.00     0.000 C 
BRANCH   3   4
ATOM      4  C   UNL     1      59.662  27.874  49.683  1.00  0.00     0.000 C 
BRANCH   4   5
ATOM      5  C   UNL     1      58.736  28.691  50.599  1.00  0.00     0.000 C 
BRANCH   5   6
ATOM      6  C   UNL     1      59.061  28.505  52.089  1.00  0.00     0.000 C 
BRANCH   6   7
ATOM      7  C   UNL     1      59.135  29.860  52.809  1.00  0.00     0.000 C 
BRANCH   7   8
ATOM      8  C   UNL     1      60.469  30.591  52.572  1.00  0.00     0.000 C 
BRANCH   8   9
ATOM      9  C   UNL     1      61.731  29.761  52.882  1.00  0.00     0.000 C 
BRANCH   9  10
ATOM     10  C   UNL     1      62.743  29.654  51.723  1.00  0.00     0.006 C 
BRANCH  10  11
ATOM     11  C   UNL     1      62.255  30.259  50.398  1.00  0.00     0.053 C 
BRANCH  11  12
ATOM     12  C   UNL     1      63.081  31.440  49.985  1.00  0.00     0.041 C 
ATOM     13  O   UNL     1      64.298  31.294  49.700  1.00  0.00    -0.550 OA
ATOM     14  O   UNL     1      62.513  32.707  49.955  1.00  0.00    -0.550 OA
ENDBRANCH  11  12
ENDBRANCH  10  11
ENDBRANCH   9  10
ENDBRANCH   8   9
ENDBRANCH   7   8
ENDBRANCH   6   7
ENDBRANCH   5   6
ENDBRANCH   4   5
ENDBRANCH   3   4
ENDBRANCH   2   3
ENDBRANCH   1   2
BRANCH   1  15
ATOM     15  C   UNL     1      58.478  24.876  51.499  1.00  0.00     0.000 C 
BRANCH  15  16
ATOM     16  C   UNL     1      57.043  25.415  51.642  1.00  0.00     0.000 C 
BRANCH  16  17
ATOM     17  C   UNL     1      56.338  25.758  50.314  1.00  0.00     0.000 C 
BRANCH  17  18
ATOM     18  C   UNL     1      54.997  25.035  50.086  1.00  0.00    -0.000 C 
BRANCH  18  19
ATOM     19  C   UNL     1      53.741  25.907  50.281  1.00  0.00    -0.000 C 
BRANCH  19  20
ATOM     20  C   UNL     1      53.918  27.400  49.949  1.00  0.00    -0.000 C 
BRANCH  20  21
ATOM     21  C   UNL     1      53.751  28.312  51.174  1.00  0.00    -0.000 C 
BRANCH  21  22
ATOM     22  C   UNL     1      55.081  28.927  51.645  1.00  0.00    -0.000 C 
BRANCH  22  23
ATOM     23  C   UNL     1      55.492  28.501  53.070  1.00  0.00    -0.000 C 
BRANCH  23  24
ATOM     24  C   UNL     1      54.376  27.722  53.787  1.00  0.00    -0.000 C 
BRANCH  24  25
ATOM     25  C   UNL     1      54.865  26.387  54.367  1.00  0.00    -0.003 C 
ATOM     26  C   UNL     1      54.044  25.193  53.878  1.00  0.00     0.004 C 
ENDBRANCH  24  25
ENDBRANCH  23  24
ENDBRANCH  22  23
ENDBRANCH  21  22
ENDBRANCH  20  21
ENDBRANCH  19  20
ENDBRANCH  18  19
ENDBRANCH  17  18
ENDBRANCH  16  17
ENDBRANCH  15  16
ENDBRANCH   1  15
TORSDOF 22
ENDMDL
MODEL 5
REMARK VINA RESULT:    -2.915      1.533      2.848
REMARK INTER + INTRA:         -11.191
REMARK INTER:                  -7.061
REMARK INTRA:                  -4.130
REMARK UNBOUND:                -4.526
REMARK SMILES CCCCCCCCCCCCCCCCCCCCCCCC(=O)[O-]
REMARK SMILES IDX 13 1 14 2 15 3 16 4 17 5 18 6 19 7 20 8 21 9 22 10 23 11
REMARK SMILES IDX 24 12 25 13 26 14 12 15 11 16 10 17 9 18 8 19 7 20 6 21 5 22
REMARK SMILES IDX 4 23 3 24 2 25 1 26
REMARK H PARENT
REMARK Flexibility Score: inf
ROOT
ATOM      1  C   UNL     1      57.468  27.501  50.531  1.00  0.00     0.000 C 
ENDROOT
BRANCH   1   2
ATOM      2  C   UNL     1      58.488  28.643  50.394  1.00  0.00     0.000 C 
BRANCH   2   3
ATOM      3  C   UNL     1      59.587  28.334  49.365  1.00  0.00     0.000 C 
BRANCH   3   4
ATOM      4  C   UNL     1      60.853  27.804  50.057  1.00  0.00     0.000 C 
BRANCH   4   5
ATOM      5  C   UNL     1      61.097  28.455  51.429  1.00  0.00     0.000 C 
BRANCH   5   6
ATOM      6  C   UNL     1      61.463  27.432  52.514  1.00  0.00     0.000 C 
BRANCH   6   7
ATOM      7  C   UNL     1      60.205  26.763  53.088  1.00  0.00     0.000 C 
BRANCH   7   8
ATOM      8  C   UNL     1      60.241  25.228  52.977  1.00  0.00     0.000 C 
BRANCH   8   9
ATOM      9  C   UNL     1      59.249  24.624  51.963  1.00  0.00     0.000 C 
BRANCH   9  10
ATOM     10  C   UNL     1      59.813  24.414  50.544  1.00  0.00     0.006 C 
BRANCH  10  11
ATOM     11  C   UNL     1      61.335  24.217  50.489  1.00  0.00     0.053 C 
BRANCH  11  12
ATOM     12  C   UNL     1      61.709  22.767  50.437  1.00  0.00     0.041 C 
ATOM     13  O   UNL     1      62.772  22.366  50.981  1.00  0.00    -0.550 OA
ATOM     14  O   UNL     1      60.903  21.865  49.753  1.00  0.00    -0.550 OA
ENDBRANCH  11  12
ENDBRANCH  10  11
ENDBRANCH   9  10
ENDBRANCH   8   9
ENDBRANCH   7   8
ENDBRANCH   6   7
ENDBRANCH   5   6
ENDBRANCH   4   5
ENDBRANCH   3   4
ENDBRANCH   2   3
ENDBRANCH   1   2
BRANCH   1  15
ATOM     15  C   UNL     1      56.050  28.007  50.843  1.00  0.00     0.000 C 
BRANCH  15  16
ATOM     16  C   UNL     1      54.953  27.068  50.312  1.00  0.00     0.000 C 
BRANCH  16  17
ATOM     17  C   UNL     1      55.432  25.652  49.933  1.00  0.00     0.000 C 
BRANCH  17  18
ATOM     18  C   UNL     1      54.335  24.570  49.950  1.00  0.00    -0.000 C 
BRANCH  18  19
ATOM     19  C   UNL     1      53.246  24.760  51.024  1.00  0.00    -0.000 C 
BRANCH  19  20
ATOM     20  C   UNL     1      53.300  23.767  52.201  1.00  0.00    -0.000 C 
BRANCH  20  21
ATOM     21  C   UNL     1      54.622  23.833  52.981  1.00  0.00    -0.000 C 
BRANCH  21  22
ATOM     22  C   UNL     1      54.804  25.164  53.733  1.00  0.00    -0.000 C 
BRANCH  22  23
ATOM     23  C   UNL     1      56.257  25.683  53.732  1.00  0.00    -0.000 C 
BRANCH  23  24
ATOM     24  C   UNL     1      56.493  26.747  54.818  1.00  0.00    -0.000 C 
BRANCH  24  25
ATOM     25  C   UNL     1      57.002  28.078  54.243  1.00  0.00    -0.003 C 
ATOM     26  C   UNL     1      56.202  29.282  54.739  1.00  0.00     0.004 C 
ENDBRANCH  24  25
ENDBRANCH  23  24
ENDBRANCH  22  23
ENDBRANCH  21  22
ENDBRANCH  20  21
ENDBRANCH  19  20
ENDBRANCH  18  19
ENDBRANCH  17  18
ENDBRANCH  16  17
ENDBRANCH  15  16
ENDBRANCH   1  15
TORSDOF 22
ENDMDL
MODEL 6
REMARK VINA RESULT:    -2.914      3.323      6.881
REMARK INTER + INTRA:         -11.188
REMARK INTER:                  -6.924
REMARK INTRA:                  -4.264
REMARK UNBOUND:                -4.526
REMARK SMILES CCCCCCCCCCCCCCCCCCCCCCCC(=O)[O-]
REMARK SMILES IDX 13 1 14 2 15 3 16 4 17 5 18 6 19 7 20 8 21 9 22 10 23 11
REMARK SMILES IDX 24 12 25 13 26 14 12 15 11 16 10 17 9 18 8 19 7 20 6 21 5 22
REMARK SMILES IDX 4 23 3 24 2 25 1 26
REMARK H PARENT
REMARK Flexibility Score: inf
ROOT
ATOM      1  C   UNL     1      58.382  25.898  53.538  1.00  0.00     0.000 C 
ENDROOT
BRANCH   1   2
ATOM      2  C   UNL     1      56.851  25.912  53.684  1.00  0.00     0.000 C 
BRANCH   2   3
ATOM      3  C   UNL     1      56.141  25.186  52.531  1.00  0.00     0.000 C 
BRANCH   3   4
ATOM      4  C   UNL     1      56.980  25.246  51.245  1.00  0.00     0.000 C 
BRANCH   4   5
ATOM      5  C   UNL     1      56.142  25.602  50.005  1.00  0.00     0.000 C 
BRANCH   5   6
ATOM      6  C   UNL     1      54.762  24.929  50.009  1.00  0.00     0.000 C 
BRANCH   6   7
ATOM      7  C   UNL     1      53.693  25.860  49.417  1.00  0.00     0.000 C 
BRANCH   7   8
ATOM      8  C   UNL     1      52.999  26.726  50.484  1.00  0.00     0.000 C 
BRANCH   8   9
ATOM      9  C   UNL     1      53.224  28.245  50.338  1.00  0.00     0.000 C 
BRANCH   9  10
ATOM     10  C   UNL     1      54.630  28.737  50.735  1.00  0.00     0.006 C 
BRANCH  10  11
ATOM     11  C   UNL     1      54.882  28.781  52.250  1.00  0.00     0.053 C 
BRANCH  11  12
ATOM     12  C   UNL     1      54.770  30.172  52.796  1.00  0.00     0.041 C 
ATOM     13  O   UNL     1      55.753  30.707  53.374  1.00  0.00    -0.550 OA
ATOM     14  O   UNL     1      53.568  30.861  52.701  1.00  0.00    -0.550 OA
ENDBRANCH  11  12
ENDBRANCH  10  11
ENDBRANCH   9  10
ENDBRANCH   8   9
ENDBRANCH   7   8
ENDBRANCH   6   7
ENDBRANCH   5   6
ENDBRANCH   4   5
ENDBRANCH   3   4
ENDBRANCH   2   3
ENDBRANCH   1   2
BRANCH   1  15
ATOM     15  C   UNL     1      59.041  27.173  54.089  1.00  0.00     0.000 C 
BRANCH  15  16
ATOM     16  C   UNL     1      58.375  28.459  53.569  1.00  0.00     0.000 C 
BRANCH  16  17
ATOM     17  C   UNL     1      59.015  29.060  52.301  1.00  0.00     0.000 C 
BRANCH  17  18
ATOM     18  C   UNL     1      58.331  28.662  50.979  1.00  0.00    -0.000 C 
BRANCH  18  19
ATOM     19  C   UNL     1      59.269  28.571  49.758  1.00  0.00    -0.000 C 
BRANCH  19  20
ATOM     20  C   UNL     1      59.798  27.162  49.438  1.00  0.00    -0.000 C 
BRANCH  20  21
ATOM     21  C   UNL     1      61.237  26.935  49.926  1.00  0.00    -0.000 C 
BRANCH  21  22
ATOM     22  C   UNL     1      61.311  26.018  51.160  1.00  0.00    -0.000 C 
BRANCH  22  23
ATOM     23  C   UNL     1      60.576  24.673  50.980  1.00  0.00    -0.000 C 
BRANCH  23  24
ATOM     24  C   UNL     1      60.933  23.665  52.086  1.00  0.00    -0.000 C 
BRANCH  24  25
ATOM     25  C   UNL     1      59.851  22.592  52.281  1.00  0.00    -0.003 C 
ATOM     26  C   UNL     1      60.413  21.171  52.235  1.00  0.00     0.004 C 
ENDBRANCH  24  25
ENDBRANCH  23  24
ENDBRANCH  22  23
ENDBRANCH  21  22
ENDBRANCH  20  21
ENDBRANCH  19  20
ENDBRANCH  18  19
ENDBRANCH  17  18
ENDBRANCH  16  17
ENDBRANCH  15  16
ENDBRANCH   1  15
TORSDOF 22
ENDMDL
MODEL 7
REMARK VINA RESULT:    -2.841      3.318      5.879
REMARK INTER + INTRA:         -11.022
REMARK INTER:                  -7.245
REMARK INTRA:                  -3.776
REMARK UNBOUND:                -4.526
REMARK SMILES CCCCCCCCCCCCCCCCCCCCCCCC(=O)[O-]
REMARK SMILES IDX 13 1 14 2 15 3 16 4 17 5 18 6 19 7 20 8 21 9 22 10 23 11
REMARK SMILES IDX 24 12 25 13 26 14 12 15 11 16 10 17 9 18 8 19 7 20 6 21 5 22
REMARK SMILES IDX 4 23 3 24 2 25 1 26
REMARK H PARENT
REMARK Flexibility Score: inf
ROOT
ATOM      1  C   UNL     1      58.896  24.821  52.002  1.00  0.00     0.000 C 
ENDROOT
BRANCH   1   2
ATOM      2  C   UNL     1      59.758  25.550  53.045  1.00  0.00     0.000 C 
BRANCH   2   3
ATOM      3  C   UNL     1      61.263  25.315  52.837  1.00  0.00     0.000 C 
BRANCH   3   4
ATOM      4  C   UNL     1      62.051  26.623  53.006  1.00  0.00     0.000 C 
BRANCH   4   5
ATOM      5  C   UNL     1      61.195  27.763  53.580  1.00  0.00     0.000 C 
BRANCH   5   6
ATOM      6  C   UNL     1      62.038  28.951  54.066  1.00  0.00     0.000 C 
BRANCH   6   7
ATOM      7  C   UNL     1      61.279  30.275  53.890  1.00  0.00     0.000 C 
BRANCH   7   8
ATOM      8  C   UNL     1      61.298  30.785  52.437  1.00  0.00     0.000 C 
BRANCH   8   9
ATOM      9  C   UNL     1      62.609  30.521  51.670  1.00  0.00     0.000 C 
BRANCH   9  10
ATOM     10  C   UNL     1      62.639  31.055  50.224  1.00  0.00     0.006 C 
BRANCH  10  11
ATOM     11  C   UNL     1      63.259  32.453  50.077  1.00  0.00     0.053 C 
BRANCH  11  12
ATOM     12  C   UNL     1      64.581  32.407  49.374  1.00  0.00     0.041 C 
ATOM     13  O   UNL     1      64.991  33.406  48.728  1.00  0.00    -0.550 OA
ATOM     14  O   UNL     1      65.341  31.244  49.399  1.00  0.00    -0.550 OA
ENDBRANCH  11  12
ENDBRANCH  10  11
ENDBRANCH   9  10
ENDBRANCH   8   9
ENDBRANCH   7   8
ENDBRANCH   6   7
ENDBRANCH   5   6
ENDBRANCH   4   5
ENDBRANCH   3   4
ENDBRANCH   2   3
ENDBRANCH   1   2
BRANCH   1  15
ATOM     15  C   UNL     1      59.583  24.724  50.629  1.00  0.00     0.000 C 
BRANCH  15  16
ATOM     16  C   UNL     1      59.302  25.946  49.736  1.00  0.00     0.000 C 
BRANCH  16  17
ATOM     17  C   UNL     1      60.463  26.954  49.624  1.00  0.00     0.000 C 
BRANCH  17  18
ATOM     18  C   UNL     1      60.097  28.407  49.982  1.00  0.00    -0.000 C 
BRANCH  18  19
ATOM     19  C   UNL     1      58.602  28.656  50.264  1.00  0.00    -0.000 C 
BRANCH  19  20
ATOM     20  C   UNL     1      58.214  28.715  51.753  1.00  0.00    -0.000 C 
BRANCH  20  21
ATOM     21  C   UNL     1      56.799  28.182  52.026  1.00  0.00    -0.000 C 
BRANCH  21  22
ATOM     22  C   UNL     1      55.864  28.324  50.812  1.00  0.00    -0.000 C 
BRANCH  22  23
ATOM     23  C   UNL     1      54.844  27.173  50.676  1.00  0.00    -0.000 C 
BRANCH  23  24
ATOM     24  C   UNL     1      55.486  25.894  50.112  1.00  0.00    -0.000 C 
BRANCH  24  25
ATOM     25  C   UNL     1      54.474  24.990  49.393  1.00  0.00    -0.003 C 
ATOM     26  C   UNL     1      53.074  25.601  49.333  1.00  0.00     0.004 C 
ENDBRANCH  24  25
ENDBRANCH  23  24
ENDBRANCH  22  23
ENDBRANCH  21  22
ENDBRANCH  20  21
ENDBRANCH  19  20
ENDBRANCH  18  19
ENDBRANCH  17  18
ENDBRANCH  16  17
ENDBRANCH  15  16
ENDBRANCH   1  15
TORSDOF 22
ENDMDL
MODEL 8
REMARK VINA RESULT:    -2.840      3.539      5.632
REMARK INTER + INTRA:         -11.019
REMARK INTER:                  -7.554
REMARK INTRA:                  -3.464
REMARK UNBOUND:                -4.526
REMARK SMILES CCCCCCCCCCCCCCCCCCCCCCCC(=O)[O-]
REMARK SMILES IDX 13 1 14 2 15 3 16 4 17 5 18 6 19 7 20 8 21 9 22 10 23 11
REMARK SMILES IDX 24 12 25 13 26 14 12 15 11 16 10 17 9 18 8 19 7 20 6 21 5 22
REMARK SMILES IDX 4 23 3 24 2 25 1 26
REMARK H PARENT
REMARK Flexibility Score: inf
ROOT
ATOM      1  C   UNL     1      58.741  28.665  50.758  1.00  0.00     0.000 C 
ENDROOT
BRANCH   1   2
ATOM      2  C   UNL     1      59.615  28.219  49.574  1.00  0.00     0.000 C 
BRANCH   2   3
ATOM      3  C   UNL     1      60.002  26.734  49.651  1.00  0.00     0.000 C 
BRANCH   3   4
ATOM      4  C   UNL     1      61.499  26.573  49.962  1.00  0.00     0.000 C 
BRANCH   4   5
ATOM      5  C   UNL     1      61.803  26.641  51.468  1.00  0.00     0.000 C 
BRANCH   5   6
ATOM      6  C   UNL     1      63.130  27.352  51.774  1.00  0.00     0.000 C 
BRANCH   6   7
ATOM      7  C   UNL     1      62.894  28.628  52.595  1.00  0.00     0.000 C 
BRANCH   7   8
ATOM      8  C   UNL     1      62.169  29.727  51.798  1.00  0.00     0.000 C 
BRANCH   8   9
ATOM      9  C   UNL     1      62.797  30.062  50.430  1.00  0.00     0.000 C 
BRANCH   9  10
ATOM     10  C   UNL     1      63.457  31.453  50.338  1.00  0.00     0.006 C 
BRANCH  10  11
ATOM     11  C   UNL     1      62.654  32.581  51.002  1.00  0.00     0.053 C 
BRANCH  11  12
ATOM     12  C   UNL     1      62.264  33.643  50.020  1.00  0.00     0.041 C 
ATOM     13  O   UNL     1      61.735  34.714  50.420  1.00  0.00    -0.550 OA
ATOM     14  O   UNL     1      62.447  33.431  48.659  1.00  0.00    -0.550 OA
ENDBRANCH  11  12
ENDBRANCH  10  11
ENDBRANCH   9  10
ENDBRANCH   8   9
ENDBRANCH   7   8
ENDBRANCH   6   7
ENDBRANCH   5   6
ENDBRANCH   4   5
ENDBRANCH   3   4
ENDBRANCH   2   3
ENDBRANCH   1   2
BRANCH   1  15
ATOM     15  C   UNL     1      57.347  28.015  50.743  1.00  0.00     0.000 C 
BRANCH  15  16
ATOM     16  C   UNL     1      57.156  26.992  51.876  1.00  0.00     0.000 C 
BRANCH  16  17
ATOM     17  C   UNL     1      56.571  25.634  51.439  1.00  0.00     0.000 C 
BRANCH  17  18
ATOM     18  C   UNL     1      56.247  25.521  49.937  1.00  0.00    -0.000 C 
BRANCH  18  19
ATOM     19  C   UNL     1      54.777  25.191  49.607  1.00  0.00    -0.000 C 
BRANCH  19  20
ATOM     20  C   UNL     1      53.728  25.982  50.411  1.00  0.00    -0.000 C 
BRANCH  20  21
ATOM     21  C   UNL     1      53.546  27.422  49.907  1.00  0.00    -0.000 C 
BRANCH  21  22
ATOM     22  C   UNL     1      53.708  28.469  51.023  1.00  0.00    -0.000 C 
BRANCH  22  23
ATOM     23  C   UNL     1      53.421  27.921  52.437  1.00  0.00    -0.000 C 
BRANCH  23  24
ATOM     24  C   UNL     1      54.324  28.565  53.503  1.00  0.00    -0.000 C 
BRANCH  24  25
ATOM     25  C   UNL     1      54.737  29.999  53.141  1.00  0.00    -0.003 C 
ATOM     26  C   UNL     1      56.192  30.304  53.499  1.00  0.00     0.004 C 
ENDBRANCH  24  25
ENDBRANCH  23  24
ENDBRANCH  22  23
ENDBRANCH  21  22
ENDBRANCH  20  21
ENDBRANCH  19  20
ENDBRANCH  18  19
ENDBRANCH  17  18
ENDBRANCH  16  17
ENDBRANCH  15  16
ENDBRANCH   1  15
TORSDOF 22
ENDMDL
MODEL 9
REMARK VINA RESULT:    -2.757      9.042     11.815
REMARK INTER + INTRA:         -10.829
REMARK INTER:                  -7.038
REMARK INTRA:                  -3.791
REMARK UNBOUND:                -4.526
REMARK SMILES CCCCCCCCCCCCCCCCCCCCCCCC(=O)[O-]
REMARK SMILES IDX 13 1 14 2 15 3 16 4 17 5 18 6 19 7 20 8 21 9 22 10 23 11
REMARK SMILES IDX 24 12 25 13 26 14 12 15 11 16 10 17 9 18 8 19 7 20 6 21 5 22
REMARK SMILES IDX 4 23 3 24 2 25 1 26
REMARK H PARENT
REMARK Flexibility Score: inf
ROOT
ATOM      1  C   UNL     1      61.381  29.421  57.986  1.00  0.00     0.000 C 
ENDROOT
BRANCH   1   2
ATOM      2  C   UNL     1      62.157  28.106  57.810  1.00  0.00     0.000 C 
BRANCH   2   3
ATOM      3  C   UNL     1      61.762  27.044  58.848  1.00  0.00     0.000 C 
BRANCH   3   4
ATOM      4  C   UNL     1      62.899  26.030  59.055  1.00  0.00     0.000 C 
BRANCH   4   5
ATOM      5  C   UNL     1      63.600  26.192  60.414  1.00  0.00     0.000 C 
BRANCH   5   6
ATOM      6  C   UNL     1      63.369  24.993  61.346  1.00  0.00     0.000 C 
BRANCH   6   7
ATOM      7  C   UNL     1      62.235  25.281  62.342  1.00  0.00     0.000 C 
BRANCH   7   8
ATOM      8  C   UNL     1      60.863  24.792  61.843  1.00  0.00     0.000 C 
BRANCH   8   9
ATOM      9  C   UNL     1      59.662  25.643  62.299  1.00  0.00     0.000 C 
BRANCH   9  10
ATOM     10  C   UNL     1      59.098  26.602  61.232  1.00  0.00     0.006 C 
BRANCH  10  11
ATOM     11  C   UNL     1      57.759  27.254  61.609  1.00  0.00     0.053 C 
BRANCH  11  12
ATOM     12  C   UNL     1      56.637  26.769  60.742  1.00  0.00     0.041 C 
ATOM     13  O   UNL     1      55.793  25.952  61.196  1.00  0.00    -0.550 OA
ATOM     14  O   UNL     1      56.549  27.187  59.421  1.00  0.00    -0.550 OA
ENDBRANCH  11  12
ENDBRANCH  10  11
ENDBRANCH   9  10
ENDBRANCH   8   9
ENDBRANCH   7   8
ENDBRANCH   6   7
ENDBRANCH   5   6
ENDBRANCH   4   5
ENDBRANCH   3   4
ENDBRANCH   2   3
ENDBRANCH   1   2
BRANCH   1  15
ATOM     15  C   UNL     1      60.544  29.446  59.276  1.00  0.00     0.000 C 
BRANCH  15  16
ATOM     16  C   UNL     1      60.764  30.725  60.103  1.00  0.00     0.000 C 
BRANCH  16  17
ATOM     17  C   UNL     1      61.272  30.495  61.541  1.00  0.00     0.000 C 
BRANCH  17  18
ATOM     18  C   UNL     1      62.269  29.331  61.698  1.00  0.00    -0.000 C 
BRANCH  18  19
ATOM     19  C   UNL     1      63.757  29.730  61.633  1.00  0.00    -0.000 C 
BRANCH  19  20
ATOM     20  C   UNL     1      64.365  29.780  60.220  1.00  0.00    -0.000 C 
BRANCH  20  21
ATOM     21  C   UNL     1      64.788  31.194  59.797  1.00  0.00    -0.000 C 
BRANCH  21  22
ATOM     22  C   UNL     1      64.524  32.247  60.889  1.00  0.00    -0.000 C 
BRANCH  22  23
ATOM     23  C   UNL     1      64.457  33.693  60.355  1.00  0.00    -0.000 C 
BRANCH  23  24
ATOM     24  C   UNL     1      63.358  34.516  61.049  1.00  0.00    -0.000 C 
BRANCH  24  25
ATOM     25  C   UNL     1      61.950  34.170  60.543  1.00  0.00    -0.003 C 
ATOM     26  C   UNL     1      61.453  35.138  59.468  1.00  0.00     0.004 C 
ENDBRANCH  24  25
ENDBRANCH  23  24
ENDBRANCH  22  23
ENDBRANCH  21  22
ENDBRANCH  20  21
ENDBRANCH  19  20
ENDBRANCH  18  19
ENDBRANCH  17  18
ENDBRANCH  16  17
ENDBRANCH  15  16
ENDBRANCH   1  15
TORSDOF 22
ENDMDL
