MODEL 1
REMARK VINA RESULT:    -3.263      0.000      0.000
REMARK INTER + INTRA:          -3.753
REMARK INTER:                  -3.454
REMARK INTRA:                  -0.299
REMARK UNBOUND:                -0.299
REMARK SMILES CC1=CC[C@@H]2[C@H]3[C@H](C(C)C)CC[C@]2(C)[C@@H]13
REMARK SMILES IDX 1 1 2 2 3 3 4 4 5 5 6 6 15 7 13 8 12 9 11 10 7 11 14 12 8 13
REMARK SMILES IDX 9 14 10 15
REMARK H PARENT
REMARK Flexibility Score: inf
ROOT
ATOM      1  C   UNL     1     142.647 145.372 134.125  1.00  0.00     0.039 C 
ATOM      2  C   UNL     1     143.872 144.809 133.469  1.00  0.00    -0.073 C 
ATOM      3  C   UNL     1     144.662 143.906 134.107  1.00  0.00    -0.027 C 
ATOM      4  C   UNL     1     145.890 143.353 133.379  1.00  0.00     0.031 C 
ATOM      5  C   UNL     1     146.025 144.004 131.964  1.00  0.00     0.003 C 
ATOM      6  C   UNL     1     145.825 145.528 132.132  1.00  0.00     0.004 C 
ATOM      7  C   UNL     1     144.302 145.239 132.064  1.00  0.00     0.024 C 
ATOM      8  C   UNL     1     144.674 144.003 131.208  1.00  0.00    -0.022 C 
ATOM      9  C   UNL     1     144.921 144.418 129.724  1.00  0.00     0.008 C 
ATOM     10  C   UNL     1     145.523 145.842 129.597  1.00  0.00     0.005 C 
ATOM     11  C   UNL     1     146.341 146.263 130.859  1.00  0.00    -0.005 C 
ATOM     12  C   UNL     1     143.779 142.744 131.288  1.00  0.00     0.012 C 
ENDROOT
BRANCH  11  13
ATOM     13  C   UNL     1     146.449 147.803 131.069  1.00  0.00    -0.014 C 
ATOM     14  C   UNL     1     146.755 148.155 132.532  1.00  0.00     0.007 C 
ATOM     15  C   UNL     1     147.450 148.500 130.130  1.00  0.00     0.007 C 
ENDBRANCH  11  13
TORSDOF 1
ENDMDL
MODEL 2
REMARK VINA RESULT:    -3.209      1.408      4.281
REMARK INTER + INTRA:          -3.696
REMARK INTER:                  -3.480
REMARK INTRA:                  -0.216
REMARK UNBOUND:                -0.299
REMARK SMILES CC1=CC[C@@H]2[C@H]3[C@H](C(C)C)CC[C@]2(C)[C@@H]13
REMARK SMILES IDX 1 1 2 2 3 3 4 4 5 5 6 6 15 7 13 8 12 9 11 10 7 11 14 12 8 13
REMARK SMILES IDX 9 14 10 15
REMARK H PARENT
REMARK Flexibility Score: inf
ROOT
ATOM      1  C   UNL     1     148.016 145.382 134.112  1.00  0.00     0.039 C 
ATOM      2  C   UNL     1     146.802 146.034 133.523  1.00  0.00    -0.073 C 
ATOM      3  C   UNL     1     146.212 147.101 134.125  1.00  0.00    -0.027 C 
ATOM      4  C   UNL     1     144.985 147.736 133.466  1.00  0.00     0.031 C 
ATOM      5  C   UNL     1     144.602 146.962 132.163  1.00  0.00     0.003 C 
ATOM      6  C   UNL     1     144.629 145.452 132.495  1.00  0.00     0.004 C 
ATOM      7  C   UNL     1     146.157 145.518 132.234  1.00  0.00     0.024 C 
ATOM      8  C   UNL     1     145.842 146.695 131.276  1.00  0.00    -0.022 C 
ATOM      9  C   UNL     1     145.370 146.159 129.889  1.00  0.00     0.008 C 
ATOM     10  C   UNL     1     144.583 144.827 130.001  1.00  0.00     0.005 C 
ATOM     11  C   UNL     1     143.876 144.661 131.383  1.00  0.00    -0.005 C 
ATOM     12  C   UNL     1     146.891 147.819 131.108  1.00  0.00     0.012 C 
ENDROOT
BRANCH  11  13
ATOM     13  C   UNL     1     143.602 143.182 131.791  1.00  0.00    -0.014 C 
ATOM     14  C   UNL     1     143.508 142.265 130.562  1.00  0.00     0.007 C 
ATOM     15  C   UNL     1     144.605 142.612 132.809  1.00  0.00     0.007 C 
ENDBRANCH  11  13
TORSDOF 1
ENDMDL
MODEL 3
REMARK VINA RESULT:    -3.005      1.729      3.103
REMARK INTER + INTRA:          -3.480
REMARK INTER:                  -3.245
REMARK INTRA:                  -0.235
REMARK UNBOUND:                -0.299
REMARK SMILES CC1=CC[C@@H]2[C@H]3[C@H](C(C)C)CC[C@]2(C)[C@@H]13
REMARK SMILES IDX 1 1 2 2 3 3 4 4 5 5 6 6 15 7 13 8 12 9 11 10 7 11 14 12 8 13
REMARK SMILES IDX 9 14 10 15
REMARK H PARENT
REMARK Flexibility Score: inf
ROOT
ATOM      1  C   UNL     1     145.401 142.531 134.061  1.00  0.00     0.039 C 
ATOM      2  C   UNL     1     146.083 143.757 133.531  1.00  0.00    -0.073 C 
ATOM      3  C   UNL     1     147.198 144.256 134.125  1.00  0.00    -0.027 C 
ATOM      4  C   UNL     1     147.861 145.501 133.528  1.00  0.00     0.031 C 
ATOM      5  C   UNL     1     147.051 146.010 132.291  1.00  0.00     0.003 C 
ATOM      6  C   UNL     1     145.556 146.022 132.687  1.00  0.00     0.004 C 
ATOM      7  C   UNL     1     145.543 144.515 132.315  1.00  0.00     0.024 C 
ATOM      8  C   UNL     1     146.692 144.849 131.331  1.00  0.00    -0.022 C 
ATOM      9  C   UNL     1     146.122 145.444 130.006  1.00  0.00     0.008 C 
ATOM     10  C   UNL     1     144.831 146.275 130.233  1.00  0.00     0.005 C 
ATOM     11  C   UNL     1     144.755 146.886 131.668  1.00  0.00    -0.005 C 
ATOM     12  C   UNL     1     147.761 143.770 131.038  1.00  0.00     0.012 C 
ENDROOT
BRANCH  11  13
ATOM     13  C   UNL     1     143.308 147.191 132.159  1.00  0.00    -0.014 C 
ATOM     14  C   UNL     1     142.325 147.308 130.985  1.00  0.00     0.007 C 
ATOM     15  C   UNL     1     142.774 146.199 133.207  1.00  0.00     0.007 C 
ENDBRANCH  11  13
TORSDOF 1
ENDMDL
MODEL 4
REMARK VINA RESULT:    -2.569      1.239      2.783
REMARK INTER + INTRA:          -3.019
REMARK INTER:                  -2.849
REMARK INTRA:                  -0.170
REMARK UNBOUND:                -0.299
REMARK SMILES CC1=CC[C@@H]2[C@H]3[C@H](C(C)C)CC[C@]2(C)[C@@H]13
REMARK SMILES IDX 1 1 2 2 3 3 4 4 5 5 6 6 15 7 13 8 12 9 11 10 7 11 14 12 8 13
REMARK SMILES IDX 9 14 10 15
REMARK H PARENT
REMARK Flexibility Score: inf
ROOT
ATOM      1  C   UNL     1     144.060 143.186 130.474  1.00  0.00     0.039 C 
ATOM      2  C   UNL     1     144.224 143.991 131.728  1.00  0.00    -0.073 C 
ATOM      3  C   UNL     1     143.201 144.139 132.610  1.00  0.00    -0.027 C 
ATOM      4  C   UNL     1     143.434 144.959 133.882  1.00  0.00     0.031 C 
ATOM      5  C   UNL     1     144.889 145.533 133.903  1.00  0.00     0.003 C 
ATOM      6  C   UNL     1     145.169 146.140 132.509  1.00  0.00     0.004 C 
ATOM      7  C   UNL     1     145.539 144.701 132.062  1.00  0.00     0.024 C 
ATOM      8  C   UNL     1     145.932 144.449 133.539  1.00  0.00    -0.022 C 
ATOM      9  C   UNL     1     147.362 145.002 133.827  1.00  0.00     0.008 C 
ATOM     10  C   UNL     1     147.692 146.265 132.988  1.00  0.00     0.005 C 
ATOM     11  C   UNL     1     146.416 147.070 132.588  1.00  0.00    -0.005 C 
ATOM     12  C   UNL     1     145.761 143.027 134.123  1.00  0.00     0.012 C 
ENDROOT
BRANCH  11  13
ATOM     13  C   UNL     1     146.584 147.944 131.309  1.00  0.00    -0.014 C 
ATOM     14  C   UNL     1     147.956 148.634 131.271  1.00  0.00     0.007 C 
ATOM     15  C   UNL     1     146.326 147.192 129.991  1.00  0.00     0.007 C 
ENDBRANCH  11  13
TORSDOF 1
ENDMDL
MODEL 5
REMARK VINA RESULT:    -2.537      1.413      4.491
REMARK INTER + INTRA:          -2.985
REMARK INTER:                  -2.806
REMARK INTRA:                  -0.178
REMARK UNBOUND:                -0.299
REMARK SMILES CC1=CC[C@@H]2[C@H]3[C@H](C(C)C)CC[C@]2(C)[C@@H]13
REMARK SMILES IDX 1 1 2 2 3 3 4 4 5 5 6 6 15 7 13 8 12 9 11 10 7 11 14 12 8 13
REMARK SMILES IDX 9 14 10 15
REMARK H PARENT
REMARK Flexibility Score: inf
ROOT
ATOM      1  C   UNL     1     146.534 147.528 130.389  1.00  0.00     0.039 C 
ATOM      2  C   UNL     1     146.437 146.740 131.661  1.00  0.00    -0.073 C 
ATOM      3  C   UNL     1     147.506 146.601 132.488  1.00  0.00    -0.027 C 
ATOM      4  C   UNL     1     147.342 145.799 133.781  1.00  0.00     0.031 C 
ATOM      5  C   UNL     1     145.890 145.229 133.889  1.00  0.00     0.003 C 
ATOM      6  C   UNL     1     145.533 144.604 132.520  1.00  0.00     0.004 C 
ATOM      7  C   UNL     1     145.141 146.038 132.075  1.00  0.00     0.024 C 
ATOM      8  C   UNL     1     144.830 146.311 133.568  1.00  0.00    -0.022 C 
ATOM      9  C   UNL     1     143.417 145.765 133.941  1.00  0.00     0.008 C 
ATOM     10  C   UNL     1     143.039 144.491 133.138  1.00  0.00     0.005 C 
ATOM     11  C   UNL     1     144.291 143.678 132.679  1.00  0.00    -0.005 C 
ATOM     12  C   UNL     1     145.035 147.740 134.123  1.00  0.00     0.012 C 
ENDROOT
BRANCH  11  13
ATOM     13  C   UNL     1     144.052 142.788 131.423  1.00  0.00    -0.014 C 
ATOM     14  C   UNL     1     142.628 142.212 131.400  1.00  0.00     0.007 C 
ATOM     15  C   UNL     1     144.370 143.481 130.087  1.00  0.00     0.007 C 
ENDBRANCH  11  13
TORSDOF 1
ENDMDL
MODEL 6
REMARK VINA RESULT:    -2.259      1.931      3.768
REMARK INTER + INTRA:          -2.690
REMARK INTER:                  -2.500
REMARK INTRA:                  -0.190
REMARK UNBOUND:                -0.299
REMARK SMILES CC1=CC[C@@H]2[C@H]3[C@H](C(C)C)CC[C@]2(C)[C@@H]13
REMARK SMILES IDX 1 1 2 2 3 3 4 4 5 5 6 6 15 7 13 8 12 9 11 10 7 11 14 12 8 13
REMARK SMILES IDX 9 14 10 15
REMARK H PARENT
REMARK Flexibility Score: inf
ROOT
ATOM      1  C   UNL     1     143.489 146.610 130.336  1.00  0.00     0.039 C 
ATOM      2  C   UNL     1     144.208 146.532 131.649  1.00  0.00    -0.073 C 
ATOM      3  C   UNL     1     144.377 147.633 132.427  1.00  0.00    -0.027 C 
ATOM      4  C   UNL     1     145.104 147.488 133.766  1.00  0.00     0.031 C 
ATOM      5  C   UNL     1     145.573 146.011 133.976  1.00  0.00     0.003 C 
ATOM      6  C   UNL     1     146.237 145.543 132.660  1.00  0.00     0.004 C 
ATOM      7  C   UNL     1     144.803 145.219 132.163  1.00  0.00     0.024 C 
ATOM      8  C   UNL     1     144.440 145.006 133.654  1.00  0.00    -0.022 C 
ATOM      9  C   UNL     1     144.874 143.583 134.125  1.00  0.00     0.008 C 
ATOM     10  C   UNL     1     146.157 143.084 133.408  1.00  0.00     0.005 C 
ATOM     11  C   UNL     1     147.071 144.255 132.929  1.00  0.00    -0.005 C 
ATOM     12  C   UNL     1     143.003 145.330 134.125  1.00  0.00     0.012 C 
ENDROOT
BRANCH  11  13
ATOM     13  C   UNL     1     148.003 143.894 131.733  1.00  0.00    -0.014 C 
ATOM     14  C   UNL     1     148.418 142.415 131.766  1.00  0.00     0.007 C 
ATOM     15  C   UNL     1     147.429 144.258 130.352  1.00  0.00     0.007 C 
ENDBRANCH  11  13
TORSDOF 1
ENDMDL
MODEL 7
REMARK VINA RESULT:    -2.238      1.992      3.838
REMARK INTER + INTRA:          -2.668
REMARK INTER:                  -2.486
REMARK INTRA:                  -0.182
REMARK UNBOUND:                -0.299
REMARK SMILES CC1=CC[C@@H]2[C@H]3[C@H](C(C)C)CC[C@]2(C)[C@@H]13
REMARK SMILES IDX 1 1 2 2 3 3 4 4 5 5 6 6 15 7 13 8 12 9 11 10 7 11 14 12 8 13
REMARK SMILES IDX 9 14 10 15
REMARK H PARENT
REMARK Flexibility Score: inf
ROOT
ATOM      1  C   UNL     1     147.210 144.040 130.368  1.00  0.00     0.039 C 
ATOM      2  C   UNL     1     146.512 144.155 131.690  1.00  0.00    -0.073 C 
ATOM      3  C   UNL     1     146.336 143.071 132.491  1.00  0.00    -0.027 C 
ATOM      4  C   UNL     1     145.631 143.254 133.838  1.00  0.00     0.031 C 
ATOM      5  C   UNL     1     145.190 144.742 134.026  1.00  0.00     0.003 C 
ATOM      6  C   UNL     1     144.514 145.196 132.711  1.00  0.00     0.004 C 
ATOM      7  C   UNL     1     145.946 145.487 132.187  1.00  0.00     0.024 C 
ATOM      8  C   UNL     1     146.334 145.722 133.668  1.00  0.00    -0.022 C 
ATOM      9  C   UNL     1     145.929 147.161 134.118  1.00  0.00     0.008 C 
ATOM     10  C   UNL     1     144.644 147.667 133.410  1.00  0.00     0.005 C 
ATOM     11  C   UNL     1     143.705 146.502 132.967  1.00  0.00    -0.005 C 
ATOM     12  C   UNL     1     147.772 145.384 134.125  1.00  0.00     0.012 C 
ENDROOT
BRANCH  11  13
ATOM     13  C   UNL     1     142.762 146.856 131.778  1.00  0.00    -0.014 C 
ATOM     14  C   UNL     1     142.331 148.330 131.816  1.00  0.00     0.007 C 
ATOM     15  C   UNL     1     143.330 146.500 130.393  1.00  0.00     0.007 C 
ENDBRANCH  11  13
TORSDOF 1
ENDMDL
MODEL 8
REMARK VINA RESULT:    -2.174      1.350      4.498
REMARK INTER + INTRA:          -2.601
REMARK INTER:                  -2.210
REMARK INTRA:                  -0.390
REMARK UNBOUND:                -0.299
REMARK SMILES CC1=CC[C@@H]2[C@H]3[C@H](C(C)C)CC[C@]2(C)[C@@H]13
REMARK SMILES IDX 1 1 2 2 3 3 4 4 5 5 6 6 15 7 13 8 12 9 11 10 7 11 14 12 8 13
REMARK SMILES IDX 9 14 10 15
REMARK H PARENT
REMARK Flexibility Score: inf
ROOT
ATOM      1  C   UNL     1     145.427 145.376 129.010  1.00  0.00     0.039 C 
ATOM      2  C   UNL     1     145.468 146.109 130.318  1.00  0.00    -0.073 C 
ATOM      3  C   UNL     1     146.124 147.291 130.443  1.00  0.00    -0.027 C 
ATOM      4  C   UNL     1     146.115 148.002 131.799  1.00  0.00     0.031 C 
ATOM      5  C   UNL     1     145.330 147.156 132.854  1.00  0.00     0.003 C 
ATOM      6  C   UNL     1     145.816 145.693 132.731  1.00  0.00     0.004 C 
ATOM      7  C   UNL     1     144.793 145.551 131.573  1.00  0.00     0.024 C 
ATOM      8  C   UNL     1     143.978 146.657 132.289  1.00  0.00    -0.022 C 
ATOM      9  C   UNL     1     143.134 146.049 133.452  1.00  0.00     0.008 C 
ATOM     10  C   UNL     1     143.832 144.838 134.125  1.00  0.00     0.005 C 
ATOM     11  C   UNL     1     145.387 144.894 133.997  1.00  0.00    -0.005 C 
ATOM     12  C   UNL     1     143.127 147.626 131.435  1.00  0.00     0.012 C 
ENDROOT
BRANCH  11  13
ATOM     13  C   UNL     1     146.089 143.505 134.087  1.00  0.00    -0.014 C 
ATOM     14  C   UNL     1     145.069 142.356 134.102  1.00  0.00     0.007 C 
ATOM     15  C   UNL     1     147.152 143.264 133.002  1.00  0.00     0.007 C 
ENDBRANCH  11  13
TORSDOF 1
ENDMDL
MODEL 9
REMARK VINA RESULT:    -1.934      1.768      3.255
REMARK INTER + INTRA:          -2.346
REMARK INTER:                  -2.085
REMARK INTRA:                  -0.261
REMARK UNBOUND:                -0.299
REMARK SMILES CC1=CC[C@@H]2[C@H]3[C@H](C(C)C)CC[C@]2(C)[C@@H]13
REMARK SMILES IDX 1 1 2 2 3 3 4 4 5 5 6 6 15 7 13 8 12 9 11 10 7 11 14 12 8 13
REMARK SMILES IDX 9 14 10 15
REMARK H PARENT
REMARK Flexibility Score: inf
ROOT
ATOM      1  C   UNL     1     145.393 148.198 134.096  1.00  0.00     0.039 C 
ATOM      2  C   UNL     1     144.680 147.002 133.543  1.00  0.00    -0.073 C 
ATOM      3  C   UNL     1     143.549 146.523 134.125  1.00  0.00    -0.027 C 
ATOM      4  C   UNL     1     142.855 145.308 133.504  1.00  0.00     0.031 C 
ATOM      5  C   UNL     1     143.653 144.801 132.258  1.00  0.00     0.003 C 
ATOM      6  C   UNL     1     145.146 144.740 132.656  1.00  0.00     0.004 C 
ATOM      7  C   UNL     1     145.200 146.252 132.314  1.00  0.00     0.024 C 
ATOM      8  C   UNL     1     144.045 145.969 131.321  1.00  0.00    -0.022 C 
ATOM      9  C   UNL     1     144.602 145.384 129.986  1.00  0.00     0.008 C 
ATOM     10  C   UNL     1     145.868 144.513 130.199  1.00  0.00     0.005 C 
ATOM     11  C   UNL     1     145.925 143.874 131.623  1.00  0.00    -0.005 C 
ATOM     12  C   UNL     1     143.007 147.082 131.047  1.00  0.00     0.012 C 
ENDROOT
BRANCH  11  13
ATOM     13  C   UNL     1     147.362 143.520 132.110  1.00  0.00    -0.014 C 
ATOM     14  C   UNL     1     148.368 143.512 130.949  1.00  0.00     0.007 C 
ATOM     15  C   UNL     1     147.876 144.407 133.258  1.00  0.00     0.007 C 
ENDBRANCH  11  13
TORSDOF 1
ENDMDL
