MODEL 1
REMARK VINA RESULT:    -4.109      0.000      0.000
REMARK INTER + INTRA:          -8.046
REMARK INTER:                  -7.231
REMARK INTRA:                  -0.814
REMARK UNBOUND:                -0.814
REMARK SMILES CCCCCCC=CCCCCCCCC(=O)[O-]
REMARK SMILES IDX 10 1 11 2 12 3 13 4 14 5 15 6 16 7 17 8 18 9 9 10 8 11 7 12
REMARK SMILES IDX 6 13 5 14 4 15 3 16 2 17 1 18
REMARK H PARENT
REMARK Flexibility Score: inf
ROOT
ATOM      1  C   UNL     1      66.421  28.885  61.215  1.00  0.00     0.004 C 
ENDROOT
BRANCH   1   2
ATOM      2  C   UNL     1      67.755  29.056  60.473  1.00  0.00     0.000 C 
BRANCH   2   3
ATOM      3  C   UNL     1      68.939  28.995  61.451  1.00  0.00     0.000 C 
BRANCH   3   4
ATOM      4  C   UNL     1      70.293  29.265  60.770  1.00  0.00     0.000 C 
BRANCH   4   5
ATOM      5  C   UNL     1      71.149  30.365  61.430  1.00  0.00     0.006 C 
BRANCH   5   6
ATOM      6  C   UNL     1      72.068  31.125  60.460  1.00  0.00     0.053 C 
BRANCH   6   7
ATOM      7  C   UNL     1      71.457  32.415  60.005  1.00  0.00     0.041 C 
ATOM      8  O   UNL     1      70.798  32.461  58.933  1.00  0.00    -0.550 OA
ATOM      9  O   UNL     1      71.647  33.574  60.747  1.00  0.00    -0.550 OA
ENDBRANCH   6   7
ENDBRANCH   5   6
ENDBRANCH   4   5
ENDBRANCH   3   4
ENDBRANCH   2   3
ENDBRANCH   1   2
BRANCH   1  10
ATOM     10  C   UNL     1      65.234  29.415  60.401  1.00  0.00     0.027 C 
BRANCH  10  11
ATOM     11  C   UNL     1      64.099  29.840  61.293  1.00  0.00    -0.031 C 
ATOM     12  C   UNL     1      62.881  30.110  60.803  1.00  0.00    -0.031 C 
BRANCH  12  13
ATOM     13  C   UNL     1      61.746  30.535  61.695  1.00  0.00     0.027 C 
BRANCH  13  14
ATOM     14  C   UNL     1      61.097  31.840  61.208  1.00  0.00     0.004 C 
BRANCH  14  15
ATOM     15  C   UNL     1      61.920  32.597  60.149  1.00  0.00     0.000 C 
BRANCH  15  16
ATOM     16  C   UNL     1      62.508  33.912  60.680  1.00  0.00    -0.000 C 
BRANCH  16  17
ATOM     17  C   UNL     1      64.019  33.784  60.909  1.00  0.00    -0.003 C 
ATOM     18  C   UNL     1      64.599  35.065  61.501  1.00  0.00     0.004 C 
ENDBRANCH  16  17
ENDBRANCH  15  16
ENDBRANCH  14  15
ENDBRANCH  13  14
ENDBRANCH  12  13
ENDBRANCH  10  11
ENDBRANCH   1  10
TORSDOF 13
ENDMDL
MODEL 2
REMARK VINA RESULT:    -4.101     12.612     14.578
REMARK INTER + INTRA:          -8.032
REMARK INTER:                  -5.816
REMARK INTRA:                  -2.217
REMARK UNBOUND:                -0.814
REMARK SMILES CCCCCCC=CCCCCCCCC(=O)[O-]
REMARK SMILES IDX 10 1 11 2 12 3 13 4 14 5 15 6 16 7 17 8 18 9 9 10 8 11 7 12
REMARK SMILES IDX 6 13 5 14 4 15 3 16 2 17 1 18
REMARK H PARENT
REMARK Flexibility Score: inf
ROOT
ATOM      1  C   UNL     1      56.824  30.403  52.824  1.00  0.00     0.004 C 
ENDROOT
BRANCH   1   2
ATOM      2  C   UNL     1      57.610  29.105  53.061  1.00  0.00     0.000 C 
BRANCH   2   3
ATOM      3  C   UNL     1      58.640  28.875  51.943  1.00  0.00     0.000 C 
BRANCH   3   4
ATOM      4  C   UNL     1      58.051  29.081  50.536  1.00  0.00     0.000 C 
BRANCH   4   5
ATOM      5  C   UNL     1      59.073  29.009  49.383  1.00  0.00     0.006 C 
BRANCH   5   6
ATOM      6  C   UNL     1      60.515  28.713  49.827  1.00  0.00     0.053 C 
BRANCH   6   7
ATOM      7  C   UNL     1      60.909  27.297  49.538  1.00  0.00     0.041 C 
ATOM      8  O   UNL     1      62.125  26.986  49.433  1.00  0.00    -0.550 OA
ATOM      9  O   UNL     1      59.933  26.327  49.351  1.00  0.00    -0.550 OA
ENDBRANCH   6   7
ENDBRANCH   5   6
ENDBRANCH   4   5
ENDBRANCH   3   4
ENDBRANCH   2   3
ENDBRANCH   1   2
BRANCH   1  10
ATOM     10  C   UNL     1      55.313  30.204  52.996  1.00  0.00     0.027 C 
BRANCH  10  11
ATOM     11  C   UNL     1      54.791  29.123  52.089  1.00  0.00    -0.031 C 
ATOM     12  C   UNL     1      54.354  29.393  50.850  1.00  0.00    -0.031 C 
BRANCH  12  13
ATOM     13  C   UNL     1      53.833  28.311  49.943  1.00  0.00     0.027 C 
BRANCH  13  14
ATOM     14  C   UNL     1      54.119  26.910  50.504  1.00  0.00     0.004 C 
BRANCH  14  15
ATOM     15  C   UNL     1      55.006  26.036  49.598  1.00  0.00     0.000 C 
BRANCH  15  16
ATOM     16  C   UNL     1      56.461  25.965  50.080  1.00  0.00    -0.000 C 
BRANCH  16  17
ATOM     17  C   UNL     1      56.527  25.786  51.601  1.00  0.00    -0.003 C 
ATOM     18  C   UNL     1      57.874  25.215  52.033  1.00  0.00     0.004 C 
ENDBRANCH  16  17
ENDBRANCH  15  16
ENDBRANCH  14  15
ENDBRANCH  13  14
ENDBRANCH  12  13
ENDBRANCH  10  11
ENDBRANCH   1  10
TORSDOF 13
ENDMDL
MODEL 3
REMARK VINA RESULT:    -4.029      3.718      5.883
REMARK INTER + INTRA:          -7.906
REMARK INTER:                  -5.725
REMARK INTRA:                  -2.180
REMARK UNBOUND:                -0.814
REMARK SMILES CCCCCCC=CCCCCCCCC(=O)[O-]
REMARK SMILES IDX 10 1 11 2 12 3 13 4 14 5 15 6 16 7 17 8 18 9 9 10 8 11 7 12
REMARK SMILES IDX 6 13 5 14 4 15 3 16 2 17 1 18
REMARK H PARENT
REMARK Flexibility Score: inf
ROOT
ATOM      1  C   UNL     1      60.785  31.392  59.630  1.00  0.00     0.004 C 
ENDROOT
BRANCH   1   2
ATOM      2  C   UNL     1      61.111  31.677  61.104  1.00  0.00     0.000 C 
BRANCH   2   3
ATOM      3  C   UNL     1      61.516  30.388  61.836  1.00  0.00     0.000 C 
BRANCH   3   4
ATOM      4  C   UNL     1      62.829  29.785  61.306  1.00  0.00     0.000 C 
BRANCH   4   5
ATOM      5  C   UNL     1      64.072  30.685  61.462  1.00  0.00     0.006 C 
BRANCH   5   6
ATOM      6  C   UNL     1      65.128  30.509  60.359  1.00  0.00     0.053 C 
BRANCH   6   7
ATOM      7  C   UNL     1      65.749  29.146  60.392  1.00  0.00     0.041 C 
ATOM      8  O   UNL     1      66.543  28.833  61.318  1.00  0.00    -0.550 OA
ATOM      9  O   UNL     1      65.477  28.233  59.381  1.00  0.00    -0.550 OA
ENDBRANCH   6   7
ENDBRANCH   5   6
ENDBRANCH   4   5
ENDBRANCH   3   4
ENDBRANCH   2   3
ENDBRANCH   1   2
BRANCH   1  10
ATOM     10  C   UNL     1      61.625  32.250  58.675  1.00  0.00     0.027 C 
BRANCH  10  11
ATOM     11  C   UNL     1      62.492  33.225  59.425  1.00  0.00    -0.031 C 
ATOM     12  C   UNL     1      63.697  33.593  58.966  1.00  0.00    -0.031 C 
BRANCH  12  13
ATOM     13  C   UNL     1      64.564  34.568  59.717  1.00  0.00     0.027 C 
BRANCH  13  14
ATOM     14  C   UNL     1      63.993  34.884  61.108  1.00  0.00     0.004 C 
BRANCH  14  15
ATOM     15  C   UNL     1      63.498  36.333  61.273  1.00  0.00     0.000 C 
BRANCH  15  16
ATOM     16  C   UNL     1      61.980  36.467  61.089  1.00  0.00    -0.000 C 
BRANCH  16  17
ATOM     17  C   UNL     1      61.632  36.810  59.635  1.00  0.00    -0.003 C 
ATOM     18  C   UNL     1      60.259  36.267  59.253  1.00  0.00     0.004 C 
ENDBRANCH  16  17
ENDBRANCH  15  16
ENDBRANCH  14  15
ENDBRANCH  13  14
ENDBRANCH  12  13
ENDBRANCH  10  11
ENDBRANCH   1  10
TORSDOF 13
ENDMDL
MODEL 4
REMARK VINA RESULT:    -4.027      2.387      3.848
REMARK INTER + INTRA:          -7.901
REMARK INTER:                  -6.572
REMARK INTRA:                  -1.330
REMARK UNBOUND:                -0.814
REMARK SMILES CCCCCCC=CCCCCCCCC(=O)[O-]
REMARK SMILES IDX 10 1 11 2 12 3 13 4 14 5 15 6 16 7 17 8 18 9 9 10 8 11 7 12
REMARK SMILES IDX 6 13 5 14 4 15 3 16 2 17 1 18
REMARK H PARENT
REMARK Flexibility Score: inf
ROOT
ATOM      1  C   UNL     1      63.502  30.205  61.760  1.00  0.00     0.004 C 
ENDROOT
BRANCH   1   2
ATOM      2  C   UNL     1      64.416  31.017  60.830  1.00  0.00     0.000 C 
BRANCH   2   3
ATOM      3  C   UNL     1      65.399  30.099  60.087  1.00  0.00     0.000 C 
BRANCH   3   4
ATOM      4  C   UNL     1      65.237  28.616  60.467  1.00  0.00     0.000 C 
BRANCH   4   5
ATOM      5  C   UNL     1      66.538  27.788  60.439  1.00  0.00     0.006 C 
BRANCH   5   6
ATOM      6  C   UNL     1      67.759  28.540  59.887  1.00  0.00     0.053 C 
BRANCH   6   7
ATOM      7  C   UNL     1      68.797  28.772  60.942  1.00  0.00     0.041 C 
ATOM      8  O   UNL     1      68.452  29.005  62.130  1.00  0.00    -0.550 OA
ATOM      9  O   UNL     1      70.145  28.767  60.606  1.00  0.00    -0.550 OA
ENDBRANCH   6   7
ENDBRANCH   5   6
ENDBRANCH   4   5
ENDBRANCH   3   4
ENDBRANCH   2   3
ENDBRANCH   1   2
BRANCH   1  10
ATOM     10  C   UNL     1      62.016  30.451  61.471  1.00  0.00     0.027 C 
BRANCH  10  11
ATOM     11  C   UNL     1      61.824  31.276  60.228  1.00  0.00    -0.031 C 
ATOM     12  C   UNL     1      61.075  32.388  60.229  1.00  0.00    -0.031 C 
BRANCH  12  13
ATOM     13  C   UNL     1      60.883  33.213  58.986  1.00  0.00     0.027 C 
BRANCH  13  14
ATOM     14  C   UNL     1      61.518  34.606  59.123  1.00  0.00     0.004 C 
BRANCH  14  15
ATOM     15  C   UNL     1      61.317  35.258  60.503  1.00  0.00     0.000 C 
BRANCH  15  16
ATOM     16  C   UNL     1      62.602  35.891  61.055  1.00  0.00    -0.000 C 
BRANCH  16  17
ATOM     17  C   UNL     1      63.759  34.885  61.039  1.00  0.00    -0.003 C 
ATOM     18  C   UNL     1      64.975  35.430  61.783  1.00  0.00     0.004 C 
ENDBRANCH  16  17
ENDBRANCH  15  16
ENDBRANCH  14  15
ENDBRANCH  13  14
ENDBRANCH  12  13
ENDBRANCH  10  11
ENDBRANCH   1  10
TORSDOF 13
ENDMDL
MODEL 5
REMARK VINA RESULT:    -3.996     12.196     14.375
REMARK INTER + INTRA:          -7.848
REMARK INTER:                  -5.725
REMARK INTRA:                  -2.123
REMARK UNBOUND:                -0.814
REMARK SMILES CCCCCCC=CCCCCCCCC(=O)[O-]
REMARK SMILES IDX 10 1 11 2 12 3 13 4 14 5 15 6 16 7 17 8 18 9 9 10 8 11 7 12
REMARK SMILES IDX 6 13 5 14 4 15 3 16 2 17 1 18
REMARK H PARENT
REMARK Flexibility Score: inf
ROOT
ATOM      1  C   UNL     1      55.582  25.874  50.853  1.00  0.00     0.004 C 
ENDROOT
BRANCH   1   2
ATOM      2  C   UNL     1      57.082  26.186  50.749  1.00  0.00     0.000 C 
BRANCH   2   3
ATOM      3  C   UNL     1      57.548  27.045  51.935  1.00  0.00     0.000 C 
BRANCH   3   4
ATOM      4  C   UNL     1      57.986  28.460  51.514  1.00  0.00     0.000 C 
BRANCH   4   5
ATOM      5  C   UNL     1      57.886  28.753  50.003  1.00  0.00     0.006 C 
BRANCH   5   6
ATOM      6  C   UNL     1      59.221  29.121  49.336  1.00  0.00     0.053 C 
BRANCH   6   7
ATOM      7  C   UNL     1      60.299  28.131  49.659  1.00  0.00     0.041 C 
ATOM      8  O   UNL     1      60.205  26.940  49.263  1.00  0.00    -0.550 OA
ATOM      9  O   UNL     1      61.389  28.517  50.428  1.00  0.00    -0.550 OA
ENDBRANCH   6   7
ENDBRANCH   5   6
ENDBRANCH   4   5
ENDBRANCH   3   4
ENDBRANCH   2   3
ENDBRANCH   1   2
BRANCH   1  10
ATOM     10  C   UNL     1      54.830  26.202  49.557  1.00  0.00     0.027 C 
BRANCH  10  11
ATOM     11  C   UNL     1      54.004  27.451  49.699  1.00  0.00    -0.031 C 
ATOM     12  C   UNL     1      54.441  28.509  50.399  1.00  0.00    -0.031 C 
BRANCH  12  13
ATOM     13  C   UNL     1      53.615  29.758  50.540  1.00  0.00     0.027 C 
BRANCH  13  14
ATOM     14  C   UNL     1      53.782  30.397  51.928  1.00  0.00     0.004 C 
BRANCH  14  15
ATOM     15  C   UNL     1      54.152  29.400  53.041  1.00  0.00     0.000 C 
BRANCH  15  16
ATOM     16  C   UNL     1      55.457  29.769  53.761  1.00  0.00    -0.000 C 
BRANCH  16  17
ATOM     17  C   UNL     1      56.001  31.110  53.256  1.00  0.00    -0.003 C 
ATOM     18  C   UNL     1      57.309  31.473  53.953  1.00  0.00     0.004 C 
ENDBRANCH  16  17
ENDBRANCH  15  16
ENDBRANCH  14  15
ENDBRANCH  13  14
ENDBRANCH  12  13
ENDBRANCH  10  11
ENDBRANCH   1  10
TORSDOF 13
ENDMDL
MODEL 6
REMARK VINA RESULT:    -3.989     13.162     14.947
REMARK INTER + INTRA:          -7.834
REMARK INTER:                  -5.857
REMARK INTRA:                  -1.978
REMARK UNBOUND:                -0.814
REMARK SMILES CCCCCCC=CCCCCCCCC(=O)[O-]
REMARK SMILES IDX 10 1 11 2 12 3 13 4 14 5 15 6 16 7 17 8 18 9 9 10 8 11 7 12
REMARK SMILES IDX 6 13 5 14 4 15 3 16 2 17 1 18
REMARK H PARENT
REMARK Flexibility Score: inf
ROOT
ATOM      1  C   UNL     1      59.495  28.902  51.234  1.00  0.00     0.004 C 
ENDROOT
BRANCH   1   2
ATOM      2  C   UNL     1      60.450  29.182  50.063  1.00  0.00     0.000 C 
BRANCH   2   3
ATOM      3  C   UNL     1      60.871  27.874  49.374  1.00  0.00     0.000 C 
BRANCH   3   4
ATOM      4  C   UNL     1      60.794  26.653  50.308  1.00  0.00     0.000 C 
BRANCH   4   5
ATOM      5  C   UNL     1      60.002  25.453  49.751  1.00  0.00     0.006 C 
BRANCH   5   6
ATOM      6  C   UNL     1      59.622  24.397  50.802  1.00  0.00     0.053 C 
BRANCH   6   7
ATOM      7  C   UNL     1      60.374  23.117  50.605  1.00  0.00     0.041 C 
ATOM      8  O   UNL     1      60.045  22.083  51.245  1.00  0.00    -0.550 OA
ATOM      9  O   UNL     1      61.461  23.073  49.741  1.00  0.00    -0.550 OA
ENDBRANCH   6   7
ENDBRANCH   5   6
ENDBRANCH   4   5
ENDBRANCH   3   4
ENDBRANCH   2   3
ENDBRANCH   1   2
BRANCH   1  10
ATOM     10  C   UNL     1      58.042  29.255  50.893  1.00  0.00     0.027 C 
BRANCH  10  11
ATOM     11  C   UNL     1      57.336  28.106  50.227  1.00  0.00    -0.031 C 
ATOM     12  C   UNL     1      56.925  27.034  50.921  1.00  0.00    -0.031 C 
BRANCH  12  13
ATOM     13  C   UNL     1      56.219  25.884  50.255  1.00  0.00     0.027 C 
BRANCH  13  14
ATOM     14  C   UNL     1      54.704  25.921  50.511  1.00  0.00     0.004 C 
BRANCH  14  15
ATOM     15  C   UNL     1      53.881  26.493  49.342  1.00  0.00     0.000 C 
BRANCH  15  16
ATOM     16  C   UNL     1      52.892  27.579  49.787  1.00  0.00    -0.000 C 
BRANCH  16  17
ATOM     17  C   UNL     1      53.438  28.359  50.988  1.00  0.00    -0.003 C 
ATOM     18  C   UNL     1      53.995  29.714  50.560  1.00  0.00     0.004 C 
ENDBRANCH  16  17
ENDBRANCH  15  16
ENDBRANCH  14  15
ENDBRANCH  13  14
ENDBRANCH  12  13
ENDBRANCH  10  11
ENDBRANCH   1  10
TORSDOF 13
ENDMDL
MODEL 7
REMARK VINA RESULT:    -3.975      4.333      6.966
REMARK INTER + INTRA:          -7.810
REMARK INTER:                  -5.590
REMARK INTRA:                  -2.220
REMARK UNBOUND:                -0.814
REMARK SMILES CCCCCCC=CCCCCCCCC(=O)[O-]
REMARK SMILES IDX 10 1 11 2 12 3 13 4 14 5 15 6 16 7 17 8 18 9 9 10 8 11 7 12
REMARK SMILES IDX 6 13 5 14 4 15 3 16 2 17 1 18
REMARK H PARENT
REMARK Flexibility Score: inf
ROOT
ATOM      1  C   UNL     1      62.992  32.903  57.759  1.00  0.00     0.004 C 
ENDROOT
BRANCH   1   2
ATOM      2  C   UNL     1      64.091  32.573  58.779  1.00  0.00     0.000 C 
BRANCH   2   3
ATOM      3  C   UNL     1      64.606  33.849  59.464  1.00  0.00     0.000 C 
BRANCH   3   4
ATOM      4  C   UNL     1      64.022  34.049  60.874  1.00  0.00     0.000 C 
BRANCH   4   5
ATOM      5  C   UNL     1      63.302  35.394  61.099  1.00  0.00     0.006 C 
BRANCH   5   6
ATOM      6  C   UNL     1      61.822  35.402  60.682  1.00  0.00     0.053 C 
BRANCH   6   7
ATOM      7  C   UNL     1      61.619  36.065  59.354  1.00  0.00     0.041 C 
ATOM      8  O   UNL     1      60.527  35.932  58.740  1.00  0.00    -0.550 OA
ATOM      9  O   UNL     1      62.647  36.799  58.778  1.00  0.00    -0.550 OA
ENDBRANCH   6   7
ENDBRANCH   5   6
ENDBRANCH   4   5
ENDBRANCH   3   4
ENDBRANCH   2   3
ENDBRANCH   1   2
BRANCH   1  10
ATOM     10  C   UNL     1      61.598  32.509  58.262  1.00  0.00     0.027 C 
BRANCH  10  11
ATOM     11  C   UNL     1      61.678  31.610  59.466  1.00  0.00    -0.031 C 
ATOM     12  C   UNL     1      60.968  31.855  60.577  1.00  0.00    -0.031 C 
BRANCH  12  13
ATOM     13  C   UNL     1      61.049  30.956  61.780  1.00  0.00     0.027 C 
BRANCH  13  14
ATOM     14  C   UNL     1      62.386  30.203  61.840  1.00  0.00     0.004 C 
BRANCH  14  15
ATOM     15  C   UNL     1      62.278  28.700  61.523  1.00  0.00     0.000 C 
BRANCH  15  16
ATOM     16  C   UNL     1      63.579  28.117  60.952  1.00  0.00    -0.000 C 
BRANCH  16  17
ATOM     17  C   UNL     1      64.457  29.221  60.351  1.00  0.00    -0.003 C 
ATOM     18  C   UNL     1      65.895  29.115  60.849  1.00  0.00     0.004 C 
ENDBRANCH  16  17
ENDBRANCH  15  16
ENDBRANCH  14  15
ENDBRANCH  13  14
ENDBRANCH  12  13
ENDBRANCH  10  11
ENDBRANCH   1  10
TORSDOF 13
ENDMDL
MODEL 8
REMARK VINA RESULT:    -3.968     12.420     14.314
REMARK INTER + INTRA:          -7.798
REMARK INTER:                  -5.744
REMARK INTRA:                  -2.054
REMARK UNBOUND:                -0.814
REMARK SMILES CCCCCCC=CCCCCCCCC(=O)[O-]
REMARK SMILES IDX 10 1 11 2 12 3 13 4 14 5 15 6 16 7 17 8 18 9 9 10 8 11 7 12
REMARK SMILES IDX 6 13 5 14 4 15 3 16 2 17 1 18
REMARK H PARENT
REMARK Flexibility Score: inf
ROOT
ATOM      1  C   UNL     1      63.007  26.799  51.207  1.00  0.00     0.004 C 
ENDROOT
BRANCH   1   2
ATOM      2  C   UNL     1      61.849  26.516  52.176  1.00  0.00     0.000 C 
BRANCH   2   3
ATOM      3  C   UNL     1      61.495  25.021  52.186  1.00  0.00     0.000 C 
BRANCH   3   4
ATOM      4  C   UNL     1      60.032  24.750  51.792  1.00  0.00     0.000 C 
BRANCH   4   5
ATOM      5  C   UNL     1      59.831  24.194  50.368  1.00  0.00     0.006 C 
BRANCH   5   6
ATOM      6  C   UNL     1      61.124  23.734  49.675  1.00  0.00     0.053 C 
BRANCH   6   7
ATOM      7  C   UNL     1      61.280  22.245  49.711  1.00  0.00     0.041 C 
ATOM      8  O   UNL     1      60.445  21.506  49.124  1.00  0.00    -0.550 OA
ATOM      9  O   UNL     1      62.326  21.671  50.422  1.00  0.00    -0.550 OA
ENDBRANCH   6   7
ENDBRANCH   5   6
ENDBRANCH   4   5
ENDBRANCH   3   4
ENDBRANCH   2   3
ENDBRANCH   1   2
BRANCH   1  10
ATOM     10  C   UNL     1      62.518  27.040  49.774  1.00  0.00     0.027 C 
BRANCH  10  11
ATOM     11  C   UNL     1      61.399  28.046  49.734  1.00  0.00    -0.031 C 
ATOM     12  C   UNL     1      60.199  27.744  49.218  1.00  0.00    -0.031 C 
BRANCH  12  13
ATOM     13  C   UNL     1      59.080  28.749  49.178  1.00  0.00     0.027 C 
BRANCH  13  14
ATOM     14  C   UNL     1      58.461  28.967  50.567  1.00  0.00     0.004 C 
BRANCH  14  15
ATOM     15  C   UNL     1      57.027  28.425  50.710  1.00  0.00     0.000 C 
BRANCH  15  16
ATOM     16  C   UNL     1      56.985  26.994  51.267  1.00  0.00    -0.000 C 
BRANCH  16  17
ATOM     17  C   UNL     1      56.607  25.991  50.171  1.00  0.00    -0.003 C 
ATOM     18  C   UNL     1      55.195  26.246  49.652  1.00  0.00     0.004 C 
ENDBRANCH  16  17
ENDBRANCH  15  16
ENDBRANCH  14  15
ENDBRANCH  13  14
ENDBRANCH  12  13
ENDBRANCH  10  11
ENDBRANCH   1  10
TORSDOF 13
ENDMDL
MODEL 9
REMARK VINA RESULT:    -3.912      5.511      7.400
REMARK INTER + INTRA:          -7.700
REMARK INTER:                  -5.603
REMARK INTRA:                  -2.097
REMARK UNBOUND:                -0.814
REMARK SMILES CCCCCCC=CCCCCCCCC(=O)[O-]
REMARK SMILES IDX 10 1 11 2 12 3 13 4 14 5 15 6 16 7 17 8 18 9 9 10 8 11 7 12
REMARK SMILES IDX 6 13 5 14 4 15 3 16 2 17 1 18
REMARK H PARENT
REMARK Flexibility Score: inf
ROOT
ATOM      1  C   UNL     1      64.506  34.058  60.475  1.00  0.00     0.004 C 
ENDROOT
BRANCH   1   2
ATOM      2  C   UNL     1      64.050  32.699  61.028  1.00  0.00     0.000 C 
BRANCH   2   3
ATOM      3  C   UNL     1      62.927  32.104  60.165  1.00  0.00     0.000 C 
BRANCH   3   4
ATOM      4  C   UNL     1      61.540  32.224  60.821  1.00  0.00     0.000 C 
BRANCH   4   5
ATOM      5  C   UNL     1      61.138  31.040  61.724  1.00  0.00     0.006 C 
BRANCH   5   6
ATOM      6  C   UNL     1      62.215  29.953  61.866  1.00  0.00     0.053 C 
BRANCH   6   7
ATOM      7  C   UNL     1      61.795  28.662  61.233  1.00  0.00     0.041 C 
ATOM      8  O   UNL     1      62.547  27.654  61.290  1.00  0.00    -0.550 OA
ATOM      9  O   UNL     1      60.588  28.583  60.549  1.00  0.00    -0.550 OA
ENDBRANCH   6   7
ENDBRANCH   5   6
ENDBRANCH   4   5
ENDBRANCH   3   4
ENDBRANCH   2   3
ENDBRANCH   1   2
BRANCH   1  10
ATOM     10  C   UNL     1      63.994  35.229  61.323  1.00  0.00     0.027 C 
BRANCH  10  11
ATOM     11  C   UNL     1      62.943  36.022  60.594  1.00  0.00    -0.031 C 
ATOM     12  C   UNL     1      61.635  35.805  60.791  1.00  0.00    -0.031 C 
BRANCH  12  13
ATOM     13  C   UNL     1      60.584  36.597  60.062  1.00  0.00     0.027 C 
BRANCH  13  14
ATOM     14  C   UNL     1      60.490  36.192  58.582  1.00  0.00     0.004 C 
BRANCH  14  15
ATOM     15  C   UNL     1      60.213  34.695  58.354  1.00  0.00     0.000 C 
BRANCH  15  16
ATOM     16  C   UNL     1      61.278  34.020  57.479  1.00  0.00    -0.000 C 
BRANCH  16  17
ATOM     17  C   UNL     1      62.293  35.046  56.961  1.00  0.00    -0.003 C 
ATOM     18  C   UNL     1      63.718  34.507  57.048  1.00  0.00     0.004 C 
ENDBRANCH  16  17
ENDBRANCH  15  16
ENDBRANCH  14  15
ENDBRANCH  13  14
ENDBRANCH  12  13
ENDBRANCH  10  11
ENDBRANCH   1  10
TORSDOF 13
ENDMDL
