MODEL 1
REMARK VINA RESULT:    -3.594      0.000      0.000
REMARK INTER + INTRA:          -8.959
REMARK INTER:                  -6.536
REMARK INTRA:                  -2.423
REMARK UNBOUND:                -2.423
REMARK SMILES CCCCCCCCCCCCCC[C@H](C)C(=O)[O-]
REMARK SMILES IDX 9 1 10 2 11 3 12 4 13 5 14 6 15 7 16 8 17 9 18 10 19 11 8 12
REMARK SMILES IDX 7 13 6 14 5 15 4 16 3 17 2 18 1 19
REMARK H PARENT
REMARK Flexibility Score: inf
ROOT
ATOM      1  C   UNL     1      40.442  13.008  13.931  1.00  0.00     0.000 C 
ENDROOT
BRANCH   1   2
ATOM      2  C   UNL     1      41.311  11.919  14.583  1.00  0.00     0.000 C 
BRANCH   2   3
ATOM      3  C   UNL     1      41.967  12.381  15.896  1.00  0.00     0.000 C 
BRANCH   3   4
ATOM      4  C   UNL     1      41.236  11.965  17.192  1.00  0.00     0.000 C 
BRANCH   4   5
ATOM      5  C   UNL     1      40.267  13.013  17.779  1.00  0.00     0.001 C 
BRANCH   5   6
ATOM      6  C   UNL     1      40.797  14.466  17.724  1.00  0.00     0.009 C 
BRANCH   6   7
ATOM      7  C   UNL     1      39.774  15.514  17.233  1.00  0.00     0.032 C 
ATOM      8  C   UNL     1      38.475  14.878  16.718  1.00  0.00     0.014 C 
BRANCH   7   9
ATOM      9  C   UNL     1      40.386  16.459  16.231  1.00  0.00     0.044 C 
ATOM     10  O   UNL     1      40.254  16.269  14.992  1.00  0.00    -0.550 OA
ATOM     11  O   UNL     1      41.146  17.531  16.677  1.00  0.00    -0.550 OA
ENDBRANCH   7   9
ENDBRANCH   6   7
ENDBRANCH   5   6
ENDBRANCH   4   5
ENDBRANCH   3   4
ENDBRANCH   2   3
ENDBRANCH   1   2
BRANCH   1  12
ATOM     12  C   UNL     1      38.954  12.621  13.855  1.00  0.00     0.000 C 
BRANCH  12  13
ATOM     13  C   UNL     1      38.534  11.464  14.778  1.00  0.00    -0.000 C 
BRANCH  13  14
ATOM     14  C   UNL     1      37.944  10.268  14.010  1.00  0.00    -0.000 C 
BRANCH  14  15
ATOM     15  C   UNL     1      38.956   9.125  13.831  1.00  0.00    -0.000 C 
BRANCH  15  16
ATOM     16  C   UNL     1      38.882   8.487  12.433  1.00  0.00    -0.000 C 
BRANCH  16  17
ATOM     17  C   UNL     1      40.239   8.482  11.705  1.00  0.00    -0.000 C 
BRANCH  17  18
ATOM     18  C   UNL     1      40.969   9.836  11.683  1.00  0.00    -0.003 C 
ATOM     19  C   UNL     1      40.242  10.898  10.859  1.00  0.00     0.004 C 
ENDBRANCH  17  18
ENDBRANCH  16  17
ENDBRANCH  15  16
ENDBRANCH  14  15
ENDBRANCH  13  14
ENDBRANCH  12  13
ENDBRANCH   1  12
TORSDOF 14
ENDMDL
MODEL 2
REMARK VINA RESULT:    -3.387      2.801      6.152
REMARK INTER + INTRA:          -8.583
REMARK INTER:                  -5.602
REMARK INTRA:                  -2.981
REMARK UNBOUND:                -2.423
REMARK SMILES CCCCCCCCCCCCCC[C@H](C)C(=O)[O-]
REMARK SMILES IDX 9 1 10 2 11 3 12 4 13 5 14 6 15 7 16 8 17 9 18 10 19 11 8 12
REMARK SMILES IDX 7 13 6 14 5 15 4 16 3 17 2 18 1 19
REMARK H PARENT
REMARK Flexibility Score: inf
ROOT
ATOM      1  C   UNL     1      42.006  12.041  15.677  1.00  0.00     0.000 C 
ENDROOT
BRANCH   1   2
ATOM      2  C   UNL     1      41.155  11.692  14.444  1.00  0.00     0.000 C 
BRANCH   2   3
ATOM      3  C   UNL     1      40.752  12.929  13.623  1.00  0.00     0.000 C 
BRANCH   3   4
ATOM      4  C   UNL     1      39.248  13.049  13.286  1.00  0.00     0.000 C 
BRANCH   4   5
ATOM      5  C   UNL     1      38.400  11.790  13.558  1.00  0.00     0.001 C 
BRANCH   5   6
ATOM      6  C   UNL     1      38.144  10.916  12.306  1.00  0.00     0.009 C 
BRANCH   6   7
ATOM      7  C   UNL     1      38.691   9.474  12.395  1.00  0.00     0.032 C 
ATOM      8  C   UNL     1      38.714   8.937  13.833  1.00  0.00     0.014 C 
BRANCH   7   9
ATOM      9  C   UNL     1      40.030   9.346  11.714  1.00  0.00     0.044 C 
ATOM     10  O   UNL     1      40.680   8.268  11.753  1.00  0.00    -0.550 OA
ATOM     11  O   UNL     1      40.577  10.447  11.070  1.00  0.00    -0.550 OA
ENDBRANCH   7   9
ENDBRANCH   6   7
ENDBRANCH   5   6
ENDBRANCH   4   5
ENDBRANCH   3   4
ENDBRANCH   2   3
ENDBRANCH   1   2
BRANCH   1  12
ATOM     12  C   UNL     1      41.336  11.638  17.002  1.00  0.00     0.000 C 
BRANCH  12  13
ATOM     13  C   UNL     1      40.252  10.552  16.880  1.00  0.00    -0.000 C 
BRANCH  13  14
ATOM     14  C   UNL     1      38.830  11.097  17.104  1.00  0.00    -0.000 C 
BRANCH  14  15
ATOM     15  C   UNL     1      38.827  12.500  17.730  1.00  0.00    -0.000 C 
BRANCH  15  16
ATOM     16  C   UNL     1      38.111  13.537  16.846  1.00  0.00    -0.000 C 
BRANCH  16  17
ATOM     17  C   UNL     1      38.677  14.959  17.015  1.00  0.00    -0.000 C 
BRANCH  17  18
ATOM     18  C   UNL     1      40.126  15.143  16.534  1.00  0.00    -0.003 C 
ATOM     19  C   UNL     1      40.255  16.144  15.386  1.00  0.00     0.004 C 
ENDBRANCH  17  18
ENDBRANCH  16  17
ENDBRANCH  15  16
ENDBRANCH  14  15
ENDBRANCH  13  14
ENDBRANCH  12  13
ENDBRANCH   1  12
TORSDOF 14
ENDMDL
MODEL 3
REMARK VINA RESULT:    -3.377      1.240      2.177
REMARK INTER + INTRA:          -8.563
REMARK INTER:                  -6.541
REMARK INTRA:                  -2.023
REMARK UNBOUND:                -2.423
REMARK SMILES CCCCCCCCCCCCCC[C@H](C)C(=O)[O-]
REMARK SMILES IDX 9 1 10 2 11 3 12 4 13 5 14 6 15 7 16 8 17 9 18 10 19 11 8 12
REMARK SMILES IDX 7 13 6 14 5 15 4 16 3 17 2 18 1 19
REMARK H PARENT
REMARK Flexibility Score: inf
ROOT
ATOM      1  C   UNL     1      40.222  11.195  15.228  1.00  0.00     0.000 C 
ENDROOT
BRANCH   1   2
ATOM      2  C   UNL     1      40.657  11.230  16.703  1.00  0.00     0.000 C 
BRANCH   2   3
ATOM      3  C   UNL     1      41.926  12.069  16.935  1.00  0.00     0.000 C 
BRANCH   3   4
ATOM      4  C   UNL     1      41.882  13.029  18.145  1.00  0.00     0.000 C 
BRANCH   4   5
ATOM      5  C   UNL     1      40.478  13.339  18.703  1.00  0.00     0.001 C 
BRANCH   5   6
ATOM      6  C   UNL     1      39.638  14.288  17.815  1.00  0.00     0.009 C 
BRANCH   6   7
ATOM      7  C   UNL     1      40.429  15.451  17.175  1.00  0.00     0.032 C 
ATOM      8  C   UNL     1      40.158  16.798  17.861  1.00  0.00     0.014 C 
BRANCH   7   9
ATOM      9  C   UNL     1      40.214  15.513  15.685  1.00  0.00     0.044 C 
ATOM     10  O   UNL     1      40.931  14.842  14.896  1.00  0.00    -0.550 OA
ATOM     11  O   UNL     1      39.240  16.357  15.169  1.00  0.00    -0.550 OA
ENDBRANCH   7   9
ENDBRANCH   6   7
ENDBRANCH   5   6
ENDBRANCH   4   5
ENDBRANCH   3   4
ENDBRANCH   2   3
ENDBRANCH   1   2
BRANCH   1  12
ATOM     12  C   UNL     1      38.915  11.967  14.971  1.00  0.00     0.000 C 
BRANCH  12  13
ATOM     13  C   UNL     1      38.585  12.212  13.488  1.00  0.00    -0.000 C 
BRANCH  13  14
ATOM     14  C   UNL     1      39.840  12.347  12.608  1.00  0.00    -0.000 C 
BRANCH  14  15
ATOM     15  C   UNL     1      39.887  11.301  11.483  1.00  0.00    -0.000 C 
BRANCH  15  16
ATOM     16  C   UNL     1      41.016  10.274  11.681  1.00  0.00    -0.000 C 
BRANCH  16  17
ATOM     17  C   UNL     1      40.511   8.820  11.659  1.00  0.00    -0.000 C 
BRANCH  17  18
ATOM     18  C   UNL     1      39.016   8.646  11.976  1.00  0.00    -0.003 C 
ATOM     19  C   UNL     1      38.748   8.301  13.441  1.00  0.00     0.004 C 
ENDBRANCH  17  18
ENDBRANCH  16  17
ENDBRANCH  15  16
ENDBRANCH  14  15
ENDBRANCH  13  14
ENDBRANCH  12  13
ENDBRANCH   1  12
TORSDOF 14
ENDMDL
MODEL 4
REMARK VINA RESULT:    -3.365      1.209      2.771
REMARK INTER + INTRA:          -8.542
REMARK INTER:                  -6.596
REMARK INTRA:                  -1.946
REMARK UNBOUND:                -2.423
REMARK SMILES CCCCCCCCCCCCCC[C@H](C)C(=O)[O-]
REMARK SMILES IDX 9 1 10 2 11 3 12 4 13 5 14 6 15 7 16 8 17 9 18 10 19 11 8 12
REMARK SMILES IDX 7 13 6 14 5 15 4 16 3 17 2 18 1 19
REMARK H PARENT
REMARK Flexibility Score: inf
ROOT
ATOM      1  C   UNL     1      40.066  12.312  12.426  1.00  0.00     0.000 C 
ENDROOT
BRANCH   1   2
ATOM      2  C   UNL     1      41.172  12.047  13.461  1.00  0.00     0.000 C 
BRANCH   2   3
ATOM      3  C   UNL     1      40.882  12.692  14.828  1.00  0.00     0.000 C 
BRANCH   3   4
ATOM      4  C   UNL     1      41.926  12.417  15.934  1.00  0.00     0.000 C 
BRANCH   4   5
ATOM      5  C   UNL     1      41.602  13.007  17.322  1.00  0.00     0.001 C 
BRANCH   5   6
ATOM      6  C   UNL     1      40.304  13.849  17.364  1.00  0.00     0.009 C 
BRANCH   6   7
ATOM      7  C   UNL     1      40.517  15.365  17.570  1.00  0.00     0.032 C 
ATOM      8  C   UNL     1      40.069  15.843  18.958  1.00  0.00     0.014 C 
BRANCH   7   9
ATOM      9  C   UNL     1      39.893  16.168  16.458  1.00  0.00     0.044 C 
ATOM     10  O   UNL     1      40.407  16.197  15.308  1.00  0.00    -0.550 OA
ATOM     11  O   UNL     1      38.757  16.923  16.714  1.00  0.00    -0.550 OA
ENDBRANCH   7   9
ENDBRANCH   6   7
ENDBRANCH   5   6
ENDBRANCH   4   5
ENDBRANCH   3   4
ENDBRANCH   2   3
ENDBRANCH   1   2
BRANCH   1  12
ATOM     12  C   UNL     1      39.966  11.207  11.359  1.00  0.00     0.000 C 
BRANCH  12  13
ATOM     13  C   UNL     1      40.998  10.074  11.496  1.00  0.00    -0.000 C 
BRANCH  13  14
ATOM     14  C   UNL     1      40.358   8.675  11.478  1.00  0.00    -0.000 C 
BRANCH  14  15
ATOM     15  C   UNL     1      38.931   8.671  12.050  1.00  0.00    -0.000 C 
BRANCH  15  16
ATOM     16  C   UNL     1      38.905   8.397  13.564  1.00  0.00    -0.000 C 
BRANCH  16  17
ATOM     17  C   UNL     1      38.490   9.629  14.388  1.00  0.00    -0.000 C 
BRANCH  17  18
ATOM     18  C   UNL     1      38.904   9.590  15.869  1.00  0.00    -0.003 C 
ATOM     19  C   UNL     1      38.331  10.750  16.684  1.00  0.00     0.004 C 
ENDBRANCH  17  18
ENDBRANCH  16  17
ENDBRANCH  15  16
ENDBRANCH  14  15
ENDBRANCH  13  14
ENDBRANCH  12  13
ENDBRANCH   1  12
TORSDOF 14
ENDMDL
MODEL 5
REMARK VINA RESULT:    -3.312      2.121      3.871
REMARK INTER + INTRA:          -8.447
REMARK INTER:                  -6.131
REMARK INTRA:                  -2.315
REMARK UNBOUND:                -2.423
REMARK SMILES CCCCCCCCCCCCCC[C@H](C)C(=O)[O-]
REMARK SMILES IDX 9 1 10 2 11 3 12 4 13 5 14 6 15 7 16 8 17 9 18 10 19 11 8 12
REMARK SMILES IDX 7 13 6 14 5 15 4 16 3 17 2 18 1 19
REMARK H PARENT
REMARK Flexibility Score: inf
ROOT
ATOM      1  C   UNL     1      40.912  11.489  12.904  1.00  0.00     0.000 C 
ENDROOT
BRANCH   1   2
ATOM      2  C   UNL     1      39.735  12.298  12.335  1.00  0.00     0.000 C 
BRANCH   2   3
ATOM      3  C   UNL     1      38.471  12.216  13.210  1.00  0.00     0.000 C 
BRANCH   3   4
ATOM      4  C   UNL     1      38.357  13.282  14.322  1.00  0.00     0.000 C 
BRANCH   4   5
ATOM      5  C   UNL     1      39.143  12.987  15.616  1.00  0.00     0.001 C 
BRANCH   5   6
ATOM      6  C   UNL     1      40.400  13.870  15.808  1.00  0.00     0.009 C 
BRANCH   6   7
ATOM      7  C   UNL     1      41.486  13.267  16.727  1.00  0.00     0.032 C 
ATOM      8  C   UNL     1      42.003  11.912  16.223  1.00  0.00     0.014 C 
BRANCH   7   9
ATOM      9  C   UNL     1      41.026  13.208  18.161  1.00  0.00     0.044 C 
ATOM     10  O   UNL     1      41.242  12.190  18.872  1.00  0.00    -0.550 OA
ATOM     11  O   UNL     1      40.315  14.273  18.696  1.00  0.00    -0.550 OA
ENDBRANCH   7   9
ENDBRANCH   6   7
ENDBRANCH   5   6
ENDBRANCH   4   5
ENDBRANCH   3   4
ENDBRANCH   2   3
ENDBRANCH   1   2
BRANCH   1  12
ATOM     12  C   UNL     1      41.426  10.413  11.931  1.00  0.00     0.000 C 
BRANCH  12  13
ATOM     13  C   UNL     1      40.333   9.553  11.273  1.00  0.00    -0.000 C 
BRANCH  13  14
ATOM     14  C   UNL     1      39.812   8.437  12.196  1.00  0.00    -0.000 C 
BRANCH  14  15
ATOM     15  C   UNL     1      38.294   8.516  12.420  1.00  0.00    -0.000 C 
BRANCH  15  16
ATOM     16  C   UNL     1      37.913   8.422  13.908  1.00  0.00    -0.000 C 
BRANCH  16  17
ATOM     17  C   UNL     1      38.898   9.169  14.826  1.00  0.00    -0.000 C 
BRANCH  17  18
ATOM     18  C   UNL     1      38.379   9.444  16.248  1.00  0.00    -0.003 C 
ATOM     19  C   UNL     1      39.500   9.584  17.279  1.00  0.00     0.004 C 
ENDBRANCH  17  18
ENDBRANCH  16  17
ENDBRANCH  15  16
ENDBRANCH  14  15
ENDBRANCH  13  14
ENDBRANCH  12  13
ENDBRANCH   1  12
TORSDOF 14
ENDMDL
MODEL 6
REMARK VINA RESULT:    -3.300      2.204      3.674
REMARK INTER + INTRA:          -8.424
REMARK INTER:                  -6.184
REMARK INTRA:                  -2.241
REMARK UNBOUND:                -2.423
REMARK SMILES CCCCCCCCCCCCCC[C@H](C)C(=O)[O-]
REMARK SMILES IDX 9 1 10 2 11 3 12 4 13 5 14 6 15 7 16 8 17 9 18 10 19 11 8 12
REMARK SMILES IDX 7 13 6 14 5 15 4 16 3 17 2 18 1 19
REMARK H PARENT
REMARK Flexibility Score: inf
ROOT
ATOM      1  C   UNL     1      40.393  13.072  13.956  1.00  0.00     0.000 C 
ENDROOT
BRANCH   1   2
ATOM      2  C   UNL     1      38.861  12.961  13.890  1.00  0.00     0.000 C 
BRANCH   2   3
ATOM      3  C   UNL     1      38.153  13.756  15.002  1.00  0.00     0.000 C 
BRANCH   3   4
ATOM      4  C   UNL     1      38.995  14.867  15.670  1.00  0.00     0.000 C 
BRANCH   4   5
ATOM      5  C   UNL     1      39.252  14.695  17.181  1.00  0.00     0.001 C 
BRANCH   5   6
ATOM      6  C   UNL     1      40.564  13.946  17.519  1.00  0.00     0.009 C 
BRANCH   6   7
ATOM      7  C   UNL     1      40.437  12.408  17.591  1.00  0.00     0.032 C 
ATOM      8  C   UNL     1      39.422  11.947  18.646  1.00  0.00     0.014 C 
BRANCH   7   9
ATOM      9  C   UNL     1      41.782  11.749  17.762  1.00  0.00     0.044 C 
ATOM     10  O   UNL     1      41.911  10.499  17.667  1.00  0.00    -0.550 OA
ATOM     11  O   UNL     1      42.889  12.525  18.073  1.00  0.00    -0.550 OA
ENDBRANCH   7   9
ENDBRANCH   6   7
ENDBRANCH   5   6
ENDBRANCH   4   5
ENDBRANCH   3   4
ENDBRANCH   2   3
ENDBRANCH   1   2
BRANCH   1  12
ATOM     12  C   UNL     1      41.109  11.858  13.337  1.00  0.00     0.000 C 
BRANCH  12  13
ATOM     13  C   UNL     1      40.387  11.218  12.137  1.00  0.00    -0.000 C 
BRANCH  13  14
ATOM     14  C   UNL     1      41.162  10.034  11.533  1.00  0.00    -0.000 C 
BRANCH  14  15
ATOM     15  C   UNL     1      40.387   8.710  11.630  1.00  0.00    -0.000 C 
BRANCH  15  16
ATOM     16  C   UNL     1      38.933   8.912  12.091  1.00  0.00    -0.000 C 
BRANCH  16  17
ATOM     17  C   UNL     1      38.665   8.336  13.493  1.00  0.00    -0.000 C 
BRANCH  17  18
ATOM     18  C   UNL     1      38.087   9.338  14.507  1.00  0.00    -0.003 C 
ATOM     19  C   UNL     1      39.038   9.636  15.666  1.00  0.00     0.004 C 
ENDBRANCH  17  18
ENDBRANCH  16  17
ENDBRANCH  15  16
ENDBRANCH  14  15
ENDBRANCH  13  14
ENDBRANCH  12  13
ENDBRANCH   1  12
TORSDOF 14
ENDMDL
MODEL 7
REMARK VINA RESULT:    -3.256      2.935      6.031
REMARK INTER + INTRA:          -8.343
REMARK INTER:                  -5.837
REMARK INTRA:                  -2.507
REMARK UNBOUND:                -2.423
REMARK SMILES CCCCCCCCCCCCCC[C@H](C)C(=O)[O-]
REMARK SMILES IDX 9 1 10 2 11 3 12 4 13 5 14 6 15 7 16 8 17 9 18 10 19 11 8 12
REMARK SMILES IDX 7 13 6 14 5 15 4 16 3 17 2 18 1 19
REMARK H PARENT
REMARK Flexibility Score: inf
ROOT
ATOM      1  C   UNL     1      41.910  11.635  16.494  1.00  0.00     0.000 C 
ENDROOT
BRANCH   1   2
ATOM      2  C   UNL     1      41.514  10.746  17.684  1.00  0.00     0.000 C 
BRANCH   2   3
ATOM      3  C   UNL     1      40.441   9.703  17.323  1.00  0.00     0.000 C 
BRANCH   3   4
ATOM      4  C   UNL     1      39.204  10.246  16.574  1.00  0.00     0.000 C 
BRANCH   4   5
ATOM      5  C   UNL     1      39.048   9.779  15.113  1.00  0.00     0.001 C 
BRANCH   5   6
ATOM      6  C   UNL     1      38.911  10.933  14.090  1.00  0.00     0.009 C 
BRANCH   6   7
ATOM      7  C   UNL     1      40.205  11.281  13.322  1.00  0.00     0.032 C 
ATOM      8  C   UNL     1      40.413  12.794  13.167  1.00  0.00     0.014 C 
BRANCH   7   9
ATOM      9  C   UNL     1      40.278  10.554  12.003  1.00  0.00     0.044 C 
ATOM     10  O   UNL     1      41.350  10.020  11.613  1.00  0.00    -0.550 OA
ATOM     11  O   UNL     1      39.158  10.510  11.185  1.00  0.00    -0.550 OA
ENDBRANCH   7   9
ENDBRANCH   6   7
ENDBRANCH   5   6
ENDBRANCH   4   5
ENDBRANCH   3   4
ENDBRANCH   2   3
ENDBRANCH   1   2
BRANCH   1  12
ATOM     12  C   UNL     1      41.581  13.122  16.721  1.00  0.00     0.000 C 
BRANCH  12  13
ATOM     13  C   UNL     1      40.773  13.423  17.995  1.00  0.00    -0.000 C 
BRANCH  13  14
ATOM     14  C   UNL     1      39.307  13.786  17.703  1.00  0.00    -0.000 C 
BRANCH  14  15
ATOM     15  C   UNL     1      39.023  13.934  16.200  1.00  0.00    -0.000 C 
BRANCH  15  16
ATOM     16  C   UNL     1      37.995  15.039  15.901  1.00  0.00    -0.000 C 
BRANCH  16  17
ATOM     17  C   UNL     1      38.642  16.425  15.720  1.00  0.00    -0.000 C 
BRANCH  17  18
ATOM     18  C   UNL     1      40.167  16.409  15.524  1.00  0.00    -0.003 C 
ATOM     19  C   UNL     1      40.919  17.195  16.598  1.00  0.00     0.004 C 
ENDBRANCH  17  18
ENDBRANCH  16  17
ENDBRANCH  15  16
ENDBRANCH  14  15
ENDBRANCH  13  14
ENDBRANCH  12  13
ENDBRANCH   1  12
TORSDOF 14
ENDMDL
MODEL 8
REMARK VINA RESULT:    -3.229      2.681      6.440
REMARK INTER + INTRA:          -8.295
REMARK INTER:                  -5.754
REMARK INTRA:                  -2.541
REMARK UNBOUND:                -2.423
REMARK SMILES CCCCCCCCCCCCCC[C@H](C)C(=O)[O-]
REMARK SMILES IDX 9 1 10 2 11 3 12 4 13 5 14 6 15 7 16 8 17 9 18 10 19 11 8 12
REMARK SMILES IDX 7 13 6 14 5 15 4 16 3 17 2 18 1 19
REMARK H PARENT
REMARK Flexibility Score: inf
ROOT
ATOM      1  C   UNL     1      40.345  13.135  14.447  1.00  0.00     0.000 C 
ENDROOT
BRANCH   1   2
ATOM      2  C   UNL     1      38.862  12.738  14.526  1.00  0.00     0.000 C 
BRANCH   2   3
ATOM      3  C   UNL     1      38.619  11.495  15.401  1.00  0.00     0.000 C 
BRANCH   3   4
ATOM      4  C   UNL     1      37.964  10.291  14.687  1.00  0.00     0.000 C 
BRANCH   4   5
ATOM      5  C   UNL     1      38.910   9.124  14.339  1.00  0.00     0.001 C 
BRANCH   5   6
ATOM      6  C   UNL     1      39.114   8.905  12.820  1.00  0.00     0.009 C 
BRANCH   6   7
ATOM      7  C   UNL     1      39.043  10.188  11.962  1.00  0.00     0.032 C 
ATOM      8  C   UNL     1      37.875  10.169  10.965  1.00  0.00     0.014 C 
BRANCH   7   9
ATOM      9  C   UNL     1      40.362  10.480  11.294  1.00  0.00     0.044 C 
ATOM     10  O   UNL     1      41.453  10.199  11.857  1.00  0.00    -0.550 OA
ATOM     11  O   UNL     1      40.377  11.111  10.058  1.00  0.00    -0.550 OA
ENDBRANCH   7   9
ENDBRANCH   6   7
ENDBRANCH   5   6
ENDBRANCH   4   5
ENDBRANCH   3   4
ENDBRANCH   2   3
ENDBRANCH   1   2
BRANCH   1  12
ATOM     12  C   UNL     1      41.291  12.017  14.923  1.00  0.00     0.000 C 
BRANCH  12  13
ATOM     13  C   UNL     1      42.204  12.395  16.102  1.00  0.00    -0.000 C 
BRANCH  13  14
ATOM     14  C   UNL     1      41.583  12.066  17.471  1.00  0.00    -0.000 C 
BRANCH  14  15
ATOM     15  C   UNL     1      41.217  13.326  18.271  1.00  0.00    -0.000 C 
BRANCH  15  16
ATOM     16  C   UNL     1      39.700  13.578  18.310  1.00  0.00    -0.000 C 
BRANCH  16  17
ATOM     17  C   UNL     1      39.285  14.854  17.555  1.00  0.00    -0.000 C 
BRANCH  17  18
ATOM     18  C   UNL     1      40.421  15.863  17.313  1.00  0.00    -0.003 C 
ATOM     19  C   UNL     1      40.375  16.497  15.923  1.00  0.00     0.004 C 
ENDBRANCH  17  18
ENDBRANCH  16  17
ENDBRANCH  15  16
ENDBRANCH  14  15
ENDBRANCH  13  14
ENDBRANCH  12  13
ENDBRANCH   1  12
TORSDOF 14
ENDMDL
MODEL 9
REMARK VINA RESULT:    -3.184      2.843      6.286
REMARK INTER + INTRA:          -8.214
REMARK INTER:                  -5.709
REMARK INTRA:                  -2.505
REMARK UNBOUND:                -2.423
REMARK SMILES CCCCCCCCCCCCCC[C@H](C)C(=O)[O-]
REMARK SMILES IDX 9 1 10 2 11 3 12 4 13 5 14 6 15 7 16 8 17 9 18 10 19 11 8 12
REMARK SMILES IDX 7 13 6 14 5 15 4 16 3 17 2 18 1 19
REMARK H PARENT
REMARK Flexibility Score: inf
ROOT
ATOM      1  C   UNL     1      42.008  11.996  16.334  1.00  0.00     0.000 C 
ENDROOT
BRANCH   1   2
ATOM      2  C   UNL     1      41.336  10.925  17.210  1.00  0.00     0.000 C 
BRANCH   2   3
ATOM      3  C   UNL     1      39.816  10.833  16.984  1.00  0.00     0.000 C 
BRANCH   3   4
ATOM      4  C   UNL     1      39.318   9.539  16.302  1.00  0.00     0.000 C 
BRANCH   4   5
ATOM      5  C   UNL     1      38.382   9.738  15.092  1.00  0.00     0.001 C 
BRANCH   5   6
ATOM      6  C   UNL     1      38.859   9.035  13.799  1.00  0.00     0.009 C 
BRANCH   6   7
ATOM      7  C   UNL     1      39.276   9.986  12.656  1.00  0.00     0.032 C 
ATOM      8  C   UNL     1      38.110  10.331  11.718  1.00  0.00     0.014 C 
BRANCH   7   9
ATOM      9  C   UNL     1      40.476   9.462  11.909  1.00  0.00     0.044 C 
ATOM     10  O   UNL     1      40.598   8.234  11.654  1.00  0.00    -0.550 OA
ATOM     11  O   UNL     1      41.484  10.338  11.534  1.00  0.00    -0.550 OA
ENDBRANCH   7   9
ENDBRANCH   6   7
ENDBRANCH   5   6
ENDBRANCH   4   5
ENDBRANCH   3   4
ENDBRANCH   2   3
ENDBRANCH   1   2
BRANCH   1  12
ATOM     12  C   UNL     1      41.507  11.981  14.879  1.00  0.00     0.000 C 
BRANCH  12  13
ATOM     13  C   UNL     1      40.857  13.291  14.400  1.00  0.00    -0.000 C 
BRANCH  13  14
ATOM     14  C   UNL     1      39.341  13.160  14.169  1.00  0.00    -0.000 C 
BRANCH  14  15
ATOM     15  C   UNL     1      38.516  13.930  15.211  1.00  0.00    -0.000 C 
BRANCH  15  16
ATOM     16  C   UNL     1      39.124  15.303  15.545  1.00  0.00    -0.000 C 
BRANCH  16  17
ATOM     17  C   UNL     1      39.175  15.583  17.059  1.00  0.00    -0.000 C 
BRANCH  17  18
ATOM     18  C   UNL     1      39.592  14.384  17.927  1.00  0.00    -0.003 C 
ATOM     19  C   UNL     1      40.912  14.608  18.665  1.00  0.00     0.004 C 
ENDBRANCH  17  18
ENDBRANCH  16  17
ENDBRANCH  15  16
ENDBRANCH  14  15
ENDBRANCH  13  14
ENDBRANCH  12  13
ENDBRANCH   1  12
TORSDOF 14
ENDMDL
