MODEL 1
REMARK VINA RESULT:    23.659      0.000      0.000
REMARK INTER + INTRA:          60.985
REMARK INTER:                  62.386
REMARK INTRA:                  -1.401
REMARK UNBOUND:                -1.401
REMARK SMILES CCCCCCCCCCCCCCCCCCCCCCCCCCCCCC(=O)[O-]
REMARK SMILES IDX 16 1 17 2 18 3 19 4 20 5 21 6 22 7 23 8 24 9 25 10 26 11
REMARK SMILES IDX 27 12 28 13 29 14 30 15 31 16 32 17 15 18 14 19 13 20 12 21
REMARK SMILES IDX 11 22 10 23 9 24 8 25 7 26 6 27 5 28 4 29 3 30 2 31 1 32
REMARK H PARENT
REMARK Flexibility Score: inf
ROOT
ATOM      1  C   UNL     1     -32.392  12.505  17.992  1.00  0.00     0.000 C 
ENDROOT
BRANCH   1   2
ATOM      2  C   UNL     1     -33.002  12.124  19.356  1.00  0.00     0.000 C 
BRANCH   2   3
ATOM      3  C   UNL     1     -33.858  10.841  19.379  1.00  0.00     0.000 C 
BRANCH   3   4
ATOM      4  C   UNL     1     -33.922  10.139  20.749  1.00  0.00     0.000 C 
BRANCH   4   5
ATOM      5  C   UNL     1     -33.850  11.114  21.940  1.00  0.00     0.000 C 
BRANCH   5   6
ATOM      6  C   UNL     1     -34.199  10.445  23.287  1.00  0.00     0.000 C 
BRANCH   6   7
ATOM      7  C   UNL     1     -34.650  11.423  24.393  1.00  0.00     0.000 C 
BRANCH   7   8
ATOM      8  C   UNL     1     -34.569  10.886  25.832  1.00  0.00     0.000 C 
BRANCH   8   9
ATOM      9  C   UNL     1     -33.123  10.768  26.350  1.00  0.00     0.000 C 
BRANCH   9  10
ATOM     10  C   UNL     1     -32.821   9.381  26.942  1.00  0.00     0.000 C 
BRANCH  10  11
ATOM     11  C   UNL     1     -33.844   8.321  26.500  1.00  0.00     0.000 C 
BRANCH  11  12
ATOM     12  C   UNL     1     -33.215   6.932  26.282  1.00  0.00     0.000 C 
BRANCH  12  13
ATOM     13  C   UNL     1     -33.931   6.037  25.248  1.00  0.00     0.006 C 
BRANCH  13  14
ATOM     14  C   UNL     1     -35.014   6.752  24.423  1.00  0.00     0.053 C 
BRANCH  14  15
ATOM     15  C   UNL     1     -34.787   6.598  22.950  1.00  0.00     0.041 C 
ATOM     16  O   UNL     1     -35.417   5.724  22.297  1.00  0.00    -0.550 OA
ATOM     17  O   UNL     1     -33.857   7.403  22.304  1.00  0.00    -0.550 OA
ENDBRANCH  14  15
ENDBRANCH  13  14
ENDBRANCH  12  13
ENDBRANCH  11  12
ENDBRANCH  10  11
ENDBRANCH   9  10
ENDBRANCH   8   9
ENDBRANCH   7   8
ENDBRANCH   6   7
ENDBRANCH   5   6
ENDBRANCH   4   5
ENDBRANCH   3   4
ENDBRANCH   2   3
ENDBRANCH   1   2
BRANCH   1  18
ATOM     18  C   UNL     1     -33.307  12.274  16.773  1.00  0.00     0.000 C 
BRANCH  18  19
ATOM     19  C   UNL     1     -34.502  13.240  16.733  1.00  0.00     0.000 C 
BRANCH  19  20
ATOM     20  C   UNL     1     -34.117  14.625  17.278  1.00  0.00     0.000 C 
BRANCH  20  21
ATOM     21  C   UNL     1     -35.036  15.094  18.419  1.00  0.00     0.000 C 
BRANCH  21  22
ATOM     22  C   UNL     1     -34.705  16.490  18.987  1.00  0.00     0.000 C 
BRANCH  22  23
ATOM     23  C   UNL     1     -35.158  17.674  18.109  1.00  0.00     0.000 C 
BRANCH  23  24
ATOM     24  C   UNL     1     -36.686  17.845  17.980  1.00  0.00    -0.000 C 
BRANCH  24  25
ATOM     25  C   UNL     1     -37.505  16.548  18.126  1.00  0.00    -0.000 C 
BRANCH  25  26
ATOM     26  C   UNL     1     -38.857  16.609  17.392  1.00  0.00    -0.000 C 
BRANCH  26  27
ATOM     27  C   UNL     1     -40.023  16.056  18.234  1.00  0.00    -0.000 C 
BRANCH  27  28
ATOM     28  C   UNL     1     -39.620  15.421  19.580  1.00  0.00    -0.000 C 
BRANCH  28  29
ATOM     29  C   UNL     1     -39.285  13.918  19.519  1.00  0.00    -0.000 C 
BRANCH  29  30
ATOM     30  C   UNL     1     -40.450  13.008  19.079  1.00  0.00    -0.000 C 
BRANCH  30  31
ATOM     31  C   UNL     1     -40.255  11.511  19.383  1.00  0.00    -0.003 C 
ATOM     32  C   UNL     1     -39.580  10.752  18.240  1.00  0.00     0.004 C 
ENDBRANCH  30  31
ENDBRANCH  29  30
ENDBRANCH  28  29
ENDBRANCH  27  28
ENDBRANCH  26  27
ENDBRANCH  25  26
ENDBRANCH  24  25
ENDBRANCH  23  24
ENDBRANCH  22  23
ENDBRANCH  21  22
ENDBRANCH  20  21
ENDBRANCH  19  20
ENDBRANCH  18  19
ENDBRANCH   1  18
TORSDOF 28
ENDMDL
MODEL 2
REMARK VINA RESULT:    23.700      1.916      3.571
REMARK INTER + INTRA:          61.094
REMARK INTER:                  62.580
REMARK INTRA:                  -1.487
REMARK UNBOUND:                -1.401
REMARK SMILES CCCCCCCCCCCCCCCCCCCCCCCCCCCCCC(=O)[O-]
REMARK SMILES IDX 16 1 17 2 18 3 19 4 20 5 21 6 22 7 23 8 24 9 25 10 26 11
REMARK SMILES IDX 27 12 28 13 29 14 30 15 31 16 32 17 15 18 14 19 13 20 12 21
REMARK SMILES IDX 11 22 10 23 9 24 8 25 7 26 6 27 5 28 4 29 3 30 2 31 1 32
REMARK H PARENT
REMARK Flexibility Score: inf
ROOT
ATOM      1  C   UNL     1     -32.797  11.426  19.446  1.00  0.00     0.000 C 
ENDROOT
BRANCH   1   2
ATOM      2  C   UNL     1     -33.862  11.743  20.515  1.00  0.00     0.000 C 
BRANCH   2   3
ATOM      3  C   UNL     1     -34.327  10.552  21.378  1.00  0.00     0.000 C 
BRANCH   3   4
ATOM      4  C   UNL     1     -33.662   9.207  21.025  1.00  0.00     0.000 C 
BRANCH   4   5
ATOM      5  C   UNL     1     -33.439   8.296  22.248  1.00  0.00     0.000 C 
BRANCH   5   6
ATOM      6  C   UNL     1     -34.374   7.066  22.259  1.00  0.00     0.000 C 
BRANCH   6   7
ATOM      7  C   UNL     1     -34.611   6.452  23.655  1.00  0.00     0.000 C 
BRANCH   7   8
ATOM      8  C   UNL     1     -36.078   6.163  24.015  1.00  0.00     0.000 C 
BRANCH   8   9
ATOM      9  C   UNL     1     -36.592   7.027  25.183  1.00  0.00     0.000 C 
BRANCH   9  10
ATOM     10  C   UNL     1     -35.546   8.046  25.666  1.00  0.00     0.000 C 
BRANCH  10  11
ATOM     11  C   UNL     1     -36.188   9.269  26.341  1.00  0.00     0.000 C 
BRANCH  11  12
ATOM     12  C   UNL     1     -35.408  10.574  26.090  1.00  0.00     0.000 C 
BRANCH  12  13
ATOM     13  C   UNL     1     -34.199  10.449  25.138  1.00  0.00     0.006 C 
BRANCH  13  14
ATOM     14  C   UNL     1     -32.848  10.828  25.766  1.00  0.00     0.053 C 
BRANCH  14  15
ATOM     15  C   UNL     1     -32.651  10.179  27.102  1.00  0.00     0.041 C 
ATOM     16  O   UNL     1     -32.166  10.836  28.063  1.00  0.00    -0.550 OA
ATOM     17  O   UNL     1     -32.976   8.841  27.278  1.00  0.00    -0.550 OA
ENDBRANCH  14  15
ENDBRANCH  13  14
ENDBRANCH  12  13
ENDBRANCH  11  12
ENDBRANCH  10  11
ENDBRANCH   9  10
ENDBRANCH   8   9
ENDBRANCH   7   8
ENDBRANCH   6   7
ENDBRANCH   5   6
ENDBRANCH   4   5
ENDBRANCH   3   4
ENDBRANCH   2   3
ENDBRANCH   1   2
BRANCH   1  18
ATOM     18  C   UNL     1     -33.283  11.509  17.985  1.00  0.00     0.000 C 
BRANCH  18  19
ATOM     19  C   UNL     1     -32.801  12.780  17.268  1.00  0.00     0.000 C 
BRANCH  19  20
ATOM     20  C   UNL     1     -33.887  13.336  16.332  1.00  0.00     0.000 C 
BRANCH  20  21
ATOM     21  C   UNL     1     -34.688  14.488  16.965  1.00  0.00     0.000 C 
BRANCH  21  22
ATOM     22  C   UNL     1     -35.212  15.539  15.964  1.00  0.00     0.000 C 
BRANCH  22  23
ATOM     23  C   UNL     1     -34.997  17.006  16.389  1.00  0.00     0.000 C 
BRANCH  23  24
ATOM     24  C   UNL     1     -34.409  17.197  17.802  1.00  0.00    -0.000 C 
BRANCH  24  25
ATOM     25  C   UNL     1     -35.413  17.670  18.872  1.00  0.00    -0.000 C 
BRANCH  25  26
ATOM     26  C   UNL     1     -36.873  17.616  18.387  1.00  0.00    -0.000 C 
BRANCH  26  27
ATOM     27  C   UNL     1     -37.451  16.188  18.380  1.00  0.00    -0.000 C 
BRANCH  27  28
ATOM     28  C   UNL     1     -38.612  15.953  17.394  1.00  0.00    -0.000 C 
BRANCH  28  29
ATOM     29  C   UNL     1     -40.012  16.293  17.941  1.00  0.00    -0.000 C 
BRANCH  29  30
ATOM     30  C   UNL     1     -40.383  15.594  19.265  1.00  0.00    -0.000 C 
BRANCH  30  31
ATOM     31  C   UNL     1     -39.484  14.402  19.643  1.00  0.00    -0.003 C 
ATOM     32  C   UNL     1     -40.057  13.056  19.201  1.00  0.00     0.004 C 
ENDBRANCH  30  31
ENDBRANCH  29  30
ENDBRANCH  28  29
ENDBRANCH  27  28
ENDBRANCH  26  27
ENDBRANCH  25  26
ENDBRANCH  24  25
ENDBRANCH  23  24
ENDBRANCH  22  23
ENDBRANCH  21  22
ENDBRANCH  20  21
ENDBRANCH  19  20
ENDBRANCH  18  19
ENDBRANCH   1  18
TORSDOF 28
ENDMDL
MODEL 3
REMARK VINA RESULT:    24.045      4.788      9.859
REMARK INTER + INTRA:          62.002
REMARK INTER:                  62.305
REMARK INTRA:                  -0.304
REMARK UNBOUND:                -1.401
REMARK SMILES CCCCCCCCCCCCCCCCCCCCCCCCCCCCCC(=O)[O-]
REMARK SMILES IDX 16 1 17 2 18 3 19 4 20 5 21 6 22 7 23 8 24 9 25 10 26 11
REMARK SMILES IDX 27 12 28 13 29 14 30 15 31 16 32 17 15 18 14 19 13 20 12 21
REMARK SMILES IDX 11 22 10 23 9 24 8 25 7 26 6 27 5 28 4 29 3 30 2 31 1 32
REMARK H PARENT
REMARK Flexibility Score: inf
ROOT
ATOM      1  C   UNL     1     -33.657  11.802  20.051  1.00  0.00     0.000 C 
ENDROOT
BRANCH   1   2
ATOM      2  C   UNL     1     -33.885  10.454  20.763  1.00  0.00     0.000 C 
BRANCH   2   3
ATOM      3  C   UNL     1     -34.872   9.487  20.078  1.00  0.00     0.000 C 
BRANCH   3   4
ATOM      4  C   UNL     1     -35.469  10.011  18.757  1.00  0.00     0.000 C 
BRANCH   4   5
ATOM      5  C   UNL     1     -34.420  10.203  17.645  1.00  0.00     0.000 C 
BRANCH   5   6
ATOM      6  C   UNL     1     -34.738  11.397  16.719  1.00  0.00     0.000 C 
BRANCH   6   7
ATOM      7  C   UNL     1     -33.771  12.593  16.858  1.00  0.00     0.000 C 
BRANCH   7   8
ATOM      8  C   UNL     1     -34.426  13.944  17.192  1.00  0.00     0.000 C 
BRANCH   8   9
ATOM      9  C   UNL     1     -34.701  14.804  15.944  1.00  0.00     0.000 C 
BRANCH   9  10
ATOM     10  C   UNL     1     -35.132  16.237  16.300  1.00  0.00     0.000 C 
BRANCH  10  11
ATOM     11  C   UNL     1     -34.645  16.665  17.695  1.00  0.00     0.000 C 
BRANCH  11  12
ATOM     12  C   UNL     1     -35.666  17.540  18.447  1.00  0.00     0.000 C 
BRANCH  12  13
ATOM     13  C   UNL     1     -37.149  17.219  18.162  1.00  0.00     0.006 C 
BRANCH  13  14
ATOM     14  C   UNL     1     -37.526  15.737  18.319  1.00  0.00     0.053 C 
BRANCH  14  15
ATOM     15  C   UNL     1     -38.960  15.564  18.717  1.00  0.00     0.041 C 
ATOM     16  O   UNL     1     -39.269  14.787  19.660  1.00  0.00    -0.550 OA
ATOM     17  O   UNL     1     -39.957  16.239  18.025  1.00  0.00    -0.550 OA
ENDBRANCH  14  15
ENDBRANCH  13  14
ENDBRANCH  12  13
ENDBRANCH  11  12
ENDBRANCH  10  11
ENDBRANCH   9  10
ENDBRANCH   8   9
ENDBRANCH   7   8
ENDBRANCH   6   7
ENDBRANCH   5   6
ENDBRANCH   4   5
ENDBRANCH   3   4
ENDBRANCH   2   3
ENDBRANCH   1   2
BRANCH   1  18
ATOM     18  C   UNL     1     -32.181  12.201  19.851  1.00  0.00     0.000 C 
BRANCH  18  19
ATOM     19  C   UNL     1     -31.711  12.037  18.397  1.00  0.00     0.000 C 
BRANCH  19  20
ATOM     20  C   UNL     1     -30.393  12.788  18.150  1.00  0.00     0.000 C 
BRANCH  20  21
ATOM     21  C   UNL     1     -29.994  12.821  16.664  1.00  0.00     0.000 C 
BRANCH  21  22
ATOM     22  C   UNL     1     -28.519  13.185  16.396  1.00  0.00     0.000 C 
BRANCH  22  23
ATOM     23  C   UNL     1     -28.292  14.599  15.822  1.00  0.00     0.000 C 
BRANCH  23  24
ATOM     24  C   UNL     1     -27.803  15.648  16.842  1.00  0.00    -0.000 C 
BRANCH  24  25
ATOM     25  C   UNL     1     -26.375  15.425  17.378  1.00  0.00    -0.000 C 
BRANCH  25  26
ATOM     26  C   UNL     1     -26.341  15.159  18.894  1.00  0.00    -0.000 C 
BRANCH  26  27
ATOM     27  C   UNL     1     -26.194  16.446  19.726  1.00  0.00    -0.000 C 
BRANCH  27  28
ATOM     28  C   UNL     1     -26.118  16.238  21.252  1.00  0.00    -0.000 C 
BRANCH  28  29
ATOM     29  C   UNL     1     -27.270  16.874  22.056  1.00  0.00    -0.000 C 
BRANCH  29  30
ATOM     30  C   UNL     1     -28.296  15.875  22.627  1.00  0.00    -0.000 C 
BRANCH  30  31
ATOM     31  C   UNL     1     -28.368  14.525  21.890  1.00  0.00    -0.003 C 
ATOM     32  C   UNL     1     -27.553  13.427  22.572  1.00  0.00     0.004 C 
ENDBRANCH  30  31
ENDBRANCH  29  30
ENDBRANCH  28  29
ENDBRANCH  27  28
ENDBRANCH  26  27
ENDBRANCH  25  26
ENDBRANCH  24  25
ENDBRANCH  23  24
ENDBRANCH  22  23
ENDBRANCH  21  22
ENDBRANCH  20  21
ENDBRANCH  19  20
ENDBRANCH  18  19
ENDBRANCH   1  18
TORSDOF 28
ENDMDL
MODEL 4
REMARK VINA RESULT:    24.273      4.748      7.431
REMARK INTER + INTRA:          62.603
REMARK INTER:                  62.892
REMARK INTRA:                  -0.289
REMARK UNBOUND:                -1.401
REMARK SMILES CCCCCCCCCCCCCCCCCCCCCCCCCCCCCC(=O)[O-]
REMARK SMILES IDX 16 1 17 2 18 3 19 4 20 5 21 6 22 7 23 8 24 9 25 10 26 11
REMARK SMILES IDX 27 12 28 13 29 14 30 15 31 16 32 17 15 18 14 19 13 20 12 21
REMARK SMILES IDX 11 22 10 23 9 24 8 25 7 26 6 27 5 28 4 29 3 30 2 31 1 32
REMARK H PARENT
REMARK Flexibility Score: inf
ROOT
ATOM      1  C   UNL     1     -32.118  12.403  19.027  1.00  0.00     0.000 C 
ENDROOT
BRANCH   1   2
ATOM      2  C   UNL     1     -30.861  11.976  18.243  1.00  0.00     0.000 C 
BRANCH   2   3
ATOM      3  C   UNL     1     -30.471  12.874  17.051  1.00  0.00     0.000 C 
BRANCH   3   4
ATOM      4  C   UNL     1     -28.968  12.871  16.711  1.00  0.00     0.000 C 
BRANCH   4   5
ATOM      5  C   UNL     1     -28.544  14.042  15.803  1.00  0.00     0.000 C 
BRANCH   5   6
ATOM      6  C   UNL     1     -27.998  15.250  16.596  1.00  0.00     0.000 C 
BRANCH   6   7
ATOM      7  C   UNL     1     -27.052  14.880  17.759  1.00  0.00     0.000 C 
BRANCH   7   8
ATOM      8  C   UNL     1     -25.752  15.696  17.845  1.00  0.00     0.000 C 
BRANCH   8   9
ATOM      9  C   UNL     1     -25.898  16.975  18.691  1.00  0.00     0.000 C 
BRANCH   9  10
ATOM     10  C   UNL     1     -25.894  16.684  20.202  1.00  0.00     0.000 C 
BRANCH  10  11
ATOM     11  C   UNL     1     -27.255  16.974  20.857  1.00  0.00     0.000 C 
BRANCH  11  12
ATOM     12  C   UNL     1     -27.158  17.178  22.381  1.00  0.00     0.000 C 
BRANCH  12  13
ATOM     13  C   UNL     1     -28.176  16.377  23.221  1.00  0.00     0.006 C 
BRANCH  13  14
ATOM     14  C   UNL     1     -28.765  15.147  22.512  1.00  0.00     0.053 C 
BRANCH  14  15
ATOM     15  C   UNL     1     -27.759  14.046  22.372  1.00  0.00     0.041 C 
ATOM     16  O   UNL     1     -28.065  12.863  22.681  1.00  0.00    -0.550 OA
ATOM     17  O   UNL     1     -26.475  14.332  21.929  1.00  0.00    -0.550 OA
ENDBRANCH  14  15
ENDBRANCH  13  14
ENDBRANCH  12  13
ENDBRANCH  11  12
ENDBRANCH  10  11
ENDBRANCH   9  10
ENDBRANCH   8   9
ENDBRANCH   7   8
ENDBRANCH   6   7
ENDBRANCH   5   6
ENDBRANCH   4   5
ENDBRANCH   3   4
ENDBRANCH   2   3
ENDBRANCH   1   2
BRANCH   1  18
ATOM     18  C   UNL     1     -33.305  11.423  18.954  1.00  0.00     0.000 C 
BRANCH  18  19
ATOM     19  C   UNL     1     -34.004  11.434  17.586  1.00  0.00     0.000 C 
BRANCH  19  20
ATOM     20  C   UNL     1     -33.788  12.773  16.862  1.00  0.00     0.000 C 
BRANCH  20  21
ATOM     21  C   UNL     1     -35.035  13.675  16.889  1.00  0.00     0.000 C 
BRANCH  21  22
ATOM     22  C   UNL     1     -34.741  15.182  17.036  1.00  0.00     0.000 C 
BRANCH  22  23
ATOM     23  C   UNL     1     -34.646  15.687  18.490  1.00  0.00     0.000 C 
BRANCH  23  24
ATOM     24  C   UNL     1     -34.720  17.219  18.656  1.00  0.00    -0.000 C 
BRANCH  24  25
ATOM     25  C   UNL     1     -35.767  17.925  17.772  1.00  0.00    -0.000 C 
BRANCH  25  26
ATOM     26  C   UNL     1     -37.210  17.692  18.253  1.00  0.00    -0.000 C 
BRANCH  26  27
ATOM     27  C   UNL     1     -37.758  16.307  17.859  1.00  0.00    -0.000 C 
BRANCH  27  28
ATOM     28  C   UNL     1     -39.288  16.148  17.970  1.00  0.00    -0.000 C 
BRANCH  28  29
ATOM     29  C   UNL     1     -39.773  15.337  19.188  1.00  0.00    -0.000 C 
BRANCH  29  30
ATOM     30  C   UNL     1     -39.225  13.898  19.274  1.00  0.00    -0.000 C 
BRANCH  30  31
ATOM     31  C   UNL     1     -40.282  12.817  19.564  1.00  0.00    -0.003 C 
ATOM     32  C   UNL     1     -39.988  11.489  18.865  1.00  0.00     0.004 C 
ENDBRANCH  30  31
ENDBRANCH  29  30
ENDBRANCH  28  29
ENDBRANCH  27  28
ENDBRANCH  26  27
ENDBRANCH  25  26
ENDBRANCH  24  25
ENDBRANCH  23  24
ENDBRANCH  22  23
ENDBRANCH  21  22
ENDBRANCH  20  21
ENDBRANCH  19  20
ENDBRANCH  18  19
ENDBRANCH   1  18
TORSDOF 28
ENDMDL
MODEL 5
REMARK VINA RESULT:    24.711      2.976      9.717
REMARK INTER + INTRA:          63.758
REMARK INTER:                  63.936
REMARK INTRA:                  -0.178
REMARK UNBOUND:                -1.401
REMARK SMILES CCCCCCCCCCCCCCCCCCCCCCCCCCCCCC(=O)[O-]
REMARK SMILES IDX 16 1 17 2 18 3 19 4 20 5 21 6 22 7 23 8 24 9 25 10 26 11
REMARK SMILES IDX 27 12 28 13 29 14 30 15 31 16 32 17 15 18 14 19 13 20 12 21
REMARK SMILES IDX 11 22 10 23 9 24 8 25 7 26 6 27 5 28 4 29 3 30 2 31 1 32
REMARK H PARENT
REMARK Flexibility Score: inf
ROOT
ATOM      1  C   UNL     1     -33.982  12.073  20.038  1.00  0.00     0.000 C 
ENDROOT
BRANCH   1   2
ATOM      2  C   UNL     1     -32.597  12.094  19.361  1.00  0.00     0.000 C 
BRANCH   2   3
ATOM      3  C   UNL     1     -32.534  11.509  17.935  1.00  0.00     0.000 C 
BRANCH   3   4
ATOM      4  C   UNL     1     -33.894  11.060  17.366  1.00  0.00     0.000 C 
BRANCH   4   5
ATOM      5  C   UNL     1     -34.614  12.161  16.564  1.00  0.00     0.000 C 
BRANCH   5   6
ATOM      6  C   UNL     1     -33.695  13.353  16.221  1.00  0.00     0.000 C 
BRANCH   6   7
ATOM      7  C   UNL     1     -34.427  14.704  16.063  1.00  0.00     0.000 C 
BRANCH   7   8
ATOM      8  C   UNL     1     -35.390  15.077  17.202  1.00  0.00     0.000 C 
BRANCH   8   9
ATOM      9  C   UNL     1     -34.682  15.229  18.562  1.00  0.00     0.000 C 
BRANCH   9  10
ATOM     10  C   UNL     1     -34.630  16.690  19.038  1.00  0.00     0.000 C 
BRANCH  10  11
ATOM     11  C   UNL     1     -34.756  17.689  17.876  1.00  0.00     0.000 C 
BRANCH  11  12
ATOM     12  C   UNL     1     -36.109  18.426  17.858  1.00  0.00     0.000 C 
BRANCH  12  13
ATOM     13  C   UNL     1     -37.273  17.685  18.551  1.00  0.00     0.006 C 
BRANCH  13  14
ATOM     14  C   UNL     1     -37.688  16.369  17.873  1.00  0.00     0.053 C 
BRANCH  14  15
ATOM     15  C   UNL     1     -38.957  15.819  18.450  1.00  0.00     0.041 C 
ATOM     16  O   UNL     1     -38.918  14.977  19.387  1.00  0.00    -0.550 OA
ATOM     17  O   UNL     1     -40.183  16.216  17.932  1.00  0.00    -0.550 OA
ENDBRANCH  14  15
ENDBRANCH  13  14
ENDBRANCH  12  13
ENDBRANCH  11  12
ENDBRANCH  10  11
ENDBRANCH   9  10
ENDBRANCH   8   9
ENDBRANCH   7   8
ENDBRANCH   6   7
ENDBRANCH   5   6
ENDBRANCH   4   5
ENDBRANCH   3   4
ENDBRANCH   2   3
ENDBRANCH   1   2
BRANCH   1  18
ATOM     18  C   UNL     1     -34.118  11.110  21.234  1.00  0.00     0.000 C 
BRANCH  18  19
ATOM     19  C   UNL     1     -34.285  11.844  22.574  1.00  0.00     0.000 C 
BRANCH  19  20
ATOM     20  C   UNL     1     -34.174  10.870  23.759  1.00  0.00     0.000 C 
BRANCH  20  21
ATOM     21  C   UNL     1     -34.708  11.466  25.073  1.00  0.00     0.000 C 
BRANCH  21  22
ATOM     22  C   UNL     1     -33.774  11.295  26.289  1.00  0.00     0.000 C 
BRANCH  22  23
ATOM     23  C   UNL     1     -32.701  10.198  26.136  1.00  0.00     0.000 C 
BRANCH  23  24
ATOM     24  C   UNL     1     -32.735   9.096  27.215  1.00  0.00    -0.000 C 
BRANCH  24  25
ATOM     25  C   UNL     1     -34.094   8.391  27.390  1.00  0.00    -0.000 C 
BRANCH  25  26
ATOM     26  C   UNL     1     -34.867   8.247  26.067  1.00  0.00    -0.000 C 
BRANCH  26  27
ATOM     27  C   UNL     1     -34.465   6.991  25.271  1.00  0.00    -0.000 C 
BRANCH  27  28
ATOM     28  C   UNL     1     -35.528   6.468  24.284  1.00  0.00    -0.000 C 
BRANCH  28  29
ATOM     29  C   UNL     1     -34.989   6.062  22.898  1.00  0.00    -0.000 C 
BRANCH  29  30
ATOM     30  C   UNL     1     -34.632   7.239  21.967  1.00  0.00    -0.000 C 
BRANCH  30  31
ATOM     31  C   UNL     1     -33.232   7.839  22.188  1.00  0.00    -0.003 C 
ATOM     32  C   UNL     1     -32.807   8.794  21.072  1.00  0.00     0.004 C 
ENDBRANCH  30  31
ENDBRANCH  29  30
ENDBRANCH  28  29
ENDBRANCH  27  28
ENDBRANCH  26  27
ENDBRANCH  25  26
ENDBRANCH  24  25
ENDBRANCH  23  24
ENDBRANCH  22  23
ENDBRANCH  21  22
ENDBRANCH  20  21
ENDBRANCH  19  20
ENDBRANCH  18  19
ENDBRANCH   1  18
TORSDOF 28
ENDMDL
MODEL 6
REMARK VINA RESULT:    24.761      4.028      7.593
REMARK INTER + INTRA:          63.890
REMARK INTER:                  65.383
REMARK INTRA:                  -1.493
REMARK UNBOUND:                -1.401
REMARK SMILES CCCCCCCCCCCCCCCCCCCCCCCCCCCCCC(=O)[O-]
REMARK SMILES IDX 16 1 17 2 18 3 19 4 20 5 21 6 22 7 23 8 24 9 25 10 26 11
REMARK SMILES IDX 27 12 28 13 29 14 30 15 31 16 32 17 15 18 14 19 13 20 12 21
REMARK SMILES IDX 11 22 10 23 9 24 8 25 7 26 6 27 5 28 4 29 3 30 2 31 1 32
REMARK H PARENT
REMARK Flexibility Score: inf
ROOT
ATOM      1  C   UNL     1     -32.958  11.899  19.629  1.00  0.00     0.000 C 
ENDROOT
BRANCH   1   2
ATOM      2  C   UNL     1     -33.933  12.296  20.756  1.00  0.00     0.000 C 
BRANCH   2   3
ATOM      3  C   UNL     1     -34.323  11.173  21.739  1.00  0.00     0.000 C 
BRANCH   3   4
ATOM      4  C   UNL     1     -34.343   9.761  21.121  1.00  0.00     0.000 C 
BRANCH   4   5
ATOM      5  C   UNL     1     -33.015   8.999  21.294  1.00  0.00     0.000 C 
BRANCH   5   6
ATOM      6  C   UNL     1     -33.210   7.568  21.842  1.00  0.00     0.000 C 
BRANCH   6   7
ATOM      7  C   UNL     1     -34.646   7.252  22.314  1.00  0.00     0.000 C 
BRANCH   7   8
ATOM      8  C   UNL     1     -34.755   6.374  23.572  1.00  0.00     0.000 C 
BRANCH   8   9
ATOM      9  C   UNL     1     -35.723   6.948  24.624  1.00  0.00     0.000 C 
BRANCH   9  10
ATOM     10  C   UNL     1     -34.991   7.697  25.750  1.00  0.00     0.000 C 
BRANCH  10  11
ATOM     11  C   UNL     1     -35.708   8.997  26.151  1.00  0.00     0.000 C 
BRANCH  11  12
ATOM     12  C   UNL     1     -35.390  10.175  25.210  1.00  0.00     0.000 C 
BRANCH  12  13
ATOM     13  C   UNL     1     -34.213  11.072  25.649  1.00  0.00     0.006 C 
BRANCH  13  14
ATOM     14  C   UNL     1     -32.867  10.343  25.782  1.00  0.00     0.053 C 
BRANCH  14  15
ATOM     15  C   UNL     1     -32.549  10.011  27.208  1.00  0.00     0.041 C 
ATOM     16  O   UNL     1     -32.647   8.824  27.622  1.00  0.00    -0.550 OA
ATOM     17  O   UNL     1     -32.172  11.018  28.087  1.00  0.00    -0.550 OA
ENDBRANCH  14  15
ENDBRANCH  13  14
ENDBRANCH  12  13
ENDBRANCH  11  12
ENDBRANCH  10  11
ENDBRANCH   9  10
ENDBRANCH   8   9
ENDBRANCH   7   8
ENDBRANCH   6   7
ENDBRANCH   5   6
ENDBRANCH   4   5
ENDBRANCH   3   4
ENDBRANCH   2   3
ENDBRANCH   1   2
BRANCH   1  18
ATOM     18  C   UNL     1     -33.619  11.509  18.292  1.00  0.00     0.000 C 
BRANCH  18  19
ATOM     19  C   UNL     1     -33.922  12.723  17.400  1.00  0.00     0.000 C 
BRANCH  19  20
ATOM     20  C   UNL     1     -32.670  13.174  16.630  1.00  0.00     0.000 C 
BRANCH  20  21
ATOM     21  C   UNL     1     -31.430  12.323  16.955  1.00  0.00     0.000 C 
BRANCH  21  22
ATOM     22  C   UNL     1     -30.197  13.126  17.422  1.00  0.00     0.000 C 
BRANCH  22  23
ATOM     23  C   UNL     1     -28.897  12.830  16.646  1.00  0.00     0.000 C 
BRANCH  23  24
ATOM     24  C   UNL     1     -28.266  14.048  15.940  1.00  0.00    -0.000 C 
BRANCH  24  25
ATOM     25  C   UNL     1     -27.927  15.237  16.860  1.00  0.00    -0.000 C 
BRANCH  25  26
ATOM     26  C   UNL     1     -26.678  14.985  17.725  1.00  0.00    -0.000 C 
BRANCH  26  27
ATOM     27  C   UNL     1     -25.952  16.284  18.123  1.00  0.00    -0.000 C 
BRANCH  27  28
ATOM     28  C   UNL     1     -26.057  16.666  19.613  1.00  0.00    -0.000 C 
BRANCH  28  29
ATOM     29  C   UNL     1     -26.344  15.491  20.570  1.00  0.00    -0.000 C 
BRANCH  29  30
ATOM     30  C   UNL     1     -27.047  15.879  21.886  1.00  0.00    -0.000 C 
BRANCH  30  31
ATOM     31  C   UNL     1     -28.340  15.098  22.186  1.00  0.00    -0.003 C 
ATOM     32  C   UNL     1     -28.078  13.679  22.689  1.00  0.00     0.004 C 
ENDBRANCH  30  31
ENDBRANCH  29  30
ENDBRANCH  28  29
ENDBRANCH  27  28
ENDBRANCH  26  27
ENDBRANCH  25  26
ENDBRANCH  24  25
ENDBRANCH  23  24
ENDBRANCH  22  23
ENDBRANCH  21  22
ENDBRANCH  20  21
ENDBRANCH  19  20
ENDBRANCH  18  19
ENDBRANCH   1  18
TORSDOF 28
ENDMDL
MODEL 7
REMARK VINA RESULT:    24.763      1.722      2.952
REMARK INTER + INTRA:          63.895
REMARK INTER:                  64.463
REMARK INTRA:                  -0.567
REMARK UNBOUND:                -1.401
REMARK SMILES CCCCCCCCCCCCCCCCCCCCCCCCCCCCCC(=O)[O-]
REMARK SMILES IDX 16 1 17 2 18 3 19 4 20 5 21 6 22 7 23 8 24 9 25 10 26 11
REMARK SMILES IDX 27 12 28 13 29 14 30 15 31 16 32 17 15 18 14 19 13 20 12 21
REMARK SMILES IDX 11 22 10 23 9 24 8 25 7 26 6 27 5 28 4 29 3 30 2 31 1 32
REMARK H PARENT
REMARK Flexibility Score: inf
ROOT
ATOM      1  C   UNL     1     -33.370  11.842  17.131  1.00  0.00     0.000 C 
ENDROOT
BRANCH   1   2
ATOM      2  C   UNL     1     -32.545  12.284  18.357  1.00  0.00     0.000 C 
BRANCH   2   3
ATOM      3  C   UNL     1     -32.709  11.423  19.627  1.00  0.00     0.000 C 
BRANCH   3   4
ATOM      4  C   UNL     1     -34.063  11.590  20.343  1.00  0.00     0.000 C 
BRANCH   4   5
ATOM      5  C   UNL     1     -34.126  10.873  21.706  1.00  0.00     0.000 C 
BRANCH   5   6
ATOM      6  C   UNL     1     -33.262   9.594  21.753  1.00  0.00     0.000 C 
BRANCH   6   7
ATOM      7  C   UNL     1     -34.008   8.300  21.361  1.00  0.00     0.000 C 
BRANCH   7   8
ATOM      8  C   UNL     1     -34.940   7.718  22.436  1.00  0.00     0.000 C 
BRANCH   8   9
ATOM      9  C   UNL     1     -34.383   6.437  23.086  1.00  0.00     0.000 C 
BRANCH   9  10
ATOM     10  C   UNL     1     -34.704   6.352  24.588  1.00  0.00     0.000 C 
BRANCH  10  11
ATOM     11  C   UNL     1     -35.771   7.373  25.017  1.00  0.00     0.000 C 
BRANCH  11  12
ATOM     12  C   UNL     1     -35.208   8.491  25.916  1.00  0.00     0.000 C 
BRANCH  12  13
ATOM     13  C   UNL     1     -34.104   8.053  26.902  1.00  0.00     0.006 C 
BRANCH  13  14
ATOM     14  C   UNL     1     -32.774   8.809  26.751  1.00  0.00     0.053 C 
BRANCH  14  15
ATOM     15  C   UNL     1     -32.983  10.287  26.619  1.00  0.00     0.041 C 
ATOM     16  O   UNL     1     -32.582  11.070  27.521  1.00  0.00    -0.550 OA
ATOM     17  O   UNL     1     -33.648  10.797  25.511  1.00  0.00    -0.550 OA
ENDBRANCH  14  15
ENDBRANCH  13  14
ENDBRANCH  12  13
ENDBRANCH  11  12
ENDBRANCH  10  11
ENDBRANCH   9  10
ENDBRANCH   8   9
ENDBRANCH   7   8
ENDBRANCH   6   7
ENDBRANCH   5   6
ENDBRANCH   4   5
ENDBRANCH   3   4
ENDBRANCH   2   3
ENDBRANCH   1   2
BRANCH   1  18
ATOM     18  C   UNL     1     -34.558  12.755  16.771  1.00  0.00     0.000 C 
BRANCH  18  19
ATOM     19  C   UNL     1     -34.121  14.056  16.080  1.00  0.00     0.000 C 
BRANCH  19  20
ATOM     20  C   UNL     1     -34.916  15.261  16.608  1.00  0.00     0.000 C 
BRANCH  20  21
ATOM     21  C   UNL     1     -34.938  15.335  18.145  1.00  0.00     0.000 C 
BRANCH  21  22
ATOM     22  C   UNL     1     -34.519  16.697  18.735  1.00  0.00     0.000 C 
BRANCH  22  23
ATOM     23  C   UNL     1     -35.158  17.925  18.056  1.00  0.00     0.000 C 
BRANCH  23  24
ATOM     24  C   UNL     1     -36.698  17.981  18.123  1.00  0.00    -0.000 C 
BRANCH  24  25
ATOM     25  C   UNL     1     -37.387  16.655  18.500  1.00  0.00    -0.000 C 
BRANCH  25  26
ATOM     26  C   UNL     1     -38.372  16.165  17.423  1.00  0.00    -0.000 C 
BRANCH  26  27
ATOM     27  C   UNL     1     -39.751  16.844  17.517  1.00  0.00    -0.000 C 
BRANCH  27  28
ATOM     28  C   UNL     1     -40.946  15.885  17.690  1.00  0.00    -0.000 C 
BRANCH  28  29
ATOM     29  C   UNL     1     -41.027  15.184  19.061  1.00  0.00    -0.000 C 
BRANCH  29  30
ATOM     30  C   UNL     1     -39.786  14.352  19.443  1.00  0.00    -0.000 C 
BRANCH  30  31
ATOM     31  C   UNL     1     -39.714  12.958  18.794  1.00  0.00    -0.003 C 
ATOM     32  C   UNL     1     -40.560  11.914  19.523  1.00  0.00     0.004 C 
ENDBRANCH  30  31
ENDBRANCH  29  30
ENDBRANCH  28  29
ENDBRANCH  27  28
ENDBRANCH  26  27
ENDBRANCH  25  26
ENDBRANCH  24  25
ENDBRANCH  23  24
ENDBRANCH  22  23
ENDBRANCH  21  22
ENDBRANCH  20  21
ENDBRANCH  19  20
ENDBRANCH  18  19
ENDBRANCH   1  18
TORSDOF 28
ENDMDL
MODEL 8
REMARK VINA RESULT:    24.828      1.648      3.086
REMARK INTER + INTRA:          64.066
REMARK INTER:                  64.078
REMARK INTRA:                  -0.011
REMARK UNBOUND:                -1.401
REMARK SMILES CCCCCCCCCCCCCCCCCCCCCCCCCCCCCC(=O)[O-]
REMARK SMILES IDX 16 1 17 2 18 3 19 4 20 5 21 6 22 7 23 8 24 9 25 10 26 11
REMARK SMILES IDX 27 12 28 13 29 14 30 15 31 16 32 17 15 18 14 19 13 20 12 21
REMARK SMILES IDX 11 22 10 23 9 24 8 25 7 26 6 27 5 28 4 29 3 30 2 31 1 32
REMARK H PARENT
REMARK Flexibility Score: inf
ROOT
ATOM      1  C   UNL     1     -33.837  10.981  19.116  1.00  0.00     0.000 C 
ENDROOT
BRANCH   1   2
ATOM      2  C   UNL     1     -34.296  10.216  20.374  1.00  0.00     0.000 C 
BRANCH   2   3
ATOM      3  C   UNL     1     -33.710  10.707  21.713  1.00  0.00     0.000 C 
BRANCH   3   4
ATOM      4  C   UNL     1     -34.667  11.577  22.551  1.00  0.00     0.000 C 
BRANCH   4   5
ATOM      5  C   UNL     1     -34.181  11.804  23.996  1.00  0.00     0.000 C 
BRANCH   5   6
ATOM      6  C   UNL     1     -33.706  10.503  24.681  1.00  0.00     0.000 C 
BRANCH   6   7
ATOM      7  C   UNL     1     -33.050  10.708  26.064  1.00  0.00     0.000 C 
BRANCH   7   8
ATOM      8  C   UNL     1     -33.019   9.471  26.976  1.00  0.00     0.000 C 
BRANCH   8   9
ATOM      9  C   UNL     1     -34.220   8.531  26.757  1.00  0.00     0.000 C 
BRANCH   9  10
ATOM     10  C   UNL     1     -35.522   9.298  26.468  1.00  0.00     0.000 C 
BRANCH  10  11
ATOM     11  C   UNL     1     -36.584   8.414  25.794  1.00  0.00     0.000 C 
BRANCH  11  12
ATOM     12  C   UNL     1     -36.068   7.003  25.456  1.00  0.00     0.000 C 
BRANCH  12  13
ATOM     13  C   UNL     1     -36.589   6.408  24.130  1.00  0.00     0.006 C 
BRANCH  13  14
ATOM     14  C   UNL     1     -35.917   6.971  22.868  1.00  0.00     0.053 C 
BRANCH  14  15
ATOM     15  C   UNL     1     -34.424   6.859  22.932  1.00  0.00     0.041 C 
ATOM     16  O   UNL     1     -33.708   7.388  22.040  1.00  0.00    -0.550 OA
ATOM     17  O   UNL     1     -33.826   6.144  23.962  1.00  0.00    -0.550 OA
ENDBRANCH  14  15
ENDBRANCH  13  14
ENDBRANCH  12  13
ENDBRANCH  11  12
ENDBRANCH  10  11
ENDBRANCH   9  10
ENDBRANCH   8   9
ENDBRANCH   7   8
ENDBRANCH   6   7
ENDBRANCH   5   6
ENDBRANCH   4   5
ENDBRANCH   3   4
ENDBRANCH   2   3
ENDBRANCH   1   2
BRANCH   1  18
ATOM     18  C   UNL     1     -32.864  12.148  19.371  1.00  0.00     0.000 C 
BRANCH  18  19
ATOM     19  C   UNL     1     -31.745  12.232  18.322  1.00  0.00     0.000 C 
BRANCH  19  20
ATOM     20  C   UNL     1     -32.305  12.597  16.938  1.00  0.00     0.000 C 
BRANCH  20  21
ATOM     21  C   UNL     1     -33.835  12.769  16.939  1.00  0.00     0.000 C 
BRANCH  21  22
ATOM     22  C   UNL     1     -34.354  13.964  16.113  1.00  0.00     0.000 C 
BRANCH  22  23
ATOM     23  C   UNL     1     -35.013  15.088  16.939  1.00  0.00     0.000 C 
BRANCH  23  24
ATOM     24  C   UNL     1     -34.649  15.096  18.438  1.00  0.00    -0.000 C 
BRANCH  24  25
ATOM     25  C   UNL     1     -34.859  16.444  19.156  1.00  0.00    -0.000 C 
BRANCH  25  26
ATOM     26  C   UNL     1     -34.652  17.654  18.228  1.00  0.00    -0.000 C 
BRANCH  26  27
ATOM     27  C   UNL     1     -35.971  18.197  17.646  1.00  0.00    -0.000 C 
BRANCH  27  28
ATOM     28  C   UNL     1     -37.253  17.698  18.343  1.00  0.00    -0.000 C 
BRANCH  28  29
ATOM     29  C   UNL     1     -37.806  16.360  17.811  1.00  0.00    -0.000 C 
BRANCH  29  30
ATOM     30  C   UNL     1     -38.793  15.642  18.754  1.00  0.00    -0.000 C 
BRANCH  30  31
ATOM     31  C   UNL     1     -40.280  15.841  18.411  1.00  0.00    -0.003 C 
ATOM     32  C   UNL     1     -40.503  16.835  17.271  1.00  0.00     0.004 C 
ENDBRANCH  30  31
ENDBRANCH  29  30
ENDBRANCH  28  29
ENDBRANCH  27  28
ENDBRANCH  26  27
ENDBRANCH  25  26
ENDBRANCH  24  25
ENDBRANCH  23  24
ENDBRANCH  22  23
ENDBRANCH  21  22
ENDBRANCH  20  21
ENDBRANCH  19  20
ENDBRANCH  18  19
ENDBRANCH   1  18
TORSDOF 28
ENDMDL
MODEL 9
REMARK VINA RESULT:    24.967      4.414     10.203
REMARK INTER + INTRA:          64.433
REMARK INTER:                  65.835
REMARK INTRA:                  -1.403
REMARK UNBOUND:                -1.401
REMARK SMILES CCCCCCCCCCCCCCCCCCCCCCCCCCCCCC(=O)[O-]
REMARK SMILES IDX 16 1 17 2 18 3 19 4 20 5 21 6 22 7 23 8 24 9 25 10 26 11
REMARK SMILES IDX 27 12 28 13 29 14 30 15 31 16 32 17 15 18 14 19 13 20 12 21
REMARK SMILES IDX 11 22 10 23 9 24 8 25 7 26 6 27 5 28 4 29 3 30 2 31 1 32
REMARK H PARENT
REMARK Flexibility Score: inf
ROOT
ATOM      1  C   UNL     1     -33.241  11.164  19.769  1.00  0.00     0.000 C 
ENDROOT
BRANCH   1   2
ATOM      2  C   UNL     1     -33.966  12.446  19.313  1.00  0.00     0.000 C 
BRANCH   2   3
ATOM      3  C   UNL     1     -33.648  12.930  17.883  1.00  0.00     0.000 C 
BRANCH   3   4
ATOM      4  C   UNL     1     -32.474  12.198  17.206  1.00  0.00     0.000 C 
BRANCH   4   5
ATOM      5  C   UNL     1     -31.199  13.058  17.095  1.00  0.00     0.000 C 
BRANCH   5   6
ATOM      6  C   UNL     1     -29.957  12.240  16.679  1.00  0.00     0.000 C 
BRANCH   6   7
ATOM      7  C   UNL     1     -28.616  12.990  16.824  1.00  0.00     0.000 C 
BRANCH   7   8
ATOM      8  C   UNL     1     -28.436  14.216  15.913  1.00  0.00     0.000 C 
BRANCH   8   9
ATOM      9  C   UNL     1     -27.733  15.392  16.617  1.00  0.00     0.000 C 
BRANCH   9  10
ATOM     10  C   UNL     1     -26.874  14.936  17.808  1.00  0.00     0.000 C 
BRANCH  10  11
ATOM     11  C   UNL     1     -25.736  15.921  18.121  1.00  0.00     0.000 C 
BRANCH  11  12
ATOM     12  C   UNL     1     -25.955  16.698  19.433  1.00  0.00     0.000 C 
BRANCH  12  13
ATOM     13  C   UNL     1     -26.257  15.830  20.673  1.00  0.00     0.006 C 
BRANCH  13  14
ATOM     14  C   UNL     1     -27.084  16.533  21.761  1.00  0.00     0.053 C 
BRANCH  14  15
ATOM     15  C   UNL     1     -27.941  15.569  22.523  1.00  0.00     0.041 C 
ATOM     16  O   UNL     1     -28.670  15.975  23.468  1.00  0.00    -0.550 OA
ATOM     17  O   UNL     1     -27.912  14.216  22.208  1.00  0.00    -0.550 OA
ENDBRANCH  14  15
ENDBRANCH  13  14
ENDBRANCH  12  13
ENDBRANCH  11  12
ENDBRANCH  10  11
ENDBRANCH   9  10
ENDBRANCH   8   9
ENDBRANCH   7   8
ENDBRANCH   6   7
ENDBRANCH   5   6
ENDBRANCH   4   5
ENDBRANCH   3   4
ENDBRANCH   2   3
ENDBRANCH   1   2
BRANCH   1  18
ATOM     18  C   UNL     1     -34.014  10.291  20.775  1.00  0.00     0.000 C 
BRANCH  18  19
ATOM     19  C   UNL     1     -33.211   9.067  21.244  1.00  0.00     0.000 C 
BRANCH  19  20
ATOM     20  C   UNL     1     -33.976   8.277  22.317  1.00  0.00     0.000 C 
BRANCH  20  21
ATOM     21  C   UNL     1     -33.991   6.762  22.046  1.00  0.00     0.000 C 
BRANCH  21  22
ATOM     22  C   UNL     1     -34.787   5.927  23.071  1.00  0.00     0.000 C 
BRANCH  22  23
ATOM     23  C   UNL     1     -34.999   6.607  24.439  1.00  0.00     0.000 C 
BRANCH  23  24
ATOM     24  C   UNL     1     -36.453   7.023  24.743  1.00  0.00    -0.000 C 
BRANCH  24  25
ATOM     25  C   UNL     1     -36.636   7.897  25.999  1.00  0.00    -0.000 C 
BRANCH  25  26
ATOM     26  C   UNL     1     -35.567   8.999  26.121  1.00  0.00    -0.000 C 
BRANCH  26  27
ATOM     27  C   UNL     1     -34.699   8.855  27.385  1.00  0.00    -0.000 C 
BRANCH  27  28
ATOM     28  C   UNL     1     -33.176   8.864  27.143  1.00  0.00    -0.000 C 
BRANCH  28  29
ATOM     29  C   UNL     1     -32.649  10.073  26.345  1.00  0.00    -0.000 C 
BRANCH  29  30
ATOM     30  C   UNL     1     -33.739  10.984  25.744  1.00  0.00    -0.000 C 
BRANCH  30  31
ATOM     31  C   UNL     1     -33.601  11.251  24.234  1.00  0.00    -0.003 C 
ATOM     32  C   UNL     1     -34.864  11.851  23.615  1.00  0.00     0.004 C 
ENDBRANCH  30  31
ENDBRANCH  29  30
ENDBRANCH  28  29
ENDBRANCH  27  28
ENDBRANCH  26  27
ENDBRANCH  25  26
ENDBRANCH  24  25
ENDBRANCH  23  24
ENDBRANCH  22  23
ENDBRANCH  21  22
ENDBRANCH  20  21
ENDBRANCH  19  20
ENDBRANCH  18  19
ENDBRANCH   1  18
TORSDOF 28
ENDMDL
