MODEL 1
REMARK VINA RESULT:    -4.796      0.000      0.000
REMARK INTER + INTRA:          -7.581
REMARK INTER:                  -7.319
REMARK INTRA:                  -0.262
REMARK UNBOUND:                -0.262
REMARK SMILES CC1=CCC[C@@H](C)C(=O)C[C@@H](C(C)C)C(=O)C1
REMARK SMILES IDX 8 1 9 2 6 3 7 4 5 5 4 6 3 7 2 8 1 9 10 11 11 12 15 13 16 14
REMARK SMILES IDX 17 15 12 17 13 18 14 19
REMARK H PARENT
REMARK Flexibility Score: 70.00
ROOT
ATOM      1  C   UNL     1     102.266 132.484  50.914  1.00  0.00     0.136 C 
ATOM      2  O   UNL     1     103.315 132.407  50.292  1.00  0.00    -0.299 OA
ENDROOT
BRANCH   1   3
ATOM      3  C   UNL     1     101.663 131.240  51.533  1.00  0.00     0.053 C 
ATOM      4  C   UNL     1     100.374 131.612  52.270  1.00  0.00     0.016 C 
BRANCH   3   5
ATOM      5  C   UNL     1     102.642 130.528  52.498  1.00  0.00     0.015 C 
BRANCH   5   6
ATOM      6  C   UNL     1     102.703 131.158  53.897  1.00  0.00     0.028 C 
BRANCH   6   7
ATOM      7  C   UNL     1     103.912 132.050  54.047  1.00  0.00    -0.028 C 
ATOM      8  C   UNL     1     103.879 133.401  54.100  1.00  0.00    -0.070 CG0
ATOM      9  C   UNL     1     105.184 134.138  54.256  1.00  0.00     0.039 C 
ATOM     10  G   UNL     1     102.589 134.196  54.020  1.00  0.00     0.000 G0
ENDBRANCH   6   7
ENDBRANCH   5   6
ENDBRANCH   3   5
ENDBRANCH   1   3
BRANCH   1  11
ATOM     11  C   UNL     1     101.620 133.835  51.104  1.00  0.00     0.087 C 
BRANCH  11  12
ATOM     12  C   UNL     1     102.623 134.967  51.456  1.00  0.00     0.066 C 
BRANCH  12  13
ATOM     13  C   UNL     1     102.575 135.271  52.951  1.00  0.00     0.140 C 
ATOM     14  O   UNL     1     102.603 136.439  53.315  1.00  0.00    -0.299 OA
BRANCH  13  15
ATOM     15  C   UNL     1     102.592 134.194  54.018  1.00  0.00     0.106 CG0
ATOM     16  G   UNL     1     103.891 133.414  54.098  1.00  0.00     0.000 G0
ENDBRANCH  13  15
ENDBRANCH  12  13
BRANCH  12  17
ATOM     17  C   UNL     1     102.334 136.262  50.630  1.00  0.00    -0.006 C 
ATOM     18  C   UNL     1     101.039 136.149  49.805  1.00  0.00     0.008 C 
ATOM     19  C   UNL     1     103.498 136.597  49.680  1.00  0.00     0.008 C 
ENDBRANCH  12  17
ENDBRANCH  11  12
ENDBRANCH   1  11
TORSDOF 1
ENDMDL
MODEL 2
REMARK VINA RESULT:    -4.688      1.894      3.670
REMARK INTER + INTRA:          -7.416
REMARK INTER:                  -7.044
REMARK INTRA:                  -0.373
REMARK UNBOUND:                -0.262
REMARK SMILES CC1=CCC[C@@H](C)C(=O)C[C@@H](C(C)C)C(=O)C1
REMARK SMILES IDX 8 1 9 2 6 3 7 4 5 5 4 6 3 7 2 8 1 9 10 11 11 12 15 13 16 14
REMARK SMILES IDX 17 15 12 17 13 18 14 19
REMARK H PARENT
REMARK Flexibility Score: 70.00
ROOT
ATOM      1  C   UNL     1     102.928 132.091  51.269  1.00  0.00     0.136 C 
ATOM      2  O   UNL     1     102.677 131.451  50.258  1.00  0.00    -0.299 OA
ENDROOT
BRANCH   1   3
ATOM      3  C   UNL     1     102.303 131.690  52.589  1.00  0.00     0.053 C 
ATOM      4  C   UNL     1     103.044 130.476  53.155  1.00  0.00     0.016 C 
BRANCH   3   5
ATOM      5  C   UNL     1     100.793 131.378  52.455  1.00  0.00     0.015 C 
BRANCH   5   6
ATOM      6  C   UNL     1      99.888 132.608  52.615  1.00  0.00     0.028 C 
BRANCH   6   7
ATOM      7  C   UNL     1      99.673 133.307  51.294  1.00  0.00    -0.028 C 
ATOM      8  C   UNL     1     100.190 134.512  50.961  1.00  0.00    -0.070 CG0
ATOM      9  C   UNL     1      99.877 135.066  49.594  1.00  0.00     0.039 C 
ATOM     10  G   UNL     1     101.075 135.315  51.896  1.00  0.00     0.000 G0
ENDBRANCH   6   7
ENDBRANCH   5   6
ENDBRANCH   3   5
ENDBRANCH   1   3
BRANCH   1  11
ATOM     11  C   UNL     1     103.909 133.237  51.192  1.00  0.00     0.087 C 
BRANCH  11  12
ATOM     12  C   UNL     1     103.590 134.404  52.164  1.00  0.00     0.066 C 
BRANCH  12  13
ATOM     13  C   UNL     1     102.556 135.342  51.545  1.00  0.00     0.140 C 
ATOM     14  O   UNL     1     102.940 136.215  50.780  1.00  0.00    -0.299 OA
BRANCH  13  15
ATOM     15  C   UNL     1     101.084 135.309  51.906  1.00  0.00     0.106 CG0
ATOM     16  G   UNL     1     100.223 134.507  50.947  1.00  0.00     0.000 G0
ENDBRANCH  13  15
ENDBRANCH  12  13
BRANCH  12  17
ATOM     17  C   UNL     1     104.881 135.197  52.546  1.00  0.00    -0.006 C 
ATOM     18  C   UNL     1     106.098 134.272  52.731  1.00  0.00     0.008 C 
ATOM     19  C   UNL     1     104.681 136.014  53.836  1.00  0.00     0.008 C 
ENDBRANCH  12  17
ENDBRANCH  11  12
ENDBRANCH   1  11
TORSDOF 1
ENDMDL
MODEL 3
REMARK VINA RESULT:    -4.438      2.129      3.719
REMARK INTER + INTRA:          -7.035
REMARK INTER:                  -6.578
REMARK INTRA:                  -0.457
REMARK UNBOUND:                -0.262
REMARK SMILES CC1=CCC[C@@H](C)C(=O)C[C@@H](C(C)C)C(=O)C1
REMARK SMILES IDX 8 1 9 2 6 3 7 4 5 5 4 6 3 7 2 8 1 9 10 11 11 12 15 13 16 14
REMARK SMILES IDX 17 15 12 17 13 18 14 19
REMARK H PARENT
REMARK Flexibility Score: 70.00
ROOT
ATOM      1  C   UNL     1     104.961 132.781  53.841  1.00  0.00     0.136 C 
ATOM      2  O   UNL     1     106.055 132.451  54.275  1.00  0.00    -0.299 OA
ENDROOT
BRANCH   1   3
ATOM      3  C   UNL     1     103.701 132.309  54.536  1.00  0.00     0.053 C 
ATOM      4  C   UNL     1     103.849 132.506  56.047  1.00  0.00     0.016 C 
BRANCH   3   5
ATOM      5  C   UNL     1     103.374 130.829  54.222  1.00  0.00     0.015 C 
BRANCH   5   6
ATOM      6  C   UNL     1     102.852 130.597  52.797  1.00  0.00     0.028 C 
BRANCH   6   7
ATOM      7  C   UNL     1     101.517 131.271  52.583  1.00  0.00    -0.028 C 
ATOM      8  C   UNL     1     101.289 132.284  51.718  1.00  0.00    -0.070 CG0
ATOM      9  C   UNL     1      99.891 132.840  51.628  1.00  0.00     0.039 C 
ATOM     10  G   UNL     1     102.373 132.871  50.833  1.00  0.00     0.000 G0
ENDBRANCH   6   7
ENDBRANCH   5   6
ENDBRANCH   3   5
ENDBRANCH   1   3
BRANCH   1  11
ATOM     11  C   UNL     1     104.889 133.707  52.650  1.00  0.00     0.087 C 
BRANCH  11  12
ATOM     12  C   UNL     1     103.566 134.514  52.560  1.00  0.00     0.066 C 
BRANCH  12  13
ATOM     13  C   UNL     1     102.873 134.250  51.226  1.00  0.00     0.140 C 
ATOM     14  O   UNL     1     102.640 135.196  50.487  1.00  0.00    -0.299 OA
BRANCH  13  15
ATOM     15  C   UNL     1     102.369 132.882  50.810  1.00  0.00     0.106 CG0
ATOM     16  G   UNL     1     101.298 132.306  51.719  1.00  0.00     0.000 G0
ENDBRANCH  13  15
ENDBRANCH  12  13
BRANCH  12  17
ATOM     17  C   UNL     1     103.819 136.045  52.745  1.00  0.00    -0.006 C 
ATOM     18  C   UNL     1     105.255 136.449  52.361  1.00  0.00     0.008 C 
ATOM     19  C   UNL     1     103.553 136.491  54.195  1.00  0.00     0.008 C 
ENDBRANCH  12  17
ENDBRANCH  11  12
ENDBRANCH   1  11
TORSDOF 1
ENDMDL
MODEL 4
REMARK VINA RESULT:    -4.416      1.859      4.006
REMARK INTER + INTRA:          -7.001
REMARK INTER:                  -6.671
REMARK INTRA:                  -0.330
REMARK UNBOUND:                -0.262
REMARK SMILES CC1=CCC[C@@H](C)C(=O)C[C@@H](C(C)C)C(=O)C1
REMARK SMILES IDX 8 1 9 2 6 3 7 4 5 5 4 6 3 7 2 8 1 9 10 11 11 12 15 13 16 14
REMARK SMILES IDX 17 15 12 17 13 18 14 19
REMARK H PARENT
REMARK Flexibility Score: 70.00
ROOT
ATOM      1  C   UNL     1     101.417 134.493  51.121  1.00  0.00     0.136 C 
ATOM      2  O   UNL     1     100.341 134.305  50.570  1.00  0.00    -0.299 OA
ENDROOT
BRANCH   1   3
ATOM      3  C   UNL     1     102.077 135.854  51.040  1.00  0.00     0.053 C 
ATOM      4  C   UNL     1     101.513 136.623  49.843  1.00  0.00     0.016 C 
BRANCH   3   5
ATOM      5  C   UNL     1     103.618 135.755  50.932  1.00  0.00     0.015 C 
BRANCH   5   6
ATOM      6  C   UNL     1     104.359 136.209  52.198  1.00  0.00     0.028 C 
BRANCH   6   7
ATOM      7  C   UNL     1     105.397 135.196  52.621  1.00  0.00    -0.028 C 
ATOM      8  C   UNL     1     105.272 134.348  53.667  1.00  0.00    -0.070 CG0
ATOM      9  C   UNL     1     106.407 133.396  53.948  1.00  0.00     0.039 C 
ATOM     10  G   UNL     1     104.041 134.310  54.554  1.00  0.00     0.000 G0
ENDBRANCH   6   7
ENDBRANCH   5   6
ENDBRANCH   3   5
ENDBRANCH   1   3
BRANCH   1  11
ATOM     11  C   UNL     1     102.038 133.376  51.925  1.00  0.00     0.087 C 
BRANCH  11  12
ATOM     12  C   UNL     1     101.767 133.474  53.450  1.00  0.00     0.066 C 
BRANCH  12  13
ATOM     13  C   UNL     1     103.051 133.211  54.234  1.00  0.00     0.140 C 
ATOM     14  O   UNL     1     103.253 132.087  54.671  1.00  0.00    -0.299 OA
BRANCH  13  15
ATOM     15  C   UNL     1     104.047 134.300  54.583  1.00  0.00     0.106 CG0
ATOM     16  G   UNL     1     105.266 134.346  53.680  1.00  0.00     0.000 G0
ENDBRANCH  13  15
ENDBRANCH  12  13
BRANCH  12  17
ATOM     17  C   UNL     1     100.648 132.479  53.896  1.00  0.00    -0.006 C 
ATOM     18  C   UNL     1     100.368 131.403  52.830  1.00  0.00     0.008 C 
ATOM     19  C   UNL     1      99.333 133.213  54.213  1.00  0.00     0.008 C 
ENDBRANCH  12  17
ENDBRANCH  11  12
ENDBRANCH   1  11
TORSDOF 1
ENDMDL
MODEL 5
REMARK VINA RESULT:    -4.415      1.594      2.767
REMARK INTER + INTRA:          -7.000
REMARK INTER:                  -6.866
REMARK INTRA:                  -0.134
REMARK UNBOUND:                -0.262
REMARK SMILES CC1=CCC[C@@H](C)C(=O)C[C@@H](C(C)C)C(=O)C1
REMARK SMILES IDX 8 1 9 2 6 3 7 4 5 5 4 6 3 7 2 8 1 9 10 11 11 12 15 13 16 14
REMARK SMILES IDX 17 15 12 17 13 18 14 19
REMARK H PARENT
REMARK Flexibility Score: 70.00
ROOT
ATOM      1  C   UNL     1     102.134 134.222  51.056  1.00  0.00     0.136 C 
ATOM      2  O   UNL     1     101.387 134.693  50.210  1.00  0.00    -0.299 OA
ENDROOT
BRANCH   1   3
ATOM      3  C   UNL     1     102.441 132.739  51.047  1.00  0.00     0.053 C 
ATOM      4  C   UNL     1     103.147 132.372  49.739  1.00  0.00     0.016 C 
BRANCH   3   5
ATOM      5  C   UNL     1     101.171 131.873  51.227  1.00  0.00     0.015 C 
BRANCH   5   6
ATOM      6  C   UNL     1     100.958 131.372  52.663  1.00  0.00     0.028 C 
BRANCH   6   7
ATOM      7  C   UNL     1     102.267 130.991  53.312  1.00  0.00    -0.028 C 
ATOM      8  C   UNL     1     102.897 131.710  54.269  1.00  0.00    -0.070 CG0
ATOM      9  C   UNL     1     104.200 131.181  54.812  1.00  0.00     0.039 C 
ATOM     10  G   UNL     1     102.343 133.011  54.819  1.00  0.00     0.000 G0
ENDBRANCH   6   7
ENDBRANCH   5   6
ENDBRANCH   3   5
ENDBRANCH   1   3
BRANCH   1  11
ATOM     11  C   UNL     1     102.786 135.143  52.058  1.00  0.00     0.087 C 
BRANCH  11  12
ATOM     12  C   UNL     1     103.764 134.426  53.028  1.00  0.00     0.066 C 
BRANCH  12  13
ATOM     13  C   UNL     1     103.123 134.264  54.403  1.00  0.00     0.140 C 
ATOM     14  O   UNL     1     103.298 135.138  55.241  1.00  0.00    -0.299 OA
BRANCH  13  15
ATOM     15  C   UNL     1     102.356 133.024  54.821  1.00  0.00     0.106 CG0
ATOM     16  G   UNL     1     102.913 131.727  54.264  1.00  0.00     0.000 G0
ENDBRANCH  13  15
ENDBRANCH  12  13
BRANCH  12  17
ATOM     17  C   UNL     1     105.117 135.199  53.149  1.00  0.00    -0.006 C 
ATOM     18  C   UNL     1     105.198 136.385  52.170  1.00  0.00     0.008 C 
ATOM     19  C   UNL     1     106.321 134.273  52.903  1.00  0.00     0.008 C 
ENDBRANCH  12  17
ENDBRANCH  11  12
ENDBRANCH   1  11
TORSDOF 1
ENDMDL
MODEL 6
REMARK VINA RESULT:    -4.377      1.859      3.436
REMARK INTER + INTRA:          -6.942
REMARK INTER:                  -6.453
REMARK INTRA:                  -0.489
REMARK UNBOUND:                -0.262
REMARK SMILES CC1=CCC[C@@H](C)C(=O)C[C@@H](C(C)C)C(=O)C1
REMARK SMILES IDX 8 1 9 2 6 3 7 4 5 5 4 6 3 7 2 8 1 9 10 11 11 12 15 13 16 14
REMARK SMILES IDX 17 15 12 17 13 18 14 19
REMARK H PARENT
REMARK Flexibility Score: 70.00
ROOT
ATOM      1  C   UNL     1     102.083 133.986  51.005  1.00  0.00     0.136 C 
ATOM      2  O   UNL     1     101.545 134.508  50.039  1.00  0.00    -0.299 OA
ENDROOT
BRANCH   1   3
ATOM      3  C   UNL     1     102.153 132.477  51.105  1.00  0.00     0.053 C 
ATOM      4  C   UNL     1     102.836 131.915  49.855  1.00  0.00     0.016 C 
BRANCH   3   5
ATOM      5  C   UNL     1     100.757 131.833  51.284  1.00  0.00     0.015 C 
BRANCH   5   6
ATOM      6  C   UNL     1     100.458 131.388  52.722  1.00  0.00     0.028 C 
BRANCH   6   7
ATOM      7  C   UNL     1      99.580 132.388  53.437  1.00  0.00    -0.028 C 
ATOM      8  C   UNL     1      99.981 133.187  54.452  1.00  0.00    -0.070 CG0
ATOM      9  C   UNL     1      98.973 134.133  55.052  1.00  0.00     0.039 C 
ATOM     10  G   UNL     1     101.397 133.175  54.999  1.00  0.00     0.000 G0
ENDBRANCH   6   7
ENDBRANCH   5   6
ENDBRANCH   3   5
ENDBRANCH   1   3
BRANCH   1  11
ATOM     11  C   UNL     1     102.724 134.864  52.054  1.00  0.00     0.087 C 
BRANCH  11  12
ATOM     12  C   UNL     1     103.248 134.085  53.291  1.00  0.00     0.066 C 
BRANCH  12  13
ATOM     13  C   UNL     1     102.309 134.281  54.478  1.00  0.00     0.140 C 
ATOM     14  O   UNL     1     102.334 135.348  55.076  1.00  0.00    -0.299 OA
BRANCH  13  15
ATOM     15  C   UNL     1     101.412 133.184  55.017  1.00  0.00     0.106 CG0
ATOM     16  G   UNL     1     100.003 133.194  54.452  1.00  0.00     0.000 G0
ENDBRANCH  13  15
ENDBRANCH  12  13
BRANCH  12  17
ATOM     17  C   UNL     1     104.699 134.524  53.669  1.00  0.00    -0.006 C 
ATOM     18  C   UNL     1     105.257 135.583  52.700  1.00  0.00     0.008 C 
ATOM     19  C   UNL     1     105.663 133.325  53.698  1.00  0.00     0.008 C 
ENDBRANCH  12  17
ENDBRANCH  11  12
ENDBRANCH   1  11
TORSDOF 1
ENDMDL
MODEL 7
REMARK VINA RESULT:    -4.334      1.998      4.957
REMARK INTER + INTRA:          -6.877
REMARK INTER:                  -6.563
REMARK INTRA:                  -0.314
REMARK UNBOUND:                -0.262
REMARK SMILES CC1=CCC[C@@H](C)C(=O)C[C@@H](C(C)C)C(=O)C1
REMARK SMILES IDX 8 1 9 2 6 3 7 4 5 5 4 6 3 7 2 8 1 9 10 11 11 12 15 13 16 14
REMARK SMILES IDX 17 15 12 17 13 18 14 19
REMARK H PARENT
REMARK Flexibility Score: 70.00
ROOT
ATOM      1  C   UNL     1     104.146 134.233  52.138  1.00  0.00     0.136 C 
ATOM      2  O   UNL     1     104.374 133.364  51.310  1.00  0.00    -0.299 OA
ENDROOT
BRANCH   1   3
ATOM      3  C   UNL     1     104.224 135.692  51.740  1.00  0.00     0.053 C 
ATOM      4  C   UNL     1     103.999 136.569  52.975  1.00  0.00     0.016 C 
BRANCH   3   5
ATOM      5  C   UNL     1     103.203 136.057  50.635  1.00  0.00     0.015 C 
BRANCH   5   6
ATOM      6  C   UNL     1     101.773 136.264  51.155  1.00  0.00     0.028 C 
BRANCH   6   7
ATOM      7  C   UNL     1     100.897 135.073  50.845  1.00  0.00    -0.028 C 
ATOM      8  C   UNL     1     100.424 134.199  51.761  1.00  0.00    -0.070 CG0
ATOM      9  C   UNL     1      99.557 133.063  51.277  1.00  0.00     0.039 C 
ATOM     10  G   UNL     1     100.718 134.320  53.245  1.00  0.00     0.000 G0
ENDBRANCH   6   7
ENDBRANCH   5   6
ENDBRANCH   3   5
ENDBRANCH   1   3
BRANCH   1  11
ATOM     11  C   UNL     1     103.731 133.831  53.533  1.00  0.00     0.087 C 
BRANCH  11  12
ATOM     12  C   UNL     1     102.773 132.610  53.576  1.00  0.00     0.066 C 
BRANCH  12  13
ATOM     13  C   UNL     1     101.347 133.066  53.871  1.00  0.00     0.140 C 
ATOM     14  O   UNL     1     100.638 132.361  54.577  1.00  0.00    -0.299 OA
BRANCH  13  15
ATOM     15  C   UNL     1     100.727 134.305  53.254  1.00  0.00     0.106 CG0
ATOM     16  G   UNL     1     100.422 134.180  51.773  1.00  0.00     0.000 G0
ENDBRANCH  13  15
ENDBRANCH  12  13
BRANCH  12  17
ATOM     17  C   UNL     1     103.236 131.559  54.636  1.00  0.00    -0.006 C 
ATOM     18  C   UNL     1     104.391 132.083  55.509  1.00  0.00     0.008 C 
ATOM     19  C   UNL     1     103.677 130.243  53.971  1.00  0.00     0.008 C 
ENDBRANCH  12  17
ENDBRANCH  11  12
ENDBRANCH   1  11
TORSDOF 1
ENDMDL
MODEL 8
REMARK VINA RESULT:    -4.261      1.758      4.092
REMARK INTER + INTRA:          -6.765
REMARK INTER:                  -6.615
REMARK INTRA:                  -0.150
REMARK UNBOUND:                -0.262
REMARK SMILES CC1=CCC[C@@H](C)C(=O)C[C@@H](C(C)C)C(=O)C1
REMARK SMILES IDX 8 1 9 2 6 3 7 4 5 5 4 6 3 7 2 8 1 9 10 11 11 12 15 13 16 14
REMARK SMILES IDX 17 15 12 17 13 18 14 19
REMARK H PARENT
REMARK Flexibility Score: 70.00
ROOT
ATOM      1  C   UNL     1     102.530 134.211  50.869  1.00  0.00     0.136 C 
ATOM      2  O   UNL     1     102.185 133.734  49.797  1.00  0.00    -0.299 OA
ENDROOT
BRANCH   1   3
ATOM      3  C   UNL     1     102.515 135.712  51.066  1.00  0.00     0.053 C 
ATOM      4  C   UNL     1     101.625 136.356  49.999  1.00  0.00     0.016 C 
BRANCH   3   5
ATOM      5  C   UNL     1     103.934 136.328  51.018  1.00  0.00     0.015 C 
BRANCH   5   6
ATOM      6  C   UNL     1     104.744 136.122  52.306  1.00  0.00     0.028 C 
BRANCH   6   7
ATOM      7  C   UNL     1     104.000 136.642  53.513  1.00  0.00    -0.028 C 
ATOM      8  C   UNL     1     103.551 135.879  54.536  1.00  0.00    -0.070 CG0
ATOM      9  C   UNL     1     102.827 136.563  55.667  1.00  0.00     0.039 C 
ATOM     10  G   UNL     1     103.755 134.376  54.593  1.00  0.00     0.000 G0
ENDBRANCH   6   7
ENDBRANCH   5   6
ENDBRANCH   3   5
ENDBRANCH   1   3
BRANCH   1  11
ATOM     11  C   UNL     1     102.910 133.284  51.999  1.00  0.00     0.087 C 
BRANCH  11  12
ATOM     12  C   UNL     1     101.853 133.212  53.135  1.00  0.00     0.066 C 
BRANCH  12  13
ATOM     13  C   UNL     1     102.493 133.561  54.476  1.00  0.00     0.140 C 
ATOM     14  O   UNL     1     101.916 133.235  55.504  1.00  0.00    -0.299 OA
BRANCH  13  15
ATOM     15  C   UNL     1     103.764 134.379  54.602  1.00  0.00     0.106 CG0
ATOM     16  G   UNL     1     103.551 135.880  54.529  1.00  0.00     0.000 G0
ENDBRANCH  13  15
ENDBRANCH  12  13
BRANCH  12  17
ATOM     17  C   UNL     1     101.185 131.801  53.203  1.00  0.00    -0.006 C 
ATOM     18  C   UNL     1     102.190 130.668  52.924  1.00  0.00     0.008 C 
ATOM     19  C   UNL     1     100.016 131.681  52.208  1.00  0.00     0.008 C 
ENDBRANCH  12  17
ENDBRANCH  11  12
ENDBRANCH   1  11
TORSDOF 1
ENDMDL
MODEL 9
REMARK VINA RESULT:    -4.249      1.477      3.795
REMARK INTER + INTRA:          -6.747
REMARK INTER:                  -6.895
REMARK INTRA:                   0.148
REMARK UNBOUND:                -0.262
REMARK SMILES CC1=CCC[C@@H](C)C(=O)C[C@@H](C(C)C)C(=O)C1
REMARK SMILES IDX 8 1 9 2 6 3 7 4 5 5 4 6 3 7 2 8 1 9 10 11 11 12 15 13 16 14
REMARK SMILES IDX 17 15 12 17 13 18 14 19
REMARK H PARENT
REMARK Flexibility Score: 70.00
ROOT
ATOM      1  C   UNL     1     103.598 135.226  53.084  1.00  0.00     0.136 C 
ATOM      2  O   UNL     1     102.939 136.131  53.577  1.00  0.00    -0.299 OA
ENDROOT
BRANCH   1   3
ATOM      3  C   UNL     1     104.454 134.348  53.972  1.00  0.00     0.053 C 
ATOM      4  C   UNL     1     105.493 133.618  53.116  1.00  0.00     0.016 C 
BRANCH   3   5
ATOM      5  C   UNL     1     103.615 133.327  54.777  1.00  0.00     0.015 C 
BRANCH   5   6
ATOM      6  C   UNL     1     103.338 132.019  54.022  1.00  0.00     0.028 C 
BRANCH   6   7
ATOM      7  C   UNL     1     101.864 131.846  53.743  1.00  0.00    -0.028 C 
ATOM      8  C   UNL     1     101.330 131.580  52.529  1.00  0.00    -0.070 CG0
ATOM      9  C   UNL     1      99.833 131.435  52.428  1.00  0.00     0.039 C 
ATOM     10  G   UNL     1     102.173 131.413  51.278  1.00  0.00     0.000 G0
ENDBRANCH   6   7
ENDBRANCH   5   6
ENDBRANCH   3   5
ENDBRANCH   1   3
BRANCH   1  11
ATOM     11  C   UNL     1     103.497 134.965  51.600  1.00  0.00     0.087 C 
BRANCH  11  12
ATOM     12  C   UNL     1     102.274 134.097  51.197  1.00  0.00     0.066 C 
BRANCH  12  13
ATOM     13  C   UNL     1     102.733 132.720  50.727  1.00  0.00     0.140 C 
ATOM     14  O   UNL     1     103.550 132.651  49.819  1.00  0.00    -0.299 OA
BRANCH  13  15
ATOM     15  C   UNL     1     102.155 131.424  51.263  1.00  0.00     0.106 CG0
ATOM     16  G   UNL     1     101.318 131.585  52.518  1.00  0.00     0.000 G0
ENDBRANCH  13  15
ENDBRANCH  12  13
BRANCH  12  17
ATOM     17  C   UNL     1     101.423 134.793  50.087  1.00  0.00    -0.006 C 
ATOM     18  C   UNL     1     101.698 136.306  50.005  1.00  0.00     0.008 C 
ATOM     19  C   UNL     1      99.915 134.577  50.311  1.00  0.00     0.008 C 
ENDBRANCH  12  17
ENDBRANCH  11  12
ENDBRANCH   1  11
TORSDOF 1
ENDMDL
