MODEL 1
REMARK VINA RESULT:    -4.900      0.000      0.000
REMARK INTER + INTRA:          -5.970
REMARK INTER:                  -5.759
REMARK INTRA:                  -0.210
REMARK UNBOUND:                -0.210
REMARK SMILES O=c1c(O)c(-c2ccc(O)cc2)oc2cc(O)cc(O)c12
REMARK SMILES IDX 5 1 3 2 2 3 1 4 21 5 19 6 18 7 16 8 15 9 14 10 13 11 6 12
REMARK SMILES IDX 7 13 8 14 9 15 12 16 11 17 10 18 4 20 20 22 17 24
REMARK H PARENT 10 19 4 21 20 23 17 25
REMARK Flexibility Score: inf
ROOT
ATOM      1  C   UNL     1      58.530  42.605 123.690  1.00  0.00     0.180 A 
ATOM      2  C   UNL     1      59.404  41.520 123.493  1.00  0.00     0.208 A 
ATOM      3  C   UNL     1      58.865  40.243 123.271  1.00  0.00     0.238 A 
ATOM      4  O   UNL     1      59.651  39.287 123.042  1.00  0.00    -0.285 OA
ATOM      5  C   UNL     1      57.461  40.063 123.263  1.00  0.00     0.111 A 
ATOM      6  C   UNL     1      56.807  38.807 123.086  1.00  0.00     0.134 A 
ATOM      7  C   UNL     1      55.411  38.766 122.966  1.00  0.00     0.093 A 
ATOM      8  C   UNL     1      54.644  39.928 123.080  1.00  0.00     0.123 A 
ATOM      9  C   UNL     1      55.270  41.151 123.311  1.00  0.00     0.094 A 
ATOM     10  C   UNL     1      56.662  41.228 123.400  1.00  0.00     0.146 A 
ATOM     11  O   UNL     1      57.219  42.414 123.611  1.00  0.00    -0.452 OA
ENDROOT
BRANCH   1  12
ATOM     12  C   UNL     1      59.023  43.975 123.955  1.00  0.00     0.021 A 
ATOM     13  C   UNL     1      59.568  44.731 122.904  1.00  0.00     0.016 A 
ATOM     14  C   UNL     1      60.018  46.035 123.126  1.00  0.00     0.047 A 
ATOM     15  C   UNL     1      59.916  46.607 124.398  1.00  0.00     0.115 A 
ATOM     16  C   UNL     1      58.904  44.564 125.229  1.00  0.00     0.016 A 
ATOM     17  C   UNL     1      59.354  45.869 125.448  1.00  0.00     0.047 A 
BRANCH  15  18
ATOM     18  O   UNL     1      60.369  47.907 124.606  1.00  0.00    -0.508 OA
ATOM     19  H   UNL     1      61.357  48.116 124.694  1.00  0.00     0.293 HD
ENDBRANCH  15  18
ENDBRANCH   1  12
BRANCH   2  20
ATOM     20  O   UNL     1      60.787  41.725 123.484  1.00  0.00    -0.502 OA
ATOM     21  H   UNL     1      61.293  42.054 124.297  1.00  0.00     0.293 HD
ENDBRANCH   2  20
BRANCH   6  22
ATOM     22  O   UNL     1      57.471  37.578 123.053  1.00  0.00    -0.507 OA
ATOM     23  H   UNL     1      57.529  36.934 123.827  1.00  0.00     0.293 HD
ENDBRANCH   6  22
BRANCH   8  24
ATOM     24  O   UNL     1      53.256  39.875 122.974  1.00  0.00    -0.508 OA
ATOM     25  H   UNL     1      52.703  39.255 123.553  1.00  0.00     0.293 HD
ENDBRANCH   8  24
TORSDOF 5
ENDMDL
MODEL 2
REMARK VINA RESULT:    -4.835      2.876      7.761
REMARK INTER + INTRA:          -5.893
REMARK INTER:                  -5.648
REMARK INTRA:                  -0.245
REMARK UNBOUND:                -0.210
REMARK SMILES O=c1c(O)c(-c2ccc(O)cc2)oc2cc(O)cc(O)c12
REMARK SMILES IDX 5 1 3 2 2 3 1 4 21 5 19 6 18 7 16 8 15 9 14 10 13 11 6 12
REMARK SMILES IDX 7 13 8 14 9 15 12 16 11 17 10 18 4 20 20 22 17 24
REMARK H PARENT 10 19 4 21 20 23 17 25
REMARK Flexibility Score: inf
ROOT
ATOM      1  C   UNL     1      54.730  38.131 124.244  1.00  0.00     0.180 A 
ATOM      2  C   UNL     1      55.837  37.382 124.681  1.00  0.00     0.208 A 
ATOM      3  C   UNL     1      57.112  37.969 124.648  1.00  0.00     0.238 A 
ATOM      4  O   UNL     1      58.092  37.314 125.090  1.00  0.00    -0.285 OA
ATOM      5  C   UNL     1      57.266  39.292 124.166  1.00  0.00     0.111 A 
ATOM      6  C   UNL     1      58.516  39.971 124.052  1.00  0.00     0.134 A 
ATOM      7  C   UNL     1      58.536  41.323 123.684  1.00  0.00     0.093 A 
ATOM      8  C   UNL     1      57.357  42.000 123.365  1.00  0.00     0.123 A 
ATOM      9  C   UNL     1      56.137  41.328 123.417  1.00  0.00     0.094 A 
ATOM     10  C   UNL     1      56.082  39.990 123.814  1.00  0.00     0.146 A 
ATOM     11  O   UNL     1      54.899  39.390 123.859  1.00  0.00    -0.452 OA
ENDROOT
BRANCH   1  12
ATOM     12  C   UNL     1      53.359  37.572 124.225  1.00  0.00     0.021 A 
ATOM     13  C   UNL     1      52.995  36.666 123.215  1.00  0.00     0.016 A 
ATOM     14  C   UNL     1      51.713  36.109 123.192  1.00  0.00     0.047 A 
ATOM     15  C   UNL     1      50.784  36.437 124.184  1.00  0.00     0.115 A 
ATOM     16  C   UNL     1      52.426  37.884 125.233  1.00  0.00     0.016 A 
ATOM     17  C   UNL     1      51.146  37.324 125.207  1.00  0.00     0.047 A 
BRANCH  15  18
ATOM     18  O   UNL     1      49.511  35.876 124.148  1.00  0.00    -0.508 OA
ATOM     19  H   UNL     1      49.373  34.885 123.979  1.00  0.00     0.293 HD
ENDBRANCH  15  18
ENDBRANCH   1  12
BRANCH   2  20
ATOM     20  O   UNL     1      55.659  36.086 125.173  1.00  0.00    -0.502 OA
ATOM     21  H   UNL     1      56.154  35.741 125.987  1.00  0.00     0.293 HD
ENDBRANCH   2  20
BRANCH   6  22
ATOM     22  O   UNL     1      59.758  39.363 124.257  1.00  0.00    -0.507 OA
ATOM     23  H   UNL     1      60.222  39.291 125.150  1.00  0.00     0.293 HD
ENDBRANCH   6  22
BRANCH   8  24
ATOM     24  O   UNL     1      57.387  43.340 122.986  1.00  0.00    -0.508 OA
ATOM     25  H   UNL     1      58.206  43.749 122.552  1.00  0.00     0.293 HD
ENDBRANCH   8  24
TORSDOF 5
ENDMDL
MODEL 3
REMARK VINA RESULT:    -4.641      1.623      3.292
REMARK INTER + INTRA:          -5.666
REMARK INTER:                  -5.366
REMARK INTRA:                  -0.300
REMARK UNBOUND:                -0.210
REMARK SMILES O=c1c(O)c(-c2ccc(O)cc2)oc2cc(O)cc(O)c12
REMARK SMILES IDX 5 1 3 2 2 3 1 4 21 5 19 6 18 7 16 8 15 9 14 10 13 11 6 12
REMARK SMILES IDX 7 13 8 14 9 15 12 16 11 17 10 18 4 20 20 22 17 24
REMARK H PARENT 10 19 4 21 20 23 17 25
REMARK Flexibility Score: inf
ROOT
ATOM      1  C   UNL     1      57.198  41.998 123.900  1.00  0.00     0.180 A 
ATOM      2  C   UNL     1      55.894  42.027 123.374  1.00  0.00     0.208 A 
ATOM      3  C   UNL     1      55.164  40.830 123.297  1.00  0.00     0.238 A 
ATOM      4  O   UNL     1      53.979  40.870 122.875  1.00  0.00    -0.285 OA
ATOM      5  C   UNL     1      55.752  39.618 123.733  1.00  0.00     0.111 A 
ATOM      6  C   UNL     1      55.118  38.340 123.663  1.00  0.00     0.134 A 
ATOM      7  C   UNL     1      55.743  37.228 124.243  1.00  0.00     0.093 A 
ATOM      8  C   UNL     1      57.005  37.335 124.831  1.00  0.00     0.123 A 
ATOM      9  C   UNL     1      57.657  38.567 124.851  1.00  0.00     0.094 A 
ATOM     10  C   UNL     1      57.044  39.701 124.313  1.00  0.00     0.146 A 
ATOM     11  O   UNL     1      57.695  40.857 124.361  1.00  0.00    -0.452 OA
ENDROOT
BRANCH   1  12
ATOM     12  C   UNL     1      58.037  43.214 123.991  1.00  0.00     0.021 A 
ATOM     13  C   UNL     1      58.060  43.953 125.185  1.00  0.00     0.016 A 
ATOM     14  C   UNL     1      58.864  45.090 125.300  1.00  0.00     0.047 A 
ATOM     15  C   UNL     1      59.666  45.497 124.229  1.00  0.00     0.115 A 
ATOM     16  C   UNL     1      58.862  43.616 122.923  1.00  0.00     0.016 A 
ATOM     17  C   UNL     1      59.665  44.754 123.041  1.00  0.00     0.047 A 
BRANCH  15  18
ATOM     18  O   UNL     1      60.460  46.633 124.357  1.00  0.00    -0.508 OA
ATOM     19  H   UNL     1      60.226  47.372 125.010  1.00  0.00     0.293 HD
ENDBRANCH  15  18
ENDBRANCH   1  12
BRANCH   2  20
ATOM     20  O   UNL     1      55.325  43.238 122.970  1.00  0.00    -0.502 OA
ATOM     21  H   UNL     1      54.327  43.405 122.995  1.00  0.00     0.293 HD
ENDBRANCH   2  20
BRANCH   6  22
ATOM     22  O   UNL     1      53.901  38.106 123.017  1.00  0.00    -0.507 OA
ATOM     23  H   UNL     1      53.775  38.093 122.017  1.00  0.00     0.293 HD
ENDBRANCH   6  22
BRANCH   8  24
ATOM     24  O   UNL     1      57.625  36.222 125.391  1.00  0.00    -0.508 OA
ATOM     25  H   UNL     1      58.539  36.285 125.824  1.00  0.00     0.293 HD
ENDBRANCH   8  24
TORSDOF 5
ENDMDL
MODEL 4
REMARK VINA RESULT:    -4.511      3.617      8.494
REMARK INTER + INTRA:          -5.512
REMARK INTER:                  -5.246
REMARK INTRA:                  -0.266
REMARK UNBOUND:                -0.210
REMARK SMILES O=c1c(O)c(-c2ccc(O)cc2)oc2cc(O)cc(O)c12
REMARK SMILES IDX 5 1 3 2 2 3 1 4 21 5 19 6 18 7 16 8 15 9 14 10 13 11 6 12
REMARK SMILES IDX 7 13 8 14 9 15 12 16 11 17 10 18 4 20 20 22 17 24
REMARK H PARENT 10 19 4 21 20 23 17 25
REMARK Flexibility Score: inf
ROOT
ATOM      1  C   UNL     1      52.505  38.356 123.838  1.00  0.00     0.180 A 
ATOM      2  C   UNL     1      53.277  37.181 123.857  1.00  0.00     0.208 A 
ATOM      3  C   UNL     1      54.667  37.275 123.682  1.00  0.00     0.238 A 
ATOM      4  O   UNL     1      55.359  36.226 123.754  1.00  0.00    -0.285 OA
ATOM      5  C   UNL     1      55.266  38.542 123.477  1.00  0.00     0.111 A 
ATOM      6  C   UNL     1      56.660  38.750 123.249  1.00  0.00     0.134 A 
ATOM      7  C   UNL     1      57.161  40.057 123.188  1.00  0.00     0.093 A 
ATOM      8  C   UNL     1      56.309  41.161 123.280  1.00  0.00     0.123 A 
ATOM      9  C   UNL     1      54.939  40.966 123.443  1.00  0.00     0.094 A 
ATOM     10  C   UNL     1      54.415  39.675 123.544  1.00  0.00     0.146 A 
ATOM     11  O   UNL     1      53.105  39.534 123.708  1.00  0.00    -0.452 OA
ENDROOT
BRANCH   1  12
ATOM     12  C   UNL     1      51.033  38.335 123.990  1.00  0.00     0.021 A 
ATOM     13  C   UNL     1      50.471  38.271 125.276  1.00  0.00     0.016 A 
ATOM     14  C   UNL     1      49.083  38.273 125.443  1.00  0.00     0.047 A 
ATOM     15  C   UNL     1      48.239  38.353 124.331  1.00  0.00     0.115 A 
ATOM     16  C   UNL     1      50.179  38.435 122.875  1.00  0.00     0.016 A 
ATOM     17  C   UNL     1      48.792  38.438 123.046  1.00  0.00     0.047 A 
BRANCH  15  18
ATOM     18  O   UNL     1      46.859  38.353 124.513  1.00  0.00    -0.508 OA
ATOM     19  H   UNL     1      46.406  39.020 125.126  1.00  0.00     0.293 HD
ENDBRANCH  15  18
ENDBRANCH   1  12
BRANCH   2  20
ATOM     20  O   UNL     1      52.667  35.943 124.084  1.00  0.00    -0.502 OA
ATOM     21  H   UNL     1      52.576  35.544 125.010  1.00  0.00     0.293 HD
ENDBRANCH   2  20
BRANCH   6  22
ATOM     22  O   UNL     1      57.582  37.719 123.050  1.00  0.00    -0.507 OA
ATOM     23  H   UNL     1      58.512  37.843 122.679  1.00  0.00     0.293 HD
ENDBRANCH   6  22
BRANCH   8  24
ATOM     24  O   UNL     1      56.814  42.456 123.203  1.00  0.00    -0.508 OA
ATOM     25  H   UNL     1      57.805  42.645 123.293  1.00  0.00     0.293 HD
ENDBRANCH   8  24
TORSDOF 5
ENDMDL
MODEL 5
REMARK VINA RESULT:    -4.482      1.090      1.799
REMARK INTER + INTRA:          -5.478
REMARK INTER:                  -5.295
REMARK INTRA:                  -0.184
REMARK UNBOUND:                -0.210
REMARK SMILES O=c1c(O)c(-c2ccc(O)cc2)oc2cc(O)cc(O)c12
REMARK SMILES IDX 5 1 3 2 2 3 1 4 21 5 19 6 18 7 16 8 15 9 14 10 13 11 6 12
REMARK SMILES IDX 7 13 8 14 9 15 12 16 11 17 10 18 4 20 20 22 17 24
REMARK H PARENT 10 19 4 21 20 23 17 25
REMARK Flexibility Score: inf
ROOT
ATOM      1  C   UNL     1      57.487  41.668 123.651  1.00  0.00     0.180 A 
ATOM      2  C   UNL     1      58.237  40.488 123.499  1.00  0.00     0.208 A 
ATOM      3  C   UNL     1      57.562  39.273 123.302  1.00  0.00     0.238 A 
ATOM      4  O   UNL     1      58.239  38.228 123.113  1.00  0.00    -0.285 OA
ATOM      5  C   UNL     1      56.147  39.249 123.272  1.00  0.00     0.111 A 
ATOM      6  C   UNL     1      55.359  38.069 123.118  1.00  0.00     0.134 A 
ATOM      7  C   UNL     1      53.970  38.179 122.973  1.00  0.00     0.093 A 
ATOM      8  C   UNL     1      53.335  39.422 123.042  1.00  0.00     0.123 A 
ATOM      9  C   UNL     1      54.090  40.574 123.252  1.00  0.00     0.094 A 
ATOM     10  C   UNL     1      55.481  40.499 123.364  1.00  0.00     0.146 A 
ATOM     11  O   UNL     1      56.163  41.621 123.553  1.00  0.00    -0.452 OA
ENDROOT
BRANCH   1  12
ATOM     12  C   UNL     1      58.125  42.982 123.888  1.00  0.00     0.021 A 
ATOM     13  C   UNL     1      58.046  43.571 125.161  1.00  0.00     0.016 A 
ATOM     14  C   UNL     1      58.661  44.800 125.412  1.00  0.00     0.047 A 
ATOM     15  C   UNL     1      59.375  45.451 124.401  1.00  0.00     0.115 A 
ATOM     16  C   UNL     1      58.862  43.631 122.879  1.00  0.00     0.016 A 
ATOM     17  C   UNL     1      59.477  44.860 123.134  1.00  0.00     0.047 A 
BRANCH  15  18
ATOM     18  O   UNL     1      59.982  46.676 124.665  1.00  0.00    -0.508 OA
ATOM     19  H   UNL     1      60.877  46.922 124.259  1.00  0.00     0.293 HD
ENDBRANCH  15  18
ENDBRANCH   1  12
BRANCH   2  20
ATOM     20  O   UNL     1      59.633  40.537 123.509  1.00  0.00    -0.502 OA
ATOM     21  H   UNL     1      60.160  41.156 122.904  1.00  0.00     0.293 HD
ENDBRANCH   2  20
BRANCH   6  22
ATOM     22  O   UNL     1      55.884  36.773 123.130  1.00  0.00    -0.507 OA
ATOM     23  H   UNL     1      56.776  36.510 122.739  1.00  0.00     0.293 HD
ENDBRANCH   6  22
BRANCH   8  24
ATOM     24  O   UNL     1      51.953  39.521 122.912  1.00  0.00    -0.508 OA
ATOM     25  H   UNL     1      51.389  40.005 123.601  1.00  0.00     0.293 HD
ENDBRANCH   8  24
TORSDOF 5
ENDMDL
MODEL 6
REMARK VINA RESULT:    -4.392     15.459     16.772
REMARK INTER + INTRA:          -5.372
REMARK INTER:                  -5.115
REMARK INTRA:                  -0.257
REMARK UNBOUND:                -0.210
REMARK SMILES O=c1c(O)c(-c2ccc(O)cc2)oc2cc(O)cc(O)c12
REMARK SMILES IDX 5 1 3 2 2 3 1 4 21 5 19 6 18 7 16 8 15 9 14 10 13 11 6 12
REMARK SMILES IDX 7 13 8 14 9 15 12 16 11 17 10 18 4 20 20 22 17 24
REMARK H PARENT 10 19 4 21 20 23 17 25
REMARK Flexibility Score: inf
ROOT
ATOM      1  C   UNL     1      48.082  37.965 135.469  1.00  0.00     0.180 A 
ATOM      2  C   UNL     1      47.640  37.031 134.516  1.00  0.00     0.208 A 
ATOM      3  C   UNL     1      46.464  37.297 133.797  1.00  0.00     0.238 A 
ATOM      4  O   UNL     1      46.102  36.484 132.906  1.00  0.00    -0.285 OA
ATOM      5  C   UNL     1      45.737  38.486 134.049  1.00  0.00     0.111 A 
ATOM      6  C   UNL     1      44.512  38.838 133.407  1.00  0.00     0.134 A 
ATOM      7  C   UNL     1      43.947  40.099 133.641  1.00  0.00     0.093 A 
ATOM      8  C   UNL     1      44.531  40.993 134.542  1.00  0.00     0.123 A 
ATOM      9  C   UNL     1      45.695  40.635 135.217  1.00  0.00     0.094 A 
ATOM     10  C   UNL     1      46.300  39.398 134.979  1.00  0.00     0.146 A 
ATOM     11  O   UNL     1      47.414  39.100 135.636  1.00  0.00    -0.452 OA
ENDROOT
BRANCH   1  12
ATOM     12  C   UNL     1      49.298  37.743 136.284  1.00  0.00     0.021 A 
ATOM     13  C   UNL     1      49.174  37.243 137.591  1.00  0.00     0.016 A 
ATOM     14  C   UNL     1      50.311  37.005 138.369  1.00  0.00     0.047 A 
ATOM     15  C   UNL     1      51.585  37.248 137.848  1.00  0.00     0.115 A 
ATOM     16  C   UNL     1      50.585  37.968 135.757  1.00  0.00     0.016 A 
ATOM     17  C   UNL     1      51.719  37.727 136.538  1.00  0.00     0.047 A 
BRANCH  15  18
ATOM     18  O   UNL     1      52.708  37.008 138.635  1.00  0.00    -0.508 OA
ATOM     19  H   UNL     1      52.644  36.949 139.645  1.00  0.00     0.293 HD
ENDBRANCH  15  18
ENDBRANCH   1  12
BRANCH   2  20
ATOM     20  O   UNL     1      48.385  35.875 134.266  1.00  0.00    -0.502 OA
ATOM     21  H   UNL     1      48.870  35.372 135.000  1.00  0.00     0.293 HD
ENDBRANCH   2  20
BRANCH   6  22
ATOM     22  O   UNL     1      43.799  37.983 132.562  1.00  0.00    -0.507 OA
ATOM     23  H   UNL     1      44.003  37.839 131.585  1.00  0.00     0.293 HD
ENDBRANCH   6  22
BRANCH   8  24
ATOM     24  O   UNL     1      43.955  42.238 134.779  1.00  0.00    -0.508 OA
ATOM     25  H   UNL     1      43.768  42.889 134.025  1.00  0.00     0.293 HD
ENDBRANCH   8  24
TORSDOF 5
ENDMDL
MODEL 7
REMARK VINA RESULT:    -4.370      3.731      5.691
REMARK INTER + INTRA:          -5.346
REMARK INTER:                  -5.072
REMARK INTRA:                  -0.275
REMARK UNBOUND:                -0.210
REMARK SMILES O=c1c(O)c(-c2ccc(O)cc2)oc2cc(O)cc(O)c12
REMARK SMILES IDX 5 1 3 2 2 3 1 4 21 5 19 6 18 7 16 8 15 9 14 10 13 11 6 12
REMARK SMILES IDX 7 13 8 14 9 15 12 16 11 17 10 18 4 20 20 22 17 24
REMARK H PARENT 10 19 4 21 20 23 17 25
REMARK Flexibility Score: inf
ROOT
ATOM      1  C   UNL     1      55.412  38.790 123.988  1.00  0.00     0.180 A 
ATOM      2  C   UNL     1      55.066  37.433 123.868  1.00  0.00     0.208 A 
ATOM      3  C   UNL     1      53.729  37.090 123.612  1.00  0.00     0.238 A 
ATOM      4  O   UNL     1      53.435  35.876 123.452  1.00  0.00    -0.285 OA
ATOM      5  C   UNL     1      52.752  38.107 123.494  1.00  0.00     0.111 A 
ATOM      6  C   UNL     1      51.361  37.872 123.275  1.00  0.00     0.134 A 
ATOM      7  C   UNL     1      50.505  38.958 123.045  1.00  0.00     0.093 A 
ATOM      8  C   UNL     1      50.979  40.271 123.090  1.00  0.00     0.123 A 
ATOM      9  C   UNL     1      52.324  40.512 123.362  1.00  0.00     0.094 A 
ATOM     10  C   UNL     1      53.209  39.449 123.560  1.00  0.00     0.146 A 
ATOM     11  O   UNL     1      54.484  39.723 123.807  1.00  0.00    -0.452 OA
ENDROOT
BRANCH   1  12
ATOM     12  C   UNL     1      56.795  39.228 124.281  1.00  0.00     0.021 A 
ATOM     13  C   UNL     1      57.256  39.223 125.608  1.00  0.00     0.016 A 
ATOM     14  C   UNL     1      58.565  39.611 125.905  1.00  0.00     0.047 A 
ATOM     15  C   UNL     1      59.436  39.995 124.880  1.00  0.00     0.115 A 
ATOM     16  C   UNL     1      57.682  39.597 123.251  1.00  0.00     0.016 A 
ATOM     17  C   UNL     1      58.991  39.983 123.551  1.00  0.00     0.047 A 
BRANCH  15  18
ATOM     18  O   UNL     1      60.737  40.380 125.191  1.00  0.00    -0.508 OA
ATOM     19  H   UNL     1      61.195  41.142 124.703  1.00  0.00     0.293 HD
ENDBRANCH  15  18
ENDBRANCH   1  12
BRANCH   2  20
ATOM     20  O   UNL     1      56.051  36.446 123.966  1.00  0.00    -0.502 OA
ATOM     21  H   UNL     1      56.331  36.043 124.852  1.00  0.00     0.293 HD
ENDBRANCH   2  20
BRANCH   6  22
ATOM     22  O   UNL     1      50.769  36.607 123.302  1.00  0.00    -0.507 OA
ATOM     23  H   UNL     1      51.225  35.765 123.621  1.00  0.00     0.293 HD
ENDBRANCH   6  22
BRANCH   8  24
ATOM     24  O   UNL     1      50.119  41.344 122.875  1.00  0.00    -0.508 OA
ATOM     25  H   UNL     1      49.113  41.226 122.876  1.00  0.00     0.293 HD
ENDBRANCH   8  24
TORSDOF 5
ENDMDL
MODEL 8
REMARK VINA RESULT:    -4.297     14.805     17.007
REMARK INTER + INTRA:          -5.261
REMARK INTER:                  -5.032
REMARK INTRA:                  -0.228
REMARK UNBOUND:                -0.210
REMARK SMILES O=c1c(O)c(-c2ccc(O)cc2)oc2cc(O)cc(O)c12
REMARK SMILES IDX 5 1 3 2 2 3 1 4 21 5 19 6 18 7 16 8 15 9 14 10 13 11 6 12
REMARK SMILES IDX 7 13 8 14 9 15 12 16 11 17 10 18 4 20 20 22 17 24
REMARK H PARENT 10 19 4 21 20 23 17 25
REMARK Flexibility Score: inf
ROOT
ATOM      1  C   UNL     1      46.630  37.922 134.524  1.00  0.00     0.180 A 
ATOM      2  C   UNL     1      47.191  37.299 133.395  1.00  0.00     0.208 A 
ATOM      3  C   UNL     1      48.481  36.753 133.488  1.00  0.00     0.238 A 
ATOM      4  O   UNL     1      48.956  36.149 132.491  1.00  0.00    -0.285 OA
ATOM      5  C   UNL     1      49.199  36.849 134.705  1.00  0.00     0.111 A 
ATOM      6  C   UNL     1      50.528  36.366 134.900  1.00  0.00     0.134 A 
ATOM      7  C   UNL     1      51.093  36.399 136.182  1.00  0.00     0.093 A 
ATOM      8  C   UNL     1      50.401  36.956 137.260  1.00  0.00     0.123 A 
ATOM      9  C   UNL     1      49.126  37.484 137.066  1.00  0.00     0.094 A 
ATOM     10  C   UNL     1      48.523  37.433 135.807  1.00  0.00     0.146 A 
ATOM     11  O   UNL     1      47.304  37.938 135.668  1.00  0.00    -0.452 OA
ENDROOT
BRANCH   1  12
ATOM     12  C   UNL     1      45.287  38.543 134.495  1.00  0.00     0.021 A 
ATOM     13  C   UNL     1      45.171  39.940 134.400  1.00  0.00     0.016 A 
ATOM     14  C   UNL     1      43.912  40.545 134.348  1.00  0.00     0.047 A 
ATOM     15  C   UNL     1      42.753  39.763 134.375  1.00  0.00     0.115 A 
ATOM     16  C   UNL     1      44.116  37.759 134.501  1.00  0.00     0.016 A 
ATOM     17  C   UNL     1      42.859  38.367 134.448  1.00  0.00     0.047 A 
BRANCH  15  18
ATOM     18  O   UNL     1      41.506  40.379 134.324  1.00  0.00    -0.508 OA
ATOM     19  H   UNL     1      41.314  41.231 134.840  1.00  0.00     0.293 HD
ENDBRANCH  15  18
ENDBRANCH   1  12
BRANCH   2  20
ATOM     20  O   UNL     1      46.455  37.196 132.211  1.00  0.00    -0.502 OA
ATOM     21  H   UNL     1      46.450  36.356 131.645  1.00  0.00     0.293 HD
ENDBRANCH   2  20
BRANCH   6  22
ATOM     22  O   UNL     1      51.340  35.875 133.874  1.00  0.00    -0.507 OA
ATOM     23  H   UNL     1      52.104  35.230 134.004  1.00  0.00     0.293 HD
ENDBRANCH   6  22
BRANCH   8  24
ATOM     24  O   UNL     1      50.976  36.998 138.527  1.00  0.00    -0.508 OA
ATOM     25  H   UNL     1      51.630  36.288 138.837  1.00  0.00     0.293 HD
ENDBRANCH   8  24
TORSDOF 5
ENDMDL
