MODEL 1
REMARK VINA RESULT:    -6.431      0.000      0.000
REMARK INTER + INTRA:          -7.854
REMARK INTER:                  -7.558
REMARK INTRA:                  -0.296
REMARK UNBOUND:                -0.296
REMARK SMILES O=c1cc(-c2ccc(O)c(O)c2)oc2cc(O)cc(O)c12
REMARK SMILES IDX 4 1 3 2 2 3 1 4 21 5 19 6 18 7 16 8 15 9 14 10 13 11 5 12
REMARK SMILES IDX 6 13 7 14 8 15 12 16 10 17 9 18 11 20 20 22 17 24
REMARK H PARENT 9 19 11 21 20 23 17 25
REMARK Flexibility Score: inf
ROOT
ATOM      1  C   UNL     1      69.944  48.718   8.239  1.00  0.00     0.138 A 
ATOM      2  C   UNL     1      70.850  48.995   9.272  1.00  0.00     0.100 A 
ATOM      3  C   UNL     1      72.222  48.935   9.021  1.00  0.00     0.197 A 
ATOM      4  O   UNL     1      73.008  49.243   9.953  1.00  0.00    -0.289 OA
ATOM      5  C   UNL     1      72.687  48.562   7.737  1.00  0.00     0.107 A 
ATOM      6  C   UNL     1      74.063  48.436   7.375  1.00  0.00     0.134 A 
ATOM      7  C   UNL     1      74.403  48.157   6.045  1.00  0.00     0.093 A 
ATOM      8  C   UNL     1      73.420  47.942   5.079  1.00  0.00     0.123 A 
ATOM      9  C   UNL     1      72.073  48.014   5.433  1.00  0.00     0.094 A 
ATOM     10  C   UNL     1      71.701  48.325   6.743  1.00  0.00     0.146 A 
ATOM     11  O   UNL     1      70.407  48.402   7.034  1.00  0.00    -0.456 OA
ENDROOT
BRANCH   1  12
ATOM     12  C   UNL     1      68.475  48.762   8.450  1.00  0.00     0.021 A 
ATOM     13  C   UNL     1      67.862  49.798   9.182  1.00  0.00     0.016 A 
ATOM     14  C   UNL     1      66.477  49.819   9.356  1.00  0.00     0.051 A 
ATOM     15  C   UNL     1      65.678  48.813   8.798  1.00  0.00     0.157 A 
ATOM     16  C   UNL     1      67.664  47.765   7.881  1.00  0.00     0.062 A 
ATOM     17  C   UNL     1      66.276  47.782   8.055  1.00  0.00     0.158 A 
BRANCH  15  18
ATOM     18  O   UNL     1      64.296  48.836   8.975  1.00  0.00    -0.504 OA
ATOM     19  H   UNL     1      63.794  49.705   9.123  1.00  0.00     0.293 HD
ENDBRANCH  15  18
BRANCH  17  20
ATOM     20  O   UNL     1      65.508  46.769   7.482  1.00  0.00    -0.504 OA
ATOM     21  H   UNL     1      65.281  45.918   7.982  1.00  0.00     0.293 HD
ENDBRANCH  17  20
ENDBRANCH   1  12
BRANCH   6  22
ATOM     22  O   UNL     1      75.125  48.552   8.277  1.00  0.00    -0.507 OA
ATOM     23  H   UNL     1      76.089  48.345   8.067  1.00  0.00     0.293 HD
ENDBRANCH   6  22
BRANCH   8  24
ATOM     24  O   UNL     1      73.797  47.651   3.770  1.00  0.00    -0.508 OA
ATOM     25  H   UNL     1      74.503  46.952   3.565  1.00  0.00     0.293 HD
ENDBRANCH   8  24
TORSDOF 5
ENDMDL
MODEL 2
REMARK VINA RESULT:    -6.110      1.591      7.049
REMARK INTER + INTRA:          -7.477
REMARK INTER:                  -7.163
REMARK INTRA:                  -0.315
REMARK UNBOUND:                -0.296
REMARK SMILES O=c1cc(-c2ccc(O)c(O)c2)oc2cc(O)cc(O)c12
REMARK SMILES IDX 4 1 3 2 2 3 1 4 21 5 19 6 18 7 16 8 15 9 14 10 13 11 5 12
REMARK SMILES IDX 6 13 7 14 8 15 12 16 10 17 9 18 11 20 20 22 17 24
REMARK H PARENT 9 19 11 21 20 23 17 25
REMARK Flexibility Score: inf
ROOT
ATOM      1  C   UNL     1      69.058  49.232   8.224  1.00  0.00     0.138 A 
ATOM      2  C   UNL     1      68.587  50.308   8.989  1.00  0.00     0.100 A 
ATOM      3  C   UNL     1      67.252  50.335   9.394  1.00  0.00     0.197 A 
ATOM      4  O   UNL     1      66.874  51.286  10.125  1.00  0.00    -0.289 OA
ATOM      5  C   UNL     1      66.376  49.294   9.001  1.00  0.00     0.107 A 
ATOM      6  C   UNL     1      64.987  49.233   9.328  1.00  0.00     0.134 A 
ATOM      7  C   UNL     1      64.243  48.103   8.966  1.00  0.00     0.093 A 
ATOM      8  C   UNL     1      64.821  47.060   8.242  1.00  0.00     0.123 A 
ATOM      9  C   UNL     1      66.165  47.132   7.875  1.00  0.00     0.094 A 
ATOM     10  C   UNL     1      66.943  48.231   8.250  1.00  0.00     0.146 A 
ATOM     11  O   UNL     1      68.224  48.252   7.896  1.00  0.00    -0.456 OA
ENDROOT
BRANCH   1  12
ATOM     12  C   UNL     1      70.467  49.154   7.763  1.00  0.00     0.021 A 
ATOM     13  C   UNL     1      71.478  49.957   8.327  1.00  0.00     0.016 A 
ATOM     14  C   UNL     1      72.797  49.854   7.879  1.00  0.00     0.051 A 
ATOM     15  C   UNL     1      73.133  48.945   6.869  1.00  0.00     0.157 A 
ATOM     16  C   UNL     1      70.816  48.234   6.759  1.00  0.00     0.062 A 
ATOM     17  C   UNL     1      72.137  48.129   6.308  1.00  0.00     0.158 A 
BRANCH  15  18
ATOM     18  O   UNL     1      74.450  48.847   6.424  1.00  0.00    -0.504 OA
ATOM     19  H   UNL     1      75.080  49.641   6.451  1.00  0.00     0.293 HD
ENDBRANCH  15  18
BRANCH  17  20
ATOM     20  O   UNL     1      72.439  47.211   5.303  1.00  0.00    -0.504 OA
ATOM     21  H   UNL     1      73.308  47.248   4.783  1.00  0.00     0.293 HD
ENDBRANCH  17  20
ENDBRANCH   1  12
BRANCH   6  22
ATOM     22  O   UNL     1      64.289  50.254   9.979  1.00  0.00    -0.507 OA
ATOM     23  H   UNL     1      64.038  50.254  10.956  1.00  0.00     0.293 HD
ENDBRANCH   6  22
BRANCH   8  24
ATOM     24  O   UNL     1      64.045  45.959   7.887  1.00  0.00    -0.508 OA
ATOM     25  H   UNL     1      64.161  45.496   6.992  1.00  0.00     0.293 HD
ENDBRANCH   8  24
TORSDOF 5
ENDMDL
MODEL 3
REMARK VINA RESULT:    -5.902      1.769      6.862
REMARK INTER + INTRA:          -7.233
REMARK INTER:                  -6.963
REMARK INTRA:                  -0.270
REMARK UNBOUND:                -0.296
REMARK SMILES O=c1cc(-c2ccc(O)c(O)c2)oc2cc(O)cc(O)c12
REMARK SMILES IDX 4 1 3 2 2 3 1 4 21 5 19 6 18 7 16 8 15 9 14 10 13 11 5 12
REMARK SMILES IDX 6 13 7 14 8 15 12 16 10 17 9 18 11 20 20 22 17 24
REMARK H PARENT 9 19 11 21 20 23 17 25
REMARK Flexibility Score: inf
ROOT
ATOM      1  C   UNL     1      70.735  48.355   7.311  1.00  0.00     0.138 A 
ATOM      2  C   UNL     1      70.937  49.445   8.169  1.00  0.00     0.100 A 
ATOM      3  C   UNL     1      69.837  50.087   8.740  1.00  0.00     0.197 A 
ATOM      4  O   UNL     1      70.053  51.026   9.547  1.00  0.00    -0.289 OA
ATOM      5  C   UNL     1      68.527  49.654   8.422  1.00  0.00     0.107 A 
ATOM      6  C   UNL     1      67.329  50.254   8.918  1.00  0.00     0.134 A 
ATOM      7  C   UNL     1      66.091  49.676   8.612  1.00  0.00     0.093 A 
ATOM      8  C   UNL     1      66.002  48.558   7.782  1.00  0.00     0.123 A 
ATOM      9  C   UNL     1      67.162  47.995   7.252  1.00  0.00     0.094 A 
ATOM     10  C   UNL     1      68.415  48.526   7.566  1.00  0.00     0.146 A 
ATOM     11  O   UNL     1      69.497  47.949   7.054  1.00  0.00    -0.456 OA
ENDROOT
BRANCH   1  12
ATOM     12  C   UNL     1      71.868  47.638   6.673  1.00  0.00     0.021 A 
ATOM     13  C   UNL     1      72.006  46.239   6.763  1.00  0.00     0.016 A 
ATOM     14  C   UNL     1      73.077  45.591   6.144  1.00  0.00     0.051 A 
ATOM     15  C   UNL     1      74.023  46.324   5.418  1.00  0.00     0.157 A 
ATOM     16  C   UNL     1      72.816  48.364   5.931  1.00  0.00     0.062 A 
ATOM     17  C   UNL     1      73.891  47.718   5.310  1.00  0.00     0.158 A 
BRANCH  15  18
ATOM     18  O   UNL     1      75.092  45.674   4.803  1.00  0.00    -0.504 OA
ATOM     19  H   UNL     1      76.010  46.102   4.742  1.00  0.00     0.293 HD
ENDBRANCH  15  18
BRANCH  17  20
ATOM     20  O   UNL     1      74.814  48.476   4.591  1.00  0.00    -0.504 OA
ATOM     21  H   UNL     1      75.563  48.985   5.045  1.00  0.00     0.293 HD
ENDBRANCH  17  20
ENDBRANCH   1  12
BRANCH   6  22
ATOM     22  O   UNL     1      67.297  51.419   9.690  1.00  0.00    -0.507 OA
ATOM     23  H   UNL     1      67.093  51.455  10.677  1.00  0.00     0.293 HD
ENDBRANCH   6  22
BRANCH   8  24
ATOM     24  O   UNL     1      64.751  48.021   7.487  1.00  0.00    -0.508 OA
ATOM     25  H   UNL     1      64.584  47.021   7.516  1.00  0.00     0.293 HD
ENDBRANCH   8  24
TORSDOF 5
ENDMDL
MODEL 4
REMARK VINA RESULT:    -5.783      1.334      1.944
REMARK INTER + INTRA:          -7.093
REMARK INTER:                  -6.830
REMARK INTRA:                  -0.263
REMARK UNBOUND:                -0.296
REMARK SMILES O=c1cc(-c2ccc(O)c(O)c2)oc2cc(O)cc(O)c12
REMARK SMILES IDX 4 1 3 2 2 3 1 4 21 5 19 6 18 7 16 8 15 9 14 10 13 11 5 12
REMARK SMILES IDX 6 13 7 14 8 15 12 16 10 17 9 18 11 20 20 22 17 24
REMARK H PARENT 9 19 11 21 20 23 17 25
REMARK Flexibility Score: inf
ROOT
ATOM      1  C   UNL     1      69.436  47.624   8.206  1.00  0.00     0.138 A 
ATOM      2  C   UNL     1      69.941  48.390   9.265  1.00  0.00     0.100 A 
ATOM      3  C   UNL     1      71.230  48.918   9.183  1.00  0.00     0.197 A 
ATOM      4  O   UNL     1      71.633  49.647  10.125  1.00  0.00    -0.289 OA
ATOM      5  C   UNL     1      72.030  48.647   8.046  1.00  0.00     0.107 A 
ATOM      6  C   UNL     1      73.370  49.105   7.867  1.00  0.00     0.134 A 
ATOM      7  C   UNL     1      74.028  48.856   6.655  1.00  0.00     0.093 A 
ATOM      8  C   UNL     1      73.417  48.119   5.641  1.00  0.00     0.123 A 
ATOM      9  C   UNL     1      72.126  47.625   5.825  1.00  0.00     0.094 A 
ATOM     10  C   UNL     1      71.430  47.885   7.009  1.00  0.00     0.146 A 
ATOM     11  O   UNL     1      70.195  47.411   7.137  1.00  0.00    -0.456 OA
ENDROOT
BRANCH   1  12
ATOM     12  C   UNL     1      68.073  47.035   8.243  1.00  0.00     0.021 A 
ATOM     13  C   UNL     1      67.841  45.732   8.725  1.00  0.00     0.016 A 
ATOM     14  C   UNL     1      66.547  45.208   8.757  1.00  0.00     0.051 A 
ATOM     15  C   UNL     1      65.462  45.976   8.316  1.00  0.00     0.157 A 
ATOM     16  C   UNL     1      66.976  47.803   7.815  1.00  0.00     0.062 A 
ATOM     17  C   UNL     1      65.678  47.281   7.845  1.00  0.00     0.158 A 
BRANCH  15  18
ATOM     18  O   UNL     1      64.172  45.449   8.347  1.00  0.00    -0.504 OA
ATOM     19  H   UNL     1      63.979  44.498   8.052  1.00  0.00     0.293 HD
ENDBRANCH  15  18
BRANCH  17  20
ATOM     20  O   UNL     1      64.619  48.072   7.403  1.00  0.00    -0.504 OA
ATOM     21  H   UNL     1      63.682  47.703   7.288  1.00  0.00     0.293 HD
ENDBRANCH  17  20
ENDBRANCH   1  12
BRANCH   6  22
ATOM     22  O   UNL     1      74.105  49.783   8.844  1.00  0.00    -0.507 OA
ATOM     23  H   UNL     1      74.031  50.768   9.047  1.00  0.00     0.293 HD
ENDBRANCH   6  22
BRANCH   8  24
ATOM     24  O   UNL     1      74.108  47.879   4.456  1.00  0.00    -0.508 OA
ATOM     25  H   UNL     1      73.935  47.047   3.902  1.00  0.00     0.293 HD
ENDBRANCH   8  24
TORSDOF 5
ENDMDL
MODEL 5
REMARK VINA RESULT:    -5.667      1.836      1.878
REMARK INTER + INTRA:          -6.956
REMARK INTER:                  -6.646
REMARK INTRA:                  -0.310
REMARK UNBOUND:                -0.296
REMARK SMILES O=c1cc(-c2ccc(O)c(O)c2)oc2cc(O)cc(O)c12
REMARK SMILES IDX 4 1 3 2 2 3 1 4 21 5 19 6 18 7 16 8 15 9 14 10 13 11 5 12
REMARK SMILES IDX 6 13 7 14 8 15 12 16 10 17 9 18 11 20 20 22 17 24
REMARK H PARENT 9 19 11 21 20 23 17 25
REMARK Flexibility Score: inf
ROOT
ATOM      1  C   UNL     1      69.939  47.221   8.334  1.00  0.00     0.138 A 
ATOM      2  C   UNL     1      70.612  46.366   9.218  1.00  0.00     0.100 A 
ATOM      3  C   UNL     1      71.956  46.063   8.996  1.00  0.00     0.197 A 
ATOM      4  O   UNL     1      72.546  45.337   9.836  1.00  0.00    -0.289 OA
ATOM      5  C   UNL     1      72.619  46.592   7.862  1.00  0.00     0.107 A 
ATOM      6  C   UNL     1      73.979  46.324   7.516  1.00  0.00     0.134 A 
ATOM      7  C   UNL     1      74.554  46.985   6.423  1.00  0.00     0.093 A 
ATOM      8  C   UNL     1      73.807  47.856   5.631  1.00  0.00     0.123 A 
ATOM      9  C   UNL     1      72.465  48.087   5.931  1.00  0.00     0.094 A 
ATOM     10  C   UNL     1      71.870  47.470   7.035  1.00  0.00     0.146 A 
ATOM     11  O   UNL     1      70.593  47.730   7.296  1.00  0.00    -0.456 OA
ENDROOT
BRANCH   1  12
ATOM     12  C   UNL     1      68.509  47.575   8.520  1.00  0.00     0.021 A 
ATOM     13  C   UNL     1      67.894  47.534   9.787  1.00  0.00     0.016 A 
ATOM     14  C   UNL     1      66.549  47.882   9.932  1.00  0.00     0.051 A 
ATOM     15  C   UNL     1      65.798  48.284   8.822  1.00  0.00     0.157 A 
ATOM     16  C   UNL     1      67.751  47.993   7.413  1.00  0.00     0.062 A 
ATOM     17  C   UNL     1      66.403  48.341   7.556  1.00  0.00     0.158 A 
BRANCH  15  18
ATOM     18  O   UNL     1      64.455  48.628   8.971  1.00  0.00    -0.504 OA
ATOM     19  H   UNL     1      63.929  49.055   8.216  1.00  0.00     0.293 HD
ENDBRANCH  15  18
BRANCH  17  20
ATOM     20  O   UNL     1      65.683  48.741   6.430  1.00  0.00    -0.504 OA
ATOM     21  H   UNL     1      64.776  48.351   6.205  1.00  0.00     0.293 HD
ENDBRANCH  17  20
ENDBRANCH   1  12
BRANCH   6  22
ATOM     22  O   UNL     1      74.794  45.411   8.191  1.00  0.00    -0.507 OA
ATOM     23  H   UNL     1      74.822  45.287   9.191  1.00  0.00     0.293 HD
ENDBRANCH   6  22
BRANCH   8  24
ATOM     24  O   UNL     1      74.410  48.483   4.543  1.00  0.00    -0.508 OA
ATOM     25  H   UNL     1      74.973  49.318   4.659  1.00  0.00     0.293 HD
ENDBRANCH   8  24
TORSDOF 5
ENDMDL
MODEL 6
REMARK VINA RESULT:    -5.608      2.086      6.674
REMARK INTER + INTRA:          -6.887
REMARK INTER:                  -6.587
REMARK INTRA:                  -0.300
REMARK UNBOUND:                -0.296
REMARK SMILES O=c1cc(-c2ccc(O)c(O)c2)oc2cc(O)cc(O)c12
REMARK SMILES IDX 4 1 3 2 2 3 1 4 21 5 19 6 18 7 16 8 15 9 14 10 13 11 5 12
REMARK SMILES IDX 6 13 7 14 8 15 12 16 10 17 9 18 11 20 20 22 17 24
REMARK H PARENT 9 19 11 21 20 23 17 25
REMARK Flexibility Score: inf
ROOT
ATOM      1  C   UNL     1      70.819  48.198   7.370  1.00  0.00     0.138 A 
ATOM      2  C   UNL     1      71.026  49.327   8.174  1.00  0.00     0.100 A 
ATOM      3  C   UNL     1      69.930  50.010   8.702  1.00  0.00     0.197 A 
ATOM      4  O   UNL     1      70.151  50.986   9.464  1.00  0.00    -0.289 OA
ATOM      5  C   UNL     1      68.617  49.578   8.393  1.00  0.00     0.107 A 
ATOM      6  C   UNL     1      67.423  50.217   8.847  1.00  0.00     0.134 A 
ATOM      7  C   UNL     1      66.180  49.640   8.558  1.00  0.00     0.093 A 
ATOM      8  C   UNL     1      66.084  48.484   7.784  1.00  0.00     0.123 A 
ATOM      9  C   UNL     1      67.242  47.879   7.294  1.00  0.00     0.094 A 
ATOM     10  C   UNL     1      68.499  48.411   7.593  1.00  0.00     0.146 A 
ATOM     11  O   UNL     1      69.578  47.795   7.122  1.00  0.00    -0.456 OA
ENDROOT
BRANCH   1  12
ATOM     12  C   UNL     1      71.948  47.436   6.779  1.00  0.00     0.021 A 
ATOM     13  C   UNL     1      73.114  48.077   6.317  1.00  0.00     0.016 A 
ATOM     14  C   UNL     1      74.164  47.333   5.775  1.00  0.00     0.051 A 
ATOM     15  C   UNL     1      74.075  45.938   5.693  1.00  0.00     0.157 A 
ATOM     16  C   UNL     1      71.873  46.034   6.706  1.00  0.00     0.062 A 
ATOM     17  C   UNL     1      72.923  45.286   6.163  1.00  0.00     0.158 A 
BRANCH  15  18
ATOM     18  O   UNL     1      75.125  45.199   5.149  1.00  0.00    -0.504 OA
ATOM     19  H   UNL     1      75.495  44.379   5.618  1.00  0.00     0.293 HD
ENDBRANCH  15  18
BRANCH  17  20
ATOM     20  O   UNL     1      72.805  43.898   6.099  1.00  0.00    -0.504 OA
ATOM     21  H   UNL     1      72.149  43.386   6.677  1.00  0.00     0.293 HD
ENDBRANCH  17  20
ENDBRANCH   1  12
BRANCH   6  22
ATOM     22  O   UNL     1      67.399  51.419   9.560  1.00  0.00    -0.507 OA
ATOM     23  H   UNL     1      67.769  52.297   9.230  1.00  0.00     0.293 HD
ENDBRANCH   6  22
BRANCH   8  24
ATOM     24  O   UNL     1      64.829  47.948   7.504  1.00  0.00    -0.508 OA
ATOM     25  H   UNL     1      63.977  48.436   7.754  1.00  0.00     0.293 HD
ENDBRANCH   8  24
TORSDOF 5
ENDMDL
MODEL 7
REMARK VINA RESULT:    -5.557      3.573      4.372
REMARK INTER + INTRA:          -6.827
REMARK INTER:                  -6.515
REMARK INTRA:                  -0.312
REMARK UNBOUND:                -0.296
REMARK SMILES O=c1cc(-c2ccc(O)c(O)c2)oc2cc(O)cc(O)c12
REMARK SMILES IDX 4 1 3 2 2 3 1 4 21 5 19 6 18 7 16 8 15 9 14 10 13 11 5 12
REMARK SMILES IDX 6 13 7 14 8 15 12 16 10 17 9 18 11 20 20 22 17 24
REMARK H PARENT 9 19 11 21 20 23 17 25
REMARK Flexibility Score: inf
ROOT
ATOM      1  C   UNL     1      71.449  46.928   7.270  1.00  0.00     0.138 A 
ATOM      2  C   UNL     1      72.833  47.003   7.059  1.00  0.00     0.100 A 
ATOM      3  C   UNL     1      73.514  45.897   6.548  1.00  0.00     0.197 A 
ATOM      4  O   UNL     1      74.745  46.014   6.318  1.00  0.00    -0.289 OA
ATOM      5  C   UNL     1      72.809  44.698   6.280  1.00  0.00     0.107 A 
ATOM      6  C   UNL     1      73.404  43.497   5.789  1.00  0.00     0.134 A 
ATOM      7  C   UNL     1      72.588  42.405   5.468  1.00  0.00     0.093 A 
ATOM      8  C   UNL     1      71.210  42.449   5.674  1.00  0.00     0.123 A 
ATOM      9  C   UNL     1      70.624  43.600   6.200  1.00  0.00     0.094 A 
ATOM     10  C   UNL     1      71.406  44.719   6.498  1.00  0.00     0.146 A 
ATOM     11  O   UNL     1      70.806  45.802   6.981  1.00  0.00    -0.456 OA
ENDROOT
BRANCH   1  12
ATOM     12  C   UNL     1      70.676  48.072   7.815  1.00  0.00     0.021 A 
ATOM     13  C   UNL     1      71.297  49.115   8.529  1.00  0.00     0.016 A 
ATOM     14  C   UNL     1      70.545  50.184   9.021  1.00  0.00     0.051 A 
ATOM     15  C   UNL     1      69.163  50.236   8.803  1.00  0.00     0.157 A 
ATOM     16  C   UNL     1      69.290  48.139   7.589  1.00  0.00     0.062 A 
ATOM     17  C   UNL     1      68.533  49.209   8.082  1.00  0.00     0.158 A 
BRANCH  15  18
ATOM     18  O   UNL     1      68.415  51.303   9.298  1.00  0.00    -0.504 OA
ATOM     19  H   UNL     1      68.568  51.672  10.230  1.00  0.00     0.293 HD
ENDBRANCH  15  18
BRANCH  17  20
ATOM     20  O   UNL     1      67.159  49.233   7.845  1.00  0.00    -0.504 OA
ATOM     21  H   UNL     1      66.500  48.754   8.447  1.00  0.00     0.293 HD
ENDBRANCH  17  20
ENDBRANCH   1  12
BRANCH   6  22
ATOM     22  O   UNL     1      74.780  43.315   5.620  1.00  0.00    -0.507 OA
ATOM     23  H   UNL     1      75.205  42.636   5.008  1.00  0.00     0.293 HD
ENDBRANCH   6  22
BRANCH   8  24
ATOM     24  O   UNL     1      70.433  41.337   5.357  1.00  0.00    -0.508 OA
ATOM     25  H   UNL     1      70.046  41.208   4.429  1.00  0.00     0.293 HD
ENDBRANCH   8  24
TORSDOF 5
ENDMDL
MODEL 8
REMARK VINA RESULT:    -5.544      2.569      4.213
REMARK INTER + INTRA:          -6.811
REMARK INTER:                  -6.502
REMARK INTRA:                  -0.310
REMARK UNBOUND:                -0.296
REMARK SMILES O=c1cc(-c2ccc(O)c(O)c2)oc2cc(O)cc(O)c12
REMARK SMILES IDX 4 1 3 2 2 3 1 4 21 5 19 6 18 7 16 8 15 9 14 10 13 11 5 12
REMARK SMILES IDX 6 13 7 14 8 15 12 16 10 17 9 18 11 20 20 22 17 24
REMARK H PARENT 9 19 11 21 20 23 17 25
REMARK Flexibility Score: inf
ROOT
ATOM      1  C   UNL     1      66.537  47.995   8.941  1.00  0.00     0.138 A 
ATOM      2  C   UNL     1      66.528  49.383   9.134  1.00  0.00     0.100 A 
ATOM      3  C   UNL     1      67.734  50.085   9.163  1.00  0.00     0.197 A 
ATOM      4  O   UNL     1      67.689  51.336   9.283  1.00  0.00    -0.289 OA
ATOM      5  C   UNL     1      68.958  49.385   9.033  1.00  0.00     0.107 A 
ATOM      6  C   UNL     1      70.251  49.991   9.081  1.00  0.00     0.134 A 
ATOM      7  C   UNL     1      71.388  49.209   8.840  1.00  0.00     0.093 A 
ATOM      8  C   UNL     1      71.285  47.838   8.612  1.00  0.00     0.123 A 
ATOM      9  C   UNL     1      70.031  47.227   8.612  1.00  0.00     0.094 A 
ATOM     10  C   UNL     1      68.875  47.984   8.814  1.00  0.00     0.146 A 
ATOM     11  O   UNL     1      67.698  47.367   8.789  1.00  0.00    -0.456 OA
ENDROOT
BRANCH   1  12
ATOM     12  C   UNL     1      65.285  47.199   8.905  1.00  0.00     0.021 A 
ATOM     13  C   UNL     1      64.101  47.650   9.521  1.00  0.00     0.016 A 
ATOM     14  C   UNL     1      62.935  46.884   9.462  1.00  0.00     0.051 A 
ATOM     15  C   UNL     1      62.926  45.660   8.782  1.00  0.00     0.157 A 
ATOM     16  C   UNL     1      65.263  45.976   8.212  1.00  0.00     0.062 A 
ATOM     17  C   UNL     1      64.096  45.205   8.152  1.00  0.00     0.158 A 
BRANCH  15  18
ATOM     18  O   UNL     1      61.761  44.897   8.727  1.00  0.00    -0.504 OA
ATOM     19  H   UNL     1      61.728  44.013   8.232  1.00  0.00     0.293 HD
ENDBRANCH  15  18
BRANCH  17  20
ATOM     20  O   UNL     1      64.119  43.993   7.463  1.00  0.00    -0.504 OA
ATOM     21  H   UNL     1      64.958  43.430   7.392  1.00  0.00     0.293 HD
ENDBRANCH  17  20
ENDBRANCH   1  12
BRANCH   6  22
ATOM     22  O   UNL     1      70.475  51.338   9.380  1.00  0.00    -0.507 OA
ATOM     23  H   UNL     1      71.095  51.678  10.098  1.00  0.00     0.293 HD
ENDBRANCH   6  22
BRANCH   8  24
ATOM     24  O   UNL     1      72.439  47.090   8.392  1.00  0.00    -0.508 OA
ATOM     25  H   UNL     1      72.946  47.143   7.515  1.00  0.00     0.293 HD
ENDBRANCH   8  24
TORSDOF 5
ENDMDL
MODEL 9
REMARK VINA RESULT:    -5.421      3.855      6.349
REMARK INTER + INTRA:          -6.668
REMARK INTER:                  -6.350
REMARK INTRA:                  -0.318
REMARK UNBOUND:                -0.296
REMARK SMILES O=c1cc(-c2ccc(O)c(O)c2)oc2cc(O)cc(O)c12
REMARK SMILES IDX 4 1 3 2 2 3 1 4 21 5 19 6 18 7 16 8 15 9 14 10 13 11 5 12
REMARK SMILES IDX 6 13 7 14 8 15 12 16 10 17 9 18 11 20 20 22 17 24
REMARK H PARENT 9 19 11 21 20 23 17 25
REMARK Flexibility Score: inf
ROOT
ATOM      1  C   UNL     1      72.591  45.688   6.730  1.00  0.00     0.138 A 
ATOM      2  C   UNL     1      73.768  46.424   6.923  1.00  0.00     0.100 A 
ATOM      3  C   UNL     1      73.690  47.764   7.305  1.00  0.00     0.197 A 
ATOM      4  O   UNL     1      74.763  48.381   7.524  1.00  0.00    -0.289 OA
ATOM      5  C   UNL     1      72.424  48.378   7.460  1.00  0.00     0.107 A 
ATOM      6  C   UNL     1      72.222  49.747   7.815  1.00  0.00     0.134 A 
ATOM      7  C   UNL     1      70.921  50.217   8.036  1.00  0.00     0.093 A 
ATOM      8  C   UNL     1      69.814  49.387   7.859  1.00  0.00     0.123 A 
ATOM      9  C   UNL     1      69.997  48.062   7.466  1.00  0.00     0.094 A 
ATOM     10  C   UNL     1      71.284  47.553   7.271  1.00  0.00     0.146 A 
ATOM     11  O   UNL     1      71.416  46.280   6.913  1.00  0.00    -0.456 OA
ENDROOT
BRANCH   1  12
ATOM     12  C   UNL     1      72.615  44.261   6.320  1.00  0.00     0.021 A 
ATOM     13  C   UNL     1      73.818  43.533   6.239  1.00  0.00     0.016 A 
ATOM     14  C   UNL     1      73.809  42.189   5.860  1.00  0.00     0.051 A 
ATOM     15  C   UNL     1      72.601  41.546   5.563  1.00  0.00     0.157 A 
ATOM     16  C   UNL     1      71.406  43.603   6.034  1.00  0.00     0.062 A 
ATOM     17  C   UNL     1      71.394  42.257   5.652  1.00  0.00     0.158 A 
BRANCH  15  18
ATOM     18  O   UNL     1      72.596  40.204   5.183  1.00  0.00    -0.504 OA
ATOM     19  H   UNL     1      73.405  39.772   4.749  1.00  0.00     0.293 HD
ENDBRANCH  15  18
BRANCH  17  20
ATOM     20  O   UNL     1      70.174  41.644   5.368  1.00  0.00    -0.504 OA
ATOM     21  H   UNL     1      69.355  42.175   5.097  1.00  0.00     0.293 HD
ENDBRANCH  17  20
ENDBRANCH   1  12
BRANCH   6  22
ATOM     22  O   UNL     1      73.251  50.685   7.939  1.00  0.00    -0.507 OA
ATOM     23  H   UNL     1      73.374  51.493   7.348  1.00  0.00     0.293 HD
ENDBRANCH   6  22
BRANCH   8  24
ATOM     24  O   UNL     1      68.535  49.895   8.074  1.00  0.00    -0.508 OA
ATOM     25  H   UNL     1      68.291  50.369   8.936  1.00  0.00     0.293 HD
ENDBRANCH   8  24
TORSDOF 5
ENDMDL
