MODEL 1
REMARK VINA RESULT:    -6.749      0.000      0.000
REMARK INTER + INTRA:          -7.472
REMARK INTER:                  -7.340
REMARK INTRA:                  -0.132
REMARK UNBOUND:                -0.132
REMARK SMILES CC(=O)[C@@H]1CC[C@H]2[C@H]3CC=C4C[C@@H](O)CC[C@@]4(C)[C@@H]3CC[C@@]12C
REMARK SMILES IDX 4 1 5 2 6 3 7 4 22 5 21 6 20 7 19 8 8 9 9 10 10 11 11 12
REMARK SMILES IDX 17 13 16 14 15 15 13 16 12 17 18 18 23 19 2 20 1 21 3 22
REMARK SMILES IDX 14 23
REMARK H PARENT 14 24
REMARK Flexibility Score: inf
ROOT
ATOM      1  C   UNL     1     143.484 137.472 137.372  1.00  0.00     0.062 C 
ATOM      2  C   UNL     1     142.943 138.911 137.322  1.00  0.00     0.012 C 
ATOM      3  C   UNL     1     144.152 139.849 137.369  1.00  0.00     0.005 C 
ATOM      4  C   UNL     1     145.410 138.963 137.327  1.00  0.00    -0.001 C 
ATOM      5  C   UNL     1     144.953 137.597 137.880  1.00  0.00    -0.020 C 
ATOM      6  C   UNL     1     144.931 137.621 139.439  1.00  0.00     0.008 C 
ATOM      7  C   UNL     1     146.239 138.113 140.060  1.00  0.00     0.005 C 
ATOM      8  C   UNL     1     146.612 139.532 139.566  1.00  0.00     0.003 C 
ATOM      9  C   UNL     1     146.681 139.552 138.018  1.00  0.00     0.000 C 
ATOM     10  C   UNL     1     146.968 140.975 137.509  1.00  0.00     0.031 C 
ATOM     11  C   UNL     1     148.085 141.652 138.242  1.00  0.00    -0.027 C 
ATOM     12  C   UNL     1     148.417 141.369 139.517  1.00  0.00    -0.065 C 
ATOM     13  C   UNL     1     147.938 140.090 140.226  1.00  0.00    -0.008 C 
ATOM     14  C   UNL     1     147.647 140.430 141.722  1.00  0.00     0.014 C 
ATOM     15  C   UNL     1     148.764 141.234 142.407  1.00  0.00     0.033 C 
ATOM     16  C   UNL     1     149.065 142.536 141.651  1.00  0.00     0.118 C 
ATOM     17  C   UNL     1     149.457 142.241 140.200  1.00  0.00     0.063 C 
ATOM     18  C   UNL     1     149.093 139.050 140.152  1.00  0.00     0.016 C 
ATOM     19  C   UNL     1     145.863 136.445 137.379  1.00  0.00     0.012 C 
ENDROOT
BRANCH   1  20
ATOM     20  C   UNL     1     143.318 136.750 136.037  1.00  0.00     0.133 C 
ATOM     21  C   UNL     1     142.737 135.368 135.909  1.00  0.00     0.088 C 
ATOM     22  O   UNL     1     143.642 137.334 135.013  1.00  0.00    -0.300 OA
ENDBRANCH   1  20
BRANCH  16  23
ATOM     23  O   UNL     1     147.948 143.387 141.671  1.00  0.00    -0.393 OA
ATOM     24  H   UNL     1     147.337 143.076 140.953  1.00  0.00     0.210 HD
ENDBRANCH  16  23
TORSDOF 2
ENDMDL
MODEL 2
REMARK VINA RESULT:    -6.373      1.647      1.977
REMARK INTER + INTRA:          -7.064
REMARK INTER:                  -6.916
REMARK INTRA:                  -0.147
REMARK UNBOUND:                -0.132
REMARK SMILES CC(=O)[C@@H]1CC[C@H]2[C@H]3CC=C4C[C@@H](O)CC[C@@]4(C)[C@@H]3CC[C@@]12C
REMARK SMILES IDX 4 1 5 2 6 3 7 4 22 5 21 6 20 7 19 8 8 9 9 10 10 11 11 12
REMARK SMILES IDX 17 13 16 14 15 15 13 16 12 17 18 18 23 19 2 20 1 21 3 22
REMARK SMILES IDX 14 23
REMARK H PARENT 14 24
REMARK Flexibility Score: inf
ROOT
ATOM      1  C   UNL     1     145.639 135.712 137.947  1.00  0.00     0.062 C 
ATOM      2  C   UNL     1     144.486 136.729 137.902  1.00  0.00     0.012 C 
ATOM      3  C   UNL     1     145.115 138.118 137.766  1.00  0.00     0.005 C 
ATOM      4  C   UNL     1     146.632 137.911 137.611  1.00  0.00    -0.001 C 
ATOM      5  C   UNL     1     146.917 136.546 138.270  1.00  0.00    -0.020 C 
ATOM      6  C   UNL     1     147.021 136.701 139.818  1.00  0.00     0.008 C 
ATOM      7  C   UNL     1     147.995 137.794 140.258  1.00  0.00     0.005 C 
ATOM      8  C   UNL     1     147.617 139.174 139.664  1.00  0.00     0.003 C 
ATOM      9  C   UNL     1     147.534 139.080 138.120  1.00  0.00     0.000 C 
ATOM     10  C   UNL     1     147.077 140.421 137.522  1.00  0.00     0.031 C 
ATOM     11  C   UNL     1     147.807 141.601 138.087  1.00  0.00    -0.027 C 
ATOM     12  C   UNL     1     148.341 141.622 139.324  1.00  0.00    -0.065 C 
ATOM     13  C   UNL     1     148.579 140.338 140.137  1.00  0.00    -0.008 C 
ATOM     14  C   UNL     1     148.293 140.642 141.642  1.00  0.00     0.014 C 
ATOM     15  C   UNL     1     148.959 141.930 142.154  1.00  0.00     0.033 C 
ATOM     16  C   UNL     1     148.549 143.148 141.314  1.00  0.00     0.118 C 
ATOM     17  C   UNL     1     148.907 142.934 139.841  1.00  0.00     0.063 C 
ATOM     18  C   UNL     1     150.075 139.944 139.970  1.00  0.00     0.016 C 
ATOM     19  C   UNL     1     148.213 135.901 137.713  1.00  0.00     0.012 C 
ENDROOT
BRANCH   1  20
ATOM     20  C   UNL     1     145.716 134.875 136.673  1.00  0.00     0.133 C 
ATOM     21  C   UNL     1     145.506 135.442 135.295  1.00  0.00     0.088 C 
ATOM     22  O   UNL     1     145.995 133.688 136.770  1.00  0.00    -0.300 OA
ENDBRANCH   1  20
BRANCH  16  23
ATOM     23  O   UNL     1     147.170 143.387 141.433  1.00  0.00    -0.393 OA
ATOM     24  H   UNL     1     146.724 142.849 140.728  1.00  0.00     0.210 HD
ENDBRANCH  16  23
TORSDOF 2
ENDMDL
MODEL 3
REMARK VINA RESULT:    -6.351      2.413      6.916
REMARK INTER + INTRA:          -7.040
REMARK INTER:                  -6.907
REMARK INTRA:                  -0.134
REMARK UNBOUND:                -0.132
REMARK SMILES CC(=O)[C@@H]1CC[C@H]2[C@H]3CC=C4C[C@@H](O)CC[C@@]4(C)[C@@H]3CC[C@@]12C
REMARK SMILES IDX 4 1 5 2 6 3 7 4 22 5 21 6 20 7 19 8 8 9 9 10 10 11 11 12
REMARK SMILES IDX 17 13 16 14 15 15 13 16 12 17 18 18 23 19 2 20 1 21 3 22
REMARK SMILES IDX 14 23
REMARK H PARENT 14 24
REMARK Flexibility Score: inf
ROOT
ATOM      1  C   UNL     1     148.812 141.689 139.566  1.00  0.00     0.062 C 
ATOM      2  C   UNL     1     147.808 141.745 138.402  1.00  0.00     0.012 C 
ATOM      3  C   UNL     1     147.111 140.383 138.343  1.00  0.00     0.005 C 
ATOM      4  C   UNL     1     147.619 139.566 139.545  1.00  0.00    -0.001 C 
ATOM      5  C   UNL     1     148.994 140.175 139.887  1.00  0.00    -0.020 C 
ATOM      6  C   UNL     1     150.093 139.603 138.940  1.00  0.00     0.008 C 
ATOM      7  C   UNL     1     150.111 138.075 138.878  1.00  0.00     0.005 C 
ATOM      8  C   UNL     1     148.745 137.501 138.427  1.00  0.00     0.003 C 
ATOM      9  C   UNL     1     147.621 138.015 139.362  1.00  0.00     0.000 C 
ATOM     10  C   UNL     1     146.248 137.521 138.875  1.00  0.00     0.031 C 
ATOM     11  C   UNL     1     146.229 136.062 138.537  1.00  0.00    -0.027 C 
ATOM     12  C   UNL     1     147.317 135.380 138.125  1.00  0.00    -0.065 C 
ATOM     13  C   UNL     1     148.744 135.923 138.308  1.00  0.00    -0.008 C 
ATOM     14  C   UNL     1     149.594 135.515 137.064  1.00  0.00     0.014 C 
ATOM     15  C   UNL     1     149.452 134.035 136.671  1.00  0.00     0.033 C 
ATOM     16  C   UNL     1     147.986 133.659 136.416  1.00  0.00     0.118 C 
ATOM     17  C   UNL     1     147.130 133.948 137.653  1.00  0.00     0.063 C 
ATOM     18  C   UNL     1     149.343 135.256 139.579  1.00  0.00     0.016 C 
ATOM     19  C   UNL     1     149.382 139.915 141.367  1.00  0.00     0.012 C 
ENDROOT
BRANCH   1  20
ATOM     20  C   UNL     1     148.372 142.554 140.745  1.00  0.00     0.133 C 
ATOM     21  C   UNL     1     149.325 143.369 141.577  1.00  0.00     0.088 C 
ATOM     22  O   UNL     1     147.180 142.618 141.009  1.00  0.00    -0.300 OA
ENDBRANCH   1  20
BRANCH  16  23
ATOM     23  O   UNL     1     147.478 134.371 135.317  1.00  0.00    -0.393 OA
ATOM     24  H   UNL     1     147.242 133.700 134.625  1.00  0.00     0.210 HD
ENDBRANCH  16  23
TORSDOF 2
ENDMDL
MODEL 4
REMARK VINA RESULT:    -6.222      1.663      6.881
REMARK INTER + INTRA:          -6.900
REMARK INTER:                  -6.768
REMARK INTRA:                  -0.132
REMARK UNBOUND:                -0.132
REMARK SMILES CC(=O)[C@@H]1CC[C@H]2[C@H]3CC=C4C[C@@H](O)CC[C@@]4(C)[C@@H]3CC[C@@]12C
REMARK SMILES IDX 4 1 5 2 6 3 7 4 22 5 21 6 20 7 19 8 8 9 9 10 10 11 11 12
REMARK SMILES IDX 17 13 16 14 15 15 13 16 12 17 18 18 23 19 2 20 1 21 3 22
REMARK SMILES IDX 14 23
REMARK H PARENT 14 24
REMARK Flexibility Score: inf
ROOT
ATOM      1  C   UNL     1     149.222 140.236 140.839  1.00  0.00     0.062 C 
ATOM      2  C   UNL     1     149.769 140.594 139.446  1.00  0.00     0.012 C 
ATOM      3  C   UNL     1     148.656 140.300 138.437  1.00  0.00     0.005 C 
ATOM      4  C   UNL     1     147.414 139.883 139.244  1.00  0.00    -0.001 C 
ATOM      5  C   UNL     1     147.971 139.343 140.578  1.00  0.00    -0.020 C 
ATOM      6  C   UNL     1     148.449 137.868 140.410  1.00  0.00     0.008 C 
ATOM      7  C   UNL     1     147.397 136.953 139.785  1.00  0.00     0.005 C 
ATOM      8  C   UNL     1     146.939 137.467 138.397  1.00  0.00     0.003 C 
ATOM      9  C   UNL     1     146.421 138.922 138.518  1.00  0.00     0.000 C 
ATOM     10  C   UNL     1     146.041 139.475 137.134  1.00  0.00     0.031 C 
ATOM     11  C   UNL     1     145.209 138.528 136.325  1.00  0.00    -0.027 C 
ATOM     12  C   UNL     1     145.257 137.188 136.467  1.00  0.00    -0.065 C 
ATOM     13  C   UNL     1     145.883 136.516 137.701  1.00  0.00    -0.008 C 
ATOM     14  C   UNL     1     146.611 135.213 137.241  1.00  0.00     0.014 C 
ATOM     15  C   UNL     1     145.768 134.325 136.310  1.00  0.00     0.033 C 
ATOM     16  C   UNL     1     145.299 135.096 135.069  1.00  0.00     0.118 C 
ATOM     17  C   UNL     1     144.490 136.332 135.474  1.00  0.00     0.063 C 
ATOM     18  C   UNL     1     144.726 136.141 138.671  1.00  0.00     0.016 C 
ATOM     19  C   UNL     1     146.919 139.433 141.715  1.00  0.00     0.012 C 
ENDROOT
BRANCH   1  20
ATOM     20  C   UNL     1     148.967 141.477 141.691  1.00  0.00     0.133 C 
ATOM     21  C   UNL     1     148.456 142.777 141.131  1.00  0.00     0.088 C 
ATOM     22  O   UNL     1     149.154 141.406 142.897  1.00  0.00    -0.300 OA
ENDBRANCH   1  20
BRANCH  16  23
ATOM     23  O   UNL     1     146.399 135.490 134.289  1.00  0.00    -0.393 OA
ATOM     24  H   UNL     1     146.263 136.447 134.063  1.00  0.00     0.210 HD
ENDBRANCH  16  23
TORSDOF 2
ENDMDL
MODEL 5
REMARK VINA RESULT:    -6.120      2.646      6.858
REMARK INTER + INTRA:          -6.789
REMARK INTER:                  -6.651
REMARK INTRA:                  -0.138
REMARK UNBOUND:                -0.132
REMARK SMILES CC(=O)[C@@H]1CC[C@H]2[C@H]3CC=C4C[C@@H](O)CC[C@@]4(C)[C@@H]3CC[C@@]12C
REMARK SMILES IDX 4 1 5 2 6 3 7 4 22 5 21 6 20 7 19 8 8 9 9 10 10 11 11 12
REMARK SMILES IDX 17 13 16 14 15 15 13 16 12 17 18 18 23 19 2 20 1 21 3 22
REMARK SMILES IDX 14 23
REMARK H PARENT 14 24
REMARK Flexibility Score: inf
ROOT
ATOM      1  C   UNL     1     147.902 141.053 141.200  1.00  0.00     0.062 C 
ATOM      2  C   UNL     1     149.002 140.256 141.923  1.00  0.00     0.012 C 
ATOM      3  C   UNL     1     149.573 139.258 140.912  1.00  0.00     0.005 C 
ATOM      4  C   UNL     1     148.894 139.548 139.561  1.00  0.00    -0.001 C 
ATOM      5  C   UNL     1     147.557 140.224 139.926  1.00  0.00    -0.020 C 
ATOM      6  C   UNL     1     146.494 139.151 140.314  1.00  0.00     0.008 C 
ATOM      7  C   UNL     1     146.341 138.040 139.275  1.00  0.00     0.005 C 
ATOM      8  C   UNL     1     147.682 137.310 139.013  1.00  0.00     0.003 C 
ATOM      9  C   UNL     1     148.766 138.333 138.589  1.00  0.00     0.000 C 
ATOM     10  C   UNL     1     150.124 137.635 138.407  1.00  0.00     0.031 C 
ATOM     11  C   UNL     1     150.038 136.372 137.604  1.00  0.00    -0.027 C 
ATOM     12  C   UNL     1     148.931 135.606 137.541  1.00  0.00    -0.065 C 
ATOM     13  C   UNL     1     147.549 136.122 137.976  1.00  0.00    -0.008 C 
ATOM     14  C   UNL     1     146.772 134.950 138.655  1.00  0.00     0.014 C 
ATOM     15  C   UNL     1     146.811 133.634 137.861  1.00  0.00     0.033 C 
ATOM     16  C   UNL     1     148.253 133.183 137.590  1.00  0.00     0.118 C 
ATOM     17  C   UNL     1     149.025 134.266 136.830  1.00  0.00     0.063 C 
ATOM     18  C   UNL     1     146.787 136.566 136.694  1.00  0.00     0.016 C 
ATOM     19  C   UNL     1     147.024 141.102 138.763  1.00  0.00     0.012 C 
ENDROOT
BRANCH   1  20
ATOM     20  C   UNL     1     148.319 142.499 140.940  1.00  0.00     0.133 C 
ATOM     21  C   UNL     1     149.721 142.904 140.573  1.00  0.00     0.088 C 
ATOM     22  O   UNL     1     147.465 143.372 141.000  1.00  0.00    -0.300 OA
ENDBRANCH   1  20
BRANCH  16  23
ATOM     23  O   UNL     1     148.914 132.893 138.795  1.00  0.00    -0.393 OA
ATOM     24  H   UNL     1     149.772 133.391 138.779  1.00  0.00     0.210 HD
ENDBRANCH  16  23
TORSDOF 2
ENDMDL
MODEL 6
REMARK VINA RESULT:    -6.064     11.202     13.470
REMARK INTER + INTRA:          -6.728
REMARK INTER:                  -6.581
REMARK INTRA:                  -0.147
REMARK UNBOUND:                -0.132
REMARK SMILES CC(=O)[C@@H]1CC[C@H]2[C@H]3CC=C4C[C@@H](O)CC[C@@]4(C)[C@@H]3CC[C@@]12C
REMARK SMILES IDX 4 1 5 2 6 3 7 4 22 5 21 6 20 7 19 8 8 9 9 10 10 11 11 12
REMARK SMILES IDX 17 13 16 14 15 15 13 16 12 17 18 18 23 19 2 20 1 21 3 22
REMARK SMILES IDX 14 23
REMARK H PARENT 14 24
REMARK Flexibility Score: inf
ROOT
ATOM      1  C   UNL     1     135.528 133.998 136.879  1.00  0.00     0.062 C 
ATOM      2  C   UNL     1     134.373 134.218 135.887  1.00  0.00     0.012 C 
ATOM      3  C   UNL     1     134.695 133.402 134.633  1.00  0.00     0.005 C 
ATOM      4  C   UNL     1     135.979 132.607 134.931  1.00  0.00    -0.001 C 
ATOM      5  C   UNL     1     136.699 133.413 136.032  1.00  0.00    -0.020 C 
ATOM      6  C   UNL     1     137.491 134.601 135.407  1.00  0.00     0.008 C 
ATOM      7  C   UNL     1     138.419 134.183 134.266  1.00  0.00     0.005 C 
ATOM      8  C   UNL     1     137.646 133.472 133.127  1.00  0.00     0.003 C 
ATOM      9  C   UNL     1     136.867 132.259 133.694  1.00  0.00     0.000 C 
ATOM     10  C   UNL     1     136.028 131.594 132.591  1.00  0.00     0.031 C 
ATOM     11  C   UNL     1     136.789 131.371 131.320  1.00  0.00    -0.027 C 
ATOM     12  C   UNL     1     137.831 132.135 130.934  1.00  0.00    -0.065 C 
ATOM     13  C   UNL     1     138.571 133.067 131.908  1.00  0.00    -0.008 C 
ATOM     14  C   UNL     1     138.983 134.363 131.141  1.00  0.00     0.014 C 
ATOM     15  C   UNL     1     139.651 134.096 129.782  1.00  0.00     0.033 C 
ATOM     16  C   UNL     1     138.755 133.243 128.872  1.00  0.00     0.118 C 
ATOM     17  C   UNL     1     138.410 131.913 129.547  1.00  0.00     0.063 C 
ATOM     18  C   UNL     1     139.852 132.327 132.387  1.00  0.00     0.016 C 
ATOM     19  C   UNL     1     137.655 132.517 136.864  1.00  0.00     0.012 C 
ENDROOT
BRANCH   1  20
ATOM     20  C   UNL     1     135.103 133.148 138.074  1.00  0.00     0.133 C 
ATOM     21  C   UNL     1     134.275 131.897 137.949  1.00  0.00     0.088 C 
ATOM     22  O   UNL     1     135.482 133.477 139.189  1.00  0.00    -0.300 OA
ENDBRANCH   1  20
BRANCH  16  23
ATOM     23  O   UNL     1     137.571 133.932 128.560  1.00  0.00    -0.393 OA
ATOM     24  H   UNL     1     137.627 134.177 127.600  1.00  0.00     0.210 HD
ENDBRANCH  16  23
TORSDOF 2
ENDMDL
MODEL 7
REMARK VINA RESULT:    -6.019      3.458      4.504
REMARK INTER + INTRA:          -6.679
REMARK INTER:                  -6.532
REMARK INTRA:                  -0.146
REMARK UNBOUND:                -0.132
REMARK SMILES CC(=O)[C@@H]1CC[C@H]2[C@H]3CC=C4C[C@@H](O)CC[C@@]4(C)[C@@H]3CC[C@@]12C
REMARK SMILES IDX 4 1 5 2 6 3 7 4 22 5 21 6 20 7 19 8 8 9 9 10 10 11 11 12
REMARK SMILES IDX 17 13 16 14 15 15 13 16 12 17 18 18 23 19 2 20 1 21 3 22
REMARK SMILES IDX 14 23
REMARK H PARENT 14 24
REMARK Flexibility Score: inf
ROOT
ATOM      1  C   UNL     1     142.279 137.612 142.880  1.00  0.00     0.062 C 
ATOM      2  C   UNL     1     141.824 138.253 141.558  1.00  0.00     0.012 C 
ATOM      3  C   UNL     1     142.992 138.136 140.576  1.00  0.00     0.005 C 
ATOM      4  C   UNL     1     144.092 137.321 141.280  1.00  0.00    -0.001 C 
ATOM      5  C   UNL     1     143.832 137.522 142.787  1.00  0.00    -0.020 C 
ATOM      6  C   UNL     1     144.430 138.880 143.265  1.00  0.00     0.008 C 
ATOM      7  C   UNL     1     145.897 139.072 142.878  1.00  0.00     0.005 C 
ATOM      8  C   UNL     1     146.105 138.971 141.346  1.00  0.00     0.003 C 
ATOM      9  C   UNL     1     145.556 137.619 140.826  1.00  0.00     0.000 C 
ATOM     10  C   UNL     1     145.679 137.540 139.295  1.00  0.00     0.031 C 
ATOM     11  C   UNL     1     147.024 137.962 138.786  1.00  0.00    -0.027 C 
ATOM     12  C   UNL     1     147.821 138.838 139.430  1.00  0.00    -0.065 C 
ATOM     13  C   UNL     1     147.607 139.211 140.907  1.00  0.00    -0.008 C 
ATOM     14  C   UNL     1     147.946 140.724 141.092  1.00  0.00     0.014 C 
ATOM     15  C   UNL     1     149.277 141.147 140.448  1.00  0.00     0.033 C 
ATOM     16  C   UNL     1     149.309 140.810 138.950  1.00  0.00     0.118 C 
ATOM     17  C   UNL     1     149.082 139.312 138.728  1.00  0.00     0.063 C 
ATOM     18  C   UNL     1     148.592 138.358 141.756  1.00  0.00     0.016 C 
ATOM     19  C   UNL     1     144.420 136.358 143.628  1.00  0.00     0.012 C 
ENDROOT
BRANCH   1  20
ATOM     20  C   UNL     1     141.567 136.288 143.150  1.00  0.00     0.133 C 
ATOM     21  C   UNL     1     141.269 135.274 142.079  1.00  0.00     0.088 C 
ATOM     22  O   UNL     1     141.251 136.019 144.300  1.00  0.00    -0.300 OA
ENDBRANCH   1  20
BRANCH  16  23
ATOM     23  O   UNL     1     148.329 141.541 138.259  1.00  0.00    -0.393 OA
ATOM     24  H   UNL     1     148.723 141.793 137.384  1.00  0.00     0.210 HD
ENDBRANCH  16  23
TORSDOF 2
ENDMDL
MODEL 8
REMARK VINA RESULT:    -5.952      3.226      4.860
REMARK INTER + INTRA:          -6.606
REMARK INTER:                  -6.477
REMARK INTRA:                  -0.129
REMARK UNBOUND:                -0.132
REMARK SMILES CC(=O)[C@@H]1CC[C@H]2[C@H]3CC=C4C[C@@H](O)CC[C@@]4(C)[C@@H]3CC[C@@]12C
REMARK SMILES IDX 4 1 5 2 6 3 7 4 22 5 21 6 20 7 19 8 8 9 9 10 10 11 11 12
REMARK SMILES IDX 17 13 16 14 15 15 13 16 12 17 18 18 23 19 2 20 1 21 3 22
REMARK SMILES IDX 14 23
REMARK H PARENT 14 24
REMARK Flexibility Score: inf
ROOT
ATOM      1  C   UNL     1     149.614 134.101 137.885  1.00  0.00     0.062 C 
ATOM      2  C   UNL     1     150.101 133.951 139.337  1.00  0.00     0.012 C 
ATOM      3  C   UNL     1     149.264 134.905 140.193  1.00  0.00     0.005 C 
ATOM      4  C   UNL     1     148.205 135.529 139.267  1.00  0.00    -0.001 C 
ATOM      5  C   UNL     1     148.810 135.437 137.851  1.00  0.00    -0.020 C 
ATOM      6  C   UNL     1     149.815 136.605 137.613  1.00  0.00     0.008 C 
ATOM      7  C   UNL     1     149.234 137.984 137.928  1.00  0.00     0.005 C 
ATOM      8  C   UNL     1     148.733 138.076 139.390  1.00  0.00     0.003 C 
ATOM      9  C   UNL     1     147.703 136.953 139.668  1.00  0.00     0.000 C 
ATOM     10  C   UNL     1     147.260 136.980 141.141  1.00  0.00     0.031 C 
ATOM     11  C   UNL     1     146.909 138.351 141.630  1.00  0.00    -0.027 C 
ATOM     12  C   UNL     1     147.440 139.481 141.119  1.00  0.00    -0.065 C 
ATOM     13  C   UNL     1     148.167 139.506 139.764  1.00  0.00    -0.008 C 
ATOM     14  C   UNL     1     149.362 140.507 139.860  1.00  0.00     0.014 C 
ATOM     15  C   UNL     1     148.990 141.863 140.481  1.00  0.00     0.033 C 
ATOM     16  C   UNL     1     148.372 141.692 141.876  1.00  0.00     0.118 C 
ATOM     17  C   UNL     1     147.131 140.797 141.811  1.00  0.00     0.063 C 
ATOM     18  C   UNL     1     147.157 140.016 138.696  1.00  0.00     0.016 C 
ATOM     19  C   UNL     1     147.711 135.450 136.757  1.00  0.00     0.012 C 
ENDROOT
BRANCH   1  20
ATOM     20  C   UNL     1     148.847 132.870 137.408  1.00  0.00     0.133 C 
ATOM     21  C   UNL     1     149.120 132.178 136.100  1.00  0.00     0.088 C 
ATOM     22  O   UNL     1     147.987 132.399 138.138  1.00  0.00    -0.300 OA
ENDBRANCH   1  20
BRANCH  16  23
ATOM     23  O   UNL     1     149.306 141.136 142.765  1.00  0.00    -0.393 OA
ATOM     24  H   UNL     1     150.140 140.987 142.247  1.00  0.00     0.210 HD
ENDBRANCH  16  23
TORSDOF 2
ENDMDL
MODEL 9
REMARK VINA RESULT:    -4.246      3.680      7.106
REMARK INTER + INTRA:          -4.751
REMARK INTER:                  -4.636
REMARK INTRA:                  -0.115
REMARK UNBOUND:                -0.132
REMARK SMILES CC(=O)[C@@H]1CC[C@H]2[C@H]3CC=C4C[C@@H](O)CC[C@@]4(C)[C@@H]3CC[C@@]12C
REMARK SMILES IDX 4 1 5 2 6 3 7 4 22 5 21 6 20 7 19 8 8 9 9 10 10 11 11 12
REMARK SMILES IDX 17 13 16 14 15 15 13 16 12 17 18 18 23 19 2 20 1 21 3 22
REMARK SMILES IDX 14 23
REMARK H PARENT 14 24
REMARK Flexibility Score: inf
ROOT
ATOM      1  C   UNL     1     148.099 140.483 141.450  1.00  0.00     0.062 C 
ATOM      2  C   UNL     1     149.373 139.986 142.155  1.00  0.00     0.012 C 
ATOM      3  C   UNL     1     149.856 138.749 141.393  1.00  0.00     0.005 C 
ATOM      4  C   UNL     1     148.936 138.588 140.169  1.00  0.00    -0.001 C 
ATOM      5  C   UNL     1     147.622 139.293 140.563  1.00  0.00    -0.020 C 
ATOM      6  C   UNL     1     146.743 138.351 141.441  1.00  0.00     0.008 C 
ATOM      7  C   UNL     1     146.520 136.971 140.823  1.00  0.00     0.005 C 
ATOM      8  C   UNL     1     147.860 136.246 140.540  1.00  0.00     0.003 C 
ATOM      9  C   UNL     1     148.758 137.130 139.638  1.00  0.00     0.000 C 
ATOM     10  C   UNL     1     150.125 136.459 139.418  1.00  0.00     0.031 C 
ATOM     11  C   UNL     1     150.022 135.010 139.052  1.00  0.00    -0.027 C 
ATOM     12  C   UNL     1     148.995 134.221 139.426  1.00  0.00    -0.065 C 
ATOM     13  C   UNL     1     147.664 134.794 139.941  1.00  0.00    -0.008 C 
ATOM     14  C   UNL     1     147.123 133.858 141.069  1.00  0.00     0.014 C 
ATOM     15  C   UNL     1     147.149 132.364 140.703  1.00  0.00     0.033 C 
ATOM     16  C   UNL     1     148.560 131.905 140.311  1.00  0.00     0.118 C 
ATOM     17  C   UNL     1     149.091 132.732 139.136  1.00  0.00     0.063 C 
ATOM     18  C   UNL     1     146.661 134.797 138.753  1.00  0.00     0.016 C 
ATOM     19  C   UNL     1     146.824 139.753 139.315  1.00  0.00     0.012 C 
ENDROOT
BRANCH   1  20
ATOM     20  C   UNL     1     148.332 141.795 140.704  1.00  0.00     0.133 C 
ATOM     21  C   UNL     1     147.458 143.009 140.868  1.00  0.00     0.088 C 
ATOM     22  O   UNL     1     149.297 141.879 139.958  1.00  0.00    -0.300 OA
ENDBRANCH   1  20
BRANCH  16  23
ATOM     23  O   UNL     1     149.438 132.022 141.401  1.00  0.00    -0.393 OA
ATOM     24  H   UNL     1     150.347 132.151 141.025  1.00  0.00     0.210 HD
ENDBRANCH  16  23
TORSDOF 2
ENDMDL
