MODEL 1
REMARK VINA RESULT:    -5.894      0.000      0.000
REMARK INTER + INTRA:          -8.074
REMARK INTER:                  -7.272
REMARK INTRA:                  -0.801
REMARK UNBOUND:                -0.801
REMARK SMILES CC(C)=CCC[C@@H](C)c1ccc(C)cc1
REMARK SMILES IDX 6 1 7 2 8 3 9 4 13 5 12 6 11 7 14 8 10 9 15 10 5 11 4 12
REMARK SMILES IDX 2 13 1 14 3 15
REMARK H PARENT
REMARK Flexibility Score: inf
ROOT
ATOM      1  C   UNL     1      16.501  24.318  15.660  1.00  0.00     0.012 C 
ENDROOT
BRANCH   1   2
ATOM      2  C   UNL     1      17.268  24.347  14.318  1.00  0.00     0.016 C 
ATOM      3  C   UNL     1      18.011  23.024  14.091  1.00  0.00     0.013 C 
BRANCH   2   4
ATOM      4  C   UNL     1      16.356  24.655  13.143  1.00  0.00    -0.045 A 
ATOM      5  C   UNL     1      13.806  25.603   9.789  1.00  0.00     0.044 C 
ATOM      6  C   UNL     1      14.686  25.244  10.947  1.00  0.00    -0.051 A 
ATOM      7  C   UNL     1      14.141  25.095  12.231  1.00  0.00     0.004 A 
ATOM      8  C   UNL     1      16.073  25.122  10.771  1.00  0.00     0.004 A 
ATOM      9  C   UNL     1      14.967  24.798  13.318  1.00  0.00     0.004 A 
ATOM     10  C   UNL     1      16.899  24.824  11.858  1.00  0.00     0.004 A 
ENDBRANCH   2   4
ENDBRANCH   1   2
BRANCH   1  11
ATOM     11  C   UNL     1      16.859  25.482  16.602  1.00  0.00     0.028 C 
BRANCH  11  12
ATOM     12  C   UNL     1      18.072  25.180  17.449  1.00  0.00    -0.028 C 
ATOM     13  C   UNL     1      19.311  25.668  17.218  1.00  0.00    -0.080 C 
ATOM     14  C   UNL     1      20.415  25.305  18.178  1.00  0.00     0.039 C 
ATOM     15  C   UNL     1      19.620  26.539  16.023  1.00  0.00     0.039 C 
ENDBRANCH  11  12
ENDBRANCH   1  11
TORSDOF 4
ENDMDL
MODEL 2
REMARK VINA RESULT:    -5.864      1.484      2.551
REMARK INTER + INTRA:          -8.036
REMARK INTER:                  -7.025
REMARK INTRA:                  -1.011
REMARK UNBOUND:                -0.801
REMARK SMILES CC(C)=CCC[C@@H](C)c1ccc(C)cc1
REMARK SMILES IDX 6 1 7 2 8 3 9 4 13 5 12 6 11 7 14 8 10 9 15 10 5 11 4 12
REMARK SMILES IDX 2 13 1 14 3 15
REMARK H PARENT
REMARK Flexibility Score: inf
ROOT
ATOM      1  C   UNL     1      18.111  25.434  16.899  1.00  0.00     0.012 C 
ENDROOT
BRANCH   1   2
ATOM      2  C   UNL     1      18.083  24.154  16.031  1.00  0.00     0.016 C 
ATOM      3  C   UNL     1      17.389  23.008  16.779  1.00  0.00     0.013 C 
BRANCH   2   4
ATOM      4  C   UNL     1      17.422  24.388  14.684  1.00  0.00    -0.045 A 
ATOM      5  C   UNL     1      15.600  25.118  10.836  1.00  0.00     0.044 C 
ATOM      6  C   UNL     1      16.224  24.835  12.170  1.00  0.00    -0.051 A 
ATOM      7  C   UNL     1      15.478  24.992  13.348  1.00  0.00     0.004 A 
ATOM      8  C   UNL     1      17.578  24.478  12.257  1.00  0.00     0.004 A 
ATOM      9  C   UNL     1      16.070  24.766  14.593  1.00  0.00     0.004 A 
ATOM     10  C   UNL     1      18.170  24.251  13.502  1.00  0.00     0.004 A 
ENDBRANCH   2   4
ENDBRANCH   1   2
BRANCH   1  11
ATOM     11  C   UNL     1      19.522  26.015  17.097  1.00  0.00     0.028 C 
BRANCH  11  12
ATOM     12  C   UNL     1      20.215  26.293  15.785  1.00  0.00    -0.028 C 
ATOM     13  C   UNL     1      21.335  25.668  15.359  1.00  0.00    -0.080 C 
ATOM     14  C   UNL     1      21.888  26.030  14.004  1.00  0.00     0.039 C 
ATOM     15  C   UNL     1      22.053  24.644  16.207  1.00  0.00     0.039 C 
ENDBRANCH  11  12
ENDBRANCH   1  11
TORSDOF 4
ENDMDL
MODEL 3
REMARK VINA RESULT:    -5.856     11.217     12.576
REMARK INTER + INTRA:          -8.027
REMARK INTER:                  -7.025
REMARK INTRA:                  -1.002
REMARK UNBOUND:                -0.801
REMARK SMILES CC(C)=CCC[C@@H](C)c1ccc(C)cc1
REMARK SMILES IDX 6 1 7 2 8 3 9 4 13 5 12 6 11 7 14 8 10 9 15 10 5 11 4 12
REMARK SMILES IDX 2 13 1 14 3 15
REMARK H PARENT
REMARK Flexibility Score: inf
ROOT
ATOM      1  C   UNL     1      20.344  12.375  14.560  1.00  0.00     0.012 C 
ENDROOT
BRANCH   1   2
ATOM      2  C   UNL     1      19.496  13.662  14.691  1.00  0.00     0.016 C 
ATOM      3  C   UNL     1      20.106  14.798  13.861  1.00  0.00     0.013 C 
BRANCH   2   4
ATOM      4  C   UNL     1      18.046  13.435  14.301  1.00  0.00    -0.045 A 
ATOM      5  C   UNL     1      13.916  12.729  13.251  1.00  0.00     0.044 C 
ATOM      6  C   UNL     1      15.347  13.003  13.606  1.00  0.00    -0.051 A 
ATOM      7  C   UNL     1      16.363  12.794  12.662  1.00  0.00     0.004 A 
ATOM      8  C   UNL     1      15.689  13.405  14.906  1.00  0.00     0.004 A 
ATOM      9  C   UNL     1      17.700  13.013  13.003  1.00  0.00     0.004 A 
ATOM     10  C   UNL     1      17.026  13.624  15.248  1.00  0.00     0.004 A 
ENDBRANCH   2   4
ENDBRANCH   1   2
BRANCH   1  11
ATOM     11  C   UNL     1      20.702  11.730  15.912  1.00  0.00     0.028 C 
BRANCH  11  12
ATOM     12  C   UNL     1      19.479  11.446  16.751  1.00  0.00    -0.028 C 
ATOM     13  C   UNL     1      19.200  12.044  17.930  1.00  0.00    -0.080 C 
ATOM     14  C   UNL     1      17.916  11.680  18.632  1.00  0.00     0.039 C 
ATOM     15  C   UNL     1      20.142  13.037  18.568  1.00  0.00     0.039 C 
ENDBRANCH  11  12
ENDBRANCH   1  11
TORSDOF 4
ENDMDL
MODEL 4
REMARK VINA RESULT:    -5.846     17.626     19.877
REMARK INTER + INTRA:          -8.014
REMARK INTER:                  -6.615
REMARK INTRA:                  -1.399
REMARK UNBOUND:                -0.801
REMARK SMILES CC(C)=CCC[C@@H](C)c1ccc(C)cc1
REMARK SMILES IDX 6 1 7 2 8 3 9 4 13 5 12 6 11 7 14 8 10 9 15 10 5 11 4 12
REMARK SMILES IDX 2 13 1 14 3 15
REMARK H PARENT
REMARK Flexibility Score: inf
ROOT
ATOM      1  C   UNL     1      30.305  14.040  26.493  1.00  0.00     0.012 C 
ENDROOT
BRANCH   1   2
ATOM      2  C   UNL     1      30.323  13.224  25.180  1.00  0.00     0.016 C 
ATOM      3  C   UNL     1      29.107  12.292  25.107  1.00  0.00     0.013 C 
BRANCH   2   4
ATOM      4  C   UNL     1      30.385  14.115  23.951  1.00  0.00    -0.045 A 
ATOM      5  C   UNL     1      30.638  16.684  20.488  1.00  0.00     0.044 C 
ATOM      6  C   UNL     1      30.535  15.771  21.673  1.00  0.00    -0.051 A 
ATOM      7  C   UNL     1      29.439  15.863  22.544  1.00  0.00     0.004 A 
ATOM      8  C   UNL     1      31.567  14.866  21.961  1.00  0.00     0.004 A 
ATOM      9  C   UNL     1      29.362  15.039  23.670  1.00  0.00     0.004 A 
ATOM     10  C   UNL     1      31.490  14.041  23.086  1.00  0.00     0.004 A 
ENDBRANCH   2   4
ENDBRANCH   1   2
BRANCH   1  11
ATOM     11  C   UNL     1      31.565  14.899  26.703  1.00  0.00     0.028 C 
BRANCH  11  12
ATOM     12  C   UNL     1      31.230  16.320  27.089  1.00  0.00    -0.028 C 
ATOM     13  C   UNL     1      31.426  17.398  26.297  1.00  0.00    -0.080 C 
ATOM     14  C   UNL     1      31.004  18.751  26.811  1.00  0.00     0.039 C 
ATOM     15  C   UNL     1      32.072  17.286  24.937  1.00  0.00     0.039 C 
ENDBRANCH  11  12
ENDBRANCH   1  11
TORSDOF 4
ENDMDL
MODEL 5
REMARK VINA RESULT:    -5.831      2.366      4.373
REMARK INTER + INTRA:          -7.995
REMARK INTER:                  -6.478
REMARK INTRA:                  -1.517
REMARK UNBOUND:                -0.801
REMARK SMILES CC(C)=CCC[C@@H](C)c1ccc(C)cc1
REMARK SMILES IDX 6 1 7 2 8 3 9 4 13 5 12 6 11 7 14 8 10 9 15 10 5 11 4 12
REMARK SMILES IDX 2 13 1 14 3 15
REMARK H PARENT
REMARK Flexibility Score: inf
ROOT
ATOM      1  C   UNL     1      16.927  23.933  14.960  1.00  0.00     0.012 C 
ENDROOT
BRANCH   1   2
ATOM      2  C   UNL     1      17.452  23.787  13.513  1.00  0.00     0.016 C 
ATOM      3  C   UNL     1      16.672  24.702  12.560  1.00  0.00     0.013 C 
BRANCH   2   4
ATOM      4  C   UNL     1      18.942  24.061  13.413  1.00  0.00    -0.045 A 
ATOM      5  C   UNL     1      23.178  24.822  13.045  1.00  0.00     0.044 C 
ATOM      6  C   UNL     1      21.707  24.577  13.197  1.00  0.00    -0.051 A 
ATOM      7  C   UNL     1      21.242  23.544  14.024  1.00  0.00     0.004 A 
ATOM      8  C   UNL     1      20.784  25.334  12.459  1.00  0.00     0.004 A 
ATOM      9  C   UNL     1      19.873  23.291  14.136  1.00  0.00     0.004 A 
ATOM     10  C   UNL     1      19.414  25.082  12.571  1.00  0.00     0.004 A 
ENDBRANCH   2   4
ENDBRANCH   1   2
BRANCH   1  11
ATOM     11  C   UNL     1      17.198  25.316  15.579  1.00  0.00     0.028 C 
BRANCH  11  12
ATOM     12  C   UNL     1      18.033  25.227  16.835  1.00  0.00    -0.028 C 
ATOM     13  C   UNL     1      19.237  25.817  17.000  1.00  0.00    -0.080 C 
ATOM     14  C   UNL     1      19.932  25.667  18.330  1.00  0.00     0.039 C 
ATOM     15  C   UNL     1      19.909  26.594  15.893  1.00  0.00     0.039 C 
ENDBRANCH  11  12
ENDBRANCH   1  11
TORSDOF 4
ENDMDL
MODEL 6
REMARK VINA RESULT:    -5.808     12.315     14.438
REMARK INTER + INTRA:          -7.967
REMARK INTER:                  -6.895
REMARK INTRA:                  -1.073
REMARK UNBOUND:                -0.801
REMARK SMILES CC(C)=CCC[C@@H](C)c1ccc(C)cc1
REMARK SMILES IDX 6 1 7 2 8 3 9 4 13 5 12 6 11 7 14 8 10 9 15 10 5 11 4 12
REMARK SMILES IDX 2 13 1 14 3 15
REMARK H PARENT
REMARK Flexibility Score: inf
ROOT
ATOM      1  C   UNL     1      18.449  11.780  18.981  1.00  0.00     0.012 C 
ENDROOT
BRANCH   1   2
ATOM      2  C   UNL     1      18.180  13.129  19.687  1.00  0.00     0.016 C 
ATOM      3  C   UNL     1      16.960  13.022  20.611  1.00  0.00     0.013 C 
BRANCH   2   4
ATOM      4  C   UNL     1      19.391  13.625  20.458  1.00  0.00    -0.045 A 
ATOM      5  C   UNL     1      22.827  15.111  22.612  1.00  0.00     0.044 C 
ATOM      6  C   UNL     1      21.629  14.576  21.888  1.00  0.00    -0.051 A 
ATOM      7  C   UNL     1      21.755  13.479  21.023  1.00  0.00     0.004 A 
ATOM      8  C   UNL     1      20.384  15.210  22.014  1.00  0.00     0.004 A 
ATOM      9  C   UNL     1      20.646  13.004  20.318  1.00  0.00     0.004 A 
ATOM     10  C   UNL     1      19.274  14.736  21.311  1.00  0.00     0.004 A 
ENDBRANCH   2   4
ENDBRANCH   1   2
BRANCH   1  11
ATOM     11  C   UNL     1      18.384  11.862  17.445  1.00  0.00     0.028 C 
BRANCH  11  12
ATOM     12  C   UNL     1      19.706  11.523  16.798  1.00  0.00    -0.028 C 
ATOM     13  C   UNL     1      20.660  12.426  16.480  1.00  0.00    -0.080 C 
ATOM     14  C   UNL     1      21.946  11.927  15.871  1.00  0.00     0.039 C 
ATOM     15  C   UNL     1      20.464  13.908  16.693  1.00  0.00     0.039 C 
ENDBRANCH  11  12
ENDBRANCH   1  11
TORSDOF 4
ENDMDL
MODEL 7
REMARK VINA RESULT:    -5.802     16.425     19.076
REMARK INTER + INTRA:          -7.960
REMARK INTER:                  -6.888
REMARK INTRA:                  -1.072
REMARK UNBOUND:                -0.801
REMARK SMILES CC(C)=CCC[C@@H](C)c1ccc(C)cc1
REMARK SMILES IDX 6 1 7 2 8 3 9 4 13 5 12 6 11 7 14 8 10 9 15 10 5 11 4 12
REMARK SMILES IDX 2 13 1 14 3 15
REMARK H PARENT
REMARK Flexibility Score: inf
ROOT
ATOM      1  C   UNL     1      33.112  22.176  26.102  1.00  0.00     0.012 C 
ENDROOT
BRANCH   1   2
ATOM      2  C   UNL     1      32.369  23.421  26.640  1.00  0.00     0.016 C 
ATOM      3  C   UNL     1      32.733  24.666  25.820  1.00  0.00     0.013 C 
BRANCH   2   4
ATOM      4  C   UNL     1      30.863  23.223  26.667  1.00  0.00    -0.045 A 
ATOM      5  C   UNL     1      26.571  22.745  26.737  1.00  0.00     0.044 C 
ATOM      6  C   UNL     1      28.063  22.883  26.700  1.00  0.00    -0.051 A 
ATOM      7  C   UNL     1      28.842  22.452  27.785  1.00  0.00     0.004 A 
ATOM      8  C   UNL     1      28.689  23.507  25.610  1.00  0.00     0.004 A 
ATOM      9  C   UNL     1      30.229  22.616  27.767  1.00  0.00     0.004 A 
ATOM     10  C   UNL     1      30.077  23.670  25.592  1.00  0.00     0.004 A 
ENDBRANCH   2   4
ENDBRANCH   1   2
BRANCH   1  11
ATOM     11  C   UNL     1      32.196  21.179  25.369  1.00  0.00     0.028 C 
BRANCH  11  12
ATOM     12  C   UNL     1      32.167  19.829  26.044  1.00  0.00    -0.028 C 
ATOM     13  C   UNL     1      31.061  19.064  26.185  1.00  0.00    -0.080 C 
ATOM     14  C   UNL     1      31.200  17.718  26.850  1.00  0.00     0.039 C 
ATOM     15  C   UNL     1      29.701  19.528  25.721  1.00  0.00     0.039 C 
ENDBRANCH  11  12
ENDBRANCH   1  11
TORSDOF 4
ENDMDL
MODEL 8
REMARK VINA RESULT:    -5.799     15.673     17.802
REMARK INTER + INTRA:          -7.957
REMARK INTER:                  -6.570
REMARK INTRA:                  -1.387
REMARK UNBOUND:                -0.801
REMARK SMILES CC(C)=CCC[C@@H](C)c1ccc(C)cc1
REMARK SMILES IDX 6 1 7 2 8 3 9 4 13 5 12 6 11 7 14 8 10 9 15 10 5 11 4 12
REMARK SMILES IDX 2 13 1 14 3 15
REMARK H PARENT
REMARK Flexibility Score: inf
ROOT
ATOM      1  C   UNL     1      31.655  23.631  24.876  1.00  0.00     0.012 C 
ENDROOT
BRANCH   1   2
ATOM      2  C   UNL     1      30.372  24.469  25.084  1.00  0.00     0.016 C 
ATOM      3  C   UNL     1      30.129  25.393  23.884  1.00  0.00     0.013 C 
BRANCH   2   4
ATOM      4  C   UNL     1      29.154  23.598  25.341  1.00  0.00    -0.045 A 
ATOM      5  C   UNL     1      25.732  21.087  26.140  1.00  0.00     0.044 C 
ATOM      6  C   UNL     1      26.901  21.980  25.850  1.00  0.00    -0.051 A 
ATOM      7  C   UNL     1      27.587  21.875  24.631  1.00  0.00     0.004 A 
ATOM      8  C   UNL     1      27.363  22.879  26.823  1.00  0.00     0.004 A 
ATOM      9  C   UNL     1      28.700  22.680  24.376  1.00  0.00     0.004 A 
ATOM     10  C   UNL     1      28.476  23.685  26.568  1.00  0.00     0.004 A 
ENDBRANCH   2   4
ENDBRANCH   1   2
BRANCH   1  11
ATOM     11  C   UNL     1      32.054  22.795  26.105  1.00  0.00     0.028 C 
BRANCH  11  12
ATOM     12  C   UNL     1      32.380  21.366  25.742  1.00  0.00    -0.028 C 
ATOM     13  C   UNL     1      31.608  20.300  26.047  1.00  0.00    -0.080 C 
ATOM     14  C   UNL     1      32.052  18.936  25.581  1.00  0.00     0.039 C 
ATOM     15  C   UNL     1      30.338  20.434  26.854  1.00  0.00     0.039 C 
ENDBRANCH  11  12
ENDBRANCH   1  11
TORSDOF 4
ENDMDL
MODEL 9
REMARK VINA RESULT:    -5.798     11.147     13.103
REMARK INTER + INTRA:          -7.955
REMARK INTER:                  -6.434
REMARK INTRA:                  -1.521
REMARK UNBOUND:                -0.801
REMARK SMILES CC(C)=CCC[C@@H](C)c1ccc(C)cc1
REMARK SMILES IDX 6 1 7 2 8 3 9 4 13 5 12 6 11 7 14 8 10 9 15 10 5 11 4 12
REMARK SMILES IDX 2 13 1 14 3 15
REMARK H PARENT
REMARK Flexibility Score: inf
ROOT
ATOM      1  C   UNL     1      18.107  13.927  13.726  1.00  0.00     0.012 C 
ENDROOT
BRANCH   1   2
ATOM      2  C   UNL     1      16.751  14.028  14.463  1.00  0.00     0.016 C 
ATOM      3  C   UNL     1      15.708  13.116  13.803  1.00  0.00     0.013 C 
BRANCH   2   4
ATOM      4  C   UNL     1      16.877  13.710  15.942  1.00  0.00    -0.045 A 
ATOM      5  C   UNL     1      17.320  12.790  20.139  1.00  0.00     0.044 C 
ATOM      6  C   UNL     1      17.143  13.128  18.689  1.00  0.00    -0.051 A 
ATOM      7  C   UNL     1      16.288  12.362  17.883  1.00  0.00     0.004 A 
ATOM      8  C   UNL     1      17.883  14.170  18.110  1.00  0.00     0.004 A 
ATOM      9  C   UNL     1      16.151  12.653  16.524  1.00  0.00     0.004 A 
ATOM     10  C   UNL     1      17.747  14.461  16.750  1.00  0.00     0.004 A 
ENDBRANCH   2   4
ENDBRANCH   1   2
BRANCH   1  11
ATOM     11  C   UNL     1      18.765  12.539  13.830  1.00  0.00     0.028 C 
BRANCH  11  12
ATOM     12  C   UNL     1      20.144  12.605  14.440  1.00  0.00    -0.028 C 
ATOM     13  C   UNL     1      20.512  11.976  15.578  1.00  0.00    -0.080 C 
ATOM     14  C   UNL     1      21.941  12.108  16.040  1.00  0.00     0.039 C 
ATOM     15  C   UNL     1      19.535  11.172  16.402  1.00  0.00     0.039 C 
ENDBRANCH  11  12
ENDBRANCH   1  11
TORSDOF 4
ENDMDL
