MODEL 1
REMARK VINA RESULT:     8.375      0.000      0.000
REMARK INTER + INTRA:           9.709
REMARK INTER:                   9.843
REMARK INTRA:                  -0.135
REMARK UNBOUND:                -0.135
REMARK SMILES O=c1c(O)c(-c2ccc(O)cc2)oc2cc(O)cc(O)c12
REMARK SMILES IDX 5 1 3 2 2 3 1 4 21 5 19 6 18 7 16 8 15 9 14 10 13 11 6 12
REMARK SMILES IDX 7 13 8 14 9 15 12 16 11 17 10 18 4 20 20 22 17 24
REMARK H PARENT 10 19 4 21 20 23 17 25
REMARK Flexibility Score: inf
ROOT
ATOM      1  C   UNL     1     -26.950 138.575  54.839  1.00  0.00     0.180 A 
ATOM      2  C   UNL     1     -27.830 139.545  55.352  1.00  0.00     0.208 A 
ATOM      3  C   UNL     1     -27.373 140.415  56.355  1.00  0.00     0.238 A 
ATOM      4  O   UNL     1     -28.147 141.315  56.772  1.00  0.00    -0.285 OA
ATOM      5  C   UNL     1     -26.050 140.295  56.843  1.00  0.00     0.111 A 
ATOM      6  C   UNL     1     -25.495 141.097  57.886  1.00  0.00     0.134 A 
ATOM      7  C   UNL     1     -24.135 140.978  58.199  1.00  0.00     0.093 A 
ATOM      8  C   UNL     1     -23.327 140.044  57.553  1.00  0.00     0.123 A 
ATOM      9  C   UNL     1     -23.873 139.213  56.574  1.00  0.00     0.094 A 
ATOM     10  C   UNL     1     -25.217 139.333  56.215  1.00  0.00     0.146 A 
ATOM     11  O   UNL     1     -25.696 138.531  55.271  1.00  0.00    -0.452 OA
ENDROOT
BRANCH   1  12
ATOM     12  C   UNL     1     -27.366 137.607  53.799  1.00  0.00     0.021 A 
ATOM     13  C   UNL     1     -28.365 136.664  54.092  1.00  0.00     0.016 A 
ATOM     14  C   UNL     1     -28.789 135.755  53.118  1.00  0.00     0.047 A 
ATOM     15  C   UNL     1     -28.232 135.786  51.835  1.00  0.00     0.115 A 
ATOM     16  C   UNL     1     -26.824 137.648  52.501  1.00  0.00     0.016 A 
ATOM     17  C   UNL     1     -27.251 136.738  51.528  1.00  0.00     0.047 A 
BRANCH  15  18
ATOM     18  O   UNL     1     -28.664 134.875  50.875  1.00  0.00    -0.508 OA
ATOM     19  H   UNL     1     -29.544 134.997  50.387  1.00  0.00     0.293 HD
ENDBRANCH  15  18
ENDBRANCH   1  12
BRANCH   2  20
ATOM     20  O   UNL     1     -29.125 139.661  54.840  1.00  0.00    -0.502 OA
ATOM     21  H   UNL     1     -29.902 139.994  55.397  1.00  0.00     0.293 HD
ENDBRANCH   2  20
BRANCH   6  22
ATOM     22  O   UNL     1     -26.236 141.997  58.657  1.00  0.00    -0.507 OA
ATOM     23  H   UNL     1     -26.775 142.765  58.284  1.00  0.00     0.293 HD
ENDBRANCH   6  22
BRANCH   8  24
ATOM     24  O   UNL     1     -21.981 139.943  57.901  1.00  0.00    -0.508 OA
ATOM     25  H   UNL     1     -21.261 139.816  57.199  1.00  0.00     0.293 HD
ENDBRANCH   8  24
TORSDOF 5
ENDMDL
MODEL 2
REMARK VINA RESULT:     9.710      3.296      4.835
REMARK INTER + INTRA:          11.278
REMARK INTER:                  11.277
REMARK INTRA:                   0.001
REMARK UNBOUND:                -0.135
REMARK SMILES O=c1c(O)c(-c2ccc(O)cc2)oc2cc(O)cc(O)c12
REMARK SMILES IDX 5 1 3 2 2 3 1 4 21 5 19 6 18 7 16 8 15 9 14 10 13 11 6 12
REMARK SMILES IDX 7 13 8 14 9 15 12 16 11 17 10 18 4 20 20 22 17 24
REMARK H PARENT 10 19 4 21 20 23 17 25
REMARK Flexibility Score: inf
ROOT
ATOM      1  C   UNL     1     -27.322 141.283  54.279  1.00  0.00     0.180 A 
ATOM      2  C   UNL     1     -27.957 140.030  54.365  1.00  0.00     0.208 A 
ATOM      3  C   UNL     1     -27.423 139.054  55.220  1.00  0.00     0.238 A 
ATOM      4  O   UNL     1     -28.026 137.955  55.333  1.00  0.00    -0.285 OA
ATOM      5  C   UNL     1     -26.253 139.335  55.966  1.00  0.00     0.111 A 
ATOM      6  C   UNL     1     -25.602 138.405  56.832  1.00  0.00     0.134 A 
ATOM      7  C   UNL     1     -24.526 138.832  57.620  1.00  0.00     0.093 A 
ATOM      8  C   UNL     1     -24.037 140.134  57.526  1.00  0.00     0.123 A 
ATOM      9  C   UNL     1     -24.628 141.034  56.638  1.00  0.00     0.094 A 
ATOM     10  C   UNL     1     -25.726 140.648  55.866  1.00  0.00     0.146 A 
ATOM     11  O   UNL     1     -26.265 141.537  55.041  1.00  0.00    -0.452 OA
ENDROOT
BRANCH   1  12
ATOM     12  C   UNL     1     -27.812 142.354  53.381  1.00  0.00     0.021 A 
ATOM     13  C   UNL     1     -27.963 143.658  53.880  1.00  0.00     0.016 A 
ATOM     14  C   UNL     1     -28.402 144.690  53.045  1.00  0.00     0.047 A 
ATOM     15  C   UNL     1     -28.680 144.435  51.698  1.00  0.00     0.115 A 
ATOM     16  C   UNL     1     -28.072 142.108  52.021  1.00  0.00     0.016 A 
ATOM     17  C   UNL     1     -28.511 143.142  51.187  1.00  0.00     0.047 A 
BRANCH  15  18
ATOM     18  O   UNL     1     -29.116 145.472  50.877  1.00  0.00    -0.508 OA
ATOM     19  H   UNL     1     -29.568 146.296  51.259  1.00  0.00     0.293 HD
ENDBRANCH  15  18
ENDBRANCH   1  12
BRANCH   2  20
ATOM     20  O   UNL     1     -29.124 139.783  53.636  1.00  0.00    -0.502 OA
ATOM     21  H   UNL     1     -30.008 139.573  54.081  1.00  0.00     0.293 HD
ENDBRANCH   2  20
BRANCH   6  22
ATOM     22  O   UNL     1     -25.953 137.055  56.935  1.00  0.00    -0.507 OA
ATOM     23  H   UNL     1     -25.339 136.284  56.717  1.00  0.00     0.293 HD
ENDBRANCH   6  22
BRANCH   8  24
ATOM     24  O   UNL     1     -22.955 140.520  58.314  1.00  0.00    -0.508 OA
ATOM     25  H   UNL     1     -22.249 141.160  57.968  1.00  0.00     0.293 HD
ENDBRANCH   8  24
TORSDOF 5
ENDMDL
MODEL 3
REMARK VINA RESULT:    10.251      2.705      6.852
REMARK INTER + INTRA:          11.914
REMARK INTER:                  11.751
REMARK INTRA:                   0.163
REMARK UNBOUND:                -0.135
REMARK SMILES O=c1c(O)c(-c2ccc(O)cc2)oc2cc(O)cc(O)c12
REMARK SMILES IDX 5 1 3 2 2 3 1 4 21 5 19 6 18 7 16 8 15 9 14 10 13 11 6 12
REMARK SMILES IDX 7 13 8 14 9 15 12 16 11 17 10 18 4 20 20 22 17 24
REMARK H PARENT 10 19 4 21 20 23 17 25
REMARK Flexibility Score: inf
ROOT
ATOM      1  C   UNL     1     -24.608 140.171  56.472  1.00  0.00     0.180 A 
ATOM      2  C   UNL     1     -25.109 138.860  56.563  1.00  0.00     0.208 A 
ATOM      3  C   UNL     1     -26.348 138.563  55.974  1.00  0.00     0.238 A 
ATOM      4  O   UNL     1     -26.766 137.377  56.012  1.00  0.00    -0.285 OA
ATOM      5  C   UNL     1     -27.078 139.582  55.315  1.00  0.00     0.111 A 
ATOM      6  C   UNL     1     -28.362 139.402  54.718  1.00  0.00     0.134 A 
ATOM      7  C   UNL     1     -28.933 140.446  53.980  1.00  0.00     0.093 A 
ATOM      8  C   UNL     1     -28.298 141.683  53.873  1.00  0.00     0.123 A 
ATOM      9  C   UNL     1     -27.070 141.889  54.502  1.00  0.00     0.094 A 
ATOM     10  C   UNL     1     -26.459 140.855  55.215  1.00  0.00     0.146 A 
ATOM     11  O   UNL     1     -25.286 141.088  55.791  1.00  0.00    -0.452 OA
ENDROOT
BRANCH   1  12
ATOM     12  C   UNL     1     -23.322 140.567  57.089  1.00  0.00     0.021 A 
ATOM     13  C   UNL     1     -22.997 140.098  58.372  1.00  0.00     0.016 A 
ATOM     14  C   UNL     1     -21.778 140.441  58.965  1.00  0.00     0.047 A 
ATOM     15  C   UNL     1     -20.862 141.243  58.277  1.00  0.00     0.115 A 
ATOM     16  C   UNL     1     -22.388 141.357  56.393  1.00  0.00     0.016 A 
ATOM     17  C   UNL     1     -21.169 141.698  56.988  1.00  0.00     0.047 A 
BRANCH  15  18
ATOM     18  O   UNL     1     -19.652 141.577  58.880  1.00  0.00    -0.508 OA
ATOM     19  H   UNL     1     -18.928 142.075  58.374  1.00  0.00     0.293 HD
ENDBRANCH  15  18
ENDBRANCH   1  12
BRANCH   2  20
ATOM     20  O   UNL     1     -24.362 137.865  57.198  1.00  0.00    -0.502 OA
ATOM     21  H   UNL     1     -24.416 137.699  58.196  1.00  0.00     0.293 HD
ENDBRANCH   2  20
BRANCH   6  22
ATOM     22  O   UNL     1     -29.125 138.237  54.841  1.00  0.00    -0.507 OA
ATOM     23  H   UNL     1     -29.674 137.829  54.100  1.00  0.00     0.293 HD
ENDBRANCH   6  22
BRANCH   8  24
ATOM     24  O   UNL     1     -28.903 142.705  53.143  1.00  0.00    -0.508 OA
ATOM     25  H   UNL     1     -28.379 143.515  52.832  1.00  0.00     0.293 HD
ENDBRANCH   8  24
TORSDOF 5
ENDMDL
