MODEL 1
REMARK VINA RESULT:    -3.897      0.000      0.000
REMARK INTER + INTRA:          -3.897
REMARK INTER:                  -3.897
REMARK INTRA:                   0.000
REMARK UNBOUND:                 0.000
REMARK SMILES CC1(C)O[C@]2(C)CC[C@H]1CC2
REMARK SMILES IDX 1 1 2 2 9 3 10 4 11 5 5 6 4 7 7 8 8 9 6 10 3 11
REMARK H PARENT
REMARK Flexibility Score: inf
ROOT
ATOM      1  C   UNL     1     -27.259 -57.081  55.378  1.00  0.00     0.042 C 
ATOM      2  C   UNL     1     -26.894 -55.833  54.545  1.00  0.00     0.066 C 
ATOM      3  C   UNL     1     -28.176 -55.231  53.852  1.00  0.00     0.021 C 
ATOM      4  C   UNL     1     -29.155 -54.762  54.955  1.00  0.00     0.009 C 
ATOM      5  C   UNL     1     -28.401 -53.844  55.946  1.00  0.00     0.035 C 
ATOM      6  C   UNL     1     -26.940 -53.625  55.455  1.00  0.00     0.066 C 
ATOM      7  O   UNL     1     -26.265 -54.883  55.418  1.00  0.00    -0.369 OA
ATOM      8  C   UNL     1     -26.974 -53.020  54.023  1.00  0.00     0.035 C 
ATOM      9  C   UNL     1     -27.762 -53.957  53.076  1.00  0.00     0.009 C 
ATOM     10  C   UNL     1     -26.191 -52.690  56.411  1.00  0.00     0.042 C 
ATOM     11  C   UNL     1     -25.858 -56.273  53.488  1.00  0.00     0.042 C 
ENDROOT
TORSDOF 0
ENDMDL
MODEL 2
REMARK VINA RESULT:    -3.889      1.018      2.484
REMARK INTER + INTRA:          -3.889
REMARK INTER:                  -3.889
REMARK INTRA:                   0.000
REMARK UNBOUND:                 0.000
REMARK SMILES CC1(C)O[C@]2(C)CC[C@H]1CC2
REMARK SMILES IDX 1 1 2 2 9 3 10 4 11 5 5 6 4 7 7 8 8 9 6 10 3 11
REMARK H PARENT
REMARK Flexibility Score: inf
ROOT
ATOM      1  C   UNL     1     -26.423 -54.713  52.169  1.00  0.00     0.042 C 
ATOM      2  C   UNL     1     -27.480 -54.235  53.188  1.00  0.00     0.066 C 
ATOM      3  C   UNL     1     -28.194 -55.465  53.870  1.00  0.00     0.021 C 
ATOM      4  C   UNL     1     -27.136 -56.266  54.666  1.00  0.00     0.009 C 
ATOM      5  C   UNL     1     -26.364 -55.301  55.598  1.00  0.00     0.035 C 
ATOM      6  C   UNL     1     -26.968 -53.870  55.492  1.00  0.00     0.066 C 
ATOM      7  O   UNL     1     -26.823 -53.399  54.152  1.00  0.00    -0.369 OA
ATOM      8  C   UNL     1     -28.480 -53.932  55.852  1.00  0.00     0.035 C 
ATOM      9  C   UNL     1     -29.202 -54.929  54.915  1.00  0.00     0.009 C 
ATOM     10  C   UNL     1     -26.234 -52.912  56.436  1.00  0.00     0.042 C 
ATOM     11  C   UNL     1     -28.501 -53.368  52.419  1.00  0.00     0.042 C 
ENDROOT
TORSDOF 0
ENDMDL
MODEL 3
REMARK VINA RESULT:    -3.792      2.091      3.501
REMARK INTER + INTRA:          -3.792
REMARK INTER:                  -3.792
REMARK INTRA:                   0.000
REMARK UNBOUND:                 0.000
REMARK SMILES CC1(C)O[C@]2(C)CC[C@H]1CC2
REMARK SMILES IDX 1 1 2 2 9 3 10 4 11 5 5 6 4 7 7 8 8 9 6 10 3 11
REMARK H PARENT
REMARK Flexibility Score: inf
ROOT
ATOM      1  C   UNL     1     -30.230 -52.897  52.000  1.00  0.00     0.042 C 
ATOM      2  C   UNL     1     -29.054 -53.865  52.256  1.00  0.00     0.066 C 
ATOM      3  C   UNL     1     -27.851 -53.548  51.287  1.00  0.00     0.021 C 
ATOM      4  C   UNL     1     -27.332 -52.124  51.599  1.00  0.00     0.009 C 
ATOM      5  C   UNL     1     -27.058 -52.003  53.117  1.00  0.00     0.035 C 
ATOM      6  C   UNL     1     -27.305 -53.376  53.808  1.00  0.00     0.066 C 
ATOM      7  O   UNL     1     -28.673 -53.748  53.635  1.00  0.00    -0.369 OA
ATOM      8  C   UNL     1     -26.396 -54.448  53.141  1.00  0.00     0.035 C 
ATOM      9  C   UNL     1     -26.686 -54.511  51.622  1.00  0.00     0.009 C 
ATOM     10  C   UNL     1     -27.005 -53.280  55.307  1.00  0.00     0.042 C 
ATOM     11  C   UNL     1     -29.580 -55.298  52.023  1.00  0.00     0.042 C 
ENDROOT
TORSDOF 0
ENDMDL
MODEL 4
REMARK VINA RESULT:    -3.788      1.129      3.039
REMARK INTER + INTRA:          -3.788
REMARK INTER:                  -3.788
REMARK INTRA:                   0.000
REMARK UNBOUND:                 0.000
REMARK SMILES CC1(C)O[C@]2(C)CC[C@H]1CC2
REMARK SMILES IDX 1 1 2 2 9 3 10 4 11 5 5 6 4 7 7 8 8 9 6 10 3 11
REMARK H PARENT
REMARK Flexibility Score: inf
ROOT
ATOM      1  C   UNL     1     -28.689 -53.754  53.015  1.00  0.00     0.042 C 
ATOM      2  C   UNL     1     -27.541 -53.750  54.048  1.00  0.00     0.066 C 
ATOM      3  C   UNL     1     -28.113 -53.705  55.517  1.00  0.00     0.021 C 
ATOM      4  C   UNL     1     -28.932 -54.995  55.764  1.00  0.00     0.009 C 
ATOM      5  C   UNL     1     -28.070 -56.224  55.386  1.00  0.00     0.035 C 
ATOM      6  C   UNL     1     -26.642 -55.760  54.973  1.00  0.00     0.066 C 
ATOM      7  O   UNL     1     -26.738 -54.918  53.824  1.00  0.00    -0.369 OA
ATOM      8  C   UNL     1     -26.014 -54.955  56.147  1.00  0.00     0.035 C 
ATOM      9  C   UNL     1     -26.924 -53.756  56.507  1.00  0.00     0.009 C 
ATOM     10  C   UNL     1     -25.768 -56.971  54.629  1.00  0.00     0.042 C 
ATOM     11  C   UNL     1     -26.671 -52.507  53.763  1.00  0.00     0.042 C 
ENDROOT
TORSDOF 0
ENDMDL
MODEL 5
REMARK VINA RESULT:    -3.787     12.473     14.563
REMARK INTER + INTRA:          -3.787
REMARK INTER:                  -3.787
REMARK INTRA:                   0.000
REMARK UNBOUND:                 0.000
REMARK SMILES CC1(C)O[C@]2(C)CC[C@H]1CC2
REMARK SMILES IDX 1 1 2 2 9 3 10 4 11 5 5 6 4 7 7 8 8 9 6 10 3 11
REMARK H PARENT
REMARK Flexibility Score: inf
ROOT
ATOM      1  C   UNL     1     -23.633 -68.756  58.996  1.00  0.00     0.042 C 
ATOM      2  C   UNL     1     -22.214 -68.493  58.446  1.00  0.00     0.066 C 
ATOM      3  C   UNL     1     -22.048 -69.119  57.009  1.00  0.00     0.021 C 
ATOM      4  C   UNL     1     -23.037 -68.414  56.049  1.00  0.00     0.009 C 
ATOM      5  C   UNL     1     -22.856 -66.881  56.169  1.00  0.00     0.035 C 
ATOM      6  C   UNL     1     -21.683 -66.564  57.141  1.00  0.00     0.066 C 
ATOM      7  O   UNL     1     -21.997 -67.073  58.438  1.00  0.00    -0.369 OA
ATOM      8  C   UNL     1     -20.392 -67.257  56.618  1.00  0.00     0.035 C 
ATOM      9  C   UNL     1     -20.631 -68.780  56.487  1.00  0.00     0.009 C 
ATOM     10  C   UNL     1     -21.471 -65.049  57.243  1.00  0.00     0.042 C 
ATOM     11  C   UNL     1     -21.212 -69.125  59.437  1.00  0.00     0.042 C 
ENDROOT
TORSDOF 0
ENDMDL
MODEL 6
REMARK VINA RESULT:    -3.772     11.971     14.292
REMARK INTER + INTRA:          -3.772
REMARK INTER:                  -3.772
REMARK INTRA:                   0.000
REMARK UNBOUND:                 0.000
REMARK SMILES CC1(C)O[C@]2(C)CC[C@H]1CC2
REMARK SMILES IDX 1 1 2 2 9 3 10 4 11 5 5 6 4 7 7 8 8 9 6 10 3 11
REMARK H PARENT
REMARK Flexibility Score: inf
ROOT
ATOM      1  C   UNL     1     -21.896 -65.752  56.280  1.00  0.00     0.042 C 
ATOM      2  C   UNL     1     -22.870 -66.385  57.297  1.00  0.00     0.066 C 
ATOM      3  C   UNL     1     -23.833 -67.410  56.585  1.00  0.00     0.021 C 
ATOM      4  C   UNL     1     -22.980 -68.564  56.005  1.00  0.00     0.009 C 
ATOM      5  C   UNL     1     -22.062 -69.125  57.118  1.00  0.00     0.035 C 
ATOM      6  C   UNL     1     -22.368 -68.407  58.465  1.00  0.00     0.066 C 
ATOM      7  O   UNL     1     -22.091 -67.013  58.327  1.00  0.00    -0.369 OA
ATOM      8  C   UNL     1     -23.873 -68.598  58.809  1.00  0.00     0.035 C 
ATOM      9  C   UNL     1     -24.748 -68.050  57.657  1.00  0.00     0.009 C 
ATOM     10  C   UNL     1     -21.489 -68.978  59.583  1.00  0.00     0.042 C 
ATOM     11  C   UNL     1     -23.675 -65.234  57.940  1.00  0.00     0.042 C 
ENDROOT
TORSDOF 0
ENDMDL
MODEL 7
REMARK VINA RESULT:    -3.694     13.278     15.073
REMARK INTER + INTRA:          -3.694
REMARK INTER:                  -3.694
REMARK INTRA:                   0.000
REMARK UNBOUND:                 0.000
REMARK SMILES CC1(C)O[C@]2(C)CC[C@H]1CC2
REMARK SMILES IDX 1 1 2 2 9 3 10 4 11 5 5 6 4 7 7 8 8 9 6 10 3 11
REMARK H PARENT
REMARK Flexibility Score: inf
ROOT
ATOM      1  C   UNL     1     -19.896 -66.992  58.986  1.00  0.00     0.042 C 
ATOM      2  C   UNL     1     -20.979 -68.015  58.580  1.00  0.00     0.066 C 
ATOM      3  C   UNL     1     -22.389 -67.319  58.464  1.00  0.00     0.021 C 
ATOM      4  C   UNL     1     -22.323 -66.265  57.333  1.00  0.00     0.009 C 
ATOM      5  C   UNL     1     -21.764 -66.929  56.051  1.00  0.00     0.035 C 
ATOM      6  C   UNL     1     -21.542 -68.449  56.300  1.00  0.00     0.066 C 
ATOM      7  O   UNL     1     -20.578 -68.618  57.340  1.00  0.00    -0.369 OA
ATOM      8  C   UNL     1     -22.888 -69.091  56.740  1.00  0.00     0.035 C 
ATOM      9  C   UNL     1     -23.421 -68.376  58.005  1.00  0.00     0.009 C 
ATOM     10  C   UNL     1     -21.019 -69.125  55.027  1.00  0.00     0.042 C 
ATOM     11  C   UNL     1     -21.000 -69.116  59.663  1.00  0.00     0.042 C 
ENDROOT
TORSDOF 0
ENDMDL
