MODEL 1
REMARK VINA RESULT:    -3.213      0.000      0.000
REMARK INTER + INTRA:          -3.223
REMARK INTER:                  -3.964
REMARK INTRA:                   0.741
REMARK UNBOUND:                 0.741
REMARK SMILES CC1=CC=CC(C)(C)CC1=O
REMARK SMILES IDX 1 1 2 2 3 3 10 4 11 5 9 6 4 8 5 9 6 10 7 11 8 12
REMARK H PARENT
REMARK Flexibility Score: 80.00
ROOT
ATOM      1  C   UNL     1      15.023  30.524  29.572  1.00  0.00     0.048 C 
ATOM      2  C   UNL     1      16.440  31.024  29.416  1.00  0.00    -0.008 C 
ATOM      3  C   UNL     1      17.405  30.108  29.185  1.00  0.00     0.007 C 
ENDROOT
BRANCH   2   4
ATOM      4  C   UNL     1      16.668  32.478  29.606  1.00  0.00     0.159 C 
ATOM      5  O   UNL     1      15.736  33.183  30.083  1.00  0.00    -0.295 OA
BRANCH   4   6
ATOM      6  C   UNL     1      17.948  33.168  29.247  1.00  0.00     0.091 CG0
ATOM      7  G   UNL     1      19.171  32.618  30.012  1.00  0.00     0.000 G0
ENDBRANCH   4   6
ENDBRANCH   2   4
BRANCH   3   8
ATOM      8  C   UNL     1      18.866  30.288  29.017  1.00  0.00    -0.003 C 
ATOM      9  C   UNL     1      19.635  31.326  29.368  1.00  0.00    -0.020 C 
BRANCH   9  10
ATOM     10  C   UNL     1      19.168  32.611  30.013  1.00  0.00    -0.010 CG0
ATOM     11  C   UNL     1      18.895  32.378  31.516  1.00  0.00     0.016 C 
ATOM     12  C   UNL     1      20.302  33.654  29.890  1.00  0.00     0.016 C 
ATOM     13  G   UNL     1      17.933  33.153  29.260  1.00  0.00     0.000 G0
ENDBRANCH   9  10
ENDBRANCH   3   8
TORSDOF 0
ENDMDL
MODEL 2
REMARK VINA RESULT:    -3.166      1.985      3.908
REMARK INTER + INTRA:          -3.166
REMARK INTER:                  -3.924
REMARK INTRA:                   0.759
REMARK UNBOUND:                 0.741
REMARK SMILES CC1=CC=CC(C)(C)CC1=O
REMARK SMILES IDX 1 1 2 2 3 3 10 4 11 5 9 6 4 8 5 9 6 10 7 11 8 12
REMARK H PARENT
REMARK Flexibility Score: 80.00
ROOT
ATOM      1  C   UNL     1      20.086  33.591  29.552  1.00  0.00     0.048 C 
ATOM      2  C   UNL     1      18.824  32.772  29.422  1.00  0.00    -0.008 C 
ATOM      3  C   UNL     1      17.665  33.435  29.227  1.00  0.00     0.007 C 
ENDROOT
BRANCH   2   4
ATOM      4  C   UNL     1      18.951  31.303  29.596  1.00  0.00     0.159 C 
ATOM      5  O   UNL     1      20.038  30.833  30.032  1.00  0.00    -0.295 OA
BRANCH   4   6
ATOM      6  C   UNL     1      17.857  30.334  29.267  1.00  0.00     0.091 CG0
ATOM      7  G   UNL     1      16.562  30.584  30.070  1.00  0.00     0.000 G0
ENDBRANCH   4   6
ENDBRANCH   2   4
BRANCH   3   8
ATOM      8  C   UNL     1      16.283  32.917  29.090  1.00  0.00    -0.003 C 
ATOM      9  C   UNL     1      15.790  31.724  29.445  1.00  0.00    -0.020 C 
BRANCH   9  10
ATOM     10  C   UNL     1      16.563  30.582  30.063  1.00  0.00    -0.010 CG0
ATOM     11  C   UNL     1      16.826  30.870  31.559  1.00  0.00     0.016 C 
ATOM     12  C   UNL     1      15.697  29.305  29.969  1.00  0.00     0.016 C 
ATOM     13  G   UNL     1      17.863  30.341  29.265  1.00  0.00     0.000 G0
ENDBRANCH   9  10
ENDBRANCH   3   8
TORSDOF 0
ENDMDL
MODEL 3
REMARK VINA RESULT:    -2.990      2.429      3.865
REMARK INTER + INTRA:          -2.949
REMARK INTER:                  -3.708
REMARK INTRA:                   0.759
REMARK UNBOUND:                 0.741
REMARK SMILES CC1=CC=CC(C)(C)CC1=O
REMARK SMILES IDX 1 1 2 2 3 3 10 4 11 5 9 6 4 8 5 9 6 10 7 11 8 12
REMARK H PARENT
REMARK Flexibility Score: 80.00
ROOT
ATOM      1  C   UNL     1      19.686  30.337  29.018  1.00  0.00     0.048 C 
ATOM      2  C   UNL     1      18.315  30.820  29.430  1.00  0.00    -0.008 C 
ATOM      3  C   UNL     1      17.891  31.999  28.928  1.00  0.00     0.007 C 
ENDROOT
BRANCH   2   4
ATOM      4  C   UNL     1      17.575  29.993  30.416  1.00  0.00     0.159 C 
ATOM      5  O   UNL     1      18.187  29.065  31.013  1.00  0.00    -0.295 OA
BRANCH   4   6
ATOM      6  C   UNL     1      16.125  30.188  30.735  1.00  0.00     0.091 CG0
ATOM      7  G   UNL     1      15.810  31.591  31.300  1.00  0.00     0.000 G0
ENDBRANCH   4   6
ENDBRANCH   2   4
BRANCH   3   8
ATOM      8  C   UNL     1      16.626  32.733  29.164  1.00  0.00    -0.003 C 
ATOM      9  C   UNL     1      15.739  32.591  30.158  1.00  0.00    -0.020 C 
BRANCH   9  10
ATOM     10  C   UNL     1      15.815  31.593  31.291  1.00  0.00    -0.010 CG0
ATOM     11  C   UNL     1      16.847  32.064  32.340  1.00  0.00     0.016 C 
ATOM     12  C   UNL     1      14.431  31.535  31.976  1.00  0.00     0.016 C 
ATOM     13  G   UNL     1      16.133  30.191  30.729  1.00  0.00     0.000 G0
ENDBRANCH   9  10
ENDBRANCH   3   8
TORSDOF 0
ENDMDL
MODEL 4
REMARK VINA RESULT:    -2.985      1.485      2.142
REMARK INTER + INTRA:          -2.942
REMARK INTER:                  -3.696
REMARK INTRA:                   0.754
REMARK UNBOUND:                 0.741
REMARK SMILES CC1=CC=CC(C)(C)CC1=O
REMARK SMILES IDX 1 1 2 2 3 3 10 4 11 5 9 6 4 8 5 9 6 10 7 11 8 12
REMARK H PARENT
REMARK Flexibility Score: 80.00
ROOT
ATOM      1  C   UNL     1      14.527  31.150  30.554  1.00  0.00     0.048 C 
ATOM      2  C   UNL     1      15.852  31.856  30.384  1.00  0.00    -0.008 C 
ATOM      3  C   UNL     1      16.096  32.448  29.196  1.00  0.00     0.007 C 
ENDROOT
BRANCH   2   4
ATOM      4  C   UNL     1      16.811  31.775  31.514  1.00  0.00     0.159 C 
ATOM      5  O   UNL     1      16.578  30.965  32.453  1.00  0.00    -0.295 OA
BRANCH   4   6
ATOM      6  C   UNL     1      18.044  32.619  31.613  1.00  0.00     0.091 CG0
ATOM      7  G   UNL     1      19.018  32.414  30.432  1.00  0.00     0.000 G0
ENDBRANCH   4   6
ENDBRANCH   2   4
BRANCH   3   8
ATOM      8  C   UNL     1      17.295  33.183  28.728  1.00  0.00    -0.003 C 
ATOM      9  C   UNL     1      18.538  33.174  29.226  1.00  0.00    -0.020 C 
BRANCH   9  10
ATOM     10  C   UNL     1      19.013  32.409  30.439  1.00  0.00    -0.010 CG0
ATOM     11  C   UNL     1      19.204  30.917  30.080  1.00  0.00     0.016 C 
ATOM     12  C   UNL     1      20.387  32.977  30.862  1.00  0.00     0.016 C 
ATOM     13  G   UNL     1      18.025  32.618  31.607  1.00  0.00     0.000 G0
ENDBRANCH   9  10
ENDBRANCH   3   8
TORSDOF 0
ENDMDL
MODEL 5
REMARK VINA RESULT:    -2.966      4.572      5.958
REMARK INTER + INTRA:          -2.918
REMARK INTER:                  -3.686
REMARK INTRA:                   0.768
REMARK UNBOUND:                 0.741
REMARK SMILES CC1=CC=CC(C)(C)CC1=O
REMARK SMILES IDX 1 1 2 2 3 3 10 4 11 5 9 6 4 8 5 9 6 10 7 11 8 12
REMARK H PARENT
REMARK Flexibility Score: 80.00
ROOT
ATOM      1  C   UNL     1      20.312  24.585  26.912  1.00  0.00     0.048 C 
ATOM      2  C   UNL     1      19.674  25.571  27.861  1.00  0.00    -0.008 C 
ATOM      3  C   UNL     1      18.339  25.489  28.044  1.00  0.00     0.007 C 
ENDROOT
BRANCH   2   4
ATOM      4  C   UNL     1      20.558  26.602  28.461  1.00  0.00     0.159 C 
ATOM      5  O   UNL     1      21.728  26.738  28.008  1.00  0.00    -0.295 OA
BRANCH   4   6
ATOM      6  C   UNL     1      20.143  27.489  29.593  1.00  0.00     0.091 CG0
ATOM      7  G   UNL     1      18.910  28.359  29.265  1.00  0.00     0.000 G0
ENDBRANCH   4   6
ENDBRANCH   2   4
BRANCH   3   8
ATOM      8  C   UNL     1      17.440  26.319  28.879  1.00  0.00    -0.003 C 
ATOM      9  C   UNL     1      17.654  27.535  29.398  1.00  0.00    -0.020 C 
BRANCH   9  10
ATOM     10  C   UNL     1      18.916  28.356  29.270  1.00  0.00    -0.010 CG0
ATOM     11  C   UNL     1      18.992  28.990  27.863  1.00  0.00     0.016 C 
ATOM     12  C   UNL     1      18.856  29.501  30.307  1.00  0.00     0.016 C 
ATOM     13  G   UNL     1      20.144  27.477  29.594  1.00  0.00     0.000 G0
ENDBRANCH   9  10
ENDBRANCH   3   8
TORSDOF 0
ENDMDL
MODEL 6
REMARK VINA RESULT:    -2.960      3.568      4.816
REMARK INTER + INTRA:          -2.911
REMARK INTER:                  -3.672
REMARK INTRA:                   0.761
REMARK UNBOUND:                 0.741
REMARK SMILES CC1=CC=CC(C)(C)CC1=O
REMARK SMILES IDX 1 1 2 2 3 3 10 4 11 5 9 6 4 8 5 9 6 10 7 11 8 12
REMARK H PARENT
REMARK Flexibility Score: 80.00
ROOT
ATOM      1  C   UNL     1      20.970  25.482  28.846  1.00  0.00     0.048 C 
ATOM      2  C   UNL     1      20.657  26.959  28.790  1.00  0.00    -0.008 C 
ATOM      3  C   UNL     1      21.666  27.821  29.036  1.00  0.00     0.007 C 
ENDROOT
BRANCH   2   4
ATOM      4  C   UNL     1      19.244  27.341  28.543  1.00  0.00     0.159 C 
ATOM      5  O   UNL     1      18.353  26.449  28.604  1.00  0.00    -0.295 OA
BRANCH   4   6
ATOM      6  C   UNL     1      18.812  28.735  28.208  1.00  0.00     0.091 CG0
ATOM      7  G   UNL     1      19.168  29.762  29.305  1.00  0.00     0.000 G0
ENDBRANCH   4   6
ENDBRANCH   2   4
BRANCH   3   8
ATOM      8  C   UNL     1      21.662  29.302  29.078  1.00  0.00    -0.003 C 
ATOM      9  C   UNL     1      20.625  30.140  29.204  1.00  0.00    -0.020 C 
BRANCH   9  10
ATOM     10  C   UNL     1      19.167  29.755  29.306  1.00  0.00    -0.010 CG0
ATOM     11  C   UNL     1      18.858  29.233  30.728  1.00  0.00     0.016 C 
ATOM     12  C   UNL     1      18.314  31.022  29.067  1.00  0.00     0.016 C 
ATOM     13  G   UNL     1      18.821  28.728  28.206  1.00  0.00     0.000 G0
ENDBRANCH   9  10
ENDBRANCH   3   8
TORSDOF 0
ENDMDL
MODEL 7
REMARK VINA RESULT:    -2.852      4.531      6.098
REMARK INTER + INTRA:          -2.778
REMARK INTER:                  -3.533
REMARK INTRA:                   0.755
REMARK UNBOUND:                 0.741
REMARK SMILES CC1=CC=CC(C)(C)CC1=O
REMARK SMILES IDX 1 1 2 2 3 3 10 4 11 5 9 6 4 8 5 9 6 10 7 11 8 12
REMARK H PARENT
REMARK Flexibility Score: 80.00
ROOT
ATOM      1  C   UNL     1      24.513  27.714  28.149  1.00  0.00     0.048 C 
ATOM      2  C   UNL     1      23.166  27.807  28.824  1.00  0.00    -0.008 C 
ATOM      3  C   UNL     1      22.186  26.993  28.378  1.00  0.00     0.007 C 
ENDROOT
BRANCH   2   4
ATOM      4  C   UNL     1      23.006  28.840  29.877  1.00  0.00     0.159 C 
ATOM      5  O   UNL     1      23.909  29.712  30.015  1.00  0.00    -0.295 OA
BRANCH   4   6
ATOM      6  C   UNL     1      21.833  28.902  30.805  1.00  0.00     0.091 CG0
ATOM      7  G   UNL     1      20.485  29.069  30.070  1.00  0.00     0.000 G0
ENDBRANCH   4   6
ENDBRANCH   2   4
BRANCH   3   8
ATOM      8  C   UNL     1      20.775  26.873  28.816  1.00  0.00    -0.003 C 
ATOM      9  C   UNL     1      20.032  27.739  29.517  1.00  0.00    -0.020 C 
BRANCH   9  10
ATOM     10  C   UNL     1      20.487  29.072  30.065  1.00  0.00    -0.010 CG0
ATOM     11  C   UNL     1      20.554  30.116  28.927  1.00  0.00     0.016 C 
ATOM     12  C   UNL     1      19.439  29.555  31.094  1.00  0.00     0.016 C 
ATOM     13  G   UNL     1      21.836  28.902  30.797  1.00  0.00     0.000 G0
ENDBRANCH   9  10
ENDBRANCH   3   8
TORSDOF 0
ENDMDL
MODEL 8
REMARK VINA RESULT:    -2.841      2.012      2.874
REMARK INTER + INTRA:          -2.765
REMARK INTER:                  -3.516
REMARK INTRA:                   0.751
REMARK UNBOUND:                 0.741
REMARK SMILES CC1=CC=CC(C)(C)CC1=O
REMARK SMILES IDX 1 1 2 2 3 3 10 4 11 5 9 6 4 8 5 9 6 10 7 11 8 12
REMARK H PARENT
REMARK Flexibility Score: 80.00
ROOT
ATOM      1  C   UNL     1      15.380  28.487  29.730  1.00  0.00     0.048 C 
ATOM      2  C   UNL     1      16.003  29.792  30.167  1.00  0.00    -0.008 C 
ATOM      3  C   UNL     1      15.407  30.935  29.765  1.00  0.00     0.007 C 
ENDROOT
BRANCH   2   4
ATOM      4  C   UNL     1      17.265  29.712  30.944  1.00  0.00     0.159 C 
ATOM      5  O   UNL     1      17.857  28.600  31.030  1.00  0.00    -0.295 OA
BRANCH   4   6
ATOM      6  C   UNL     1      17.876  30.881  31.651  1.00  0.00     0.091 CG0
ATOM      7  G   UNL     1      18.223  32.051  30.704  1.00  0.00     0.000 G0
ENDBRANCH   4   6
ENDBRANCH   2   4
BRANCH   3   8
ATOM      8  C   UNL     1      15.792  32.345  30.009  1.00  0.00    -0.003 C 
ATOM      9  C   UNL     1      16.974  32.843  30.395  1.00  0.00    -0.020 C 
BRANCH   9  10
ATOM     10  C   UNL     1      18.222  32.050  30.710  1.00  0.00    -0.010 CG0
ATOM     11  C   UNL     1      18.900  31.591  29.399  1.00  0.00     0.016 C 
ATOM     12  C   UNL     1      19.207  32.977  31.458  1.00  0.00     0.016 C 
ATOM     13  G   UNL     1      17.868  30.871  31.642  1.00  0.00     0.000 G0
ENDBRANCH   9  10
ENDBRANCH   3   8
TORSDOF 0
ENDMDL
MODEL 9
REMARK VINA RESULT:    -2.767      2.642      3.463
REMARK INTER + INTRA:          -2.673
REMARK INTER:                  -3.434
REMARK INTRA:                   0.762
REMARK UNBOUND:                 0.741
REMARK SMILES CC1=CC=CC(C)(C)CC1=O
REMARK SMILES IDX 1 1 2 2 3 3 10 4 11 5 9 6 4 8 5 9 6 10 7 11 8 12
REMARK H PARENT
REMARK Flexibility Score: 80.00
ROOT
ATOM      1  C   UNL     1      17.757  26.955  27.856  1.00  0.00     0.048 C 
ATOM      2  C   UNL     1      17.745  28.298  28.548  1.00  0.00    -0.008 C 
ATOM      3  C   UNL     1      18.838  29.078  28.418  1.00  0.00     0.007 C 
ENDROOT
BRANCH   2   4
ATOM      4  C   UNL     1      16.557  28.619  29.378  1.00  0.00     0.159 C 
ATOM      5  O   UNL     1      15.728  27.703  29.635  1.00  0.00    -0.295 OA
BRANCH   4   6
ATOM      6  C   UNL     1      16.275  29.985  29.923  1.00  0.00     0.091 CG0
ATOM      7  G   UNL     1      17.392  30.513  30.850  1.00  0.00     0.000 G0
ENDBRANCH   4   6
ENDBRANCH   2   4
BRANCH   3   8
ATOM      8  C   UNL     1      19.128  30.414  28.991  1.00  0.00    -0.003 C 
ATOM      9  C   UNL     1      18.541  31.035  30.022  1.00  0.00    -0.020 C 
BRANCH   9  10
ATOM     10  C   UNL     1      17.390  30.510  30.849  1.00  0.00    -0.010 CG0
ATOM     11  C   UNL     1      17.897  29.433  31.835  1.00  0.00     0.016 C 
ATOM     12  C   UNL     1      16.815  31.682  31.676  1.00  0.00     0.016 C 
ATOM     13  G   UNL     1      16.276  29.987  29.917  1.00  0.00     0.000 G0
ENDBRANCH   9  10
ENDBRANCH   3   8
TORSDOF 0
ENDMDL
