MODEL 1
REMARK VINA RESULT:    -3.981      0.000      0.000
REMARK INTER + INTRA:          -5.527
REMARK INTER:                  -5.145
REMARK INTRA:                  -0.383
REMARK UNBOUND:                -0.383
REMARK SMILES CCCCCCC(=O)[O-]
REMARK SMILES IDX 5 1 6 2 7 3 8 4 9 5 4 6 3 7 2 8 1 9
REMARK H PARENT
REMARK Flexibility Score: inf
ROOT
ATOM      1  C   UNL     1     -21.166  -5.443  15.358  1.00  0.00     0.006 C 
ENDROOT
BRANCH   1   2
ATOM      2  C   UNL     1     -19.758  -5.937  14.999  1.00  0.00     0.053 C 
BRANCH   2   3
ATOM      3  C   UNL     1     -19.722  -7.423  14.813  1.00  0.00     0.041 C 
ATOM      4  O   UNL     1     -20.562  -7.989  14.064  1.00  0.00    -0.550 OA
ATOM      5  O   UNL     1     -18.784  -8.188  15.496  1.00  0.00    -0.550 OA
ENDBRANCH   2   3
ENDBRANCH   1   2
BRANCH   1   6
ATOM      6  C   UNL     1     -21.260  -4.967  16.818  1.00  0.00     0.000 C 
BRANCH   6   7
ATOM      7  C   UNL     1     -22.210  -5.829  17.668  1.00  0.00    -0.000 C 
BRANCH   7   8
ATOM      8  C   UNL     1     -21.699  -7.250  17.967  1.00  0.00    -0.003 C 
ATOM      9  C   UNL     1     -22.514  -8.338  17.269  1.00  0.00     0.004 C 
ENDBRANCH   7   8
ENDBRANCH   6   7
ENDBRANCH   1   6
TORSDOF 5
ENDMDL
MODEL 2
REMARK VINA RESULT:    -3.800      1.115      2.662
REMARK INTER + INTRA:          -5.293
REMARK INTER:                  -4.929
REMARK INTRA:                  -0.364
REMARK UNBOUND:                -0.383
REMARK SMILES CCCCCCC(=O)[O-]
REMARK SMILES IDX 5 1 6 2 7 3 8 4 9 5 4 6 3 7 2 8 1 9
REMARK H PARENT
REMARK Flexibility Score: inf
ROOT
ATOM      1  C   UNL     1     -20.875  -8.635  16.659  1.00  0.00     0.006 C 
ENDROOT
BRANCH   1   2
ATOM      2  C   UNL     1     -19.376  -8.476  16.368  1.00  0.00     0.053 C 
BRANCH   2   3
ATOM      3  C   UNL     1     -19.134  -7.839  15.034  1.00  0.00     0.041 C 
ATOM      4  O   UNL     1     -18.152  -7.067  14.869  1.00  0.00    -0.550 OA
ATOM      5  O   UNL     1     -20.013  -8.067  13.982  1.00  0.00    -0.550 OA
ENDBRANCH   2   3
ENDBRANCH   1   2
BRANCH   1   6
ATOM      6  C   UNL     1     -21.378  -7.609  17.690  1.00  0.00     0.000 C 
BRANCH   6   7
ATOM      7  C   UNL     1     -22.203  -6.476  17.053  1.00  0.00    -0.000 C 
BRANCH   7   8
ATOM      8  C   UNL     1     -21.433  -5.161  16.838  1.00  0.00    -0.003 C 
ATOM      9  C   UNL     1     -21.083  -4.906  15.373  1.00  0.00     0.004 C 
ENDBRANCH   7   8
ENDBRANCH   6   7
ENDBRANCH   1   6
TORSDOF 5
ENDMDL
MODEL 3
REMARK VINA RESULT:    -3.793      1.633      2.271
REMARK INTER + INTRA:          -5.284
REMARK INTER:                  -4.951
REMARK INTRA:                  -0.333
REMARK UNBOUND:                -0.383
REMARK SMILES CCCCCCC(=O)[O-]
REMARK SMILES IDX 5 1 6 2 7 3 8 4 9 5 4 6 3 7 2 8 1 9
REMARK H PARENT
REMARK Flexibility Score: inf
ROOT
ATOM      1  C   UNL     1     -21.359  -7.195  14.786  1.00  0.00     0.006 C 
ENDROOT
BRANCH   1   2
ATOM      2  C   UNL     1     -20.183  -7.934  14.132  1.00  0.00     0.053 C 
BRANCH   2   3
ATOM      3  C   UNL     1     -18.909  -7.733  14.893  1.00  0.00     0.041 C 
ATOM      4  O   UNL     1     -18.712  -8.350  15.973  1.00  0.00    -0.550 OA
ATOM      5  O   UNL     1     -17.954  -6.836  14.429  1.00  0.00    -0.550 OA
ENDBRANCH   2   3
ENDBRANCH   1   2
BRANCH   1   6
ATOM      6  C   UNL     1     -22.429  -8.163  15.320  1.00  0.00     0.000 C 
BRANCH   6   7
ATOM      7  C   UNL     1     -22.189  -8.572  16.784  1.00  0.00    -0.000 C 
BRANCH   7   8
ATOM      8  C   UNL     1     -21.765  -7.422  17.714  1.00  0.00    -0.003 C 
ATOM      9  C   UNL     1     -22.923  -6.501  18.094  1.00  0.00     0.004 C 
ENDBRANCH   7   8
ENDBRANCH   6   7
ENDBRANCH   1   6
TORSDOF 5
ENDMDL
MODEL 4
REMARK VINA RESULT:    -3.771      1.767      2.277
REMARK INTER + INTRA:          -5.256
REMARK INTER:                  -5.077
REMARK INTRA:                  -0.179
REMARK UNBOUND:                -0.383
REMARK SMILES CCCCCCC(=O)[O-]
REMARK SMILES IDX 5 1 6 2 7 3 8 4 9 5 4 6 3 7 2 8 1 9
REMARK H PARENT
REMARK Flexibility Score: inf
ROOT
ATOM      1  C   UNL     1     -20.909  -8.610  16.735  1.00  0.00     0.006 C 
ENDROOT
BRANCH   1   2
ATOM      2  C   UNL     1     -19.534  -8.253  16.152  1.00  0.00     0.053 C 
BRANCH   2   3
ATOM      3  C   UNL     1     -19.622  -7.904  14.697  1.00  0.00     0.041 C 
ATOM      4  O   UNL     1     -20.731  -7.946  14.102  1.00  0.00    -0.550 OA
ATOM      5  O   UNL     1     -18.474  -7.569  13.991  1.00  0.00    -0.550 OA
ENDBRANCH   2   3
ENDBRANCH   1   2
BRANCH   1   6
ATOM      6  C   UNL     1     -21.432  -7.526  17.694  1.00  0.00     0.000 C 
BRANCH   6   7
ATOM      7  C   UNL     1     -22.960  -7.567  17.868  1.00  0.00    -0.000 C 
BRANCH   7   8
ATOM      8  C   UNL     1     -23.654  -8.768  17.199  1.00  0.00    -0.003 C 
ATOM      9  C   UNL     1     -25.114  -8.925  17.618  1.00  0.00     0.004 C 
ENDBRANCH   7   8
ENDBRANCH   6   7
ENDBRANCH   1   6
TORSDOF 5
ENDMDL
MODEL 5
REMARK VINA RESULT:    -3.770      2.050      2.483
REMARK INTER + INTRA:          -5.254
REMARK INTER:                  -4.827
REMARK INTRA:                  -0.427
REMARK UNBOUND:                -0.383
REMARK SMILES CCCCCCC(=O)[O-]
REMARK SMILES IDX 5 1 6 2 7 3 8 4 9 5 4 6 3 7 2 8 1 9
REMARK H PARENT
REMARK Flexibility Score: inf
ROOT
ATOM      1  C   UNL     1     -20.642  -7.209  15.665  1.00  0.00     0.006 C 
ENDROOT
BRANCH   1   2
ATOM      2  C   UNL     1     -21.381  -7.839  14.475  1.00  0.00     0.053 C 
BRANCH   2   3
ATOM      3  C   UNL     1     -22.736  -8.344  14.867  1.00  0.00     0.041 C 
ATOM      4  O   UNL     1     -23.772  -7.812  14.388  1.00  0.00    -0.550 OA
ATOM      5  O   UNL     1     -22.855  -9.377  15.789  1.00  0.00    -0.550 OA
ENDBRANCH   2   3
ENDBRANCH   1   2
BRANCH   1   6
ATOM      6  C   UNL     1     -20.971  -5.715  15.827  1.00  0.00     0.000 C 
BRANCH   6   7
ATOM      7  C   UNL     1     -21.720  -5.404  17.136  1.00  0.00    -0.000 C 
BRANCH   7   8
ATOM      8  C   UNL     1     -21.998  -6.629  18.025  1.00  0.00    -0.003 C 
ATOM      9  C   UNL     1     -23.486  -6.845  18.297  1.00  0.00     0.004 C 
ENDBRANCH   7   8
ENDBRANCH   6   7
ENDBRANCH   1   6
TORSDOF 5
ENDMDL
MODEL 6
REMARK VINA RESULT:    -3.760      0.672      1.521
REMARK INTER + INTRA:          -5.242
REMARK INTER:                  -4.932
REMARK INTRA:                  -0.309
REMARK UNBOUND:                -0.383
REMARK SMILES CCCCCCC(=O)[O-]
REMARK SMILES IDX 5 1 6 2 7 3 8 4 9 5 4 6 3 7 2 8 1 9
REMARK H PARENT
REMARK Flexibility Score: inf
ROOT
ATOM      1  C   UNL     1     -21.664  -6.118  15.708  1.00  0.00     0.006 C 
ENDROOT
BRANCH   1   2
ATOM      2  C   UNL     1     -20.201  -6.158  15.245  1.00  0.00     0.053 C 
BRANCH   2   3
ATOM      3  C   UNL     1     -19.773  -7.546  14.876  1.00  0.00     0.041 C 
ATOM      4  O   UNL     1     -18.945  -8.165  15.595  1.00  0.00    -0.550 OA
ATOM      5  O   UNL     1     -20.259  -8.141  13.719  1.00  0.00    -0.550 OA
ENDBRANCH   2   3
ENDBRANCH   1   2
BRANCH   1   6
ATOM      6  C   UNL     1     -21.786  -6.039  17.240  1.00  0.00     0.000 C 
BRANCH   6   7
ATOM      7  C   UNL     1     -21.902  -7.423  17.904  1.00  0.00    -0.000 C 
BRANCH   7   8
ATOM      8  C   UNL     1     -23.116  -8.255  17.453  1.00  0.00    -0.003 C 
ATOM      9  C   UNL     1     -22.732  -9.451  16.583  1.00  0.00     0.004 C 
ENDBRANCH   7   8
ENDBRANCH   6   7
ENDBRANCH   1   6
TORSDOF 5
ENDMDL
MODEL 7
REMARK VINA RESULT:    -3.753      1.697      2.912
REMARK INTER + INTRA:          -5.233
REMARK INTER:                  -4.855
REMARK INTRA:                  -0.378
REMARK UNBOUND:                -0.383
REMARK SMILES CCCCCCC(=O)[O-]
REMARK SMILES IDX 5 1 6 2 7 3 8 4 9 5 4 6 3 7 2 8 1 9
REMARK H PARENT
REMARK Flexibility Score: inf
ROOT
ATOM      1  C   UNL     1     -22.940  -9.070  15.266  1.00  0.00     0.006 C 
ENDROOT
BRANCH   1   2
ATOM      2  C   UNL     1     -22.797  -7.659  14.680  1.00  0.00     0.053 C 
BRANCH   2   3
ATOM      3  C   UNL     1     -21.361  -7.253  14.551  1.00  0.00     0.041 C 
ATOM      4  O   UNL     1     -21.007  -6.079  14.839  1.00  0.00    -0.550 OA
ATOM      5  O   UNL     1     -20.420  -8.160  14.079  1.00  0.00    -0.550 OA
ENDBRANCH   2   3
ENDBRANCH   1   2
BRANCH   1   6
ATOM      6  C   UNL     1     -22.721  -9.091  16.789  1.00  0.00     0.000 C 
BRANCH   6   7
ATOM      7  C   UNL     1     -23.882  -8.447  17.569  1.00  0.00    -0.000 C 
BRANCH   7   8
ATOM      8  C   UNL     1     -23.530  -7.125  18.274  1.00  0.00    -0.003 C 
ATOM      9  C   UNL     1     -22.040  -6.792  18.212  1.00  0.00     0.004 C 
ENDBRANCH   7   8
ENDBRANCH   6   7
ENDBRANCH   1   6
TORSDOF 5
ENDMDL
MODEL 8
REMARK VINA RESULT:    -3.727      2.346      4.235
REMARK INTER + INTRA:          -5.199
REMARK INTER:                  -4.939
REMARK INTRA:                  -0.260
REMARK UNBOUND:                -0.383
REMARK SMILES CCCCCCC(=O)[O-]
REMARK SMILES IDX 5 1 6 2 7 3 8 4 9 5 4 6 3 7 2 8 1 9
REMARK H PARENT
REMARK Flexibility Score: inf
ROOT
ATOM      1  C   UNL     1     -21.173  -7.653  16.916  1.00  0.00     0.006 C 
ENDROOT
BRANCH   1   2
ATOM      2  C   UNL     1     -22.560  -8.248  17.196  1.00  0.00     0.053 C 
BRANCH   2   3
ATOM      3  C   UNL     1     -22.937  -9.281  16.179  1.00  0.00     0.041 C 
ATOM      4  O   UNL     1     -23.220 -10.454  16.541  1.00  0.00    -0.550 OA
ATOM      5  O   UNL     1     -22.939  -8.959  14.827  1.00  0.00    -0.550 OA
ENDBRANCH   2   3
ENDBRANCH   1   2
BRANCH   1   6
ATOM      6  C   UNL     1     -20.061  -8.715  16.979  1.00  0.00     0.000 C 
BRANCH   6   7
ATOM      7  C   UNL     1     -18.845  -8.362  16.105  1.00  0.00    -0.000 C 
BRANCH   7   8
ATOM      8  C   UNL     1     -19.155  -7.446  14.908  1.00  0.00    -0.003 C 
ATOM      9  C   UNL     1     -17.980  -6.550  14.520  1.00  0.00     0.004 C 
ENDBRANCH   7   8
ENDBRANCH   6   7
ENDBRANCH   1   6
TORSDOF 5
ENDMDL
MODEL 9
REMARK VINA RESULT:    -3.711      2.421      4.482
REMARK INTER + INTRA:          -5.178
REMARK INTER:                  -4.986
REMARK INTRA:                  -0.192
REMARK UNBOUND:                -0.383
REMARK SMILES CCCCCCC(=O)[O-]
REMARK SMILES IDX 5 1 6 2 7 3 8 4 9 5 4 6 3 7 2 8 1 9
REMARK H PARENT
REMARK Flexibility Score: inf
ROOT
ATOM      1  C   UNL     1     -20.614  -7.435  14.592  1.00  0.00     0.006 C 
ENDROOT
BRANCH   1   2
ATOM      2  C   UNL     1     -21.333  -6.226  15.206  1.00  0.00     0.053 C 
BRANCH   2   3
ATOM      3  C   UNL     1     -21.810  -6.511  16.597  1.00  0.00     0.041 C 
ATOM      4  O   UNL     1     -21.770  -5.611  17.478  1.00  0.00    -0.550 OA
ATOM      5  O   UNL     1     -22.266  -7.780  16.931  1.00  0.00    -0.550 OA
ENDBRANCH   2   3
ENDBRANCH   1   2
BRANCH   1   6
ATOM      6  C   UNL     1     -19.211  -7.641  15.188  1.00  0.00     0.000 C 
BRANCH   6   7
ATOM      7  C   UNL     1     -18.091  -7.086  14.290  1.00  0.00    -0.000 C 
BRANCH   7   8
ATOM      8  C   UNL     1     -17.759  -5.600  14.518  1.00  0.00    -0.003 C 
ATOM      9  C   UNL     1     -16.861  -5.014  13.429  1.00  0.00     0.004 C 
ENDBRANCH   7   8
ENDBRANCH   6   7
ENDBRANCH   1   6
TORSDOF 5
ENDMDL
