MODEL 1
REMARK VINA RESULT:    -6.278      0.000      0.000
REMARK INTER + INTRA:          -7.360
REMARK INTER:                  -7.379
REMARK INTRA:                   0.019
REMARK UNBOUND:                 0.019
REMARK SMILES O=c1c(O)c(-c2ccc(O)cc2)oc2cc(O)cc(O)c12
REMARK SMILES IDX 5 1 3 2 2 3 1 4 21 5 19 6 18 7 16 8 15 9 14 10 13 11 6 12
REMARK SMILES IDX 7 13 8 14 9 15 12 16 11 17 10 18 4 20 20 22 17 24
REMARK H PARENT 10 19 4 21 20 23 17 25
REMARK Flexibility Score: inf
ROOT
ATOM      1  C   UNL     1       5.389   4.741 -32.198  1.00  0.00     0.180 A 
ATOM      2  C   UNL     1       5.624   3.682 -33.097  1.00  0.00     0.208 A 
ATOM      3  C   UNL     1       6.895   3.556 -33.678  1.00  0.00     0.238 A 
ATOM      4  O   UNL     1       7.115   2.619 -34.492  1.00  0.00    -0.285 OA
ATOM      5  C   UNL     1       7.912   4.473 -33.337  1.00  0.00     0.111 A 
ATOM      6  C   UNL     1       9.220   4.413 -33.874  1.00  0.00     0.134 A 
ATOM      7  C   UNL     1      10.178   5.358 -33.478  1.00  0.00     0.093 A 
ATOM      8  C   UNL     1       9.854   6.360 -32.556  1.00  0.00     0.123 A 
ATOM      9  C   UNL     1       8.564   6.422 -32.025  1.00  0.00     0.094 A 
ATOM     10  C   UNL     1       7.594   5.491 -32.408  1.00  0.00     0.146 A 
ATOM     11  O   UNL     1       6.374   5.578 -31.889  1.00  0.00    -0.452 OA
ENDROOT
BRANCH   1  12
ATOM     12  C   UNL     1       4.069   4.952 -31.561  1.00  0.00     0.021 A 
ATOM     13  C   UNL     1       3.933   5.030 -30.162  1.00  0.00     0.016 A 
ATOM     14  C   UNL     1       2.672   5.205 -29.583  1.00  0.00     0.047 A 
ATOM     15  C   UNL     1       1.534   5.291 -30.389  1.00  0.00     0.115 A 
ATOM     16  C   UNL     1       2.916   5.018 -32.363  1.00  0.00     0.016 A 
ATOM     17  C   UNL     1       1.658   5.194 -31.780  1.00  0.00     0.047 A 
BRANCH  15  18
ATOM     18  O   UNL     1       0.284   5.467 -29.797  1.00  0.00    -0.508 OA
ATOM     19  H   UNL     1      -0.573   5.325 -30.319  1.00  0.00     0.293 HD
ENDBRANCH  15  18
ENDBRANCH   1  12
BRANCH   2  20
ATOM     20  O   UNL     1       4.615   2.758 -33.380  1.00  0.00    -0.502 OA
ATOM     21  H   UNL     1       4.733   2.018 -34.062  1.00  0.00     0.293 HD
ENDBRANCH   2  20
BRANCH   6  22
ATOM     22  O   UNL     1       9.574   3.426 -34.795  1.00  0.00    -0.507 OA
ATOM     23  H   UNL     1       8.944   3.136 -35.535  1.00  0.00     0.293 HD
ENDBRANCH   6  22
BRANCH   8  24
ATOM     24  O   UNL     1      10.805   7.298 -32.161  1.00  0.00    -0.508 OA
ATOM     25  H   UNL     1      11.630   7.483 -32.719  1.00  0.00     0.293 HD
ENDBRANCH   8  24
TORSDOF 5
ENDMDL
MODEL 2
REMARK VINA RESULT:    -6.256      1.605      6.607
REMARK INTER + INTRA:          -7.334
REMARK INTER:                  -7.356
REMARK INTRA:                   0.022
REMARK UNBOUND:                 0.019
REMARK SMILES O=c1c(O)c(-c2ccc(O)cc2)oc2cc(O)cc(O)c12
REMARK SMILES IDX 5 1 3 2 2 3 1 4 21 5 19 6 18 7 16 8 15 9 14 10 13 11 6 12
REMARK SMILES IDX 7 13 8 14 9 15 12 16 11 17 10 18 4 20 20 22 17 24
REMARK H PARENT 10 19 4 21 20 23 17 25
REMARK Flexibility Score: inf
ROOT
ATOM      1  C   UNL     1       6.486   5.538 -32.716  1.00  0.00     0.180 A 
ATOM      2  C   UNL     1       5.687   5.296 -33.850  1.00  0.00     0.208 A 
ATOM      3  C   UNL     1       4.307   5.109 -33.679  1.00  0.00     0.238 A 
ATOM      4  O   UNL     1       3.582   4.881 -34.686  1.00  0.00    -0.285 OA
ATOM      5  C   UNL     1       3.746   5.189 -32.387  1.00  0.00     0.111 A 
ATOM      6  C   UNL     1       2.365   5.018 -32.131  1.00  0.00     0.134 A 
ATOM      7  C   UNL     1       1.884   5.121 -30.817  1.00  0.00     0.093 A 
ATOM      8  C   UNL     1       2.757   5.392 -29.756  1.00  0.00     0.123 A 
ATOM      9  C   UNL     1       4.120   5.562 -30.006  1.00  0.00     0.094 A 
ATOM     10  C   UNL     1       4.620   5.461 -31.308  1.00  0.00     0.146 A 
ATOM     11  O   UNL     1       5.922   5.621 -31.514  1.00  0.00    -0.452 OA
ENDROOT
BRANCH   1  12
ATOM     12  C   UNL     1       7.952   5.725 -32.812  1.00  0.00     0.021 A 
ATOM     13  C   UNL     1       8.761   4.826 -33.531  1.00  0.00     0.016 A 
ATOM     14  C   UNL     1      10.146   5.010 -33.587  1.00  0.00     0.047 A 
ATOM     15  C   UNL     1      10.741   6.084 -32.917  1.00  0.00     0.115 A 
ATOM     16  C   UNL     1       8.560   6.790 -32.124  1.00  0.00     0.016 A 
ATOM     17  C   UNL     1       9.944   6.972 -32.183  1.00  0.00     0.047 A 
BRANCH  15  18
ATOM     18  O   UNL     1      12.122   6.256 -32.983  1.00  0.00    -0.508 OA
ATOM     19  H   UNL     1      12.665   6.497 -32.163  1.00  0.00     0.293 HD
ENDBRANCH  15  18
ENDBRANCH   1  12
BRANCH   2  20
ATOM     20  O   UNL     1       6.258   5.271 -35.125  1.00  0.00    -0.502 OA
ATOM     21  H   UNL     1       6.818   6.035 -35.483  1.00  0.00     0.293 HD
ENDBRANCH   2  20
BRANCH   6  22
ATOM     22  O   UNL     1       1.470   4.747 -33.166  1.00  0.00    -0.507 OA
ATOM     23  H   UNL     1       0.717   5.384 -33.400  1.00  0.00     0.293 HD
ENDBRANCH   6  22
BRANCH   8  24
ATOM     24  O   UNL     1       2.280   5.496 -28.452  1.00  0.00    -0.508 OA
ATOM     25  H   UNL     1       2.611   6.218 -27.823  1.00  0.00     0.293 HD
ENDBRANCH   8  24
TORSDOF 5
ENDMDL
MODEL 3
REMARK VINA RESULT:    -5.971      1.965      7.028
REMARK INTER + INTRA:          -6.999
REMARK INTER:                  -6.714
REMARK INTRA:                  -0.285
REMARK UNBOUND:                 0.019
REMARK SMILES O=c1c(O)c(-c2ccc(O)cc2)oc2cc(O)cc(O)c12
REMARK SMILES IDX 5 1 3 2 2 3 1 4 21 5 19 6 18 7 16 8 15 9 14 10 13 11 6 12
REMARK SMILES IDX 7 13 8 14 9 15 12 16 11 17 10 18 4 20 20 22 17 24
REMARK H PARENT 10 19 4 21 20 23 17 25
REMARK Flexibility Score: inf
ROOT
ATOM      1  C   UNL     1       6.580   5.943 -32.732  1.00  0.00     0.180 A 
ATOM      2  C   UNL     1       6.184   6.357 -31.445  1.00  0.00     0.208 A 
ATOM      3  C   UNL     1       4.874   6.092 -31.021  1.00  0.00     0.238 A 
ATOM      4  O   UNL     1       4.505   6.468 -29.874  1.00  0.00    -0.285 OA
ATOM      5  C   UNL     1       3.989   5.402 -31.875  1.00  0.00     0.111 A 
ATOM      6  C   UNL     1       2.655   5.092 -31.522  1.00  0.00     0.134 A 
ATOM      7  C   UNL     1       1.839   4.394 -32.426  1.00  0.00     0.093 A 
ATOM      8  C   UNL     1       2.334   4.001 -33.675  1.00  0.00     0.123 A 
ATOM      9  C   UNL     1       3.650   4.305 -34.028  1.00  0.00     0.094 A 
ATOM     10  C   UNL     1       4.478   5.002 -33.141  1.00  0.00     0.146 A 
ATOM     11  O   UNL     1       5.724   5.282 -33.506  1.00  0.00    -0.452 OA
ENDROOT
BRANCH   1  12
ATOM     12  C   UNL     1       7.938   6.204 -33.259  1.00  0.00     0.021 A 
ATOM     13  C   UNL     1       8.972   5.259 -33.124  1.00  0.00     0.016 A 
ATOM     14  C   UNL     1      10.254   5.539 -33.608  1.00  0.00     0.047 A 
ATOM     15  C   UNL     1      10.522   6.767 -34.221  1.00  0.00     0.115 A 
ATOM     16  C   UNL     1       8.221   7.444 -33.857  1.00  0.00     0.016 A 
ATOM     17  C   UNL     1       9.503   7.720 -34.342  1.00  0.00     0.047 A 
BRANCH  15  18
ATOM     18  O   UNL     1      11.804   7.032 -34.701  1.00  0.00    -0.508 OA
ATOM     19  H   UNL     1      12.362   6.312 -35.143  1.00  0.00     0.293 HD
ENDBRANCH  15  18
ENDBRANCH   1  12
BRANCH   2  20
ATOM     20  O   UNL     1       7.094   6.995 -30.598  1.00  0.00    -0.502 OA
ATOM     21  H   UNL     1       6.803   7.496 -29.767  1.00  0.00     0.293 HD
ENDBRANCH   2  20
BRANCH   6  22
ATOM     22  O   UNL     1       2.133   5.470 -30.284  1.00  0.00    -0.507 OA
ATOM     23  H   UNL     1       2.381   6.351 -29.848  1.00  0.00     0.293 HD
ENDBRANCH   6  22
BRANCH   8  24
ATOM     24  O   UNL     1       1.526   3.307 -34.573  1.00  0.00    -0.508 OA
ATOM     25  H   UNL     1       1.298   3.687 -35.484  1.00  0.00     0.293 HD
ENDBRANCH   8  24
TORSDOF 5
ENDMDL
MODEL 4
REMARK VINA RESULT:    -5.876      1.281      2.926
REMARK INTER + INTRA:          -6.887
REMARK INTER:                  -6.723
REMARK INTRA:                  -0.164
REMARK UNBOUND:                 0.019
REMARK SMILES O=c1c(O)c(-c2ccc(O)cc2)oc2cc(O)cc(O)c12
REMARK SMILES IDX 5 1 3 2 2 3 1 4 21 5 19 6 18 7 16 8 15 9 14 10 13 11 6 12
REMARK SMILES IDX 7 13 8 14 9 15 12 16 11 17 10 18 4 20 20 22 17 24
REMARK H PARENT 10 19 4 21 20 23 17 25
REMARK Flexibility Score: inf
ROOT
ATOM      1  C   UNL     1       5.584   5.094 -32.071  1.00  0.00     0.180 A 
ATOM      2  C   UNL     1       6.503   6.158 -31.980  1.00  0.00     0.208 A 
ATOM      3  C   UNL     1       7.781   5.998 -32.538  1.00  0.00     0.238 A 
ATOM      4  O   UNL     1       8.616   6.939 -32.453  1.00  0.00    -0.285 OA
ATOM      5  C   UNL     1       8.111   4.794 -33.193  1.00  0.00     0.111 A 
ATOM      6  C   UNL     1       9.374   4.555 -33.785  1.00  0.00     0.134 A 
ATOM      7  C   UNL     1       9.622   3.332 -34.426  1.00  0.00     0.093 A 
ATOM      8  C   UNL     1       8.631   2.345 -34.487  1.00  0.00     0.123 A 
ATOM      9  C   UNL     1       7.384   2.576 -33.904  1.00  0.00     0.094 A 
ATOM     10  C   UNL     1       7.118   3.788 -33.258  1.00  0.00     0.146 A 
ATOM     11  O   UNL     1       5.924   3.978 -32.708  1.00  0.00    -0.452 OA
ENDROOT
BRANCH   1  12
ATOM     12  C   UNL     1       4.224   5.178 -31.490  1.00  0.00     0.021 A 
ATOM     13  C   UNL     1       4.025   5.283 -30.101  1.00  0.00     0.016 A 
ATOM     14  C   UNL     1       2.730   5.337 -29.575  1.00  0.00     0.047 A 
ATOM     15  C   UNL     1       1.622   5.273 -30.424  1.00  0.00     0.115 A 
ATOM     16  C   UNL     1       3.105   5.094 -32.335  1.00  0.00     0.016 A 
ATOM     17  C   UNL     1       1.812   5.149 -31.806  1.00  0.00     0.047 A 
BRANCH  15  18
ATOM     18  O   UNL     1       0.338   5.329 -29.885  1.00  0.00    -0.508 OA
ATOM     19  H   UNL     1       0.040   4.689 -29.159  1.00  0.00     0.293 HD
ENDBRANCH  15  18
ENDBRANCH   1  12
BRANCH   2  20
ATOM     20  O   UNL     1       6.135   7.359 -31.369  1.00  0.00    -0.502 OA
ATOM     21  H   UNL     1       6.183   8.249 -31.851  1.00  0.00     0.293 HD
ENDBRANCH   2  20
BRANCH   6  22
ATOM     22  O   UNL     1      10.381   5.519 -33.741  1.00  0.00    -0.507 OA
ATOM     23  H   UNL     1      10.448   6.187 -32.981  1.00  0.00     0.293 HD
ENDBRANCH   6  22
BRANCH   8  24
ATOM     24  O   UNL     1       8.876   1.131 -35.125  1.00  0.00    -0.508 OA
ATOM     25  H   UNL     1       8.127   0.482 -35.334  1.00  0.00     0.293 HD
ENDBRANCH   8  24
TORSDOF 5
ENDMDL
MODEL 5
REMARK VINA RESULT:    -5.816      4.013      6.937
REMARK INTER + INTRA:          -6.817
REMARK INTER:                  -6.540
REMARK INTRA:                  -0.277
REMARK UNBOUND:                 0.019
REMARK SMILES O=c1c(O)c(-c2ccc(O)cc2)oc2cc(O)cc(O)c12
REMARK SMILES IDX 5 1 3 2 2 3 1 4 21 5 19 6 18 7 16 8 15 9 14 10 13 11 6 12
REMARK SMILES IDX 7 13 8 14 9 15 12 16 11 17 10 18 4 20 20 22 17 24
REMARK H PARENT 10 19 4 21 20 23 17 25
REMARK Flexibility Score: inf
ROOT
ATOM      1  C   UNL     1      11.816   5.816 -32.979  1.00  0.00     0.180 A 
ATOM      2  C   UNL     1      12.576   6.350 -34.038  1.00  0.00     0.208 A 
ATOM      3  C   UNL     1      13.974   6.233 -33.994  1.00  0.00     0.238 A 
ATOM      4  O   UNL     1      14.666   6.716 -34.931  1.00  0.00    -0.285 OA
ATOM      5  C   UNL     1      14.585   5.569 -32.910  1.00  0.00     0.111 A 
ATOM      6  C   UNL     1      15.986   5.405 -32.794  1.00  0.00     0.134 A 
ATOM      7  C   UNL     1      16.517   4.724 -31.687  1.00  0.00     0.093 A 
ATOM      8  C   UNL     1      15.674   4.205 -30.697  1.00  0.00     0.123 A 
ATOM      9  C   UNL     1      14.292   4.366 -30.809  1.00  0.00     0.094 A 
ATOM     10  C   UNL     1      13.743   5.043 -31.903  1.00  0.00     0.146 A 
ATOM     11  O   UNL     1      12.425   5.184 -31.980  1.00  0.00    -0.452 OA
ENDROOT
BRANCH   1  12
ATOM     12  C   UNL     1      10.339   5.917 -32.942  1.00  0.00     0.021 A 
ATOM     13  C   UNL     1       9.690   6.918 -32.196  1.00  0.00     0.016 A 
ATOM     14  C   UNL     1       8.293   6.978 -32.158  1.00  0.00     0.047 A 
ATOM     15  C   UNL     1       7.529   6.035 -32.852  1.00  0.00     0.115 A 
ATOM     16  C   UNL     1       9.564   4.960 -33.620  1.00  0.00     0.016 A 
ATOM     17  C   UNL     1       8.168   5.024 -33.581  1.00  0.00     0.047 A 
BRANCH  15  18
ATOM     18  O   UNL     1       6.138   6.108 -32.806  1.00  0.00    -0.508 OA
ATOM     19  H   UNL     1       5.590   6.293 -33.637  1.00  0.00     0.293 HD
ENDBRANCH  15  18
ENDBRANCH   1  12
BRANCH   2  20
ATOM     20  O   UNL     1      11.944   6.958 -35.125  1.00  0.00    -0.502 OA
ATOM     21  H   UNL     1      12.153   6.708 -36.084  1.00  0.00     0.293 HD
ENDBRANCH   2  20
BRANCH   6  22
ATOM     22  O   UNL     1      16.852   5.911 -33.764  1.00  0.00    -0.507 OA
ATOM     23  H   UNL     1      17.022   6.906 -33.860  1.00  0.00     0.293 HD
ENDBRANCH   6  22
BRANCH   8  24
ATOM     24  O   UNL     1      16.200   3.528 -29.600  1.00  0.00    -0.508 OA
ATOM     25  H   UNL     1      17.162   3.656 -29.310  1.00  0.00     0.293 HD
ENDBRANCH   8  24
TORSDOF 5
ENDMDL
MODEL 6
REMARK VINA RESULT:    -5.400      2.654      7.889
REMARK INTER + INTRA:          -6.327
REMARK INTER:                  -6.052
REMARK INTRA:                  -0.275
REMARK UNBOUND:                 0.019
REMARK SMILES O=c1c(O)c(-c2ccc(O)cc2)oc2cc(O)cc(O)c12
REMARK SMILES IDX 5 1 3 2 2 3 1 4 21 5 19 6 18 7 16 8 15 9 14 10 13 11 6 12
REMARK SMILES IDX 7 13 8 14 9 15 12 16 11 17 10 18 4 20 20 22 17 24
REMARK H PARENT 10 19 4 21 20 23 17 25
REMARK Flexibility Score: inf
ROOT
ATOM      1  C   UNL     1      11.002   5.376 -33.660  1.00  0.00     0.180 A 
ATOM      2  C   UNL     1      10.579   4.199 -34.309  1.00  0.00     0.208 A 
ATOM      3  C   UNL     1       9.251   3.777 -34.149  1.00  0.00     0.238 A 
ATOM      4  O   UNL     1       8.864   2.719 -34.716  1.00  0.00    -0.285 OA
ATOM      5  C   UNL     1       8.365   4.544 -33.364  1.00  0.00     0.111 A 
ATOM      6  C   UNL     1       7.010   4.190 -33.156  1.00  0.00     0.134 A 
ATOM      7  C   UNL     1       6.190   5.011 -32.368  1.00  0.00     0.093 A 
ATOM      8  C   UNL     1       6.698   6.178 -31.785  1.00  0.00     0.123 A 
ATOM      9  C   UNL     1       8.033   6.530 -31.988  1.00  0.00     0.094 A 
ATOM     10  C   UNL     1       8.868   5.724 -32.768  1.00  0.00     0.146 A 
ATOM     11  O   UNL     1      10.136   6.082 -32.939  1.00  0.00    -0.452 OA
ENDROOT
BRANCH   1  12
ATOM     12  C   UNL     1      12.392   5.875 -33.764  1.00  0.00     0.021 A 
ATOM     13  C   UNL     1      12.818   6.639 -34.866  1.00  0.00     0.016 A 
ATOM     14  C   UNL     1      14.143   7.078 -34.953  1.00  0.00     0.047 A 
ATOM     15  C   UNL     1      15.060   6.751 -33.951  1.00  0.00     0.115 A 
ATOM     16  C   UNL     1      13.326   5.532 -32.771  1.00  0.00     0.016 A 
ATOM     17  C   UNL     1      14.649   5.974 -32.860  1.00  0.00     0.047 A 
BRANCH  15  18
ATOM     18  O   UNL     1      16.377   7.196 -34.050  1.00  0.00    -0.508 OA
ATOM     19  H   UNL     1      17.157   6.601 -33.800  1.00  0.00     0.293 HD
ENDBRANCH  15  18
ENDBRANCH   1  12
BRANCH   2  20
ATOM     20  O   UNL     1      11.463   3.484 -35.121  1.00  0.00    -0.502 OA
ATOM     21  H   UNL     1      12.020   3.930 -35.840  1.00  0.00     0.293 HD
ENDBRANCH   2  20
BRANCH   6  22
ATOM     22  O   UNL     1       6.475   3.033 -33.724  1.00  0.00    -0.507 OA
ATOM     23  H   UNL     1       5.480   2.836 -33.695  1.00  0.00     0.293 HD
ENDBRANCH   6  22
BRANCH   8  24
ATOM     24  O   UNL     1       5.883   6.995 -31.004  1.00  0.00    -0.508 OA
ATOM     25  H   UNL     1       5.534   6.689 -30.104  1.00  0.00     0.293 HD
ENDBRANCH   8  24
TORSDOF 5
ENDMDL
MODEL 7
REMARK VINA RESULT:    -5.377      9.162     12.198
REMARK INTER + INTRA:          -6.300
REMARK INTER:                  -6.002
REMARK INTRA:                  -0.298
REMARK UNBOUND:                 0.019
REMARK SMILES O=c1c(O)c(-c2ccc(O)cc2)oc2cc(O)cc(O)c12
REMARK SMILES IDX 5 1 3 2 2 3 1 4 21 5 19 6 18 7 16 8 15 9 14 10 13 11 6 12
REMARK SMILES IDX 7 13 8 14 9 15 12 16 11 17 10 18 4 20 20 22 17 24
REMARK H PARENT 10 19 4 21 20 23 17 25
REMARK Flexibility Score: inf
ROOT
ATOM      1  C   UNL     1      16.711   3.021 -31.398  1.00  0.00     0.180 A 
ATOM      2  C   UNL     1      17.488   3.130 -30.228  1.00  0.00     0.208 A 
ATOM      3  C   UNL     1      18.026   1.965 -29.661  1.00  0.00     0.238 A 
ATOM      4  O   UNL     1      18.714   2.048 -28.608  1.00  0.00    -0.285 OA
ATOM      5  C   UNL     1      17.798   0.718 -30.280  1.00  0.00     0.111 A 
ATOM      6  C   UNL     1      18.308  -0.502 -29.775  1.00  0.00     0.134 A 
ATOM      7  C   UNL     1      18.044  -1.701 -30.454  1.00  0.00     0.093 A 
ATOM      8  C   UNL     1      17.281  -1.702 -31.628  1.00  0.00     0.123 A 
ATOM      9  C   UNL     1      16.775  -0.501 -32.129  1.00  0.00     0.094 A 
ATOM     10  C   UNL     1      17.026   0.704 -31.466  1.00  0.00     0.146 A 
ATOM     11  O   UNL     1      16.528   1.831 -31.963  1.00  0.00    -0.452 OA
ENDROOT
BRANCH   1  12
ATOM     12  C   UNL     1      16.093   4.201 -32.044  1.00  0.00     0.021 A 
ATOM     13  C   UNL     1      14.832   4.681 -31.645  1.00  0.00     0.016 A 
ATOM     14  C   UNL     1      14.258   5.783 -32.288  1.00  0.00     0.047 A 
ATOM     15  C   UNL     1      14.929   6.410 -33.342  1.00  0.00     0.115 A 
ATOM     16  C   UNL     1      16.751   4.824 -33.119  1.00  0.00     0.016 A 
ATOM     17  C   UNL     1      16.175   5.926 -33.758  1.00  0.00     0.047 A 
BRANCH  15  18
ATOM     18  O   UNL     1      14.346   7.508 -33.972  1.00  0.00    -0.508 OA
ATOM     19  H   UNL     1      14.801   7.978 -34.744  1.00  0.00     0.293 HD
ENDBRANCH  15  18
ENDBRANCH   1  12
BRANCH   2  20
ATOM     20  O   UNL     1      17.740   4.382 -29.662  1.00  0.00    -0.502 OA
ATOM     21  H   UNL     1      18.447   4.523 -28.950  1.00  0.00     0.293 HD
ENDBRANCH   2  20
BRANCH   6  22
ATOM     22  O   UNL     1      19.072  -0.533 -28.608  1.00  0.00    -0.507 OA
ATOM     23  H   UNL     1      19.706   0.221 -28.365  1.00  0.00     0.293 HD
ENDBRANCH   6  22
BRANCH   8  24
ATOM     24  O   UNL     1      17.019  -2.892 -32.304  1.00  0.00    -0.508 OA
ATOM     25  H   UNL     1      16.441  -3.617 -31.896  1.00  0.00     0.293 HD
ENDBRANCH   8  24
TORSDOF 5
ENDMDL
MODEL 8
REMARK VINA RESULT:    -5.218      5.576      8.780
REMARK INTER + INTRA:          -6.114
REMARK INTER:                  -5.976
REMARK INTRA:                  -0.138
REMARK UNBOUND:                 0.019
REMARK SMILES O=c1c(O)c(-c2ccc(O)cc2)oc2cc(O)cc(O)c12
REMARK SMILES IDX 5 1 3 2 2 3 1 4 21 5 19 6 18 7 16 8 15 9 14 10 13 11 6 12
REMARK SMILES IDX 7 13 8 14 9 15 12 16 11 17 10 18 4 20 20 22 17 24
REMARK H PARENT 10 19 4 21 20 23 17 25
REMARK Flexibility Score: inf
ROOT
ATOM      1  C   UNL     1      13.799   5.352 -32.209  1.00  0.00     0.180 A 
ATOM      2  C   UNL     1      14.689   5.910 -33.148  1.00  0.00     0.208 A 
ATOM      3  C   UNL     1      16.023   5.478 -33.156  1.00  0.00     0.238 A 
ATOM      4  O   UNL     1      16.832   5.978 -33.985  1.00  0.00    -0.285 OA
ATOM      5  C   UNL     1      16.441   4.486 -32.246  1.00  0.00     0.111 A 
ATOM      6  C   UNL     1      17.767   3.993 -32.192  1.00  0.00     0.134 A 
ATOM      7  C   UNL     1      18.102   2.997 -31.262  1.00  0.00     0.093 A 
ATOM      8  C   UNL     1      17.137   2.486 -30.386  1.00  0.00     0.123 A 
ATOM      9  C   UNL     1      15.829   2.970 -30.435  1.00  0.00     0.094 A 
ATOM     10  C   UNL     1      15.475   3.963 -31.354  1.00  0.00     0.146 A 
ATOM     11  O   UNL     1      14.224   4.408 -31.375  1.00  0.00    -0.452 OA
ENDROOT
BRANCH   1  12
ATOM     12  C   UNL     1      12.381   5.770 -32.124  1.00  0.00     0.021 A 
ATOM     13  C   UNL     1      11.873   6.416 -30.982  1.00  0.00     0.016 A 
ATOM     14  C   UNL     1      10.524   6.779 -30.916  1.00  0.00     0.047 A 
ATOM     15  C   UNL     1       9.665   6.492 -31.981  1.00  0.00     0.115 A 
ATOM     16  C   UNL     1      11.507   5.467 -33.182  1.00  0.00     0.016 A 
ATOM     17  C   UNL     1      10.159   5.833 -33.113  1.00  0.00     0.047 A 
BRANCH  15  18
ATOM     18  O   UNL     1       8.323   6.862 -31.902  1.00  0.00    -0.508 OA
ATOM     19  H   UNL     1       7.729   6.872 -32.722  1.00  0.00     0.293 HD
ENDBRANCH  15  18
ENDBRANCH   1  12
BRANCH   2  20
ATOM     20  O   UNL     1      14.238   6.856 -34.072  1.00  0.00    -0.502 OA
ATOM     21  H   UNL     1      14.543   6.859 -35.038  1.00  0.00     0.293 HD
ENDBRANCH   2  20
BRANCH   6  22
ATOM     22  O   UNL     1      18.751   4.482 -33.052  1.00  0.00    -0.507 OA
ATOM     23  H   UNL     1      18.803   5.465 -33.298  1.00  0.00     0.293 HD
ENDBRANCH   6  22
BRANCH   8  24
ATOM     24  O   UNL     1      17.469   1.496 -29.463  1.00  0.00    -0.508 OA
ATOM     25  H   UNL     1      17.867   1.726 -28.560  1.00  0.00     0.293 HD
ENDBRANCH   8  24
TORSDOF 5
ENDMDL
