MODEL 1
REMARK VINA RESULT:    -6.483      0.000      0.000
REMARK INTER + INTRA:         -10.495
REMARK INTER:                  -8.567
REMARK INTRA:                  -1.928
REMARK UNBOUND:                -1.928
REMARK SMILES CC[C@H](C=C[C@H](C)[C@@H]1CC[C@H]2[C@H]3CC=C4C[C@H](O)CC[C@]4(C)[C@H]3CC[C@@]21C)C(C)C
REMARK SMILES IDX 6 1 7 2 5 3 4 4 3 5 2 6 1 7 28 8 29 9 30 10 8 11 9 12 26 13
REMARK SMILES IDX 10 14 11 15 25 16 27 17 12 18 24 19 23 20 13 21 21 22 14 23
REMARK SMILES IDX 15 24 20 25 22 26 16 27 19 28 17 29 18 30
REMARK H PARENT 18 31
REMARK Flexibility Score: inf
ROOT
ATOM      1  C   UNL     1     128.691 144.077 106.176  1.00  0.00     0.012 C 
ATOM      2  C   UNL     1     127.742 144.129 104.958  1.00  0.00     0.012 C 
ENDROOT
BRANCH   1   3
ATOM      3  C   UNL     1     129.794 145.108 106.069  1.00  0.00    -0.028 C 
ATOM      4  C   UNL     1     131.092 144.765 106.120  1.00  0.00    -0.027 C 
BRANCH   4   5
ATOM      5  C   UNL     1     132.190 145.807 106.024  1.00  0.00     0.014 C 
BRANCH   5   6
ATOM      6  C   UNL     1     132.245 146.740 107.271  1.00  0.00     0.004 C 
ATOM      7  C   UNL     1     133.259 146.343 108.353  1.00  0.00     0.004 C 
ENDBRANCH   5   6
BRANCH   5   8
ATOM      8  C   UNL     1     133.554 145.156 105.628  1.00  0.00    -0.011 C 
ATOM      9  C   UNL     1     134.378 145.986 104.633  1.00  0.00     0.008 C 
ATOM     10  C   UNL     1     133.377 143.722 105.103  1.00  0.00     0.008 C 
ENDBRANCH   5   8
ENDBRANCH   4   5
ENDBRANCH   1   3
BRANCH   1  11
ATOM     11  C   UNL     1     128.005 144.087 107.590  1.00  0.00     0.002 C 
ATOM     12  C   UNL     1     127.388 145.477 107.919  1.00  0.00     0.005 C 
ATOM     13  C   UNL     1     128.823 143.720 108.883  1.00  0.00    -0.026 C 
ATOM     14  C   UNL     1     128.151 146.054 109.124  1.00  0.00     0.005 C 
ATOM     15  C   UNL     1     129.319 145.100 109.324  1.00  0.00    -0.001 C 
ATOM     16  C   UNL     1     130.054 142.786 108.749  1.00  0.00     0.007 C 
ATOM     17  C   UNL     1     127.806 143.075 109.878  1.00  0.00     0.012 C 
ATOM     18  C   UNL     1     130.159 145.175 110.620  1.00  0.00     0.000 C 
ATOM     19  C   UNL     1     130.900 142.747 110.046  1.00  0.00     0.005 C 
ATOM     20  C   UNL     1     131.334 144.151 110.582  1.00  0.00     0.003 C 
ATOM     21  C   UNL     1     129.422 145.099 111.962  1.00  0.00     0.031 C 
ATOM     22  C   UNL     1     132.183 144.122 111.950  1.00  0.00    -0.008 C 
ATOM     23  C   UNL     1     130.383 145.520 113.031  1.00  0.00    -0.027 C 
ATOM     24  C   UNL     1     131.681 145.152 112.986  1.00  0.00    -0.065 C 
ATOM     25  C   UNL     1     133.670 144.441 111.592  1.00  0.00     0.014 C 
ATOM     26  C   UNL     1     132.122 142.740 112.658  1.00  0.00     0.016 C 
ATOM     27  C   UNL     1     132.588 145.577 114.127  1.00  0.00     0.063 C 
ATOM     28  C   UNL     1     134.565 144.730 112.806  1.00  0.00     0.033 C 
ATOM     29  C   UNL     1     134.008 145.891 113.642  1.00  0.00     0.118 C 
BRANCH  29  30
ATOM     30  O   UNL     1     133.993 147.079 112.892  1.00  0.00    -0.393 OA
ATOM     31  H   UNL     1     134.438 146.877 112.028  1.00  0.00     0.210 HD
ENDBRANCH  29  30
ENDBRANCH   1  11
TORSDOF 6
ENDMDL
MODEL 2
REMARK VINA RESULT:    -5.923      3.890      7.167
REMARK INTER + INTRA:          -9.755
REMARK INTER:                  -7.874
REMARK INTRA:                  -1.881
REMARK UNBOUND:                -1.928
REMARK SMILES CC[C@H](C=C[C@H](C)[C@@H]1CC[C@H]2[C@H]3CC=C4C[C@H](O)CC[C@]4(C)[C@H]3CC[C@@]21C)C(C)C
REMARK SMILES IDX 6 1 7 2 5 3 4 4 3 5 2 6 1 7 28 8 29 9 30 10 8 11 9 12 26 13
REMARK SMILES IDX 10 14 11 15 25 16 27 17 12 18 24 19 23 20 13 21 21 22 14 23
REMARK SMILES IDX 15 24 20 25 22 26 16 27 19 28 17 29 18 30
REMARK H PARENT 18 31
REMARK Flexibility Score: inf
ROOT
ATOM      1  C   UNL     1     131.850 146.040 106.891  1.00  0.00     0.012 C 
ATOM      2  C   UNL     1     131.954 147.083 105.757  1.00  0.00     0.012 C 
ENDROOT
BRANCH   1   3
ATOM      3  C   UNL     1     130.413 145.646 107.158  1.00  0.00    -0.028 C 
ATOM      4  C   UNL     1     129.478 145.676 106.193  1.00  0.00    -0.027 C 
BRANCH   4   5
ATOM      5  C   UNL     1     128.039 145.291 106.475  1.00  0.00     0.014 C 
BRANCH   5   6
ATOM      6  C   UNL     1     127.440 144.358 105.379  1.00  0.00     0.004 C 
ATOM      7  C   UNL     1     128.442 143.429 104.679  1.00  0.00     0.004 C 
ENDBRANCH   5   6
BRANCH   5   8
ATOM      8  C   UNL     1     127.866 144.780 107.941  1.00  0.00    -0.011 C 
ATOM      9  C   UNL     1     127.395 143.322 108.045  1.00  0.00     0.008 C 
ATOM     10  C   UNL     1     126.945 145.695 108.765  1.00  0.00     0.008 C 
ENDBRANCH   5   8
ENDBRANCH   4   5
ENDBRANCH   1   3
BRANCH   1  11
ATOM     11  C   UNL     1     132.796 144.791 106.773  1.00  0.00     0.002 C 
ATOM     12  C   UNL     1     133.196 144.512 105.295  1.00  0.00     0.005 C 
ATOM     13  C   UNL     1     132.343 143.384 107.314  1.00  0.00    -0.026 C 
ATOM     14  C   UNL     1     132.602 143.149 104.898  1.00  0.00     0.005 C 
ATOM     15  C   UNL     1     131.698 142.777 106.065  1.00  0.00    -0.001 C 
ATOM     16  C   UNL     1     131.308 143.326 108.467  1.00  0.00     0.007 C 
ATOM     17  C   UNL     1     133.644 142.648 107.767  1.00  0.00     0.012 C 
ATOM     18  C   UNL     1     131.142 141.339 106.178  1.00  0.00     0.000 C 
ATOM     19  C   UNL     1     130.767 141.892 108.693  1.00  0.00     0.005 C 
ATOM     20  C   UNL     1     130.196 141.202 107.410  1.00  0.00     0.003 C 
ATOM     21  C   UNL     1     132.139 140.175 106.132  1.00  0.00     0.031 C 
ATOM     22  C   UNL     1     129.667 139.698 107.627  1.00  0.00    -0.008 C 
ATOM     23  C   UNL     1     131.356 138.915 105.925  1.00  0.00    -0.027 C 
ATOM     24  C   UNL     1     130.168 138.724 106.537  1.00  0.00    -0.065 C 
ATOM     25  C   UNL     1     128.105 139.736 107.597  1.00  0.00     0.014 C 
ATOM     26  C   UNL     1     130.127 139.095 108.983  1.00  0.00     0.016 C 
ATOM     27  C   UNL     1     129.450 137.405 106.318  1.00  0.00     0.063 C 
ATOM     28  C   UNL     1     127.438 138.355 107.509  1.00  0.00     0.033 C 
ATOM     29  C   UNL     1     127.928 137.581 106.277  1.00  0.00     0.118 C 
BRANCH  29  30
ATOM     30  O   UNL     1     127.567 138.251 105.096  1.00  0.00    -0.393 OA
ATOM     31  H   UNL     1     127.813 137.654 104.342  1.00  0.00     0.210 HD
ENDBRANCH  29  30
ENDBRANCH   1  11
TORSDOF 6
ENDMDL
MODEL 3
REMARK VINA RESULT:    -5.890      2.124      5.995
REMARK INTER + INTRA:          -9.712
REMARK INTER:                  -7.656
REMARK INTRA:                  -2.056
REMARK UNBOUND:                -1.928
REMARK SMILES CC[C@H](C=C[C@H](C)[C@@H]1CC[C@H]2[C@H]3CC=C4C[C@H](O)CC[C@]4(C)[C@H]3CC[C@@]21C)C(C)C
REMARK SMILES IDX 6 1 7 2 5 3 4 4 3 5 2 6 1 7 28 8 29 9 30 10 8 11 9 12 26 13
REMARK SMILES IDX 10 14 11 15 25 16 27 17 12 18 24 19 23 20 13 21 21 22 14 23
REMARK SMILES IDX 15 24 20 25 22 26 16 27 19 28 17 29 18 30
REMARK H PARENT 18 31
REMARK Flexibility Score: inf
ROOT
ATOM      1  C   UNL     1     128.665 145.645 108.771  1.00  0.00     0.012 C 
ATOM      2  C   UNL     1     127.163 146.004 108.761  1.00  0.00     0.012 C 
ENDROOT
BRANCH   1   3
ATOM      3  C   UNL     1     129.195 145.495 110.182  1.00  0.00    -0.028 C 
ATOM      4  C   UNL     1     130.341 146.074 110.574  1.00  0.00    -0.027 C 
BRANCH   4   5
ATOM      5  C   UNL     1     130.869 145.907 111.986  1.00  0.00     0.014 C 
BRANCH   5   6
ATOM      6  C   UNL     1     130.067 144.853 112.808  1.00  0.00     0.004 C 
ATOM      7  C   UNL     1     130.602 143.415 112.744  1.00  0.00     0.004 C 
ENDBRANCH   5   6
BRANCH   5   8
ATOM      8  C   UNL     1     132.418 145.706 111.991  1.00  0.00    -0.011 C 
ATOM      9  C   UNL     1     133.173 146.674 112.912  1.00  0.00     0.008 C 
ATOM     10  C   UNL     1     133.009 145.755 110.571  1.00  0.00     0.008 C 
ENDBRANCH   5   8
ENDBRANCH   4   5
ENDBRANCH   1   3
BRANCH   1  11
ATOM     11  C   UNL     1     129.099 144.452 107.845  1.00  0.00     0.002 C 
ATOM     12  C   UNL     1     129.359 143.155 108.664  1.00  0.00     0.005 C 
ATOM     13  C   UNL     1     130.364 144.574 106.916  1.00  0.00    -0.026 C 
ATOM     14  C   UNL     1     130.853 142.808 108.529  1.00  0.00     0.005 C 
ATOM     15  C   UNL     1     131.459 144.014 107.829  1.00  0.00    -0.001 C 
ATOM     16  C   UNL     1     130.806 145.981 106.437  1.00  0.00     0.007 C 
ATOM     17  C   UNL     1     130.077 143.682 105.665  1.00  0.00     0.012 C 
ATOM     18  C   UNL     1     132.892 143.929 107.252  1.00  0.00     0.000 C 
ATOM     19  C   UNL     1     132.205 145.955 105.771  1.00  0.00     0.005 C 
ATOM     20  C   UNL     1     133.327 145.293 106.637  1.00  0.00     0.003 C 
ATOM     21  C   UNL     1     133.215 142.778 106.293  1.00  0.00     0.031 C 
ATOM     22  C   UNL     1     134.775 145.230 105.937  1.00  0.00    -0.008 C 
ATOM     23  C   UNL     1     134.703 142.717 106.143  1.00  0.00    -0.027 C 
ATOM     24  C   UNL     1     135.444 143.843 106.072  1.00  0.00    -0.065 C 
ATOM     25  C   UNL     1     135.681 146.301 106.625  1.00  0.00     0.014 C 
ATOM     26  C   UNL     1     134.713 145.528 104.414  1.00  0.00     0.016 C 
ATOM     27  C   UNL     1     136.943 143.707 105.875  1.00  0.00     0.063 C 
ATOM     28  C   UNL     1     137.173 146.188 106.276  1.00  0.00     0.033 C 
ATOM     29  C   UNL     1     137.719 144.796 106.623  1.00  0.00     0.118 C 
BRANCH  29  30
ATOM     30  O   UNL     1     137.637 144.563 108.006  1.00  0.00    -0.393 OA
ATOM     31  H   UNL     1     137.666 143.579 108.132  1.00  0.00     0.210 HD
ENDBRANCH  29  30
ENDBRANCH   1  11
TORSDOF 6
ENDMDL
MODEL 4
REMARK VINA RESULT:    -5.675      3.623      7.452
REMARK INTER + INTRA:          -9.428
REMARK INTER:                  -7.734
REMARK INTRA:                  -1.694
REMARK UNBOUND:                -1.928
REMARK SMILES CC[C@H](C=C[C@H](C)[C@@H]1CC[C@H]2[C@H]3CC=C4C[C@H](O)CC[C@]4(C)[C@H]3CC[C@@]21C)C(C)C
REMARK SMILES IDX 6 1 7 2 5 3 4 4 3 5 2 6 1 7 28 8 29 9 30 10 8 11 9 12 26 13
REMARK SMILES IDX 10 14 11 15 25 16 27 17 12 18 24 19 23 20 13 21 21 22 14 23
REMARK SMILES IDX 15 24 20 25 22 26 16 27 19 28 17 29 18 30
REMARK H PARENT 18 31
REMARK Flexibility Score: inf
ROOT
ATOM      1  C   UNL     1     131.307 145.638 109.983  1.00  0.00     0.012 C 
ATOM      2  C   UNL     1     132.414 146.697 110.177  1.00  0.00     0.012 C 
ENDROOT
BRANCH   1   3
ATOM      3  C   UNL     1     130.254 145.724 111.067  1.00  0.00    -0.028 C 
ATOM      4  C   UNL     1     129.969 144.680 111.863  1.00  0.00    -0.027 C 
BRANCH   4   5
ATOM      5  C   UNL     1     128.903 144.774 112.938  1.00  0.00     0.014 C 
BRANCH   5   6
ATOM      6  C   UNL     1     127.480 144.424 112.407  1.00  0.00     0.004 C 
ATOM      7  C   UNL     1     127.429 143.365 111.297  1.00  0.00     0.004 C 
ENDBRANCH   5   6
BRANCH   5   8
ATOM      8  C   UNL     1     129.332 144.005 114.229  1.00  0.00    -0.011 C 
ATOM      9  C   UNL     1     129.153 144.809 115.525  1.00  0.00     0.008 C 
ATOM     10  C   UNL     1     130.771 143.473 114.130  1.00  0.00     0.008 C 
ENDBRANCH   5   8
ENDBRANCH   4   5
ENDBRANCH   1   3
BRANCH   1  11
ATOM     11  C   UNL     1     130.675 145.551 108.547  1.00  0.00     0.002 C 
ATOM     12  C   UNL     1     129.183 145.994 108.550  1.00  0.00     0.005 C 
ATOM     13  C   UNL     1     130.665 144.193 107.752  1.00  0.00    -0.026 C 
ATOM     14  C   UNL     1     128.331 144.769 108.172  1.00  0.00     0.005 C 
ATOM     15  C   UNL     1     129.314 143.609 108.176  1.00  0.00    -0.001 C 
ATOM     16  C   UNL     1     131.763 143.140 108.058  1.00  0.00     0.007 C 
ATOM     17  C   UNL     1     130.736 144.569 106.238  1.00  0.00     0.012 C 
ATOM     18  C   UNL     1     128.902 142.250 107.563  1.00  0.00     0.000 C 
ATOM     19  C   UNL     1     131.455 141.771 107.403  1.00  0.00     0.005 C 
ATOM     20  C   UNL     1     130.037 141.195 107.732  1.00  0.00     0.003 C 
ATOM     21  C   UNL     1     128.366 142.240 106.127  1.00  0.00     0.031 C 
ATOM     22  C   UNL     1     129.696 139.790 107.025  1.00  0.00    -0.008 C 
ATOM     23  C   UNL     1     127.738 140.902 105.887  1.00  0.00    -0.027 C 
ATOM     24  C   UNL     1     128.293 139.773 106.377  1.00  0.00    -0.065 C 
ATOM     25  C   UNL     1     129.764 138.679 108.122  1.00  0.00     0.014 C 
ATOM     26  C   UNL     1     130.695 139.436 105.890  1.00  0.00     0.016 C 
ATOM     27  C   UNL     1     127.627 138.447 106.057  1.00  0.00     0.063 C 
ATOM     28  C   UNL     1     129.193 137.321 107.685  1.00  0.00     0.033 C 
ATOM     29  C   UNL     1     127.736 137.456 107.221  1.00  0.00     0.118 C 
BRANCH  29  30
ATOM     30  O   UNL     1     126.918 137.887 108.279  1.00  0.00    -0.393 OA
ATOM     31  H   UNL     1     127.520 138.275 108.966  1.00  0.00     0.210 HD
ENDBRANCH  29  30
ENDBRANCH   1  11
TORSDOF 6
ENDMDL
MODEL 5
REMARK VINA RESULT:    -5.590      4.504      7.662
REMARK INTER + INTRA:          -9.315
REMARK INTER:                  -7.509
REMARK INTRA:                  -1.805
REMARK UNBOUND:                -1.928
REMARK SMILES CC[C@H](C=C[C@H](C)[C@@H]1CC[C@H]2[C@H]3CC=C4C[C@H](O)CC[C@]4(C)[C@H]3CC[C@@]21C)C(C)C
REMARK SMILES IDX 6 1 7 2 5 3 4 4 3 5 2 6 1 7 28 8 29 9 30 10 8 11 9 12 26 13
REMARK SMILES IDX 10 14 11 15 25 16 27 17 12 18 24 19 23 20 13 21 21 22 14 23
REMARK SMILES IDX 15 24 20 25 22 26 16 27 19 28 17 29 18 30
REMARK H PARENT 18 31
REMARK Flexibility Score: inf
ROOT
ATOM      1  C   UNL     1     130.499 144.581 109.183  1.00  0.00     0.012 C 
ATOM      2  C   UNL     1     131.008 145.853 109.895  1.00  0.00     0.012 C 
ENDROOT
BRANCH   1   3
ATOM      3  C   UNL     1     129.435 144.902 108.155  1.00  0.00    -0.028 C 
ATOM      4  C   UNL     1     128.303 144.186 108.060  1.00  0.00    -0.027 C 
BRANCH   4   5
ATOM      5  C   UNL     1     127.249 144.509 107.018  1.00  0.00     0.014 C 
BRANCH   5   6
ATOM      6  C   UNL     1     127.393 145.950 106.442  1.00  0.00     0.004 C 
ATOM      7  C   UNL     1     126.875 146.147 105.010  1.00  0.00     0.004 C 
ENDBRANCH   5   6
BRANCH   5   8
ATOM      8  C   UNL     1     127.148 143.378 105.945  1.00  0.00    -0.011 C 
ATOM      9  C   UNL     1     126.920 141.977 106.531  1.00  0.00     0.008 C 
ATOM     10  C   UNL     1     128.364 143.368 105.004  1.00  0.00     0.008 C 
ENDBRANCH   5   8
ENDBRANCH   4   5
ENDBRANCH   1   3
BRANCH   1  11
ATOM     11  C   UNL     1     131.602 143.617 108.612  1.00  0.00     0.002 C 
ATOM     12  C   UNL     1     132.025 144.020 107.170  1.00  0.00     0.005 C 
ATOM     13  C   UNL     1     131.345 142.068 108.514  1.00  0.00    -0.026 C 
ATOM     14  C   UNL     1     131.615 142.875 106.226  1.00  0.00     0.005 C 
ATOM     15  C   UNL     1     130.778 141.950 107.096  1.00  0.00    -0.001 C 
ATOM     16  C   UNL     1     130.336 141.415 109.493  1.00  0.00     0.007 C 
ATOM     17  C   UNL     1     132.736 141.380 108.690  1.00  0.00     0.012 C 
ATOM     18  C   UNL     1     130.419 140.534 106.588  1.00  0.00     0.000 C 
ATOM     19  C   UNL     1     129.992 139.959 109.090  1.00  0.00     0.005 C 
ATOM     20  C   UNL     1     129.510 139.789 107.612  1.00  0.00     0.003 C 
ATOM     21  C   UNL     1     131.562 139.625 106.122  1.00  0.00     0.031 C 
ATOM     22  C   UNL     1     129.187 138.274 107.174  1.00  0.00    -0.008 C 
ATOM     23  C   UNL     1     130.952 138.473 105.384  1.00  0.00    -0.027 C 
ATOM     24  C   UNL     1     129.805 137.902 105.808  1.00  0.00    -0.065 C 
ATOM     25  C   UNL     1     127.634 138.126 107.088  1.00  0.00     0.014 C 
ATOM     26  C   UNL     1     129.734 137.232 108.189  1.00  0.00     0.016 C 
ATOM     27  C   UNL     1     129.268 136.709 105.037  1.00  0.00     0.063 C 
ATOM     28  C   UNL     1     127.157 136.830 106.415  1.00  0.00     0.033 C 
ATOM     29  C   UNL     1     127.736 136.696 104.999  1.00  0.00     0.118 C 
BRANCH  29  30
ATOM     30  O   UNL     1     127.280 137.739 104.176  1.00  0.00    -0.393 OA
ATOM     31  H   UNL     1     126.347 137.934 104.454  1.00  0.00     0.210 HD
ENDBRANCH  29  30
ENDBRANCH   1  11
TORSDOF 6
ENDMDL
MODEL 6
REMARK VINA RESULT:    -5.548      2.044      4.751
REMARK INTER + INTRA:          -9.260
REMARK INTER:                  -7.291
REMARK INTRA:                  -1.969
REMARK UNBOUND:                -1.928
REMARK SMILES CC[C@H](C=C[C@H](C)[C@@H]1CC[C@H]2[C@H]3CC=C4C[C@H](O)CC[C@]4(C)[C@H]3CC[C@@]21C)C(C)C
REMARK SMILES IDX 6 1 7 2 5 3 4 4 3 5 2 6 1 7 28 8 29 9 30 10 8 11 9 12 26 13
REMARK SMILES IDX 10 14 11 15 25 16 27 17 12 18 24 19 23 20 13 21 21 22 14 23
REMARK SMILES IDX 15 24 20 25 22 26 16 27 19 28 17 29 18 30
REMARK H PARENT 18 31
REMARK Flexibility Score: inf
ROOT
ATOM      1  C   UNL     1     131.481 146.087 107.232  1.00  0.00     0.012 C 
ATOM      2  C   UNL     1     132.112 146.804 106.019  1.00  0.00     0.012 C 
ENDROOT
BRANCH   1   3
ATOM      3  C   UNL     1     130.170 145.422 106.870  1.00  0.00    -0.028 C 
ATOM      4  C   UNL     1     129.065 145.578 107.617  1.00  0.00    -0.027 C 
BRANCH   4   5
ATOM      5  C   UNL     1     127.760 144.898 107.252  1.00  0.00     0.014 C 
BRANCH   5   6
ATOM      6  C   UNL     1     127.631 144.624 105.723  1.00  0.00     0.004 C 
ATOM      7  C   UNL     1     126.896 145.704 104.916  1.00  0.00     0.004 C 
ENDBRANCH   5   6
BRANCH   5   8
ATOM      8  C   UNL     1     127.492 143.660 108.167  1.00  0.00    -0.011 C 
ATOM      9  C   UNL     1     127.909 143.862 109.631  1.00  0.00     0.008 C 
ATOM     10  C   UNL     1     128.132 142.379 107.605  1.00  0.00     0.008 C 
ENDBRANCH   5   8
ENDBRANCH   4   5
ENDBRANCH   1   3
BRANCH   1  11
ATOM     11  C   UNL     1     132.429 145.128 108.040  1.00  0.00     0.002 C 
ATOM     12  C   UNL     1     131.981 143.642 107.919  1.00  0.00     0.005 C 
ATOM     13  C   UNL     1     132.652 145.331 109.585  1.00  0.00    -0.026 C 
ATOM     14  C   UNL     1     131.557 143.166 109.320  1.00  0.00     0.005 C 
ATOM     15  C   UNL     1     131.559 144.430 110.165  1.00  0.00    -0.001 C 
ATOM     16  C   UNL     1     132.477 146.751 110.184  1.00  0.00     0.007 C 
ATOM     17  C   UNL     1     134.101 144.831 109.888  1.00  0.00     0.012 C 
ATOM     18  C   UNL     1     131.466 144.325 111.706  1.00  0.00     0.000 C 
ATOM     19  C   UNL     1     132.459 146.730 111.733  1.00  0.00     0.005 C 
ATOM     20  C   UNL     1     131.423 145.739 112.359  1.00  0.00     0.003 C 
ATOM     21  C   UNL     1     132.478 143.428 112.429  1.00  0.00     0.031 C 
ATOM     22  C   UNL     1     131.423 145.685 113.968  1.00  0.00    -0.008 C 
ATOM     23  C   UNL     1     131.988 143.230 113.830  1.00  0.00    -0.027 C 
ATOM     24  C   UNL     1     131.414 144.241 114.517  1.00  0.00    -0.065 C 
ATOM     25  C   UNL     1     130.143 146.428 114.468  1.00  0.00     0.014 C 
ATOM     26  C   UNL     1     132.674 146.369 114.586  1.00  0.00     0.016 C 
ATOM     27  C   UNL     1     130.982 143.981 115.949  1.00  0.00     0.063 C 
ATOM     28  C   UNL     1     129.838 146.231 115.961  1.00  0.00     0.033 C 
ATOM     29  C   UNL     1     129.700 144.741 116.306  1.00  0.00     0.118 C 
BRANCH  29  30
ATOM     30  O   UNL     1     128.613 144.174 115.620  1.00  0.00    -0.393 OA
ATOM     31  H   UNL     1     127.816 144.294 116.199  1.00  0.00     0.210 HD
ENDBRANCH  29  30
ENDBRANCH   1  11
TORSDOF 6
ENDMDL
MODEL 7
REMARK VINA RESULT:    -5.541      2.465      4.812
REMARK INTER + INTRA:          -9.251
REMARK INTER:                  -7.278
REMARK INTRA:                  -1.973
REMARK UNBOUND:                -1.928
REMARK SMILES CC[C@H](C=C[C@H](C)[C@@H]1CC[C@H]2[C@H]3CC=C4C[C@H](O)CC[C@]4(C)[C@H]3CC[C@@]21C)C(C)C
REMARK SMILES IDX 6 1 7 2 5 3 4 4 3 5 2 6 1 7 28 8 29 9 30 10 8 11 9 12 26 13
REMARK SMILES IDX 10 14 11 15 25 16 27 17 12 18 24 19 23 20 13 21 21 22 14 23
REMARK SMILES IDX 15 24 20 25 22 26 16 27 19 28 17 29 18 30
REMARK H PARENT 18 31
REMARK Flexibility Score: inf
ROOT
ATOM      1  C   UNL     1     128.243 143.940 105.835  1.00  0.00     0.012 C 
ATOM      2  C   UNL     1     127.614 144.438 104.516  1.00  0.00     0.012 C 
ENDROOT
BRANCH   1   3
ATOM      3  C   UNL     1     128.135 142.436 105.974  1.00  0.00    -0.028 C 
ATOM      4  C   UNL     1     127.751 141.855 107.123  1.00  0.00    -0.027 C 
BRANCH   4   5
ATOM      5  C   UNL     1     127.659 140.347 107.254  1.00  0.00     0.014 C 
BRANCH   5   6
ATOM      6  C   UNL     1     127.671 139.620 105.875  1.00  0.00     0.004 C 
ATOM      7  C   UNL     1     127.644 138.087 105.934  1.00  0.00     0.004 C 
ENDBRANCH   5   6
BRANCH   5   8
ATOM      8  C   UNL     1     128.693 139.806 108.293  1.00  0.00    -0.011 C 
ATOM      9  C   UNL     1     128.777 140.634 109.583  1.00  0.00     0.008 C 
ATOM     10  C   UNL     1     130.093 139.638 107.678  1.00  0.00     0.008 C 
ENDBRANCH   5   8
ENDBRANCH   4   5
ENDBRANCH   1   3
BRANCH   1  11
ATOM     11  C   UNL     1     129.690 144.463 106.154  1.00  0.00     0.002 C 
ATOM     12  C   UNL     1     130.772 143.394 105.824  1.00  0.00     0.005 C 
ATOM     13  C   UNL     1     130.069 144.950 107.602  1.00  0.00    -0.026 C 
ATOM     14  C   UNL     1     131.448 142.988 107.146  1.00  0.00     0.005 C 
ATOM     15  C   UNL     1     130.605 143.656 108.221  1.00  0.00    -0.001 C 
ATOM     16  C   UNL     1     128.948 145.498 108.523  1.00  0.00     0.007 C 
ATOM     17  C   UNL     1     131.158 146.055 107.422  1.00  0.00     0.012 C 
ATOM     18  C   UNL     1     131.129 143.726 109.675  1.00  0.00     0.000 C 
ATOM     19  C   UNL     1     129.429 145.672 109.985  1.00  0.00     0.005 C 
ATOM     20  C   UNL     1     130.079 144.396 110.613  1.00  0.00     0.003 C 
ATOM     21  C   UNL     1     132.521 144.322 109.911  1.00  0.00     0.031 C 
ATOM     22  C   UNL     1     130.616 144.580 112.120  1.00  0.00    -0.008 C 
ATOM     23  C   UNL     1     132.929 143.981 111.311  1.00  0.00    -0.027 C 
ATOM     24  C   UNL     1     132.035 144.005 112.323  1.00  0.00    -0.065 C 
ATOM     25  C   UNL     1     129.624 143.835 113.071  1.00  0.00     0.014 C 
ATOM     26  C   UNL     1     130.693 146.072 112.546  1.00  0.00     0.016 C 
ATOM     27  C   UNL     1     132.528 143.692 113.724  1.00  0.00     0.063 C 
ATOM     28  C   UNL     1     130.130 143.670 114.511  1.00  0.00     0.033 C 
ATOM     29  C   UNL     1     131.478 142.934 114.544  1.00  0.00     0.118 C 
BRANCH  29  30
ATOM     30  O   UNL     1     131.342 141.630 114.039  1.00  0.00    -0.393 OA
ATOM     31  H   UNL     1     130.602 141.204 114.545  1.00  0.00     0.210 HD
ENDBRANCH  29  30
ENDBRANCH   1  11
TORSDOF 6
ENDMDL
MODEL 8
REMARK VINA RESULT:    -5.535      1.750      2.669
REMARK INTER + INTRA:          -9.242
REMARK INTER:                  -7.048
REMARK INTRA:                  -2.194
REMARK UNBOUND:                -1.928
REMARK SMILES CC[C@H](C=C[C@H](C)[C@@H]1CC[C@H]2[C@H]3CC=C4C[C@H](O)CC[C@]4(C)[C@H]3CC[C@@]21C)C(C)C
REMARK SMILES IDX 6 1 7 2 5 3 4 4 3 5 2 6 1 7 28 8 29 9 30 10 8 11 9 12 26 13
REMARK SMILES IDX 10 14 11 15 25 16 27 17 12 18 24 19 23 20 13 21 21 22 14 23
REMARK SMILES IDX 15 24 20 25 22 26 16 27 19 28 17 29 18 30
REMARK H PARENT 18 31
REMARK Flexibility Score: inf
ROOT
ATOM      1  C   UNL     1     128.010 142.526 106.778  1.00  0.00     0.012 C 
ATOM      2  C   UNL     1     126.879 141.980 105.879  1.00  0.00     0.012 C 
ENDROOT
BRANCH   1   3
ATOM      3  C   UNL     1     129.368 142.363 106.130  1.00  0.00    -0.028 C 
ATOM      4  C   UNL     1     130.431 141.909 106.815  1.00  0.00    -0.027 C 
BRANCH   4   5
ATOM      5  C   UNL     1     131.790 141.761 106.159  1.00  0.00     0.014 C 
BRANCH   5   6
ATOM      6  C   UNL     1     132.077 142.875 105.108  1.00  0.00     0.004 C 
ATOM      7  C   UNL     1     132.584 144.208 105.676  1.00  0.00     0.004 C 
ENDBRANCH   5   6
BRANCH   5   8
ATOM      8  C   UNL     1     132.914 141.556 107.225  1.00  0.00    -0.011 C 
ATOM      9  C   UNL     1     133.438 140.116 107.316  1.00  0.00     0.008 C 
ATOM     10  C   UNL     1     132.484 142.052 108.616  1.00  0.00     0.008 C 
ENDBRANCH   5   8
ENDBRANCH   4   5
ENDBRANCH   1   3
BRANCH   1  11
ATOM     11  C   UNL     1     127.799 143.973 107.355  1.00  0.00     0.002 C 
ATOM     12  C   UNL     1     128.485 145.051 106.466  1.00  0.00     0.005 C 
ATOM     13  C   UNL     1     128.265 144.333 108.814  1.00  0.00    -0.026 C 
ATOM     14  C   UNL     1     129.603 145.702 107.300  1.00  0.00     0.005 C 
ATOM     15  C   UNL     1     129.684 144.848 108.556  1.00  0.00    -0.001 C 
ATOM     16  C   UNL     1     128.348 143.202 109.872  1.00  0.00     0.007 C 
ATOM     17  C   UNL     1     127.284 145.434 109.329  1.00  0.00     0.012 C 
ATOM     18  C   UNL     1     130.493 145.349 109.775  1.00  0.00     0.000 C 
ATOM     19  C   UNL     1     129.077 143.661 111.160  1.00  0.00     0.005 C 
ATOM     20  C   UNL     1     130.489 144.291 110.920  1.00  0.00     0.003 C 
ATOM     21  C   UNL     1     130.174 146.742 110.329  1.00  0.00     0.031 C 
ATOM     22  C   UNL     1     131.237 144.805 112.249  1.00  0.00    -0.008 C 
ATOM     23  C   UNL     1     131.281 147.125 111.261  1.00  0.00    -0.027 C 
ATOM     24  C   UNL     1     131.844 146.216 112.085  1.00  0.00    -0.065 C 
ATOM     25  C   UNL     1     132.383 143.791 112.570  1.00  0.00     0.014 C 
ATOM     26  C   UNL     1     130.284 144.888 113.473  1.00  0.00     0.016 C 
ATOM     27  C   UNL     1     132.931 146.684 113.036  1.00  0.00     0.063 C 
ATOM     28  C   UNL     1     133.374 144.274 113.639  1.00  0.00     0.033 C 
ATOM     29  C   UNL     1     134.009 145.614 113.243  1.00  0.00     0.118 C 
BRANCH  29  30
ATOM     30  O   UNL     1     134.762 145.475 112.065  1.00  0.00    -0.393 OA
ATOM     31  H   UNL     1     134.588 146.284 111.517  1.00  0.00     0.210 HD
ENDBRANCH  29  30
ENDBRANCH   1  11
TORSDOF 6
ENDMDL
