MODEL 1
REMARK VINA RESULT:    -3.193      0.000      0.000
REMARK INTER + INTRA:         -13.519
REMARK INTER:                  -8.045
REMARK INTRA:                  -5.474
REMARK UNBOUND:                -5.474
REMARK SMILES CCCCCCCCCCCCCCCCCCCCCCCCCCCC(=O)[O-]
REMARK SMILES IDX 15 1 16 2 17 3 18 4 19 5 20 6 21 7 22 8 23 9 24 10 25 11
REMARK SMILES IDX 26 12 27 13 28 14 29 15 30 16 14 17 13 18 12 19 11 20 10 21
REMARK SMILES IDX 9 22 8 23 7 24 6 25 5 26 4 27 3 28 2 29 1 30
REMARK H PARENT
REMARK Flexibility Score: inf
ROOT
ATOM      1  C   UNL     1       4.099 110.195 181.695  1.00  0.00     0.000 C 
ENDROOT
BRANCH   1   2
ATOM      2  C   UNL     1       3.123 109.622 182.737  1.00  0.00     0.000 C 
BRANCH   2   3
ATOM      3  C   UNL     1       2.062 108.699 182.113  1.00  0.00     0.000 C 
BRANCH   3   4
ATOM      4  C   UNL     1       2.398 108.305 180.666  1.00  0.00     0.000 C 
BRANCH   4   5
ATOM      5  C   UNL     1       1.180 107.753 179.904  1.00  0.00     0.000 C 
BRANCH   5   6
ATOM      6  C   UNL     1       1.501 106.460 179.136  1.00  0.00     0.000 C 
BRANCH   6   7
ATOM      7  C   UNL     1       2.511 105.567 179.873  1.00  0.00     0.000 C 
BRANCH   7   8
ATOM      8  C   UNL     1       3.232 104.628 178.894  1.00  0.00     0.000 C 
BRANCH   8   9
ATOM      9  C   UNL     1       3.200 105.144 177.446  1.00  0.00     0.000 C 
BRANCH   9  10
ATOM     10  C   UNL     1       4.434 104.708 176.638  1.00  0.00     0.000 C 
BRANCH  10  11
ATOM     11  C   UNL     1       4.956 103.325 177.057  1.00  0.00     0.000 C 
BRANCH  11  12
ATOM     12  C   UNL     1       6.481 103.190 176.900  1.00  0.00     0.006 C 
BRANCH  12  13
ATOM     13  C   UNL     1       6.881 101.858 176.252  1.00  0.00     0.053 C 
BRANCH  13  14
ATOM     14  C   UNL     1       7.444 102.057 174.877  1.00  0.00     0.041 C 
ATOM     15  O   UNL     1       7.146 103.086 174.213  1.00  0.00    -0.550 OA
ATOM     16  O   UNL     1       8.328 101.126 174.346  1.00  0.00    -0.550 OA
ENDBRANCH  13  14
ENDBRANCH  12  13
ENDBRANCH  11  12
ENDBRANCH  10  11
ENDBRANCH   9  10
ENDBRANCH   8   9
ENDBRANCH   7   8
ENDBRANCH   6   7
ENDBRANCH   5   6
ENDBRANCH   4   5
ENDBRANCH   3   4
ENDBRANCH   2   3
ENDBRANCH   1   2
BRANCH   1  17
ATOM     17  C   UNL     1       5.497 110.555 182.236  1.00  0.00     0.000 C 
BRANCH  17  18
ATOM     18  C   UNL     1       5.568 110.647 183.775  1.00  0.00     0.000 C 
BRANCH  18  19
ATOM     19  C   UNL     1       6.369 109.487 184.394  1.00  0.00     0.000 C 
BRANCH  19  20
ATOM     20  C   UNL     1       7.234 108.750 183.358  1.00  0.00     0.000 C 
BRANCH  20  21
ATOM     21  C   UNL     1       7.183 107.225 183.532  1.00  0.00     0.000 C 
BRANCH  21  22
ATOM     22  C   UNL     1       5.747 106.699 183.375  1.00  0.00    -0.000 C 
BRANCH  22  23
ATOM     23  C   UNL     1       5.306 106.595 181.904  1.00  0.00    -0.000 C 
BRANCH  23  24
ATOM     24  C   UNL     1       6.315 105.902 180.963  1.00  0.00    -0.000 C 
BRANCH  24  25
ATOM     25  C   UNL     1       6.336 106.443 179.522  1.00  0.00    -0.000 C 
BRANCH  25  26
ATOM     26  C   UNL     1       5.872 107.904 179.377  1.00  0.00    -0.000 C 
BRANCH  26  27
ATOM     27  C   UNL     1       5.500 108.293 177.929  1.00  0.00    -0.000 C 
BRANCH  27  28
ATOM     28  C   UNL     1       4.133 108.995 177.844  1.00  0.00    -0.000 C 
BRANCH  28  29
ATOM     29  C   UNL     1       3.408 108.718 176.519  1.00  0.00    -0.003 C 
ATOM     30  C   UNL     1       1.955 109.190 176.530  1.00  0.00     0.004 C 
ENDBRANCH  28  29
ENDBRANCH  27  28
ENDBRANCH  26  27
ENDBRANCH  25  26
ENDBRANCH  24  25
ENDBRANCH  23  24
ENDBRANCH  22  23
ENDBRANCH  21  22
ENDBRANCH  20  21
ENDBRANCH  19  20
ENDBRANCH  18  19
ENDBRANCH  17  18
ENDBRANCH   1  17
TORSDOF 26
ENDMDL
MODEL 2
REMARK VINA RESULT:    -3.186      1.133      4.195
REMARK INTER + INTRA:         -13.503
REMARK INTER:                  -7.817
REMARK INTRA:                  -5.687
REMARK UNBOUND:                -5.474
REMARK SMILES CCCCCCCCCCCCCCCCCCCCCCCCCCCC(=O)[O-]
REMARK SMILES IDX 15 1 16 2 17 3 18 4 19 5 20 6 21 7 22 8 23 9 24 10 25 11
REMARK SMILES IDX 26 12 27 13 28 14 29 15 30 16 14 17 13 18 12 19 11 20 10 21
REMARK SMILES IDX 9 22 8 23 7 24 6 25 5 26 4 27 3 28 2 29 1 30
REMARK H PARENT
REMARK Flexibility Score: inf
ROOT
ATOM      1  C   UNL     1       6.012 107.862 178.914  1.00  0.00     0.000 C 
ENDROOT
BRANCH   1   2
ATOM      2  C   UNL     1       4.838 107.957 177.924  1.00  0.00     0.000 C 
BRANCH   2   3
ATOM      3  C   UNL     1       3.632 108.717 178.503  1.00  0.00     0.000 C 
BRANCH   3   4
ATOM      4  C   UNL     1       2.421 108.712 177.558  1.00  0.00     0.000 C 
BRANCH   4   5
ATOM      5  C   UNL     1       1.086 108.550 178.306  1.00  0.00     0.000 C 
BRANCH   5   6
ATOM      6  C   UNL     1       1.168 107.518 179.444  1.00  0.00     0.000 C 
BRANCH   6   7
ATOM      7  C   UNL     1       1.234 106.072 178.930  1.00  0.00     0.000 C 
BRANCH   7   8
ATOM      8  C   UNL     1       2.290 105.263 179.699  1.00  0.00     0.000 C 
BRANCH   8   9
ATOM      9  C   UNL     1       3.324 104.605 178.770  1.00  0.00     0.000 C 
BRANCH   9  10
ATOM     10  C   UNL     1       3.036 104.873 177.284  1.00  0.00     0.000 C 
BRANCH  10  11
ATOM     11  C   UNL     1       4.200 104.454 176.372  1.00  0.00     0.000 C 
BRANCH  11  12
ATOM     12  C   UNL     1       5.089 103.367 177.003  1.00  0.00     0.006 C 
BRANCH  12  13
ATOM     13  C   UNL     1       6.555 103.493 176.568  1.00  0.00     0.053 C 
BRANCH  13  14
ATOM     14  C   UNL     1       7.207 102.152 176.420  1.00  0.00     0.041 C 
ATOM     15  O   UNL     1       7.096 101.508 175.342  1.00  0.00    -0.550 OA
ATOM     16  O   UNL     1       7.969 101.630 177.458  1.00  0.00    -0.550 OA
ENDBRANCH  13  14
ENDBRANCH  12  13
ENDBRANCH  11  12
ENDBRANCH  10  11
ENDBRANCH   9  10
ENDBRANCH   8   9
ENDBRANCH   7   8
ENDBRANCH   6   7
ENDBRANCH   5   6
ENDBRANCH   4   5
ENDBRANCH   3   4
ENDBRANCH   2   3
ENDBRANCH   1   2
BRANCH   1  17
ATOM     17  C   UNL     1       6.698 106.484 178.986  1.00  0.00     0.000 C 
BRANCH  17  18
ATOM     18  C   UNL     1       6.691 105.853 180.394  1.00  0.00     0.000 C 
BRANCH  18  19
ATOM     19  C   UNL     1       5.438 106.237 181.202  1.00  0.00     0.000 C 
BRANCH  19  20
ATOM     20  C   UNL     1       5.776 106.697 182.630  1.00  0.00     0.000 C 
BRANCH  20  21
ATOM     21  C   UNL     1       4.693 107.610 183.223  1.00  0.00     0.000 C 
BRANCH  21  22
ATOM     22  C   UNL     1       3.609 107.929 182.181  1.00  0.00    -0.000 C 
BRANCH  22  23
ATOM     23  C   UNL     1       2.745 109.142 182.569  1.00  0.00    -0.000 C 
BRANCH  23  24
ATOM     24  C   UNL     1       3.506 110.480 182.686  1.00  0.00    -0.000 C 
BRANCH  24  25
ATOM     25  C   UNL     1       4.337 110.866 181.449  1.00  0.00    -0.000 C 
BRANCH  25  26
ATOM     26  C   UNL     1       5.804 111.228 181.748  1.00  0.00    -0.000 C 
BRANCH  26  27
ATOM     27  C   UNL     1       6.798 110.089 181.431  1.00  0.00    -0.000 C 
BRANCH  27  28
ATOM     28  C   UNL     1       7.784 109.834 182.585  1.00  0.00    -0.000 C 
BRANCH  28  29
ATOM     29  C   UNL     1       7.471 110.682 183.827  1.00  0.00    -0.003 C 
ATOM     30  C   UNL     1       6.898 109.856 184.978  1.00  0.00     0.004 C 
ENDBRANCH  28  29
ENDBRANCH  27  28
ENDBRANCH  26  27
ENDBRANCH  25  26
ENDBRANCH  24  25
ENDBRANCH  23  24
ENDBRANCH  22  23
ENDBRANCH  21  22
ENDBRANCH  20  21
ENDBRANCH  19  20
ENDBRANCH  18  19
ENDBRANCH  17  18
ENDBRANCH   1  17
TORSDOF 26
ENDMDL
MODEL 3
REMARK VINA RESULT:    -3.161      1.523      2.026
REMARK INTER + INTRA:         -13.438
REMARK INTER:                  -8.191
REMARK INTRA:                  -5.247
REMARK UNBOUND:                -5.474
REMARK SMILES CCCCCCCCCCCCCCCCCCCCCCCCCCCC(=O)[O-]
REMARK SMILES IDX 15 1 16 2 17 3 18 4 19 5 20 6 21 7 22 8 23 9 24 10 25 11
REMARK SMILES IDX 26 12 27 13 28 14 29 15 30 16 14 17 13 18 12 19 11 20 10 21
REMARK SMILES IDX 9 22 8 23 7 24 6 25 5 26 4 27 3 28 2 29 1 30
REMARK H PARENT
REMARK Flexibility Score: inf
ROOT
ATOM      1  C   UNL     1       3.423 110.933 182.797  1.00  0.00     0.000 C 
ENDROOT
BRANCH   1   2
ATOM      2  C   UNL     1       2.441 109.818 183.196  1.00  0.00     0.000 C 
BRANCH   2   3
ATOM      3  C   UNL     1       2.401 108.667 182.176  1.00  0.00     0.000 C 
BRANCH   3   4
ATOM      4  C   UNL     1       3.307 108.923 180.961  1.00  0.00     0.000 C 
BRANCH   4   5
ATOM      5  C   UNL     1       2.684 108.429 179.643  1.00  0.00     0.000 C 
BRANCH   5   6
ATOM      6  C   UNL     1       1.366 107.667 179.862  1.00  0.00     0.000 C 
BRANCH   6   7
ATOM      7  C   UNL     1       1.380 106.265 179.233  1.00  0.00     0.000 C 
BRANCH   7   8
ATOM      8  C   UNL     1       2.518 105.413 179.815  1.00  0.00     0.000 C 
BRANCH   8   9
ATOM      9  C   UNL     1       3.331 104.689 178.729  1.00  0.00     0.000 C 
BRANCH   9  10
ATOM     10  C   UNL     1       3.027 105.215 177.316  1.00  0.00     0.000 C 
BRANCH  10  11
ATOM     11  C   UNL     1       4.290 105.347 176.451  1.00  0.00     0.000 C 
BRANCH  11  12
ATOM     12  C   UNL     1       5.258 104.163 176.626  1.00  0.00     0.006 C 
BRANCH  12  13
ATOM     13  C   UNL     1       5.152 103.153 175.474  1.00  0.00     0.053 C 
BRANCH  13  14
ATOM     14  C   UNL     1       5.674 101.805 175.869  1.00  0.00     0.041 C 
ATOM     15  O   UNL     1       6.388 101.678 176.900  1.00  0.00    -0.550 OA
ATOM     16  O   UNL     1       5.341 100.684 175.120  1.00  0.00    -0.550 OA
ENDBRANCH  13  14
ENDBRANCH  12  13
ENDBRANCH  11  12
ENDBRANCH  10  11
ENDBRANCH   9  10
ENDBRANCH   8   9
ENDBRANCH   7   8
ENDBRANCH   6   7
ENDBRANCH   5   6
ENDBRANCH   4   5
ENDBRANCH   3   4
ENDBRANCH   2   3
ENDBRANCH   1   2
BRANCH   1  17
ATOM     17  C   UNL     1       4.077 111.682 183.975  1.00  0.00     0.000 C 
BRANCH  17  18
ATOM     18  C   UNL     1       5.611 111.525 184.043  1.00  0.00     0.000 C 
BRANCH  18  19
ATOM     19  C   UNL     1       6.180 110.795 182.813  1.00  0.00     0.000 C 
BRANCH  19  20
ATOM     20  C   UNL     1       7.134 109.652 183.197  1.00  0.00     0.000 C 
BRANCH  20  21
ATOM     21  C   UNL     1       6.565 108.764 184.313  1.00  0.00     0.000 C 
BRANCH  21  22
ATOM     22  C   UNL     1       5.497 107.804 183.765  1.00  0.00    -0.000 C 
BRANCH  22  23
ATOM     23  C   UNL     1       6.099 106.533 183.140  1.00  0.00    -0.000 C 
BRANCH  23  24
ATOM     24  C   UNL     1       5.696 106.267 181.674  1.00  0.00    -0.000 C 
BRANCH  24  25
ATOM     25  C   UNL     1       6.664 106.834 180.620  1.00  0.00    -0.000 C 
BRANCH  25  26
ATOM     26  C   UNL     1       6.036 107.078 179.235  1.00  0.00    -0.000 C 
BRANCH  26  27
ATOM     27  C   UNL     1       6.628 108.297 178.495  1.00  0.00    -0.000 C 
BRANCH  27  28
ATOM     28  C   UNL     1       6.445 109.606 179.284  1.00  0.00    -0.000 C 
BRANCH  28  29
ATOM     29  C   UNL     1       5.627 110.652 178.512  1.00  0.00    -0.003 C 
ATOM     30  C   UNL     1       5.058 111.743 179.418  1.00  0.00     0.004 C 
ENDBRANCH  28  29
ENDBRANCH  27  28
ENDBRANCH  26  27
ENDBRANCH  25  26
ENDBRANCH  24  25
ENDBRANCH  23  24
ENDBRANCH  22  23
ENDBRANCH  21  22
ENDBRANCH  20  21
ENDBRANCH  19  20
ENDBRANCH  18  19
ENDBRANCH  17  18
ENDBRANCH   1  17
TORSDOF 26
ENDMDL
MODEL 4
REMARK VINA RESULT:    -3.145      2.203      4.469
REMARK INTER + INTRA:         -13.400
REMARK INTER:                  -9.702
REMARK INTRA:                  -3.697
REMARK UNBOUND:                -5.474
REMARK SMILES CCCCCCCCCCCCCCCCCCCCCCCCCCCC(=O)[O-]
REMARK SMILES IDX 15 1 16 2 17 3 18 4 19 5 20 6 21 7 22 8 23 9 24 10 25 11
REMARK SMILES IDX 26 12 27 13 28 14 29 15 30 16 14 17 13 18 12 19 11 20 10 21
REMARK SMILES IDX 9 22 8 23 7 24 6 25 5 26 4 27 3 28 2 29 1 30
REMARK H PARENT
REMARK Flexibility Score: inf
ROOT
ATOM      1  C   UNL     1       2.538 108.729 181.423  1.00  0.00     0.000 C 
ENDROOT
BRANCH   1   2
ATOM      2  C   UNL     1       3.227 108.729 180.048  1.00  0.00     0.000 C 
BRANCH   2   3
ATOM      3  C   UNL     1       2.251 108.447 178.893  1.00  0.00     0.000 C 
BRANCH   3   4
ATOM      4  C   UNL     1       0.857 108.029 179.387  1.00  0.00     0.000 C 
BRANCH   4   5
ATOM      5  C   UNL     1       0.485 106.595 178.970  1.00  0.00     0.000 C 
BRANCH   5   6
ATOM      6  C   UNL     1       1.162 106.168 177.656  1.00  0.00     0.000 C 
BRANCH   6   7
ATOM      7  C   UNL     1       1.817 104.782 177.750  1.00  0.00     0.000 C 
BRANCH   7   8
ATOM      8  C   UNL     1       2.816 104.724 178.916  1.00  0.00     0.000 C 
BRANCH   8   9
ATOM      9  C   UNL     1       4.179 105.340 178.560  1.00  0.00     0.000 C 
BRANCH   9  10
ATOM     10  C   UNL     1       4.744 104.797 177.237  1.00  0.00     0.000 C 
BRANCH  10  11
ATOM     11  C   UNL     1       5.246 103.350 177.360  1.00  0.00     0.000 C 
BRANCH  11  12
ATOM     12  C   UNL     1       5.991 102.870 176.102  1.00  0.00     0.006 C 
BRANCH  12  13
ATOM     13  C   UNL     1       5.335 103.377 174.810  1.00  0.00     0.053 C 
BRANCH  13  14
ATOM     14  C   UNL     1       4.873 102.246 173.942  1.00  0.00     0.041 C 
ATOM     15  O   UNL     1       4.755 101.086 174.420  1.00  0.00    -0.550 OA
ATOM     16  O   UNL     1       4.536 102.481 172.615  1.00  0.00    -0.550 OA
ENDBRANCH  13  14
ENDBRANCH  12  13
ENDBRANCH  11  12
ENDBRANCH  10  11
ENDBRANCH   9  10
ENDBRANCH   8   9
ENDBRANCH   7   8
ENDBRANCH   6   7
ENDBRANCH   5   6
ENDBRANCH   4   5
ENDBRANCH   3   4
ENDBRANCH   2   3
ENDBRANCH   1   2
BRANCH   1  17
ATOM     17  C   UNL     1       3.249 107.902 182.512  1.00  0.00     0.000 C 
BRANCH  17  18
ATOM     18  C   UNL     1       3.928 106.621 181.982  1.00  0.00     0.000 C 
BRANCH  18  19
ATOM     19  C   UNL     1       5.458 106.658 182.149  1.00  0.00     0.000 C 
BRANCH  19  20
ATOM     20  C   UNL     1       5.887 107.145 183.544  1.00  0.00     0.000 C 
BRANCH  20  21
ATOM     21  C   UNL     1       6.777 108.395 183.479  1.00  0.00     0.000 C 
BRANCH  21  22
ATOM     22  C   UNL     1       6.478 109.346 184.649  1.00  0.00    -0.000 C 
BRANCH  22  23
ATOM     23  C   UNL     1       6.151 110.777 184.188  1.00  0.00    -0.000 C 
BRANCH  23  24
ATOM     24  C   UNL     1       5.654 110.901 182.732  1.00  0.00    -0.000 C 
BRANCH  24  25
ATOM     25  C   UNL     1       4.264 111.543 182.572  1.00  0.00    -0.000 C 
BRANCH  25  26
ATOM     26  C   UNL     1       3.449 111.643 183.875  1.00  0.00    -0.000 C 
BRANCH  26  27
ATOM     27  C   UNL     1       3.278 113.091 184.386  1.00  0.00    -0.000 C 
BRANCH  27  28
ATOM     28  C   UNL     1       4.391 114.025 183.879  1.00  0.00    -0.000 C 
BRANCH  28  29
ATOM     29  C   UNL     1       3.980 115.505 183.913  1.00  0.00    -0.003 C 
ATOM     30  C   UNL     1       2.786 115.808 183.009  1.00  0.00     0.004 C 
ENDBRANCH  28  29
ENDBRANCH  27  28
ENDBRANCH  26  27
ENDBRANCH  25  26
ENDBRANCH  24  25
ENDBRANCH  23  24
ENDBRANCH  22  23
ENDBRANCH  21  22
ENDBRANCH  20  21
ENDBRANCH  19  20
ENDBRANCH  18  19
ENDBRANCH  17  18
ENDBRANCH   1  17
TORSDOF 26
ENDMDL
MODEL 5
REMARK VINA RESULT:    -3.131      1.463      4.380
REMARK INTER + INTRA:         -13.365
REMARK INTER:                  -8.341
REMARK INTRA:                  -5.023
REMARK UNBOUND:                -5.474
REMARK SMILES CCCCCCCCCCCCCCCCCCCCCCCCCCCC(=O)[O-]
REMARK SMILES IDX 15 1 16 2 17 3 18 4 19 5 20 6 21 7 22 8 23 9 24 10 25 11
REMARK SMILES IDX 26 12 27 13 28 14 29 15 30 16 14 17 13 18 12 19 11 20 10 21
REMARK SMILES IDX 9 22 8 23 7 24 6 25 5 26 4 27 3 28 2 29 1 30
REMARK H PARENT
REMARK Flexibility Score: inf
ROOT
ATOM      1  C   UNL     1       5.451 108.681 179.495  1.00  0.00     0.000 C 
ENDROOT
BRANCH   1   2
ATOM      2  C   UNL     1       3.958 108.863 179.171  1.00  0.00     0.000 C 
BRANCH   2   3
ATOM      3  C   UNL     1       3.618 108.513 177.712  1.00  0.00     0.000 C 
BRANCH   3   4
ATOM      4  C   UNL     1       2.154 108.082 177.534  1.00  0.00     0.000 C 
BRANCH   4   5
ATOM      5  C   UNL     1       1.339 108.199 178.834  1.00  0.00     0.000 C 
BRANCH   5   6
ATOM      6  C   UNL     1       0.842 106.836 179.344  1.00  0.00     0.000 C 
BRANCH   6   7
ATOM      7  C   UNL     1       1.425 105.657 178.550  1.00  0.00     0.000 C 
BRANCH   7   8
ATOM      8  C   UNL     1       2.620 105.035 179.288  1.00  0.00     0.000 C 
BRANCH   8   9
ATOM      9  C   UNL     1       3.632 104.382 178.333  1.00  0.00     0.000 C 
BRANCH   9  10
ATOM     10  C   UNL     1       5.004 105.076 178.364  1.00  0.00     0.000 C 
BRANCH  10  11
ATOM     11  C   UNL     1       6.076 104.301 177.582  1.00  0.00     0.000 C 
BRANCH  11  12
ATOM     12  C   UNL     1       5.520 103.036 176.903  1.00  0.00     0.006 C 
BRANCH  12  13
ATOM     13  C   UNL     1       6.197 102.758 175.554  1.00  0.00     0.053 C 
BRANCH  13  14
ATOM     14  C   UNL     1       5.257 102.104 174.587  1.00  0.00     0.041 C 
ATOM     15  O   UNL     1       4.835 102.740 173.584  1.00  0.00    -0.550 OA
ATOM     16  O   UNL     1       4.879 100.780 174.772  1.00  0.00    -0.550 OA
ENDBRANCH  13  14
ENDBRANCH  12  13
ENDBRANCH  11  12
ENDBRANCH  10  11
ENDBRANCH   9  10
ENDBRANCH   8   9
ENDBRANCH   7   8
ENDBRANCH   6   7
ENDBRANCH   5   6
ENDBRANCH   4   5
ENDBRANCH   3   4
ENDBRANCH   2   3
ENDBRANCH   1   2
BRANCH   1  17
ATOM     17  C   UNL     1       5.750 107.884 180.779  1.00  0.00     0.000 C 
BRANCH  17  18
ATOM     18  C   UNL     1       4.510 107.205 181.399  1.00  0.00     0.000 C 
BRANCH  18  19
ATOM     19  C   UNL     1       4.326 107.565 182.884  1.00  0.00     0.000 C 
BRANCH  19  20
ATOM     20  C   UNL     1       2.973 108.240 183.163  1.00  0.00     0.000 C 
BRANCH  20  21
ATOM     21  C   UNL     1       2.834 109.592 182.448  1.00  0.00     0.000 C 
BRANCH  21  22
ATOM     22  C   UNL     1       3.647 110.681 183.165  1.00  0.00    -0.000 C 
BRANCH  22  23
ATOM     23  C   UNL     1       4.840 111.183 182.332  1.00  0.00    -0.000 C 
BRANCH  23  24
ATOM     24  C   UNL     1       6.231 110.886 182.931  1.00  0.00    -0.000 C 
BRANCH  24  25
ATOM     25  C   UNL     1       6.227 110.493 184.420  1.00  0.00    -0.000 C 
BRANCH  25  26
ATOM     26  C   UNL     1       7.001 109.201 184.745  1.00  0.00    -0.000 C 
BRANCH  26  27
ATOM     27  C   UNL     1       7.943 108.744 183.610  1.00  0.00    -0.000 C 
BRANCH  27  28
ATOM     28  C   UNL     1       8.564 107.363 183.886  1.00  0.00    -0.000 C 
BRANCH  28  29
ATOM     29  C   UNL     1       7.585 106.211 183.617  1.00  0.00    -0.003 C 
ATOM     30  C   UNL     1       7.994 105.354 182.420  1.00  0.00     0.004 C 
ENDBRANCH  28  29
ENDBRANCH  27  28
ENDBRANCH  26  27
ENDBRANCH  25  26
ENDBRANCH  24  25
ENDBRANCH  23  24
ENDBRANCH  22  23
ENDBRANCH  21  22
ENDBRANCH  20  21
ENDBRANCH  19  20
ENDBRANCH  18  19
ENDBRANCH  17  18
ENDBRANCH   1  17
TORSDOF 26
ENDMDL
MODEL 6
REMARK VINA RESULT:    -3.098      1.425      3.429
REMARK INTER + INTRA:         -13.280
REMARK INTER:                  -7.736
REMARK INTRA:                  -5.543
REMARK UNBOUND:                -5.474
REMARK SMILES CCCCCCCCCCCCCCCCCCCCCCCCCCCC(=O)[O-]
REMARK SMILES IDX 15 1 16 2 17 3 18 4 19 5 20 6 21 7 22 8 23 9 24 10 25 11
REMARK SMILES IDX 26 12 27 13 28 14 29 15 30 16 14 17 13 18 12 19 11 20 10 21
REMARK SMILES IDX 9 22 8 23 7 24 6 25 5 26 4 27 3 28 2 29 1 30
REMARK H PARENT
REMARK Flexibility Score: inf
ROOT
ATOM      1  C   UNL     1       5.821 110.170 181.144  1.00  0.00     0.000 C 
ENDROOT
BRANCH   1   2
ATOM      2  C   UNL     1       5.500 109.461 179.817  1.00  0.00     0.000 C 
BRANCH   2   3
ATOM      3  C   UNL     1       3.988 109.317 179.570  1.00  0.00     0.000 C 
BRANCH   3   4
ATOM      4  C   UNL     1       3.661 108.921 178.122  1.00  0.00     0.000 C 
BRANCH   4   5
ATOM      5  C   UNL     1       2.186 108.525 177.935  1.00  0.00     0.000 C 
BRANCH   5   6
ATOM      6  C   UNL     1       1.520 108.089 179.251  1.00  0.00     0.000 C 
BRANCH   6   7
ATOM      7  C   UNL     1       0.630 106.848 179.083  1.00  0.00     0.000 C 
BRANCH   7   8
ATOM      8  C   UNL     1       1.400 105.709 178.397  1.00  0.00     0.000 C 
BRANCH   8   9
ATOM      9  C   UNL     1       2.455 105.069 179.316  1.00  0.00     0.000 C 
BRANCH   9  10
ATOM     10  C   UNL     1       3.854 105.043 178.678  1.00  0.00     0.000 C 
BRANCH  10  11
ATOM     11  C   UNL     1       3.822 105.359 177.174  1.00  0.00     0.000 C 
BRANCH  11  12
ATOM     12  C   UNL     1       4.512 104.277 176.324  1.00  0.00     0.006 C 
BRANCH  12  13
ATOM     13  C   UNL     1       5.138 103.173 177.188  1.00  0.00     0.053 C 
BRANCH  13  14
ATOM     14  C   UNL     1       6.412 102.657 176.591  1.00  0.00     0.041 C 
ATOM     15  O   UNL     1       7.060 101.745 177.170  1.00  0.00    -0.550 OA
ATOM     16  O   UNL     1       6.862 103.156 175.375  1.00  0.00    -0.550 OA
ENDBRANCH  13  14
ENDBRANCH  12  13
ENDBRANCH  11  12
ENDBRANCH  10  11
ENDBRANCH   9  10
ENDBRANCH   8   9
ENDBRANCH   7   8
ENDBRANCH   6   7
ENDBRANCH   5   6
ENDBRANCH   4   5
ENDBRANCH   3   4
ENDBRANCH   2   3
ENDBRANCH   1   2
BRANCH   1  17
ATOM     17  C   UNL     1       5.408 111.653 181.211  1.00  0.00     0.000 C 
BRANCH  17  18
ATOM     18  C   UNL     1       4.390 111.970 182.327  1.00  0.00     0.000 C 
BRANCH  18  19
ATOM     19  C   UNL     1       4.093 110.748 183.213  1.00  0.00     0.000 C 
BRANCH  19  20
ATOM     20  C   UNL     1       2.595 110.401 183.255  1.00  0.00     0.000 C 
BRANCH  20  21
ATOM     21  C   UNL     1       2.312 108.970 182.774  1.00  0.00     0.000 C 
BRANCH  21  22
ATOM     22  C   UNL     1       3.456 108.020 183.164  1.00  0.00    -0.000 C 
BRANCH  22  23
ATOM     23  C   UNL     1       3.657 106.880 182.150  1.00  0.00    -0.000 C 
BRANCH  23  24
ATOM     24  C   UNL     1       5.129 106.525 181.843  1.00  0.00    -0.000 C 
BRANCH  24  25
ATOM     25  C   UNL     1       6.112 106.772 183.002  1.00  0.00    -0.000 C 
BRANCH  25  26
ATOM     26  C   UNL     1       7.590 106.516 182.655  1.00  0.00    -0.000 C 
BRANCH  26  27
ATOM     27  C   UNL     1       7.816 105.239 181.816  1.00  0.00    -0.000 C 
BRANCH  27  28
ATOM     28  C   UNL     1       8.460 105.542 180.452  1.00  0.00    -0.000 C 
BRANCH  28  29
ATOM     29  C   UNL     1       7.519 105.246 179.275  1.00  0.00    -0.003 C 
ATOM     30  C   UNL     1       7.230 106.481 178.423  1.00  0.00     0.004 C 
ENDBRANCH  28  29
ENDBRANCH  27  28
ENDBRANCH  26  27
ENDBRANCH  25  26
ENDBRANCH  24  25
ENDBRANCH  23  24
ENDBRANCH  22  23
ENDBRANCH  21  22
ENDBRANCH  20  21
ENDBRANCH  19  20
ENDBRANCH  18  19
ENDBRANCH  17  18
ENDBRANCH   1  17
TORSDOF 26
ENDMDL
MODEL 7
REMARK VINA RESULT:    -3.084      1.498      2.557
REMARK INTER + INTRA:         -13.246
REMARK INTER:                  -8.009
REMARK INTRA:                  -5.237
REMARK UNBOUND:                -5.474
REMARK SMILES CCCCCCCCCCCCCCCCCCCCCCCCCCCC(=O)[O-]
REMARK SMILES IDX 15 1 16 2 17 3 18 4 19 5 20 6 21 7 22 8 23 9 24 10 25 11
REMARK SMILES IDX 26 12 27 13 28 14 29 15 30 16 14 17 13 18 12 19 11 20 10 21
REMARK SMILES IDX 9 22 8 23 7 24 6 25 5 26 4 27 3 28 2 29 1 30
REMARK H PARENT
REMARK Flexibility Score: inf
ROOT
ATOM      1  C   UNL     1       4.155 107.004 182.498  1.00  0.00     0.000 C 
ENDROOT
BRANCH   1   2
ATOM      2  C   UNL     1       3.443 108.322 182.847  1.00  0.00     0.000 C 
BRANCH   2   3
ATOM      3  C   UNL     1       2.206 108.580 181.968  1.00  0.00     0.000 C 
BRANCH   3   4
ATOM      4  C   UNL     1       2.430 108.183 180.501  1.00  0.00     0.000 C 
BRANCH   4   5
ATOM      5  C   UNL     1       1.132 107.748 179.799  1.00  0.00     0.000 C 
BRANCH   5   6
ATOM      6  C   UNL     1       1.272 106.392 179.086  1.00  0.00     0.000 C 
BRANCH   6   7
ATOM      7  C   UNL     1       2.559 105.649 179.472  1.00  0.00     0.000 C 
BRANCH   7   8
ATOM      8  C   UNL     1       2.870 104.529 178.467  1.00  0.00     0.000 C 
BRANCH   8   9
ATOM      9  C   UNL     1       3.062 105.055 177.035  1.00  0.00     0.000 C 
BRANCH   9  10
ATOM     10  C   UNL     1       4.434 104.680 176.449  1.00  0.00     0.000 C 
BRANCH  10  11
ATOM     11  C   UNL     1       5.114 103.540 177.222  1.00  0.00     0.000 C 
BRANCH  11  12
ATOM     12  C   UNL     1       5.913 102.594 176.307  1.00  0.00     0.006 C 
BRANCH  12  13
ATOM     13  C   UNL     1       5.046 102.001 175.188  1.00  0.00     0.053 C 
BRANCH  13  14
ATOM     14  C   UNL     1       5.568 102.361 173.831  1.00  0.00     0.041 C 
ATOM     15  O   UNL     1       4.773 102.516 172.865  1.00  0.00    -0.550 OA
ATOM     16  O   UNL     1       6.929 102.566 173.641  1.00  0.00    -0.550 OA
ENDBRANCH  13  14
ENDBRANCH  12  13
ENDBRANCH  11  12
ENDBRANCH  10  11
ENDBRANCH   9  10
ENDBRANCH   8   9
ENDBRANCH   7   8
ENDBRANCH   6   7
ENDBRANCH   5   6
ENDBRANCH   4   5
ENDBRANCH   3   4
ENDBRANCH   2   3
ENDBRANCH   1   2
BRANCH   1  17
ATOM     17  C   UNL     1       5.478 106.757 183.249  1.00  0.00     0.000 C 
BRANCH  17  18
ATOM     18  C   UNL     1       6.289 108.040 183.529  1.00  0.00     0.000 C 
BRANCH  18  19
ATOM     19  C   UNL     1       7.808 107.792 183.494  1.00  0.00     0.000 C 
BRANCH  19  20
ATOM     20  C   UNL     1       8.160 106.295 183.481  1.00  0.00     0.000 C 
BRANCH  20  21
ATOM     21  C   UNL     1       8.912 105.881 182.207  1.00  0.00     0.000 C 
BRANCH  21  22
ATOM     22  C   UNL     1       8.088 104.882 181.379  1.00  0.00    -0.000 C 
BRANCH  22  23
ATOM     23  C   UNL     1       7.712 105.424 179.989  1.00  0.00    -0.000 C 
BRANCH  23  24
ATOM     24  C   UNL     1       6.241 105.863 179.830  1.00  0.00    -0.000 C 
BRANCH  24  25
ATOM     25  C   UNL     1       6.043 107.297 179.307  1.00  0.00    -0.000 C 
BRANCH  25  26
ATOM     26  C   UNL     1       7.203 108.261 179.619  1.00  0.00    -0.000 C 
BRANCH  26  27
ATOM     27  C   UNL     1       6.754 109.559 180.324  1.00  0.00    -0.000 C 
BRANCH  27  28
ATOM     28  C   UNL     1       5.333 109.986 179.915  1.00  0.00    -0.000 C 
BRANCH  28  29
ATOM     29  C   UNL     1       4.769 111.099 180.811  1.00  0.00    -0.003 C 
ATOM     30  C   UNL     1       5.613 111.336 182.062  1.00  0.00     0.004 C 
ENDBRANCH  28  29
ENDBRANCH  27  28
ENDBRANCH  26  27
ENDBRANCH  25  26
ENDBRANCH  24  25
ENDBRANCH  23  24
ENDBRANCH  22  23
ENDBRANCH  21  22
ENDBRANCH  20  21
ENDBRANCH  19  20
ENDBRANCH  18  19
ENDBRANCH  17  18
ENDBRANCH   1  17
TORSDOF 26
ENDMDL
MODEL 8
REMARK VINA RESULT:    -3.083      1.698      4.174
REMARK INTER + INTRA:         -13.242
REMARK INTER:                  -8.104
REMARK INTRA:                  -5.138
REMARK UNBOUND:                -5.474
REMARK SMILES CCCCCCCCCCCCCCCCCCCCCCCCCCCC(=O)[O-]
REMARK SMILES IDX 15 1 16 2 17 3 18 4 19 5 20 6 21 7 22 8 23 9 24 10 25 11
REMARK SMILES IDX 26 12 27 13 28 14 29 15 30 16 14 17 13 18 12 19 11 20 10 21
REMARK SMILES IDX 9 22 8 23 7 24 6 25 5 26 4 27 3 28 2 29 1 30
REMARK H PARENT
REMARK Flexibility Score: inf
ROOT
ATOM      1  C   UNL     1       5.577 111.542 183.424  1.00  0.00     0.000 C 
ENDROOT
BRANCH   1   2
ATOM      2  C   UNL     1       5.661 110.852 182.051  1.00  0.00     0.000 C 
BRANCH   2   3
ATOM      3  C   UNL     1       4.284 110.422 181.516  1.00  0.00     0.000 C 
BRANCH   3   4
ATOM      4  C   UNL     1       3.334 109.961 182.633  1.00  0.00     0.000 C 
BRANCH   4   5
ATOM      5  C   UNL     1       2.404 108.820 182.186  1.00  0.00     0.000 C 
BRANCH   5   6
ATOM      6  C   UNL     1       2.674 108.370 180.740  1.00  0.00     0.000 C 
BRANCH   6   7
ATOM      7  C   UNL     1       1.394 107.958 179.998  1.00  0.00     0.000 C 
BRANCH   7   8
ATOM      8  C   UNL     1       1.603 106.644 179.229  1.00  0.00     0.000 C 
BRANCH   8   9
ATOM      9  C   UNL     1       2.565 105.684 179.947  1.00  0.00     0.000 C 
BRANCH   9  10
ATOM     10  C   UNL     1       3.195 104.657 178.991  1.00  0.00     0.000 C 
BRANCH  10  11
ATOM     11  C   UNL     1       2.846 104.929 177.520  1.00  0.00     0.000 C 
BRANCH  11  12
ATOM     12  C   UNL     1       4.077 105.305 176.675  1.00  0.00     0.006 C 
BRANCH  12  13
ATOM     13  C   UNL     1       4.443 104.210 175.665  1.00  0.00     0.053 C 
BRANCH  13  14
ATOM     14  C   UNL     1       5.385 103.204 176.254  1.00  0.00     0.041 C 
ATOM     15  O   UNL     1       6.101 103.510 177.244  1.00  0.00    -0.550 OA
ATOM     16  O   UNL     1       5.442 101.917 175.733  1.00  0.00    -0.550 OA
ENDBRANCH  13  14
ENDBRANCH  12  13
ENDBRANCH  11  12
ENDBRANCH  10  11
ENDBRANCH   9  10
ENDBRANCH   8   9
ENDBRANCH   7   8
ENDBRANCH   6   7
ENDBRANCH   5   6
ENDBRANCH   4   5
ENDBRANCH   3   4
ENDBRANCH   2   3
ENDBRANCH   1   2
BRANCH   1  17
ATOM     17  C   UNL     1       6.619 111.073 184.458  1.00  0.00     0.000 C 
BRANCH  17  18
ATOM     18  C   UNL     1       6.541 109.568 184.787  1.00  0.00     0.000 C 
BRANCH  18  19
ATOM     19  C   UNL     1       7.777 108.795 184.292  1.00  0.00     0.000 C 
BRANCH  19  20
ATOM     20  C   UNL     1       7.434 107.788 183.180  1.00  0.00     0.000 C 
BRANCH  20  21
ATOM     21  C   UNL     1       6.123 107.038 183.453  1.00  0.00     0.000 C 
BRANCH  21  22
ATOM     22  C   UNL     1       5.454 106.599 182.141  1.00  0.00    -0.000 C 
BRANCH  22  23
ATOM     23  C   UNL     1       6.165 107.154 180.893  1.00  0.00    -0.000 C 
BRANCH  23  24
ATOM     24  C   UNL     1       6.476 106.113 179.796  1.00  0.00    -0.000 C 
BRANCH  24  25
ATOM     25  C   UNL     1       7.620 105.138 180.132  1.00  0.00    -0.000 C 
BRANCH  25  26
ATOM     26  C   UNL     1       8.907 105.809 180.645  1.00  0.00    -0.000 C 
BRANCH  26  27
ATOM     27  C   UNL     1       9.566 105.061 181.824  1.00  0.00    -0.000 C 
BRANCH  27  28
ATOM     28  C   UNL     1       8.560 104.193 182.601  1.00  0.00    -0.000 C 
BRANCH  28  29
ATOM     29  C   UNL     1       8.672 104.376 184.122  1.00  0.00    -0.003 C 
ATOM     30  C   UNL     1       9.791 105.337 184.521  1.00  0.00     0.004 C 
ENDBRANCH  28  29
ENDBRANCH  27  28
ENDBRANCH  26  27
ENDBRANCH  25  26
ENDBRANCH  24  25
ENDBRANCH  23  24
ENDBRANCH  22  23
ENDBRANCH  21  22
ENDBRANCH  20  21
ENDBRANCH  19  20
ENDBRANCH  18  19
ENDBRANCH  17  18
ENDBRANCH   1  17
TORSDOF 26
ENDMDL
MODEL 9
REMARK VINA RESULT:    -3.021      1.523      3.993
REMARK INTER + INTRA:         -13.087
REMARK INTER:                  -8.235
REMARK INTRA:                  -4.852
REMARK UNBOUND:                -5.474
REMARK SMILES CCCCCCCCCCCCCCCCCCCCCCCCCCCC(=O)[O-]
REMARK SMILES IDX 15 1 16 2 17 3 18 4 19 5 20 6 21 7 22 8 23 9 24 10 25 11
REMARK SMILES IDX 26 12 27 13 28 14 29 15 30 16 14 17 13 18 12 19 11 20 10 21
REMARK SMILES IDX 9 22 8 23 7 24 6 25 5 26 4 27 3 28 2 29 1 30
REMARK H PARENT
REMARK Flexibility Score: inf
ROOT
ATOM      1  C   UNL     1       1.708 108.477 179.383  1.00  0.00     0.000 C 
ENDROOT
BRANCH   1   2
ATOM      2  C   UNL     1       2.057 108.647 177.895  1.00  0.00     0.000 C 
BRANCH   2   3
ATOM      3  C   UNL     1       0.990 108.049 176.962  1.00  0.00     0.000 C 
BRANCH   3   4
ATOM      4  C   UNL     1       0.496 106.672 177.435  1.00  0.00     0.000 C 
BRANCH   4   5
ATOM      5  C   UNL     1       1.007 105.522 176.550  1.00  0.00     0.000 C 
BRANCH   5   6
ATOM      6  C   UNL     1       2.169 104.750 177.199  1.00  0.00     0.000 C 
BRANCH   6   7
ATOM      7  C   UNL     1       2.111 104.771 178.734  1.00  0.00     0.000 C 
BRANCH   7   8
ATOM      8  C   UNL     1       3.481 105.131 179.330  1.00  0.00     0.000 C 
BRANCH   8   9
ATOM      9  C   UNL     1       4.443 105.727 178.289  1.00  0.00     0.000 C 
BRANCH   9  10
ATOM     10  C   UNL     1       5.863 105.147 178.398  1.00  0.00     0.000 C 
BRANCH  10  11
ATOM     11  C   UNL     1       6.359 104.547 177.074  1.00  0.00     0.000 C 
BRANCH  11  12
ATOM     12  C   UNL     1       5.686 103.204 176.738  1.00  0.00     0.006 C 
BRANCH  12  13
ATOM     13  C   UNL     1       4.985 103.233 175.373  1.00  0.00     0.053 C 
BRANCH  13  14
ATOM     14  C   UNL     1       5.387 102.069 174.518  1.00  0.00     0.041 C 
ATOM     15  O   UNL     1       6.053 102.256 173.465  1.00  0.00    -0.550 OA
ATOM     16  O   UNL     1       5.061 100.776 174.906  1.00  0.00    -0.550 OA
ENDBRANCH  13  14
ENDBRANCH  12  13
ENDBRANCH  11  12
ENDBRANCH  10  11
ENDBRANCH   9  10
ENDBRANCH   8   9
ENDBRANCH   7   8
ENDBRANCH   6   7
ENDBRANCH   5   6
ENDBRANCH   4   5
ENDBRANCH   3   4
ENDBRANCH   2   3
ENDBRANCH   1   2
BRANCH   1  17
ATOM     17  C   UNL     1       2.913 108.492 180.344  1.00  0.00     0.000 C 
BRANCH  17  18
ATOM     18  C   UNL     1       2.553 108.875 181.795  1.00  0.00     0.000 C 
BRANCH  18  19
ATOM     19  C   UNL     1       3.362 108.073 182.830  1.00  0.00     0.000 C 
BRANCH  19  20
ATOM     20  C   UNL     1       3.978 106.796 182.235  1.00  0.00     0.000 C 
BRANCH  20  21
ATOM     21  C   UNL     1       5.449 106.613 182.634  1.00  0.00     0.000 C 
BRANCH  21  22
ATOM     22  C   UNL     1       6.386 106.980 181.472  1.00  0.00    -0.000 C 
BRANCH  22  23
ATOM     23  C   UNL     1       7.843 107.190 181.922  1.00  0.00    -0.000 C 
BRANCH  23  24
ATOM     24  C   UNL     1       8.180 106.653 183.330  1.00  0.00    -0.000 C 
BRANCH  24  25
ATOM     25  C   UNL     1       8.700 107.710 184.322  1.00  0.00    -0.000 C 
BRANCH  25  26
ATOM     26  C   UNL     1       8.123 109.123 184.115  1.00  0.00    -0.000 C 
BRANCH  26  27
ATOM     27  C   UNL     1       6.704 109.302 184.697  1.00  0.00    -0.000 C 
BRANCH  27  28
ATOM     28  C   UNL     1       5.940 110.460 184.031  1.00  0.00    -0.000 C 
BRANCH  28  29
ATOM     29  C   UNL     1       6.624 110.959 182.749  1.00  0.00    -0.003 C 
ATOM     30  C   UNL     1       5.866 110.567 181.482  1.00  0.00     0.004 C 
ENDBRANCH  28  29
ENDBRANCH  27  28
ENDBRANCH  26  27
ENDBRANCH  25  26
ENDBRANCH  24  25
ENDBRANCH  23  24
ENDBRANCH  22  23
ENDBRANCH  21  22
ENDBRANCH  20  21
ENDBRANCH  19  20
ENDBRANCH  18  19
ENDBRANCH  17  18
ENDBRANCH   1  17
TORSDOF 26
ENDMDL
