MODEL 1
REMARK VINA RESULT:    21.786      0.000      0.000
REMARK INTER + INTRA:          25.944
REMARK INTER:                  26.244
REMARK INTRA:                  -0.300
REMARK UNBOUND:                -0.300
REMARK SMILES Oc1cc(O)c2cc(O)c(-c3ccc(O)c(O)c3)[o+]c2c1
REMARK SMILES IDX 10 1 19 2 20 3 21 4 2 5 3 6 4 7 6 8 7 9 8 10 11 11 12 12
REMARK SMILES IDX 13 13 14 14 18 15 16 16 15 17 17 19 9 21 1 23 5 25
REMARK H PARENT 15 18 17 20 9 22 1 24 5 26
REMARK Flexibility Score: inf
ROOT
ATOM      1  C   UNL     1      -6.507  -7.585  15.763  1.00  0.00     0.402 A 
ATOM      2  O   UNL     1      -6.141  -8.596  16.547  1.00  0.00    -0.202 OA
ATOM      3  C   UNL     1      -6.351  -9.872  16.240  1.00  0.00     0.368 A 
ATOM      4  C   UNL     1      -5.933 -10.864  17.131  1.00  0.00     0.162 A 
ATOM      5  C   UNL     1      -6.143 -12.213  16.833  1.00  0.00     0.128 A 
ATOM      6  C   UNL     1      -6.774 -12.572  15.640  1.00  0.00     0.093 A 
ATOM      7  C   UNL     1      -7.202 -11.597  14.729  1.00  0.00     0.136 A 
ATOM      8  C   UNL     1      -6.989 -10.225  15.027  1.00  0.00     0.125 A 
ATOM      9  C   UNL     1      -7.372  -9.182  14.168  1.00  0.00     0.078 A 
ATOM     10  C   UNL     1      -7.124  -7.853  14.527  1.00  0.00     0.223 A 
ENDROOT
BRANCH   1  11
ATOM     11  C   UNL     1      -6.228  -6.205  16.222  1.00  0.00     0.087 A 
ATOM     12  C   UNL     1      -4.944  -5.648  16.123  1.00  0.00     0.022 A 
ATOM     13  C   UNL     1      -4.710  -4.336  16.542  1.00  0.00     0.051 A 
ATOM     14  C   UNL     1      -5.751  -3.553  17.053  1.00  0.00     0.157 A 
ATOM     15  C   UNL     1      -7.279  -5.415  16.715  1.00  0.00     0.068 A 
ATOM     16  C   UNL     1      -7.053  -4.099  17.137  1.00  0.00     0.158 A 
BRANCH  14  17
ATOM     17  O   UNL     1      -5.449  -2.251  17.458  1.00  0.00    -0.504 OA
ATOM     18  H   UNL     1      -4.918  -1.596  16.903  1.00  0.00     0.293 HD
ENDBRANCH  14  17
BRANCH  16  19
ATOM     19  O   UNL     1      -8.143  -3.377  17.627  1.00  0.00    -0.504 OA
ATOM     20  H   UNL     1      -8.066  -2.482  18.090  1.00  0.00     0.293 HD
ENDBRANCH  16  19
ENDBRANCH   1  11
BRANCH  10  21
ATOM     21  O   UNL     1      -7.460  -6.818  13.653  1.00  0.00    -0.500 OA
ATOM     22  H   UNL     1      -7.644  -6.989  12.671  1.00  0.00     0.294 HD
ENDBRANCH  10  21
BRANCH   5  23
ATOM     23  O   UNL     1      -5.729 -13.207  17.717  1.00  0.00    -0.507 OA
ATOM     24  H   UNL     1      -5.678 -13.042  18.715  1.00  0.00     0.293 HD
ENDBRANCH   5  23
BRANCH   7  25
ATOM     25  O   UNL     1      -7.828 -12.038  13.561  1.00  0.00    -0.507 OA
ATOM     26  H   UNL     1      -8.310 -11.435  12.909  1.00  0.00     0.293 HD
ENDBRANCH   7  25
TORSDOF 6
ENDMDL
MODEL 2
REMARK VINA RESULT:    22.228      1.137      2.646
REMARK INTER + INTRA:          26.476
REMARK INTER:                  26.787
REMARK INTRA:                  -0.311
REMARK UNBOUND:                -0.300
REMARK SMILES Oc1cc(O)c2cc(O)c(-c3ccc(O)c(O)c3)[o+]c2c1
REMARK SMILES IDX 10 1 19 2 20 3 21 4 2 5 3 6 4 7 6 8 7 9 8 10 11 11 12 12
REMARK SMILES IDX 13 13 14 14 18 15 16 16 15 17 17 19 9 21 1 23 5 25
REMARK H PARENT 15 18 17 20 9 22 1 24 5 26
REMARK Flexibility Score: inf
ROOT
ATOM      1  C   UNL     1      -6.098  -7.384  16.501  1.00  0.00     0.402 A 
ATOM      2  O   UNL     1      -6.799  -7.831  15.461  1.00  0.00    -0.202 OA
ATOM      3  C   UNL     1      -7.067  -9.117  15.259  1.00  0.00     0.368 A 
ATOM      4  C   UNL     1      -7.809  -9.489  14.135  1.00  0.00     0.162 A 
ATOM      5  C   UNL     1      -8.103 -10.834  13.897  1.00  0.00     0.128 A 
ATOM      6  C   UNL     1      -7.652 -11.812  14.787  1.00  0.00     0.093 A 
ATOM      7  C   UNL     1      -6.908 -11.466  15.922  1.00  0.00     0.136 A 
ATOM      8  C   UNL     1      -6.608 -10.100  16.168  1.00  0.00     0.125 A 
ATOM      9  C   UNL     1      -5.880  -9.660  17.286  1.00  0.00     0.078 A 
ATOM     10  C   UNL     1      -5.628  -8.296  17.465  1.00  0.00     0.223 A 
ENDROOT
BRANCH   1  11
ATOM     11  C   UNL     1      -5.857  -5.928  16.609  1.00  0.00     0.087 A 
ATOM     12  C   UNL     1      -4.601  -5.371  16.321  1.00  0.00     0.022 A 
ATOM     13  C   UNL     1      -4.404  -3.992  16.409  1.00  0.00     0.051 A 
ATOM     14  C   UNL     1      -5.454  -3.141  16.770  1.00  0.00     0.157 A 
ATOM     15  C   UNL     1      -6.918  -5.075  16.952  1.00  0.00     0.068 A 
ATOM     16  C   UNL     1      -6.729  -3.690  17.042  1.00  0.00     0.158 A 
BRANCH  14  17
ATOM     17  O   UNL     1      -5.190  -1.772  16.843  1.00  0.00    -0.504 OA
ATOM     18  H   UNL     1      -4.388  -1.376  17.313  1.00  0.00     0.293 HD
ENDBRANCH  14  17
BRANCH  16  19
ATOM     19  O   UNL     1      -7.827  -2.906  17.399  1.00  0.00    -0.504 OA
ATOM     20  H   UNL     1      -7.793  -1.902  17.509  1.00  0.00     0.293 HD
ENDBRANCH  16  19
ENDBRANCH   1  11
BRANCH  10  21
ATOM     21  O   UNL     1      -4.947  -7.853  18.599  1.00  0.00    -0.500 OA
ATOM     22  H   UNL     1      -3.973  -8.083  18.759  1.00  0.00     0.294 HD
ENDBRANCH  10  21
BRANCH   5  23
ATOM     23  O   UNL     1      -8.842 -11.212  12.779  1.00  0.00    -0.507 OA
ATOM     24  H   UNL     1      -8.480 -11.874  12.102  1.00  0.00     0.293 HD
ENDBRANCH   5  23
BRANCH   7  25
ATOM     25  O   UNL     1      -6.492 -12.503  16.760  1.00  0.00    -0.507 OA
ATOM     26  H   UNL     1      -6.350 -12.411  17.756  1.00  0.00     0.293 HD
ENDBRANCH   7  25
TORSDOF 6
ENDMDL
