MODEL 1
REMARK VINA RESULT:    -3.645      0.000      0.000
REMARK INTER + INTRA:         -15.359
REMARK INTER:                  -9.612
REMARK INTRA:                  -5.748
REMARK UNBOUND:                -5.748
REMARK SMILES CCCCCCCCCCCCCCCCCCCCCCCCCCCCCC(=O)[O-]
REMARK SMILES IDX 16 1 17 2 18 3 19 4 20 5 21 6 22 7 23 8 24 9 25 10 26 11
REMARK SMILES IDX 27 12 28 13 29 14 30 15 31 16 32 17 15 18 14 19 13 20 12 21
REMARK SMILES IDX 11 22 10 23 9 24 8 25 7 26 6 27 5 28 4 29 3 30 2 31 1 32
REMARK H PARENT
REMARK Flexibility Score: inf
ROOT
ATOM      1  C   UNL     1      19.686  14.009 -16.091  1.00  0.00     0.000 C 
ENDROOT
BRANCH   1   2
ATOM      2  C   UNL     1      19.127  12.647 -15.638  1.00  0.00     0.000 C 
BRANCH   2   3
ATOM      3  C   UNL     1      17.992  12.141 -16.546  1.00  0.00     0.000 C 
BRANCH   3   4
ATOM      4  C   UNL     1      18.373  10.876 -17.338  1.00  0.00     0.000 C 
BRANCH   4   5
ATOM      5  C   UNL     1      19.567  10.076 -16.776  1.00  0.00     0.000 C 
BRANCH   5   6
ATOM      6  C   UNL     1      19.247   8.644 -16.308  1.00  0.00     0.000 C 
BRANCH   6   7
ATOM      7  C   UNL     1      20.239   7.601 -16.846  1.00  0.00     0.000 C 
BRANCH   7   8
ATOM      8  C   UNL     1      21.086   8.131 -18.017  1.00  0.00     0.000 C 
BRANCH   8   9
ATOM      9  C   UNL     1      20.755   7.476 -19.373  1.00  0.00     0.000 C 
BRANCH   9  10
ATOM     10  C   UNL     1      19.841   8.359 -20.241  1.00  0.00     0.000 C 
BRANCH  10  11
ATOM     11  C   UNL     1      18.353   8.211 -19.874  1.00  0.00     0.000 C 
BRANCH  11  12
ATOM     12  C   UNL     1      17.807   6.771 -19.932  1.00  0.00     0.000 C 
BRANCH  12  13
ATOM     13  C   UNL     1      17.241   6.220 -18.605  1.00  0.00     0.006 C 
BRANCH  13  14
ATOM     14  C   UNL     1      17.993   4.991 -18.063  1.00  0.00     0.053 C 
BRANCH  14  15
ATOM     15  C   UNL     1      17.284   3.700 -18.344  1.00  0.00     0.041 C 
ATOM     16  O   UNL     1      16.056   3.695 -18.627  1.00  0.00    -0.550 OA
ATOM     17  O   UNL     1      17.973   2.495 -18.258  1.00  0.00    -0.550 OA
ENDBRANCH  14  15
ENDBRANCH  13  14
ENDBRANCH  12  13
ENDBRANCH  11  12
ENDBRANCH  10  11
ENDBRANCH   9  10
ENDBRANCH   8   9
ENDBRANCH   7   8
ENDBRANCH   6   7
ENDBRANCH   5   6
ENDBRANCH   4   5
ENDBRANCH   3   4
ENDBRANCH   2   3
ENDBRANCH   1   2
BRANCH   1  18
ATOM     18  C   UNL     1      21.209  14.039 -16.317  1.00  0.00     0.000 C 
BRANCH  18  19
ATOM     19  C   UNL     1      21.751  15.464 -16.529  1.00  0.00     0.000 C 
BRANCH  19  20
ATOM     20  C   UNL     1      20.621  16.487 -16.771  1.00  0.00     0.000 C 
BRANCH  20  21
ATOM     21  C   UNL     1      20.383  16.814 -18.256  1.00  0.00     0.000 C 
BRANCH  21  22
ATOM     22  C   UNL     1      21.575  16.431 -19.147  1.00  0.00     0.000 C 
BRANCH  22  23
ATOM     23  C   UNL     1      21.226  15.367 -20.203  1.00  0.00     0.000 C 
BRANCH  23  24
ATOM     24  C   UNL     1      19.782  14.828 -20.145  1.00  0.00    -0.000 C 
BRANCH  24  25
ATOM     25  C   UNL     1      19.639  13.368 -19.670  1.00  0.00    -0.000 C 
BRANCH  25  26
ATOM     26  C   UNL     1      20.711  12.404 -20.208  1.00  0.00    -0.000 C 
BRANCH  26  27
ATOM     27  C   UNL     1      21.561  11.772 -19.097  1.00  0.00    -0.000 C 
BRANCH  27  28
ATOM     28  C   UNL     1      22.906  11.280 -19.653  1.00  0.00    -0.000 C 
BRANCH  28  29
ATOM     29  C   UNL     1      24.115  11.957 -18.982  1.00  0.00    -0.000 C 
BRANCH  29  30
ATOM     30  C   UNL     1      23.958  13.469 -18.725  1.00  0.00    -0.000 C 
BRANCH  30  31
ATOM     31  C   UNL     1      25.274  14.268 -18.731  1.00  0.00    -0.003 C 
ATOM     32  C   UNL     1      25.115  15.682 -18.172  1.00  0.00     0.004 C 
ENDBRANCH  30  31
ENDBRANCH  29  30
ENDBRANCH  28  29
ENDBRANCH  27  28
ENDBRANCH  26  27
ENDBRANCH  25  26
ENDBRANCH  24  25
ENDBRANCH  23  24
ENDBRANCH  22  23
ENDBRANCH  21  22
ENDBRANCH  20  21
ENDBRANCH  19  20
ENDBRANCH  18  19
ENDBRANCH   1  18
TORSDOF 28
ENDMDL
MODEL 2
REMARK VINA RESULT:    -3.602      1.543      5.109
REMARK INTER + INTRA:         -15.245
REMARK INTER:                  -9.988
REMARK INTRA:                  -5.257
REMARK UNBOUND:                -5.748
REMARK SMILES CCCCCCCCCCCCCCCCCCCCCCCCCCCCCC(=O)[O-]
REMARK SMILES IDX 16 1 17 2 18 3 19 4 20 5 21 6 22 7 23 8 24 9 25 10 26 11
REMARK SMILES IDX 27 12 28 13 29 14 30 15 31 16 32 17 15 18 14 19 13 20 12 21
REMARK SMILES IDX 11 22 10 23 9 24 8 25 7 26 6 27 5 28 4 29 3 30 2 31 1 32
REMARK H PARENT
REMARK Flexibility Score: inf
ROOT
ATOM      1  C   UNL     1      21.821   9.078 -19.753  1.00  0.00     0.000 C 
ENDROOT
BRANCH   1   2
ATOM      2  C   UNL     1      22.194   9.905 -20.998  1.00  0.00     0.000 C 
BRANCH   2   3
ATOM      3  C   UNL     1      21.617  11.332 -20.957  1.00  0.00     0.000 C 
BRANCH   3   4
ATOM      4  C   UNL     1      20.303  11.427 -20.160  1.00  0.00     0.000 C 
BRANCH   4   5
ATOM      5  C   UNL     1      19.898  12.848 -19.714  1.00  0.00     0.000 C 
BRANCH   5   6
ATOM      6  C   UNL     1      18.438  13.010 -19.253  1.00  0.00     0.000 C 
BRANCH   6   7
ATOM      7  C   UNL     1      18.309  13.255 -17.742  1.00  0.00     0.000 C 
BRANCH   7   8
ATOM      8  C   UNL     1      17.859  12.001 -16.971  1.00  0.00     0.000 C 
BRANCH   8   9
ATOM      9  C   UNL     1      19.023  11.096 -16.517  1.00  0.00     0.000 C 
BRANCH   9  10
ATOM     10  C   UNL     1      19.020   9.736 -17.239  1.00  0.00     0.000 C 
BRANCH  10  11
ATOM     11  C   UNL     1      19.464   8.580 -16.325  1.00  0.00     0.000 C 
BRANCH  11  12
ATOM     12  C   UNL     1      19.983   7.328 -17.062  1.00  0.00     0.000 C 
BRANCH  12  13
ATOM     13  C   UNL     1      19.065   6.786 -18.178  1.00  0.00     0.006 C 
BRANCH  13  14
ATOM     14  C   UNL     1      17.852   5.989 -17.663  1.00  0.00     0.053 C 
BRANCH  14  15
ATOM     15  C   UNL     1      17.950   4.521 -17.955  1.00  0.00     0.041 C 
ATOM     16  O   UNL     1      16.939   3.779 -17.835  1.00  0.00    -0.550 OA
ATOM     17  O   UNL     1      19.169   3.965 -18.326  1.00  0.00    -0.550 OA
ENDBRANCH  14  15
ENDBRANCH  13  14
ENDBRANCH  12  13
ENDBRANCH  11  12
ENDBRANCH  10  11
ENDBRANCH   9  10
ENDBRANCH   8   9
ENDBRANCH   7   8
ENDBRANCH   6   7
ENDBRANCH   5   6
ENDBRANCH   4   5
ENDBRANCH   3   4
ENDBRANCH   2   3
ENDBRANCH   1   2
BRANCH   1  18
ATOM     18  C   UNL     1      22.909   9.025 -18.664  1.00  0.00     0.000 C 
BRANCH  18  19
ATOM     19  C   UNL     1      24.334   9.107 -19.244  1.00  0.00     0.000 C 
BRANCH  19  20
ATOM     20  C   UNL     1      25.251  10.023 -18.407  1.00  0.00     0.000 C 
BRANCH  20  21
ATOM     21  C   UNL     1      24.515  11.188 -17.721  1.00  0.00     0.000 C 
BRANCH  21  22
ATOM     22  C   UNL     1      24.359  12.413 -18.636  1.00  0.00     0.000 C 
BRANCH  22  23
ATOM     23  C   UNL     1      23.192  13.331 -18.229  1.00  0.00     0.000 C 
BRANCH  23  24
ATOM     24  C   UNL     1      22.302  12.799 -17.088  1.00  0.00    -0.000 C 
BRANCH  24  25
ATOM     25  C   UNL     1      21.434  13.857 -16.377  1.00  0.00    -0.000 C 
BRANCH  25  26
ATOM     26  C   UNL     1      21.853  15.316 -16.632  1.00  0.00    -0.000 C 
BRANCH  26  27
ATOM     27  C   UNL     1      20.659  16.276 -16.717  1.00  0.00    -0.000 C 
BRANCH  27  28
ATOM     28  C   UNL     1      20.705  17.088 -18.020  1.00  0.00    -0.000 C 
BRANCH  28  29
ATOM     29  C   UNL     1      21.250  16.278 -19.211  1.00  0.00    -0.000 C 
BRANCH  29  30
ATOM     30  C   UNL     1      20.542  16.534 -20.556  1.00  0.00    -0.000 C 
BRANCH  30  31
ATOM     31  C   UNL     1      19.182  17.248 -20.447  1.00  0.00    -0.003 C 
ATOM     32  C   UNL     1      18.973  18.302 -21.534  1.00  0.00     0.004 C 
ENDBRANCH  30  31
ENDBRANCH  29  30
ENDBRANCH  28  29
ENDBRANCH  27  28
ENDBRANCH  26  27
ENDBRANCH  25  26
ENDBRANCH  24  25
ENDBRANCH  23  24
ENDBRANCH  22  23
ENDBRANCH  21  22
ENDBRANCH  20  21
ENDBRANCH  19  20
ENDBRANCH  18  19
ENDBRANCH   1  18
TORSDOF 28
ENDMDL
MODEL 3
REMARK VINA RESULT:    -3.525      1.600      3.551
REMARK INTER + INTRA:         -15.043
REMARK INTER:                  -9.935
REMARK INTRA:                  -5.108
REMARK UNBOUND:                -5.748
REMARK SMILES CCCCCCCCCCCCCCCCCCCCCCCCCCCCCC(=O)[O-]
REMARK SMILES IDX 16 1 17 2 18 3 19 4 20 5 21 6 22 7 23 8 24 9 25 10 26 11
REMARK SMILES IDX 27 12 28 13 29 14 30 15 31 16 32 17 15 18 14 19 13 20 12 21
REMARK SMILES IDX 11 22 10 23 9 24 8 25 7 26 6 27 5 28 4 29 3 30 2 31 1 32
REMARK H PARENT
REMARK Flexibility Score: inf
ROOT
ATOM      1  C   UNL     1      19.470  12.601 -20.082  1.00  0.00     0.000 C 
ENDROOT
BRANCH   1   2
ATOM      2  C   UNL     1      18.699  11.619 -19.180  1.00  0.00     0.000 C 
BRANCH   2   3
ATOM      3  C   UNL     1      18.148  12.290 -17.909  1.00  0.00     0.000 C 
BRANCH   3   4
ATOM      4  C   UNL     1      17.997  11.312 -16.729  1.00  0.00     0.000 C 
BRANCH   4   5
ATOM      5  C   UNL     1      19.248  10.468 -16.403  1.00  0.00     0.000 C 
BRANCH   5   6
ATOM      6  C   UNL     1      19.060   8.942 -16.485  1.00  0.00     0.000 C 
BRANCH   6   7
ATOM      7  C   UNL     1      20.297   8.213 -17.031  1.00  0.00     0.000 C 
BRANCH   7   8
ATOM      8  C   UNL     1      19.948   7.168 -18.106  1.00  0.00     0.000 C 
BRANCH   8   9
ATOM      9  C   UNL     1      18.605   7.431 -18.819  1.00  0.00     0.000 C 
BRANCH   9  10
ATOM     10  C   UNL     1      17.560   6.342 -18.514  1.00  0.00     0.000 C 
BRANCH  10  11
ATOM     11  C   UNL     1      18.122   5.212 -17.631  1.00  0.00     0.000 C 
BRANCH  11  12
ATOM     12  C   UNL     1      17.462   3.834 -17.838  1.00  0.00     0.000 C 
BRANCH  12  13
ATOM     13  C   UNL     1      17.946   3.043 -19.073  1.00  0.00     0.006 C 
BRANCH  13  14
ATOM     14  C   UNL     1      17.618   1.539 -19.024  1.00  0.00     0.053 C 
BRANCH  14  15
ATOM     15  C   UNL     1      18.828   0.684 -18.797  1.00  0.00     0.041 C 
ATOM     16  O   UNL     1      18.722  -0.429 -18.216  1.00  0.00    -0.550 OA
ATOM     17  O   UNL     1      20.082   1.132 -19.197  1.00  0.00    -0.550 OA
ENDBRANCH  14  15
ENDBRANCH  13  14
ENDBRANCH  12  13
ENDBRANCH  11  12
ENDBRANCH  10  11
ENDBRANCH   9  10
ENDBRANCH   8   9
ENDBRANCH   7   8
ENDBRANCH   6   7
ENDBRANCH   5   6
ENDBRANCH   4   5
ENDBRANCH   3   4
ENDBRANCH   2   3
ENDBRANCH   1   2
BRANCH   1  18
ATOM     18  C   UNL     1      19.347  14.082 -19.678  1.00  0.00     0.000 C 
BRANCH  18  19
ATOM     19  C   UNL     1      20.417  14.970 -20.340  1.00  0.00     0.000 C 
BRANCH  19  20
ATOM     20  C   UNL     1      20.786  16.187 -19.467  1.00  0.00     0.000 C 
BRANCH  20  21
ATOM     21  C   UNL     1      19.882  16.369 -18.234  1.00  0.00     0.000 C 
BRANCH  21  22
ATOM     22  C   UNL     1      20.663  16.809 -16.985  1.00  0.00     0.000 C 
BRANCH  22  23
ATOM     23  C   UNL     1      21.570  15.704 -16.414  1.00  0.00     0.000 C 
BRANCH  23  24
ATOM     24  C   UNL     1      20.891  14.333 -16.211  1.00  0.00    -0.000 C 
BRANCH  24  25
ATOM     25  C   UNL     1      21.647  13.127 -16.801  1.00  0.00    -0.000 C 
BRANCH  25  26
ATOM     26  C   UNL     1      22.746  13.485 -17.818  1.00  0.00    -0.000 C 
BRANCH  26  27
ATOM     27  C   UNL     1      23.063  12.336 -18.786  1.00  0.00    -0.000 C 
BRANCH  27  28
ATOM     28  C   UNL     1      22.269  11.075 -18.412  1.00  0.00    -0.000 C 
BRANCH  28  29
ATOM     29  C   UNL     1      22.089  10.109 -19.597  1.00  0.00    -0.000 C 
BRANCH  29  30
ATOM     30  C   UNL     1      23.288   9.178 -19.869  1.00  0.00    -0.000 C 
BRANCH  30  31
ATOM     31  C   UNL     1      23.632   8.211 -18.721  1.00  0.00    -0.003 C 
ATOM     32  C   UNL     1      23.689   6.750 -19.169  1.00  0.00     0.004 C 
ENDBRANCH  30  31
ENDBRANCH  29  30
ENDBRANCH  28  29
ENDBRANCH  27  28
ENDBRANCH  26  27
ENDBRANCH  25  26
ENDBRANCH  24  25
ENDBRANCH  23  24
ENDBRANCH  22  23
ENDBRANCH  21  22
ENDBRANCH  20  21
ENDBRANCH  19  20
ENDBRANCH  18  19
ENDBRANCH   1  18
TORSDOF 28
ENDMDL
MODEL 4
REMARK VINA RESULT:    -3.456      2.126      5.227
REMARK INTER + INTRA:         -14.860
REMARK INTER:                  -9.075
REMARK INTRA:                  -5.785
REMARK UNBOUND:                -5.748
REMARK SMILES CCCCCCCCCCCCCCCCCCCCCCCCCCCCCC(=O)[O-]
REMARK SMILES IDX 16 1 17 2 18 3 19 4 20 5 21 6 22 7 23 8 24 9 25 10 26 11
REMARK SMILES IDX 27 12 28 13 29 14 30 15 31 16 32 17 15 18 14 19 13 20 12 21
REMARK SMILES IDX 11 22 10 23 9 24 8 25 7 26 6 27 5 28 4 29 3 30 2 31 1 32
REMARK H PARENT
REMARK Flexibility Score: inf
ROOT
ATOM      1  C   UNL     1      19.874  16.485 -18.108  1.00  0.00     0.000 C 
ENDROOT
BRANCH   1   2
ATOM      2  C   UNL     1      20.792  16.620 -19.337  1.00  0.00     0.000 C 
BRANCH   2   3
ATOM      3  C   UNL     1      22.283  16.686 -18.960  1.00  0.00     0.000 C 
BRANCH   3   4
ATOM      4  C   UNL     1      23.088  15.478 -19.474  1.00  0.00     0.000 C 
BRANCH   4   5
ATOM      5  C   UNL     1      22.247  14.285 -19.975  1.00  0.00     0.000 C 
BRANCH   5   6
ATOM      6  C   UNL     1      22.789  12.891 -19.615  1.00  0.00     0.000 C 
BRANCH   6   7
ATOM      7  C   UNL     1      24.257  12.915 -19.162  1.00  0.00     0.000 C 
BRANCH   7   8
ATOM      8  C   UNL     1      24.637  11.697 -18.302  1.00  0.00     0.000 C 
BRANCH   8   9
ATOM      9  C   UNL     1      23.446  10.779 -17.958  1.00  0.00     0.000 C 
BRANCH   9  10
ATOM     10  C   UNL     1      23.628   9.355 -18.513  1.00  0.00     0.000 C 
BRANCH  10  11
ATOM     11  C   UNL     1      22.287   8.656 -18.803  1.00  0.00     0.000 C 
BRANCH  11  12
ATOM     12  C   UNL     1      21.034   9.447 -18.378  1.00  0.00     0.000 C 
BRANCH  12  13
ATOM     13  C   UNL     1      20.250   8.860 -17.184  1.00  0.00     0.006 C 
BRANCH  13  14
ATOM     14  C   UNL     1      18.862   8.306 -17.555  1.00  0.00     0.053 C 
BRANCH  14  15
ATOM     15  C   UNL     1      18.798   6.809 -17.511  1.00  0.00     0.041 C 
ATOM     16  O   UNL     1      17.687   6.217 -17.548  1.00  0.00    -0.550 OA
ATOM     17  O   UNL     1      19.968   6.066 -17.392  1.00  0.00    -0.550 OA
ENDBRANCH  14  15
ENDBRANCH  13  14
ENDBRANCH  12  13
ENDBRANCH  11  12
ENDBRANCH  10  11
ENDBRANCH   9  10
ENDBRANCH   8   9
ENDBRANCH   7   8
ENDBRANCH   6   7
ENDBRANCH   5   6
ENDBRANCH   4   5
ENDBRANCH   3   4
ENDBRANCH   2   3
ENDBRANCH   1   2
BRANCH   1  18
ATOM     18  C   UNL     1      20.604  16.503 -16.752  1.00  0.00     0.000 C 
BRANCH  18  19
ATOM     19  C   UNL     1      20.389  15.210 -15.945  1.00  0.00     0.000 C 
BRANCH  19  20
ATOM     20  C   UNL     1      21.361  14.089 -16.369  1.00  0.00     0.000 C 
BRANCH  20  21
ATOM     21  C   UNL     1      20.696  12.710 -16.522  1.00  0.00     0.000 C 
BRANCH  21  22
ATOM     22  C   UNL     1      19.200  12.730 -16.169  1.00  0.00     0.000 C 
BRANCH  22  23
ATOM     23  C   UNL     1      18.287  12.449 -17.376  1.00  0.00     0.000 C 
BRANCH  23  24
ATOM     24  C   UNL     1      18.995  12.427 -18.747  1.00  0.00    -0.000 C 
BRANCH  24  25
ATOM     25  C   UNL     1      18.579  13.545 -19.724  1.00  0.00    -0.000 C 
BRANCH  25  26
ATOM     26  C   UNL     1      19.048  13.343 -21.176  1.00  0.00    -0.000 C 
BRANCH  26  27
ATOM     27  C   UNL     1      19.022  14.639 -21.999  1.00  0.00    -0.000 C 
BRANCH  27  28
ATOM     28  C   UNL     1      17.601  15.219 -22.055  1.00  0.00    -0.000 C 
BRANCH  28  29
ATOM     29  C   UNL     1      17.572  16.690 -22.507  1.00  0.00    -0.000 C 
BRANCH  29  30
ATOM     30  C   UNL     1      17.816  17.723 -21.388  1.00  0.00    -0.000 C 
BRANCH  30  31
ATOM     31  C   UNL     1      18.870  18.797 -21.714  1.00  0.00    -0.003 C 
ATOM     32  C   UNL     1      19.900  18.329 -22.740  1.00  0.00     0.004 C 
ENDBRANCH  30  31
ENDBRANCH  29  30
ENDBRANCH  28  29
ENDBRANCH  27  28
ENDBRANCH  26  27
ENDBRANCH  25  26
ENDBRANCH  24  25
ENDBRANCH  23  24
ENDBRANCH  22  23
ENDBRANCH  21  22
ENDBRANCH  20  21
ENDBRANCH  19  20
ENDBRANCH  18  19
ENDBRANCH   1  18
TORSDOF 28
ENDMDL
MODEL 5
REMARK VINA RESULT:    -3.449      2.267      3.954
REMARK INTER + INTRA:         -14.843
REMARK INTER:                  -9.107
REMARK INTRA:                  -5.736
REMARK UNBOUND:                -5.748
REMARK SMILES CCCCCCCCCCCCCCCCCCCCCCCCCCCCCC(=O)[O-]
REMARK SMILES IDX 16 1 17 2 18 3 19 4 20 5 21 6 22 7 23 8 24 9 25 10 26 11
REMARK SMILES IDX 27 12 28 13 29 14 30 15 31 16 32 17 15 18 14 19 13 20 12 21
REMARK SMILES IDX 11 22 10 23 9 24 8 25 7 26 6 27 5 28 4 29 3 30 2 31 1 32
REMARK H PARENT
REMARK Flexibility Score: inf
ROOT
ATOM      1  C   UNL     1      18.701  13.511 -20.023  1.00  0.00     0.000 C 
ENDROOT
BRANCH   1   2
ATOM      2  C   UNL     1      19.416  12.148 -20.089  1.00  0.00     0.000 C 
BRANCH   2   3
ATOM      3  C   UNL     1      18.640  11.035 -19.363  1.00  0.00     0.000 C 
BRANCH   3   4
ATOM      4  C   UNL     1      17.923  11.531 -18.093  1.00  0.00     0.000 C 
BRANCH   4   5
ATOM      5  C   UNL     1      18.357  10.851 -16.777  1.00  0.00     0.000 C 
BRANCH   5   6
ATOM      6  C   UNL     1      19.618   9.973 -16.867  1.00  0.00     0.000 C 
BRANCH   6   7
ATOM      7  C   UNL     1      19.396   8.547 -16.340  1.00  0.00     0.000 C 
BRANCH   7   8
ATOM      8  C   UNL     1      18.735   7.623 -17.379  1.00  0.00     0.000 C 
BRANCH   8   9
ATOM      9  C   UNL     1      19.524   7.504 -18.699  1.00  0.00     0.000 C 
BRANCH   9  10
ATOM     10  C   UNL     1      19.929   6.050 -19.007  1.00  0.00     0.000 C 
BRANCH  10  11
ATOM     11  C   UNL     1      20.008   5.176 -17.741  1.00  0.00     0.000 C 
BRANCH  11  12
ATOM     12  C   UNL     1      21.426   4.983 -17.169  1.00  0.00     0.000 C 
BRANCH  12  13
ATOM     13  C   UNL     1      22.583   5.233 -18.161  1.00  0.00     0.006 C 
BRANCH  13  14
ATOM     14  C   UNL     1      23.697   4.171 -18.107  1.00  0.00     0.053 C 
BRANCH  14  15
ATOM     15  C   UNL     1      23.233   2.864 -17.536  1.00  0.00     0.041 C 
ATOM     16  O   UNL     1      23.540   2.538 -16.358  1.00  0.00    -0.550 OA
ATOM     17  O   UNL     1      22.491   1.987 -18.320  1.00  0.00    -0.550 OA
ENDBRANCH  14  15
ENDBRANCH  13  14
ENDBRANCH  12  13
ENDBRANCH  11  12
ENDBRANCH  10  11
ENDBRANCH   9  10
ENDBRANCH   8   9
ENDBRANCH   7   8
ENDBRANCH   6   7
ENDBRANCH   5   6
ENDBRANCH   4   5
ENDBRANCH   3   4
ENDBRANCH   2   3
ENDBRANCH   1   2
BRANCH   1  18
ATOM     18  C   UNL     1      19.488  14.682 -20.639  1.00  0.00     0.000 C 
BRANCH  18  19
ATOM     19  C   UNL     1      21.012  14.493 -20.540  1.00  0.00     0.000 C 
BRANCH  19  20
ATOM     20  C   UNL     1      21.779  15.817 -20.739  1.00  0.00     0.000 C 
BRANCH  20  21
ATOM     21  C   UNL     1      22.464  16.340 -19.464  1.00  0.00     0.000 C 
BRANCH  21  22
ATOM     22  C   UNL     1      21.535  17.216 -18.607  1.00  0.00     0.000 C 
BRANCH  22  23
ATOM     23  C   UNL     1      21.157  16.567 -17.263  1.00  0.00     0.000 C 
BRANCH  23  24
ATOM     24  C   UNL     1      19.728  15.992 -17.187  1.00  0.00    -0.000 C 
BRANCH  24  25
ATOM     25  C   UNL     1      19.624  14.543 -16.671  1.00  0.00    -0.000 C 
BRANCH  25  26
ATOM     26  C   UNL     1      20.964  13.902 -16.265  1.00  0.00    -0.000 C 
BRANCH  26  27
ATOM     27  C   UNL     1      21.450  12.845 -17.266  1.00  0.00    -0.000 C 
BRANCH  27  28
ATOM     28  C   UNL     1      22.918  13.092 -17.648  1.00  0.00    -0.000 C 
BRANCH  28  29
ATOM     29  C   UNL     1      23.583  11.863 -18.293  1.00  0.00    -0.000 C 
BRANCH  29  30
ATOM     30  C   UNL     1      22.880  11.326 -19.555  1.00  0.00    -0.000 C 
BRANCH  30  31
ATOM     31  C   UNL     1      22.289   9.912 -19.418  1.00  0.00    -0.003 C 
ATOM     32  C   UNL     1      23.038   9.048 -18.403  1.00  0.00     0.004 C 
ENDBRANCH  30  31
ENDBRANCH  29  30
ENDBRANCH  28  29
ENDBRANCH  27  28
ENDBRANCH  26  27
ENDBRANCH  25  26
ENDBRANCH  24  25
ENDBRANCH  23  24
ENDBRANCH  22  23
ENDBRANCH  21  22
ENDBRANCH  20  21
ENDBRANCH  19  20
ENDBRANCH  18  19
ENDBRANCH   1  18
TORSDOF 28
ENDMDL
MODEL 6
REMARK VINA RESULT:    -3.446      4.080      8.079
REMARK INTER + INTRA:         -14.836
REMARK INTER:                  -9.118
REMARK INTRA:                  -5.717
REMARK UNBOUND:                -5.748
REMARK SMILES CCCCCCCCCCCCCCCCCCCCCCCCCCCCCC(=O)[O-]
REMARK SMILES IDX 16 1 17 2 18 3 19 4 20 5 21 6 22 7 23 8 24 9 25 10 26 11
REMARK SMILES IDX 27 12 28 13 29 14 30 15 31 16 32 17 15 18 14 19 13 20 12 21
REMARK SMILES IDX 11 22 10 23 9 24 8 25 7 26 6 27 5 28 4 29 3 30 2 31 1 32
REMARK H PARENT
REMARK Flexibility Score: inf
ROOT
ATOM      1  C   UNL     1      24.645  13.307 -20.913  1.00  0.00     0.000 C 
ENDROOT
BRANCH   1   2
ATOM      2  C   UNL     1      25.494  12.576 -19.856  1.00  0.00     0.000 C 
BRANCH   2   3
ATOM      3  C   UNL     1      24.856  11.253 -19.394  1.00  0.00     0.000 C 
BRANCH   3   4
ATOM      4  C   UNL     1      24.081  11.389 -18.070  1.00  0.00     0.000 C 
BRANCH   4   5
ATOM      5  C   UNL     1      22.543  11.383 -18.197  1.00  0.00     0.000 C 
BRANCH   5   6
ATOM      6  C   UNL     1      21.986  10.794 -19.506  1.00  0.00     0.000 C 
BRANCH   6   7
ATOM      7  C   UNL     1      21.240  11.829 -20.361  1.00  0.00     0.000 C 
BRANCH   7   8
ATOM      8  C   UNL     1      21.064  13.180 -19.644  1.00  0.00     0.000 C 
BRANCH   8   9
ATOM      9  C   UNL     1      20.104  14.149 -20.363  1.00  0.00     0.000 C 
BRANCH   9  10
ATOM     10  C   UNL     1      19.456  15.155 -19.395  1.00  0.00     0.000 C 
BRANCH  10  11
ATOM     11  C   UNL     1      20.020  16.579 -19.554  1.00  0.00     0.000 C 
BRANCH  11  12
ATOM     12  C   UNL     1      20.638  16.885 -20.933  1.00  0.00     0.000 C 
BRANCH  12  13
ATOM     13  C   UNL     1      19.860  17.897 -21.801  1.00  0.00     0.006 C 
BRANCH  13  14
ATOM     14  C   UNL     1      18.540  17.348 -22.376  1.00  0.00     0.053 C 
BRANCH  14  15
ATOM     15  C   UNL     1      17.329  18.035 -21.821  1.00  0.00     0.041 C 
ATOM     16  O   UNL     1      17.443  19.125 -21.199  1.00  0.00    -0.550 OA
ATOM     17  O   UNL     1      16.074  17.452 -21.958  1.00  0.00    -0.550 OA
ENDBRANCH  14  15
ENDBRANCH  13  14
ENDBRANCH  12  13
ENDBRANCH  11  12
ENDBRANCH  10  11
ENDBRANCH   9  10
ENDBRANCH   8   9
ENDBRANCH   7   8
ENDBRANCH   6   7
ENDBRANCH   5   6
ENDBRANCH   4   5
ENDBRANCH   3   4
ENDBRANCH   2   3
ENDBRANCH   1   2
BRANCH   1  18
ATOM     18  C   UNL     1      24.160  14.707 -20.495  1.00  0.00     0.000 C 
BRANCH  18  19
ATOM     19  C   UNL     1      24.436  15.014 -19.012  1.00  0.00     0.000 C 
BRANCH  19  20
ATOM     20  C   UNL     1      23.383  15.965 -18.407  1.00  0.00     0.000 C 
BRANCH  20  21
ATOM     21  C   UNL     1      23.053  15.676 -16.932  1.00  0.00     0.000 C 
BRANCH  21  22
ATOM     22  C   UNL     1      21.913  14.659 -16.766  1.00  0.00     0.000 C 
BRANCH  22  23
ATOM     23  C   UNL     1      20.709  15.218 -15.986  1.00  0.00     0.000 C 
BRANCH  23  24
ATOM     24  C   UNL     1      19.834  14.162 -15.279  1.00  0.00    -0.000 C 
BRANCH  24  25
ATOM     25  C   UNL     1      19.688  12.819 -16.021  1.00  0.00    -0.000 C 
BRANCH  25  26
ATOM     26  C   UNL     1      18.439  12.704 -16.913  1.00  0.00    -0.000 C 
BRANCH  26  27
ATOM     27  C   UNL     1      18.234  11.291 -17.478  1.00  0.00    -0.000 C 
BRANCH  27  28
ATOM     28  C   UNL     1      19.235  10.306 -16.855  1.00  0.00    -0.000 C 
BRANCH  28  29
ATOM     29  C   UNL     1      19.339   8.984 -17.637  1.00  0.00    -0.000 C 
BRANCH  29  30
ATOM     30  C   UNL     1      20.133   7.867 -16.931  1.00  0.00    -0.000 C 
BRANCH  30  31
ATOM     31  C   UNL     1      19.685   6.435 -17.274  1.00  0.00    -0.003 C 
ATOM     32  C   UNL     1      18.195   6.337 -17.600  1.00  0.00     0.004 C 
ENDBRANCH  30  31
ENDBRANCH  29  30
ENDBRANCH  28  29
ENDBRANCH  27  28
ENDBRANCH  26  27
ENDBRANCH  25  26
ENDBRANCH  24  25
ENDBRANCH  23  24
ENDBRANCH  22  23
ENDBRANCH  21  22
ENDBRANCH  20  21
ENDBRANCH  19  20
ENDBRANCH  18  19
ENDBRANCH   1  18
TORSDOF 28
ENDMDL
MODEL 7
REMARK VINA RESULT:    -3.436      1.865      3.738
REMARK INTER + INTRA:         -14.808
REMARK INTER:                  -9.821
REMARK INTRA:                  -4.987
REMARK UNBOUND:                -5.748
REMARK SMILES CCCCCCCCCCCCCCCCCCCCCCCCCCCCCC(=O)[O-]
REMARK SMILES IDX 16 1 17 2 18 3 19 4 20 5 21 6 22 7 23 8 24 9 25 10 26 11
REMARK SMILES IDX 27 12 28 13 29 14 30 15 31 16 32 17 15 18 14 19 13 20 12 21
REMARK SMILES IDX 11 22 10 23 9 24 8 25 7 26 6 27 5 28 4 29 3 30 2 31 1 32
REMARK H PARENT
REMARK Flexibility Score: inf
ROOT
ATOM      1  C   UNL     1      17.975  12.899 -17.881  1.00  0.00     0.000 C 
ENDROOT
BRANCH   1   2
ATOM      2  C   UNL     1      17.996  11.898 -16.710  1.00  0.00     0.000 C 
BRANCH   2   3
ATOM      3  C   UNL     1      19.389  11.285 -16.479  1.00  0.00     0.000 C 
BRANCH   3   4
ATOM      4  C   UNL     1      19.440   9.776 -16.787  1.00  0.00     0.000 C 
BRANCH   4   5
ATOM      5  C   UNL     1      18.804   9.351 -18.127  1.00  0.00     0.000 C 
BRANCH   5   6
ATOM      6  C   UNL     1      19.791   9.104 -19.283  1.00  0.00     0.000 C 
BRANCH   6   7
ATOM      7  C   UNL     1      19.344   7.974 -20.224  1.00  0.00     0.000 C 
BRANCH   7   8
ATOM      8  C   UNL     1      17.941   7.437 -19.886  1.00  0.00     0.000 C 
BRANCH   8   9
ATOM      9  C   UNL     1      17.928   5.960 -19.444  1.00  0.00     0.000 C 
BRANCH   9  10
ATOM     10  C   UNL     1      17.835   5.810 -17.914  1.00  0.00     0.000 C 
BRANCH  10  11
ATOM     11  C   UNL     1      19.074   5.122 -17.310  1.00  0.00     0.000 C 
BRANCH  11  12
ATOM     12  C   UNL     1      20.317   6.024 -17.170  1.00  0.00     0.000 C 
BRANCH  12  13
ATOM     13  C   UNL     1      21.488   5.694 -18.120  1.00  0.00     0.006 C 
BRANCH  13  14
ATOM     14  C   UNL     1      22.300   4.451 -17.709  1.00  0.00     0.053 C 
BRANCH  14  15
ATOM     15  C   UNL     1      22.021   3.258 -18.573  1.00  0.00     0.041 C 
ATOM     16  O   UNL     1      21.259   3.357 -19.571  1.00  0.00    -0.550 OA
ATOM     17  O   UNL     1      22.576   2.023 -18.254  1.00  0.00    -0.550 OA
ENDBRANCH  14  15
ENDBRANCH  13  14
ENDBRANCH  12  13
ENDBRANCH  11  12
ENDBRANCH  10  11
ENDBRANCH   9  10
ENDBRANCH   8   9
ENDBRANCH   7   8
ENDBRANCH   6   7
ENDBRANCH   5   6
ENDBRANCH   4   5
ENDBRANCH   3   4
ENDBRANCH   2   3
ENDBRANCH   1   2
BRANCH   1  18
ATOM     18  C   UNL     1      19.282  12.971 -18.692  1.00  0.00     0.000 C 
BRANCH  18  19
ATOM     19  C   UNL     1      19.060  12.739 -20.198  1.00  0.00     0.000 C 
BRANCH  19  20
ATOM     20  C   UNL     1      18.569  14.013 -20.918  1.00  0.00     0.000 C 
BRANCH  20  21
ATOM     21  C   UNL     1      19.698  14.971 -21.333  1.00  0.00     0.000 C 
BRANCH  21  22
ATOM     22  C   UNL     1      19.552  16.368 -20.708  1.00  0.00     0.000 C 
BRANCH  22  23
ATOM     23  C   UNL     1      20.420  16.565 -19.451  1.00  0.00     0.000 C 
BRANCH  23  24
ATOM     24  C   UNL     1      19.654  16.539 -18.112  1.00  0.00    -0.000 C 
BRANCH  24  25
ATOM     25  C   UNL     1      20.535  16.543 -16.847  1.00  0.00    -0.000 C 
BRANCH  25  26
ATOM     26  C   UNL     1      20.467  15.255 -16.006  1.00  0.00    -0.000 C 
BRANCH  26  27
ATOM     27  C   UNL     1      21.578  14.254 -16.351  1.00  0.00    -0.000 C 
BRANCH  27  28
ATOM     28  C   UNL     1      22.751  14.962 -17.046  1.00  0.00    -0.000 C 
BRANCH  28  29
ATOM     29  C   UNL     1      23.286  14.181 -18.260  1.00  0.00    -0.000 C 
BRANCH  29  30
ATOM     30  C   UNL     1      22.721  12.756 -18.422  1.00  0.00    -0.000 C 
BRANCH  30  31
ATOM     31  C   UNL     1      23.643  11.631 -17.917  1.00  0.00    -0.003 C 
ATOM     32  C   UNL     1      23.285  10.262 -18.494  1.00  0.00     0.004 C 
ENDBRANCH  30  31
ENDBRANCH  29  30
ENDBRANCH  28  29
ENDBRANCH  27  28
ENDBRANCH  26  27
ENDBRANCH  25  26
ENDBRANCH  24  25
ENDBRANCH  23  24
ENDBRANCH  22  23
ENDBRANCH  21  22
ENDBRANCH  20  21
ENDBRANCH  19  20
ENDBRANCH  18  19
ENDBRANCH   1  18
TORSDOF 28
ENDMDL
MODEL 8
REMARK VINA RESULT:    -3.416      4.388      8.585
REMARK INTER + INTRA:         -14.755
REMARK INTER:                  -9.738
REMARK INTRA:                  -5.017
REMARK UNBOUND:                -5.748
REMARK SMILES CCCCCCCCCCCCCCCCCCCCCCCCCCCCCC(=O)[O-]
REMARK SMILES IDX 16 1 17 2 18 3 19 4 20 5 21 6 22 7 23 8 24 9 25 10 26 11
REMARK SMILES IDX 27 12 28 13 29 14 30 15 31 16 32 17 15 18 14 19 13 20 12 21
REMARK SMILES IDX 11 22 10 23 9 24 8 25 7 26 6 27 5 28 4 29 3 30 2 31 1 32
REMARK H PARENT
REMARK Flexibility Score: inf
ROOT
ATOM      1  C   UNL     1      19.229  13.577 -19.870  1.00  0.00     0.000 C 
ENDROOT
BRANCH   1   2
ATOM      2  C   UNL     1      18.709  12.347 -19.103  1.00  0.00     0.000 C 
BRANCH   2   3
ATOM      3  C   UNL     1      17.947  12.725 -17.820  1.00  0.00     0.000 C 
BRANCH   3   4
ATOM      4  C   UNL     1      18.492  12.017 -16.566  1.00  0.00     0.000 C 
BRANCH   4   5
ATOM      5  C   UNL     1      19.836  12.555 -16.031  1.00  0.00     0.000 C 
BRANCH   5   6
ATOM      6  C   UNL     1      19.834  14.029 -15.588  1.00  0.00     0.000 C 
BRANCH   6   7
ATOM      7  C   UNL     1      20.939  14.859 -16.258  1.00  0.00     0.000 C 
BRANCH   7   8
ATOM      8  C   UNL     1      20.503  16.306 -16.551  1.00  0.00     0.000 C 
BRANCH   8   9
ATOM      9  C   UNL     1      19.973  16.521 -17.984  1.00  0.00     0.000 C 
BRANCH   9  10
ATOM     10  C   UNL     1      21.090  16.920 -18.965  1.00  0.00     0.000 C 
BRANCH  10  11
ATOM     11  C   UNL     1      20.586  17.050 -20.415  1.00  0.00     0.000 C 
BRANCH  11  12
ATOM     12  C   UNL     1      19.065  17.253 -20.561  1.00  0.00     0.000 C 
BRANCH  12  13
ATOM     13  C   UNL     1      18.633  18.515 -21.337  1.00  0.00     0.006 C 
BRANCH  13  14
ATOM     14  C   UNL     1      19.420  18.752 -22.640  1.00  0.00     0.053 C 
BRANCH  14  15
ATOM     15  C   UNL     1      18.727  18.201 -23.850  1.00  0.00     0.041 C 
ATOM     16  O   UNL     1      19.374  17.974 -24.907  1.00  0.00    -0.550 OA
ATOM     17  O   UNL     1      17.356  17.972 -23.823  1.00  0.00    -0.550 OA
ENDBRANCH  14  15
ENDBRANCH  13  14
ENDBRANCH  12  13
ENDBRANCH  11  12
ENDBRANCH  10  11
ENDBRANCH   9  10
ENDBRANCH   8   9
ENDBRANCH   7   8
ENDBRANCH   6   7
ENDBRANCH   5   6
ENDBRANCH   4   5
ENDBRANCH   3   4
ENDBRANCH   2   3
ENDBRANCH   1   2
BRANCH   1  18
ATOM     18  C   UNL     1      20.646  13.423 -20.453  1.00  0.00     0.000 C 
BRANCH  18  19
ATOM     19  C   UNL     1      21.498  12.399 -19.681  1.00  0.00     0.000 C 
BRANCH  19  20
ATOM     20  C   UNL     1      22.576  13.076 -18.808  1.00  0.00     0.000 C 
BRANCH  20  21
ATOM     21  C   UNL     1      23.301  12.114 -17.852  1.00  0.00     0.000 C 
BRANCH  21  22
ATOM     22  C   UNL     1      24.178  11.090 -18.591  1.00  0.00     0.000 C 
BRANCH  22  23
ATOM     23  C   UNL     1      24.232   9.719 -17.893  1.00  0.00     0.000 C 
BRANCH  23  24
ATOM     24  C   UNL     1      23.520   8.571 -18.638  1.00  0.00    -0.000 C 
BRANCH  24  25
ATOM     25  C   UNL     1      22.068   8.863 -19.069  1.00  0.00    -0.000 C 
BRANCH  25  26
ATOM     26  C   UNL     1      21.083   9.095 -17.910  1.00  0.00    -0.000 C 
BRANCH  26  27
ATOM     27  C   UNL     1      19.621   8.846 -18.308  1.00  0.00    -0.000 C 
BRANCH  27  28
ATOM     28  C   UNL     1      18.974   7.808 -17.378  1.00  0.00    -0.000 C 
BRANCH  28  29
ATOM     29  C   UNL     1      19.835   6.544 -17.202  1.00  0.00    -0.000 C 
BRANCH  29  30
ATOM     30  C   UNL     1      19.774   5.543 -18.373  1.00  0.00    -0.000 C 
BRANCH  30  31
ATOM     31  C   UNL     1      21.139   5.016 -18.849  1.00  0.00    -0.003 C 
ATOM     32  C   UNL     1      22.179   4.957 -17.730  1.00  0.00     0.004 C 
ENDBRANCH  30  31
ENDBRANCH  29  30
ENDBRANCH  28  29
ENDBRANCH  27  28
ENDBRANCH  26  27
ENDBRANCH  25  26
ENDBRANCH  24  25
ENDBRANCH  23  24
ENDBRANCH  22  23
ENDBRANCH  21  22
ENDBRANCH  20  21
ENDBRANCH  19  20
ENDBRANCH  18  19
ENDBRANCH   1  18
TORSDOF 28
ENDMDL
MODEL 9
REMARK VINA RESULT:    -3.408      1.786      4.881
REMARK INTER + INTRA:         -14.734
REMARK INTER:                  -9.276
REMARK INTRA:                  -5.458
REMARK UNBOUND:                -5.748
REMARK SMILES CCCCCCCCCCCCCCCCCCCCCCCCCCCCCC(=O)[O-]
REMARK SMILES IDX 16 1 17 2 18 3 19 4 20 5 21 6 22 7 23 8 24 9 25 10 26 11
REMARK SMILES IDX 27 12 28 13 29 14 30 15 31 16 32 17 15 18 14 19 13 20 12 21
REMARK SMILES IDX 11 22 10 23 9 24 8 25 7 26 6 27 5 28 4 29 3 30 2 31 1 32
REMARK H PARENT
REMARK Flexibility Score: inf
ROOT
ATOM      1  C   UNL     1      20.609  13.354 -19.588  1.00  0.00     0.000 C 
ENDROOT
BRANCH   1   2
ATOM      2  C   UNL     1      21.295  12.015 -19.256  1.00  0.00     0.000 C 
BRANCH   2   3
ATOM      3  C   UNL     1      22.158  12.090 -17.983  1.00  0.00     0.000 C 
BRANCH   3   4
ATOM      4  C   UNL     1      23.539  12.725 -18.229  1.00  0.00     0.000 C 
BRANCH   4   5
ATOM      5  C   UNL     1      24.679  11.733 -18.541  1.00  0.00     0.000 C 
BRANCH   5   6
ATOM      6  C   UNL     1      24.855  10.582 -17.534  1.00  0.00     0.000 C 
BRANCH   6   7
ATOM      7  C   UNL     1      25.003   9.210 -18.209  1.00  0.00     0.000 C 
BRANCH   7   8
ATOM      8  C   UNL     1      24.554   9.218 -19.681  1.00  0.00     0.000 C 
BRANCH   8   9
ATOM      9  C   UNL     1      23.163   8.592 -19.913  1.00  0.00     0.000 C 
BRANCH   9  10
ATOM     10  C   UNL     1      22.620   7.894 -18.653  1.00  0.00     0.000 C 
BRANCH  10  11
ATOM     11  C   UNL     1      21.296   8.507 -18.160  1.00  0.00     0.000 C 
BRANCH  11  12
ATOM     12  C   UNL     1      20.149   8.497 -19.190  1.00  0.00     0.000 C 
BRANCH  12  13
ATOM     13  C   UNL     1      18.739   8.253 -18.613  1.00  0.00     0.006 C 
BRANCH  13  14
ATOM     14  C   UNL     1      18.714   7.325 -17.384  1.00  0.00     0.053 C 
BRANCH  14  15
ATOM     15  C   UNL     1      18.355   5.911 -17.726  1.00  0.00     0.041 C 
ATOM     16  O   UNL     1      18.924   4.950 -17.143  1.00  0.00    -0.550 OA
ATOM     17  O   UNL     1      17.416   5.652 -18.718  1.00  0.00    -0.550 OA
ENDBRANCH  14  15
ENDBRANCH  13  14
ENDBRANCH  12  13
ENDBRANCH  11  12
ENDBRANCH  10  11
ENDBRANCH   9  10
ENDBRANCH   8   9
ENDBRANCH   7   8
ENDBRANCH   6   7
ENDBRANCH   5   6
ENDBRANCH   4   5
ENDBRANCH   3   4
ENDBRANCH   2   3
ENDBRANCH   1   2
BRANCH   1  18
ATOM     18  C   UNL     1      19.090  13.380 -19.338  1.00  0.00     0.000 C 
BRANCH  18  19
ATOM     19  C   UNL     1      18.477  11.970 -19.254  1.00  0.00     0.000 C 
BRANCH  19  20
ATOM     20  C   UNL     1      17.651  11.770 -17.966  1.00  0.00     0.000 C 
BRANCH  20  21
ATOM     21  C   UNL     1      18.482  11.310 -16.755  1.00  0.00     0.000 C 
BRANCH  21  22
ATOM     22  C   UNL     1      18.594  12.389 -15.667  1.00  0.00     0.000 C 
BRANCH  22  23
ATOM     23  C   UNL     1      19.974  13.071 -15.627  1.00  0.00     0.000 C 
BRANCH  23  24
ATOM     24  C   UNL     1      19.955  14.607 -15.767  1.00  0.00    -0.000 C 
BRANCH  24  25
ATOM     25  C   UNL     1      21.266  15.241 -16.273  1.00  0.00    -0.000 C 
BRANCH  25  26
ATOM     26  C   UNL     1      21.083  16.445 -17.214  1.00  0.00    -0.000 C 
BRANCH  26  27
ATOM     27  C   UNL     1      22.141  16.504 -18.324  1.00  0.00    -0.000 C 
BRANCH  27  28
ATOM     28  C   UNL     1      21.496  16.859 -19.673  1.00  0.00    -0.000 C 
BRANCH  28  29
ATOM     29  C   UNL     1      19.967  17.015 -19.582  1.00  0.00    -0.000 C 
BRANCH  29  30
ATOM     30  C   UNL     1      19.209  16.807 -20.908  1.00  0.00    -0.000 C 
BRANCH  30  31
ATOM     31  C   UNL     1      19.931  17.340 -22.159  1.00  0.00    -0.003 C 
ATOM     32  C   UNL     1      19.497  18.754 -22.542  1.00  0.00     0.004 C 
ENDBRANCH  30  31
ENDBRANCH  29  30
ENDBRANCH  28  29
ENDBRANCH  27  28
ENDBRANCH  26  27
ENDBRANCH  25  26
ENDBRANCH  24  25
ENDBRANCH  23  24
ENDBRANCH  22  23
ENDBRANCH  21  22
ENDBRANCH  20  21
ENDBRANCH  19  20
ENDBRANCH  18  19
ENDBRANCH   1  18
TORSDOF 28
ENDMDL
