MODEL 1
REMARK VINA RESULT:    -6.205      0.000      0.000
REMARK INTER + INTRA:          -7.865
REMARK INTER:                  -7.475
REMARK INTRA:                  -0.391
REMARK UNBOUND:                -0.391
REMARK SMILES O=c1c(O)c(-c2ccc(O)cc2O)oc2cc(O)cc(O)c12
REMARK SMILES IDX 5 1 3 2 2 3 1 4 22 5 20 6 19 7 17 8 16 9 15 10 14 11 6 12
REMARK SMILES IDX 8 13 7 14 9 15 11 16 12 17 10 18 13 20 4 22 21 24 18 26
REMARK H PARENT 10 19 13 21 4 23 21 25 18 27
REMARK Flexibility Score: inf
ROOT
ATOM      1  C   UNL     1      52.406  14.419  26.279  1.00  0.00     0.184 A 
ATOM      2  C   UNL     1      51.736  14.270  25.052  1.00  0.00     0.208 A 
ATOM      3  C   UNL     1      50.349  14.055  25.057  1.00  0.00     0.238 A 
ATOM      4  O   UNL     1      49.736  13.931  23.963  1.00  0.00    -0.285 OA
ATOM      5  C   UNL     1      49.663  13.973  26.287  1.00  0.00     0.111 A 
ATOM      6  C   UNL     1      48.267  13.754  26.382  1.00  0.00     0.134 A 
ATOM      7  C   UNL     1      47.659  13.676  27.644  1.00  0.00     0.093 A 
ATOM      8  C   UNL     1      48.417  13.810  28.809  1.00  0.00     0.123 A 
ATOM      9  C   UNL     1      49.796  14.027  28.723  1.00  0.00     0.094 A 
ATOM     10  C   UNL     1      50.421  14.110  27.475  1.00  0.00     0.146 A 
ATOM     11  O   UNL     1      51.731  14.320  27.421  1.00  0.00    -0.451 OA
ENDROOT
BRANCH   1  12
ATOM     12  C   UNL     1      53.863  14.659  26.343  1.00  0.00     0.063 A 
ATOM     13  C   UNL     1      55.747  16.125  25.889  1.00  0.00     0.047 A 
ATOM     14  C   UNL     1      54.374  15.868  25.850  1.00  0.00     0.020 A 
ATOM     15  C   UNL     1      56.627  15.169  26.410  1.00  0.00     0.119 A 
ATOM     16  C   UNL     1      56.128  13.951  26.882  1.00  0.00     0.093 A 
ATOM     17  C   UNL     1      54.752  13.684  26.840  1.00  0.00     0.130 A 
BRANCH  15  18
ATOM     18  O   UNL     1      57.997  15.416  26.458  1.00  0.00    -0.508 OA
ATOM     19  H   UNL     1      58.395  16.068  27.124  1.00  0.00     0.293 HD
ENDBRANCH  15  18
BRANCH  17  20
ATOM     20  O   UNL     1      54.273  12.445  27.269  1.00  0.00    -0.507 OA
ATOM     21  H   UNL     1      54.053  11.704  26.614  1.00  0.00     0.293 HD
ENDBRANCH  17  20
ENDBRANCH   1  12
BRANCH   2  22
ATOM     22  O   UNL     1      52.452  14.311  23.852  1.00  0.00    -0.502 OA
ATOM     23  H   UNL     1      52.683  15.181  23.389  1.00  0.00     0.293 HD
ENDBRANCH   2  22
BRANCH   6  24
ATOM     24  O   UNL     1      47.483  13.615  25.236  1.00  0.00    -0.507 OA
ATOM     25  H   UNL     1      47.764  14.014  24.347  1.00  0.00     0.293 HD
ENDBRANCH   6  24
BRANCH   8  26
ATOM     26  O   UNL     1      47.789  13.727  30.050  1.00  0.00    -0.508 OA
ATOM     27  H   UNL     1      46.779  13.710  30.132  1.00  0.00     0.293 HD
ENDBRANCH   8  26
TORSDOF 6
ENDMDL
MODEL 2
REMARK VINA RESULT:    -5.901      1.618      3.430
REMARK INTER + INTRA:          -7.500
REMARK INTER:                  -7.317
REMARK INTRA:                  -0.183
REMARK UNBOUND:                -0.391
REMARK SMILES O=c1c(O)c(-c2ccc(O)cc2O)oc2cc(O)cc(O)c12
REMARK SMILES IDX 5 1 3 2 2 3 1 4 22 5 20 6 19 7 17 8 16 9 15 10 14 11 6 12
REMARK SMILES IDX 8 13 7 14 9 15 11 16 12 17 10 18 13 20 4 22 21 24 18 26
REMARK H PARENT 10 19 13 21 4 23 21 25 18 27
REMARK Flexibility Score: inf
ROOT
ATOM      1  C   UNL     1      52.536  14.689  25.747  1.00  0.00     0.184 A 
ATOM      2  C   UNL     1      51.551  14.249  26.649  1.00  0.00     0.208 A 
ATOM      3  C   UNL     1      50.218  14.178  26.216  1.00  0.00     0.238 A 
ATOM      4  O   UNL     1      49.327  13.775  27.012  1.00  0.00    -0.285 OA
ATOM      5  C   UNL     1      49.893  14.564  24.899  1.00  0.00     0.111 A 
ATOM      6  C   UNL     1      48.575  14.525  24.383  1.00  0.00     0.134 A 
ATOM      7  C   UNL     1      48.331  14.935  23.064  1.00  0.00     0.093 A 
ATOM      8  C   UNL     1      49.376  15.383  22.253  1.00  0.00     0.123 A 
ATOM      9  C   UNL     1      50.681  15.422  22.755  1.00  0.00     0.094 A 
ATOM     10  C   UNL     1      50.945  15.017  24.066  1.00  0.00     0.146 A 
ATOM     11  O   UNL     1      52.193  15.060  24.518  1.00  0.00    -0.451 OA
ENDROOT
BRANCH   1  12
ATOM     12  C   UNL     1      53.959  14.777  26.136  1.00  0.00     0.063 A 
ATOM     13  C   UNL     1      55.968  16.125  26.368  1.00  0.00     0.047 A 
ATOM     14  C   UNL     1      54.621  16.008  26.016  1.00  0.00     0.020 A 
ATOM     15  C   UNL     1      56.674  15.009  26.833  1.00  0.00     0.119 A 
ATOM     16  C   UNL     1      56.028  13.773  26.934  1.00  0.00     0.093 A 
ATOM     17  C   UNL     1      54.677  13.646  26.576  1.00  0.00     0.130 A 
BRANCH  15  18
ATOM     18  O   UNL     1      58.015  15.114  27.191  1.00  0.00    -0.508 OA
ATOM     19  H   UNL     1      58.672  14.363  27.011  1.00  0.00     0.293 HD
ENDBRANCH  15  18
BRANCH  17  20
ATOM     20  O   UNL     1      54.059  12.396  26.635  1.00  0.00    -0.507 OA
ATOM     21  H   UNL     1      54.200  11.769  27.418  1.00  0.00     0.293 HD
ENDBRANCH  17  20
ENDBRANCH   1  12
BRANCH   2  22
ATOM     22  O   UNL     1      51.899  13.917  27.961  1.00  0.00    -0.502 OA
ATOM     23  H   UNL     1      51.242  13.985  28.729  1.00  0.00     0.293 HD
ENDBRANCH   2  22
BRANCH   6  24
ATOM     24  O   UNL     1      47.509  14.085  25.170  1.00  0.00    -0.507 OA
ATOM     25  H   UNL     1      47.649  13.451  25.950  1.00  0.00     0.293 HD
ENDBRANCH   6  24
BRANCH   8  26
ATOM     26  O   UNL     1      49.107  15.785  20.947  1.00  0.00    -0.508 OA
ATOM     27  H   UNL     1      48.164  15.784  20.575  1.00  0.00     0.293 HD
ENDBRANCH   8  26
TORSDOF 6
ENDMDL
MODEL 3
REMARK VINA RESULT:    -5.535      3.002      5.749
REMARK INTER + INTRA:          -7.059
REMARK INTER:                  -6.835
REMARK INTRA:                  -0.224
REMARK UNBOUND:                -0.391
REMARK SMILES O=c1c(O)c(-c2ccc(O)cc2O)oc2cc(O)cc(O)c12
REMARK SMILES IDX 5 1 3 2 2 3 1 4 22 5 20 6 19 7 17 8 16 9 15 10 14 11 6 12
REMARK SMILES IDX 8 13 7 14 9 15 11 16 12 17 10 18 13 20 4 22 21 24 18 26
REMARK H PARENT 10 19 13 21 4 23 21 25 18 27
REMARK Flexibility Score: inf
ROOT
ATOM      1  C   UNL     1      51.781  13.587  25.512  1.00  0.00     0.184 A 
ATOM      2  C   UNL     1      51.621  12.212  25.756  1.00  0.00     0.208 A 
ATOM      3  C   UNL     1      52.302  11.631  26.838  1.00  0.00     0.238 A 
ATOM      4  O   UNL     1      52.158  10.401  27.073  1.00  0.00    -0.285 OA
ATOM      5  C   UNL     1      53.142  12.431  27.640  1.00  0.00     0.111 A 
ATOM      6  C   UNL     1      53.867  11.924  28.746  1.00  0.00     0.134 A 
ATOM      7  C   UNL     1      54.690  12.783  29.490  1.00  0.00     0.093 A 
ATOM      8  C   UNL     1      54.804  14.132  29.151  1.00  0.00     0.123 A 
ATOM      9  C   UNL     1      54.091  14.639  28.060  1.00  0.00     0.094 A 
ATOM     10  C   UNL     1      53.263  13.801  27.307  1.00  0.00     0.146 A 
ATOM     11  O   UNL     1      52.593  14.309  26.278  1.00  0.00    -0.451 OA
ENDROOT
BRANCH   1  12
ATOM     12  C   UNL     1      51.084  14.263  24.397  1.00  0.00     0.063 A 
ATOM     13  C   UNL     1      49.009  14.713  23.215  1.00  0.00     0.047 A 
ATOM     14  C   UNL     1      49.698  14.095  24.261  1.00  0.00     0.020 A 
ATOM     15  C   UNL     1      49.700  15.497  22.283  1.00  0.00     0.119 A 
ATOM     16  C   UNL     1      51.085  15.650  22.398  1.00  0.00     0.093 A 
ATOM     17  C   UNL     1      51.785  15.027  23.442  1.00  0.00     0.130 A 
BRANCH  15  18
ATOM     18  O   UNL     1      49.024  16.122  21.239  1.00  0.00    -0.508 OA
ATOM     19  H   UNL     1      48.125  16.570  21.382  1.00  0.00     0.293 HD
ENDBRANCH  15  18
BRANCH  17  20
ATOM     20  O   UNL     1      53.173  15.148  23.515  1.00  0.00    -0.507 OA
ATOM     21  H   UNL     1      53.639  15.411  24.376  1.00  0.00     0.293 HD
ENDBRANCH  17  20
ENDBRANCH   1  12
BRANCH   2  22
ATOM     22  O   UNL     1      50.816  11.438  24.915  1.00  0.00    -0.502 OA
ATOM     23  H   UNL     1      50.920  10.434  24.840  1.00  0.00     0.293 HD
ENDBRANCH   2  22
BRANCH   6  24
ATOM     24  O   UNL     1      53.775  10.580  29.110  1.00  0.00    -0.507 OA
ATOM     25  H   UNL     1      54.588   9.974  29.118  1.00  0.00     0.293 HD
ENDBRANCH   6  24
BRANCH   8  26
ATOM     26  O   UNL     1      55.629  14.963  29.906  1.00  0.00    -0.508 OA
ATOM     27  H   UNL     1      55.538  15.027  30.913  1.00  0.00     0.293 HD
ENDBRANCH   8  26
TORSDOF 6
ENDMDL
MODEL 4
REMARK VINA RESULT:    -5.509      2.613      4.591
REMARK INTER + INTRA:          -7.027
REMARK INTER:                  -6.621
REMARK INTRA:                  -0.407
REMARK UNBOUND:                -0.391
REMARK SMILES O=c1c(O)c(-c2ccc(O)cc2O)oc2cc(O)cc(O)c12
REMARK SMILES IDX 5 1 3 2 2 3 1 4 22 5 20 6 19 7 17 8 16 9 15 10 14 11 6 12
REMARK SMILES IDX 8 13 7 14 9 15 11 16 12 17 10 18 13 20 4 22 21 24 18 26
REMARK H PARENT 10 19 13 21 4 23 21 25 18 27
REMARK Flexibility Score: inf
ROOT
ATOM      1  C   UNL     1      50.690  13.425  26.712  1.00  0.00     0.184 A 
ATOM      2  C   UNL     1      49.548  13.835  27.421  1.00  0.00     0.208 A 
ATOM      3  C   UNL     1      48.566  14.584  26.753  1.00  0.00     0.238 A 
ATOM      4  O   UNL     1      47.532  14.948  27.376  1.00  0.00    -0.285 OA
ATOM      5  C   UNL     1      48.755  14.924  25.397  1.00  0.00     0.111 A 
ATOM      6  C   UNL     1      47.818  15.679  24.651  1.00  0.00     0.134 A 
ATOM      7  C   UNL     1      48.083  15.984  23.307  1.00  0.00     0.093 A 
ATOM      8  C   UNL     1      49.262  15.553  22.698  1.00  0.00     0.123 A 
ATOM      9  C   UNL     1      50.192  14.807  23.429  1.00  0.00     0.094 A 
ATOM     10  C   UNL     1      49.947  14.490  24.768  1.00  0.00     0.146 A 
ATOM     11  O   UNL     1      50.844  13.777  25.439  1.00  0.00    -0.451 OA
ENDROOT
BRANCH   1  12
ATOM     12  C   UNL     1      51.755  12.625  27.353  1.00  0.00     0.063 A 
ATOM     13  C   UNL     1      52.609  10.444  28.000  1.00  0.00     0.047 A 
ATOM     14  C   UNL     1      51.624  11.229  27.395  1.00  0.00     0.020 A 
ATOM     15  C   UNL     1      53.731  11.046  28.581  1.00  0.00     0.119 A 
ATOM     16  C   UNL     1      53.858  12.438  28.563  1.00  0.00     0.093 A 
ATOM     17  C   UNL     1      52.870  13.234  27.964  1.00  0.00     0.130 A 
BRANCH  15  18
ATOM     18  O   UNL     1      54.721  10.273  29.182  1.00  0.00    -0.508 OA
ATOM     19  H   UNL     1      55.400  10.681  29.815  1.00  0.00     0.293 HD
ENDBRANCH  15  18
BRANCH  17  20
ATOM     20  O   UNL     1      52.986  14.624  27.998  1.00  0.00    -0.507 OA
ATOM     21  H   UNL     1      53.886  15.085  27.922  1.00  0.00     0.293 HD
ENDBRANCH  17  20
ENDBRANCH   1  12
BRANCH   2  22
ATOM     22  O   UNL     1      49.412  13.520  28.776  1.00  0.00    -0.502 OA
ATOM     23  H   UNL     1      50.068  13.844  29.476  1.00  0.00     0.293 HD
ENDBRANCH   2  22
BRANCH   6  24
ATOM     24  O   UNL     1      46.630  16.125  25.232  1.00  0.00    -0.507 OA
ATOM     25  H   UNL     1      46.527  17.074  25.572  1.00  0.00     0.293 HD
ENDBRANCH   6  24
BRANCH   8  26
ATOM     26  O   UNL     1      49.502  15.871  21.363  1.00  0.00    -0.508 OA
ATOM     27  H   UNL     1      49.785  16.802  21.082  1.00  0.00     0.293 HD
ENDBRANCH   8  26
TORSDOF 6
ENDMDL
MODEL 5
REMARK VINA RESULT:    -5.292      2.630      6.270
REMARK INTER + INTRA:          -6.766
REMARK INTER:                  -6.621
REMARK INTRA:                  -0.145
REMARK UNBOUND:                -0.391
REMARK SMILES O=c1c(O)c(-c2ccc(O)cc2O)oc2cc(O)cc(O)c12
REMARK SMILES IDX 5 1 3 2 2 3 1 4 22 5 20 6 19 7 17 8 16 9 15 10 14 11 6 12
REMARK SMILES IDX 8 13 7 14 9 15 11 16 12 17 10 18 13 20 4 22 21 24 18 26
REMARK H PARENT 10 19 13 21 4 23 21 25 18 27
REMARK Flexibility Score: inf
ROOT
ATOM      1  C   UNL     1      52.651  14.871  25.009  1.00  0.00     0.184 A 
ATOM      2  C   UNL     1      53.715  15.435  24.283  1.00  0.00     0.208 A 
ATOM      3  C   UNL     1      54.957  15.602  24.917  1.00  0.00     0.238 A 
ATOM      4  O   UNL     1      55.921  16.096  24.273  1.00  0.00    -0.285 OA
ATOM      5  C   UNL     1      55.105  15.220  26.266  1.00  0.00     0.111 A 
ATOM      6  C   UNL     1      56.320  15.357  26.981  1.00  0.00     0.134 A 
ATOM      7  C   UNL     1      56.384  14.963  28.326  1.00  0.00     0.093 A 
ATOM      8  C   UNL     1      55.262  14.437  28.969  1.00  0.00     0.123 A 
ATOM      9  C   UNL     1      54.059  14.298  28.269  1.00  0.00     0.094 A 
ATOM     10  C   UNL     1      53.974  14.684  26.928  1.00  0.00     0.146 A 
ATOM     11  O   UNL     1      52.821  14.537  26.285  1.00  0.00    -0.451 OA
ENDROOT
BRANCH   1  12
ATOM     12  C   UNL     1      51.323  14.658  24.398  1.00  0.00     0.063 A 
ATOM     13  C   UNL     1      49.469  15.544  23.101  1.00  0.00     0.047 A 
ATOM     14  C   UNL     1      50.727  15.709  23.685  1.00  0.00     0.020 A 
ATOM     15  C   UNL     1      48.785  14.330  23.233  1.00  0.00     0.119 A 
ATOM     16  C   UNL     1      49.361  13.285  23.962  1.00  0.00     0.093 A 
ATOM     17  C   UNL     1      50.621  13.445  24.557  1.00  0.00     0.130 A 
BRANCH  15  18
ATOM     18  O   UNL     1      47.532  14.152  22.651  1.00  0.00    -0.508 OA
ATOM     19  H   UNL     1      46.686  14.471  23.109  1.00  0.00     0.293 HD
ENDBRANCH  15  18
BRANCH  17  20
ATOM     20  O   UNL     1      51.163  12.412  25.323  1.00  0.00    -0.507 OA
ATOM     21  H   UNL     1      51.911  12.578  25.987  1.00  0.00     0.293 HD
ENDBRANCH  17  20
ENDBRANCH   1  12
BRANCH   2  22
ATOM     22  O   UNL     1      53.524  15.844  22.960  1.00  0.00    -0.502 OA
ATOM     23  H   UNL     1      52.619  16.128  22.607  1.00  0.00     0.293 HD
ENDBRANCH   2  22
BRANCH   6  24
ATOM     24  O   UNL     1      57.458  15.881  26.367  1.00  0.00    -0.507 OA
ATOM     25  H   UNL     1      57.946  16.685  26.745  1.00  0.00     0.293 HD
ENDBRANCH   6  24
BRANCH   8  26
ATOM     26  O   UNL     1      55.353  14.054  30.305  1.00  0.00    -0.508 OA
ATOM     27  H   UNL     1      54.576  14.174  30.945  1.00  0.00     0.293 HD
ENDBRANCH   8  26
TORSDOF 6
ENDMDL
MODEL 6
REMARK VINA RESULT:    -5.107      2.692      5.657
REMARK INTER + INTRA:          -6.543
REMARK INTER:                  -6.504
REMARK INTRA:                  -0.039
REMARK UNBOUND:                -0.391
REMARK SMILES O=c1c(O)c(-c2ccc(O)cc2O)oc2cc(O)cc(O)c12
REMARK SMILES IDX 5 1 3 2 2 3 1 4 22 5 20 6 19 7 17 8 16 9 15 10 14 11 6 12
REMARK SMILES IDX 8 13 7 14 9 15 11 16 12 17 10 18 13 20 4 22 21 24 18 26
REMARK H PARENT 10 19 13 21 4 23 21 25 18 27
REMARK Flexibility Score: inf
ROOT
ATOM      1  C   UNL     1      51.973  14.052  25.514  1.00  0.00     0.184 A 
ATOM      2  C   UNL     1      52.979  14.829  26.114  1.00  0.00     0.208 A 
ATOM      3  C   UNL     1      53.696  14.296  27.196  1.00  0.00     0.238 A 
ATOM      4  O   UNL     1      54.607  14.980  27.735  1.00  0.00    -0.285 OA
ATOM      5  C   UNL     1      53.380  13.005  27.669  1.00  0.00     0.111 A 
ATOM      6  C   UNL     1      54.051  12.394  28.757  1.00  0.00     0.134 A 
ATOM      7  C   UNL     1      53.672  11.109  29.174  1.00  0.00     0.093 A 
ATOM      8  C   UNL     1      52.639  10.426  28.529  1.00  0.00     0.123 A 
ATOM      9  C   UNL     1      51.973  11.023  27.454  1.00  0.00     0.094 A 
ATOM     10  C   UNL     1      52.336  12.302  27.021  1.00  0.00     0.146 A 
ATOM     11  O   UNL     1      51.691  12.845  25.995  1.00  0.00    -0.451 OA
ENDROOT
BRANCH   1  12
ATOM     12  C   UNL     1      51.190  14.550  24.364  1.00  0.00     0.063 A 
ATOM     13  C   UNL     1      51.133  15.771  22.264  1.00  0.00     0.047 A 
ATOM     14  C   UNL     1      51.845  15.280  23.361  1.00  0.00     0.020 A 
ATOM     15  C   UNL     1      49.755  15.550  22.162  1.00  0.00     0.119 A 
ATOM     16  C   UNL     1      49.090  14.844  23.170  1.00  0.00     0.093 A 
ATOM     17  C   UNL     1      49.796  14.353  24.278  1.00  0.00     0.130 A 
BRANCH  15  18
ATOM     18  O   UNL     1      49.036  16.032  21.071  1.00  0.00    -0.508 OA
ATOM     19  H   UNL     1      48.304  16.724  21.184  1.00  0.00     0.293 HD
ENDBRANCH  15  18
BRANCH  17  20
ATOM     20  O   UNL     1      49.112  13.693  25.299  1.00  0.00    -0.507 OA
ATOM     21  H   UNL     1      48.112  13.797  25.423  1.00  0.00     0.293 HD
ENDBRANCH  17  20
ENDBRANCH   1  12
BRANCH   2  22
ATOM     22  O   UNL     1      53.237  16.123  25.650  1.00  0.00    -0.502 OA
ATOM     23  H   UNL     1      54.091  16.618  25.874  1.00  0.00     0.293 HD
ENDBRANCH   2  22
BRANCH   6  24
ATOM     24  O   UNL     1      55.086  13.051  29.423  1.00  0.00    -0.507 OA
ATOM     25  H   UNL     1      54.920  13.588  30.267  1.00  0.00     0.293 HD
ENDBRANCH   6  24
BRANCH   8  26
ATOM     26  O   UNL     1      52.282   9.152  28.964  1.00  0.00    -0.508 OA
ATOM     27  H   UNL     1      51.313   8.860  29.013  1.00  0.00     0.293 HD
ENDBRANCH   8  26
TORSDOF 6
ENDMDL
MODEL 7
REMARK VINA RESULT:    -5.083      1.289      2.897
REMARK INTER + INTRA:          -6.514
REMARK INTER:                  -6.524
REMARK INTRA:                   0.010
REMARK UNBOUND:                -0.391
REMARK SMILES O=c1c(O)c(-c2ccc(O)cc2O)oc2cc(O)cc(O)c12
REMARK SMILES IDX 5 1 3 2 2 3 1 4 22 5 20 6 19 7 17 8 16 9 15 10 14 11 6 12
REMARK SMILES IDX 8 13 7 14 9 15 11 16 12 17 10 18 13 20 4 22 21 24 18 26
REMARK H PARENT 10 19 13 21 4 23 21 25 18 27
REMARK Flexibility Score: inf
ROOT
ATOM      1  C   UNL     1      52.648  14.350  26.359  1.00  0.00     0.184 A 
ATOM      2  C   UNL     1      52.014  13.982  27.559  1.00  0.00     0.208 A 
ATOM      3  C   UNL     1      50.636  13.712  27.544  1.00  0.00     0.238 A 
ATOM      4  O   UNL     1      50.059  13.371  28.612  1.00  0.00    -0.285 OA
ATOM      5  C   UNL     1      49.917  13.835  26.337  1.00  0.00     0.111 A 
ATOM      6  C   UNL     1      48.527  13.586  26.235  1.00  0.00     0.134 A 
ATOM      7  C   UNL     1      47.881  13.738  24.999  1.00  0.00     0.093 A 
ATOM      8  C   UNL     1      48.595  14.135  23.867  1.00  0.00     0.123 A 
ATOM      9  C   UNL     1      49.968  14.382  23.959  1.00  0.00     0.094 A 
ATOM     10  C   UNL     1      50.631  14.234  25.182  1.00  0.00     0.146 A 
ATOM     11  O   UNL     1      51.937  14.471  25.242  1.00  0.00    -0.451 OA
ENDROOT
BRANCH   1  12
ATOM     12  C   UNL     1      54.097  14.636  26.303  1.00  0.00     0.063 A 
ATOM     13  C   UNL     1      55.894  16.124  25.625  1.00  0.00     0.047 A 
ATOM     14  C   UNL     1      54.531  15.826  25.700  1.00  0.00     0.020 A 
ATOM     15  C   UNL     1      56.840  15.231  26.141  1.00  0.00     0.119 A 
ATOM     16  C   UNL     1      56.416  14.032  26.722  1.00  0.00     0.093 A 
ATOM     17  C   UNL     1      55.050  13.722  26.796  1.00  0.00     0.130 A 
BRANCH  15  18
ATOM     18  O   UNL     1      58.201  15.519  26.075  1.00  0.00    -0.508 OA
ATOM     19  H   UNL     1      58.781  15.167  25.322  1.00  0.00     0.293 HD
ENDBRANCH  15  18
BRANCH  17  20
ATOM     20  O   UNL     1      54.645  12.500  27.335  1.00  0.00    -0.507 OA
ATOM     21  H   UNL     1      54.197  11.790  26.766  1.00  0.00     0.293 HD
ENDBRANCH  17  20
ENDBRANCH   1  12
BRANCH   2  22
ATOM     22  O   UNL     1      52.746  13.913  28.747  1.00  0.00    -0.502 OA
ATOM     23  H   UNL     1      53.631  13.425  28.811  1.00  0.00     0.293 HD
ENDBRANCH   2  22
BRANCH   6  24
ATOM     24  O   UNL     1      47.786  13.189  27.349  1.00  0.00    -0.507 OA
ATOM     25  H   UNL     1      48.229  12.976  28.236  1.00  0.00     0.293 HD
ENDBRANCH   6  24
BRANCH   8  26
ATOM     26  O   UNL     1      47.930  14.280  22.652  1.00  0.00    -0.508 OA
ATOM     27  H   UNL     1      47.720  15.194  22.268  1.00  0.00     0.293 HD
ENDBRANCH   8  26
TORSDOF 6
ENDMDL
MODEL 8
REMARK VINA RESULT:    -5.055      2.785      4.132
REMARK INTER + INTRA:          -6.480
REMARK INTER:                  -6.142
REMARK INTRA:                  -0.338
REMARK UNBOUND:                -0.391
REMARK SMILES O=c1c(O)c(-c2ccc(O)cc2O)oc2cc(O)cc(O)c12
REMARK SMILES IDX 5 1 3 2 2 3 1 4 22 5 20 6 19 7 17 8 16 9 15 10 14 11 6 12
REMARK SMILES IDX 8 13 7 14 9 15 11 16 12 17 10 18 13 20 4 22 21 24 18 26
REMARK H PARENT 10 19 13 21 4 23 21 25 18 27
REMARK Flexibility Score: inf
ROOT
ATOM      1  C   UNL     1      51.863  13.101  26.033  1.00  0.00     0.184 A 
ATOM      2  C   UNL     1      52.571  13.474  24.877  1.00  0.00     0.208 A 
ATOM      3  C   UNL     1      51.959  14.337  23.955  1.00  0.00     0.238 A 
ATOM      4  O   UNL     1      52.588  14.687  22.920  1.00  0.00    -0.285 OA
ATOM      5  C   UNL     1      50.646  14.793  24.195  1.00  0.00     0.111 A 
ATOM      6  C   UNL     1      49.955  15.661  23.316  1.00  0.00     0.134 A 
ATOM      7  C   UNL     1      48.646  16.063  23.621  1.00  0.00     0.093 A 
ATOM      8  C   UNL     1      48.016  15.615  24.784  1.00  0.00     0.123 A 
ATOM      9  C   UNL     1      48.693  14.758  25.658  1.00  0.00     0.094 A 
ATOM     10  C   UNL     1      49.999  14.347  25.373  1.00  0.00     0.146 A 
ATOM     11  O   UNL     1      50.621  13.537  26.221  1.00  0.00    -0.451 OA
ENDROOT
BRANCH   1  12
ATOM     12  C   UNL     1      52.454  12.205  27.049  1.00  0.00     0.063 A 
ATOM     13  C   UNL     1      52.550  10.002  28.070  1.00  0.00     0.047 A 
ATOM     14  C   UNL     1      52.017  10.874  27.117  1.00  0.00     0.020 A 
ATOM     15  C   UNL     1      53.518  10.454  28.975  1.00  0.00     0.119 A 
ATOM     16  C   UNL     1      53.941  11.785  28.929  1.00  0.00     0.093 A 
ATOM     17  C   UNL     1      53.406  12.669  27.980  1.00  0.00     0.130 A 
BRANCH  15  18
ATOM     18  O   UNL     1      54.059   9.593  29.926  1.00  0.00    -0.508 OA
ATOM     19  H   UNL     1      55.060   9.534  30.078  1.00  0.00     0.293 HD
ENDBRANCH  15  18
BRANCH  17  20
ATOM     20  O   UNL     1      53.802  14.007  27.977  1.00  0.00    -0.507 OA
ATOM     21  H   UNL     1      53.340  14.698  27.397  1.00  0.00     0.293 HD
ENDBRANCH  17  20
ENDBRANCH   1  12
BRANCH   2  22
ATOM     22  O   UNL     1      53.854  12.969  24.646  1.00  0.00    -0.502 OA
ATOM     23  H   UNL     1      54.688  13.436  24.979  1.00  0.00     0.293 HD
ENDBRANCH   2  22
BRANCH   6  24
ATOM     24  O   UNL     1      50.557  16.125  22.145  1.00  0.00    -0.507 OA
ATOM     25  H   UNL     1      50.761  17.108  22.005  1.00  0.00     0.293 HD
ENDBRANCH   6  24
BRANCH   8  26
ATOM     26  O   UNL     1      46.716  16.029  25.063  1.00  0.00    -0.508 OA
ATOM     27  H   UNL     1      46.287  15.856  25.965  1.00  0.00     0.293 HD
ENDBRANCH   8  26
TORSDOF 6
ENDMDL
MODEL 9
REMARK VINA RESULT:    -4.918      2.020      6.600
REMARK INTER + INTRA:          -6.315
REMARK INTER:                  -6.006
REMARK INTRA:                  -0.309
REMARK UNBOUND:                -0.391
REMARK SMILES O=c1c(O)c(-c2ccc(O)cc2O)oc2cc(O)cc(O)c12
REMARK SMILES IDX 5 1 3 2 2 3 1 4 22 5 20 6 19 7 17 8 16 9 15 10 14 11 6 12
REMARK SMILES IDX 8 13 7 14 9 15 11 16 12 17 10 18 13 20 4 22 21 24 18 26
REMARK H PARENT 10 19 13 21 4 23 21 25 18 27
REMARK Flexibility Score: inf
ROOT
ATOM      1  C   UNL     1      51.185  14.562  25.945  1.00  0.00     0.184 A 
ATOM      2  C   UNL     1      51.142  13.512  26.879  1.00  0.00     0.208 A 
ATOM      3  C   UNL     1      52.311  13.179  27.580  1.00  0.00     0.238 A 
ATOM      4  O   UNL     1      52.282  12.247  28.428  1.00  0.00    -0.285 OA
ATOM      5  C   UNL     1      53.503  13.888  27.321  1.00  0.00     0.111 A 
ATOM      6  C   UNL     1      54.726  13.614  27.981  1.00  0.00     0.134 A 
ATOM      7  C   UNL     1      55.871  14.359  27.660  1.00  0.00     0.093 A 
ATOM      8  C   UNL     1      55.819  15.367  26.696  1.00  0.00     0.123 A 
ATOM      9  C   UNL     1      54.614  15.643  26.041  1.00  0.00     0.094 A 
ATOM     10  C   UNL     1      53.461  14.914  26.346  1.00  0.00     0.146 A 
ATOM     11  O   UNL     1      52.329  15.199  25.713  1.00  0.00    -0.451 OA
ENDROOT
BRANCH   1  12
ATOM     12  C   UNL     1      49.987  14.970  25.181  1.00  0.00     0.063 A 
ATOM     13  C   UNL     1      48.845  15.133  23.042  1.00  0.00     0.047 A 
ATOM     14  C   UNL     1      49.959  14.753  23.795  1.00  0.00     0.020 A 
ATOM     15  C   UNL     1      47.751  15.745  23.664  1.00  0.00     0.119 A 
ATOM     16  C   UNL     1      47.780  15.986  25.040  1.00  0.00     0.093 A 
ATOM     17  C   UNL     1      48.898  15.614  25.803  1.00  0.00     0.130 A 
BRANCH  15  18
ATOM     18  O   UNL     1      46.633  16.124  22.924  1.00  0.00    -0.508 OA
ATOM     19  H   UNL     1      45.739  15.662  23.042  1.00  0.00     0.293 HD
ENDBRANCH  15  18
BRANCH  17  20
ATOM     20  O   UNL     1      48.934  15.904  27.167  1.00  0.00    -0.507 OA
ATOM     21  H   UNL     1      49.336  16.766  27.517  1.00  0.00     0.293 HD
ENDBRANCH  17  20
ENDBRANCH   1  12
BRANCH   2  22
ATOM     22  O   UNL     1      49.957  12.799  27.080  1.00  0.00    -0.502 OA
ATOM     23  H   UNL     1      49.045  13.235  27.014  1.00  0.00     0.293 HD
ENDBRANCH   2  22
BRANCH   6  24
ATOM     24  O   UNL     1      54.810  12.612  28.949  1.00  0.00    -0.507 OA
ATOM     25  H   UNL     1      55.627  12.016  29.028  1.00  0.00     0.293 HD
ENDBRANCH   6  24
BRANCH   8  26
ATOM     26  O   UNL     1      56.970  16.090  26.395  1.00  0.00    -0.508 OA
ATOM     27  H   UNL     1      57.692  16.250  27.089  1.00  0.00     0.293 HD
ENDBRANCH   8  26
TORSDOF 6
ENDMDL
