MODEL 1
REMARK VINA RESULT:     0.000      0.000      0.000
REMARK INTER + INTRA:          -0.139
REMARK INTER:                   0.000
REMARK INTRA:                  -0.139
REMARK UNBOUND:                -0.139
REMARK SMILES COc1cc(C(C)=O)ccc1O
REMARK SMILES IDX 5 1 4 2 3 3 11 4 10 5 9 6 6 7 7 8 8 9 2 10 1 11 12 12
REMARK H PARENT 12 13
REMARK Flexibility Score: inf
ROOT
ATOM      1  C   UNL     1     -17.796 -32.400  16.330  1.00  0.00     0.021 A 
ATOM      2  C   UNL     1     -18.124 -32.318  14.961  1.00  0.00     0.062 A 
ATOM      3  C   UNL     1     -17.144 -31.990  14.003  1.00  0.00     0.161 A 
ATOM      4  C   UNL     1     -15.831 -31.740  14.420  1.00  0.00     0.157 A 
ATOM      5  C   UNL     1     -15.498 -31.818  15.777  1.00  0.00     0.051 A 
ATOM      6  C   UNL     1     -16.471 -32.145  16.724  1.00  0.00     0.016 A 
ENDROOT
BRANCH   1   7
ATOM      7  C   UNL     1     -18.821 -32.746  17.353  1.00  0.00     0.159 C 
ATOM      8  C   UNL     1     -18.482 -32.854  18.811  1.00  0.00     0.093 C 
ATOM      9  O   UNL     1     -20.013 -32.958  17.000  1.00  0.00    -0.295 OA
ENDBRANCH   1   7
BRANCH   3  10
ATOM     10  O   UNL     1     -17.437 -31.901  12.632  1.00  0.00    -0.493 OA
ATOM     11  C   UNL     1     -17.589 -33.020  11.765  1.00  0.00     0.278 C 
ENDBRANCH   3  10
BRANCH   4  12
ATOM     12  O   UNL     1     -14.858 -31.413  13.477  1.00  0.00    -0.504 OA
ATOM     13  H   UNL     1     -15.055 -31.434  12.482  1.00  0.00     0.293 HD
ENDBRANCH   4  12
TORSDOF 3
ENDMDL
MODEL 2
REMARK VINA RESULT:     0.000      6.302      8.432
REMARK INTER + INTRA:          -0.139
REMARK INTER:                   0.000
REMARK INTRA:                  -0.139
REMARK UNBOUND:                -0.139
REMARK SMILES COc1cc(C(C)=O)ccc1O
REMARK SMILES IDX 5 1 4 2 3 3 11 4 10 5 9 6 6 7 7 8 8 9 2 10 1 11 12 12
REMARK H PARENT 12 13
REMARK Flexibility Score: inf
ROOT
ATOM      1  C   UNL     1     -10.135 -28.424  15.964  1.00  0.00     0.021 A 
ATOM      2  C   UNL     1     -11.508 -28.731  15.874  1.00  0.00     0.062 A 
ATOM      3  C   UNL     1     -12.485 -27.778  16.222  1.00  0.00     0.161 A 
ATOM      4  C   UNL     1     -12.083 -26.511  16.664  1.00  0.00     0.157 A 
ATOM      5  C   UNL     1     -10.722 -26.198  16.757  1.00  0.00     0.051 A 
ATOM      6  C   UNL     1      -9.757 -27.145  16.410  1.00  0.00     0.016 A 
ENDROOT
BRANCH   1   7
ATOM      7  C   UNL     1      -9.092 -29.421  15.599  1.00  0.00     0.159 C 
ATOM      8  C   UNL     1      -7.627 -29.102  15.672  1.00  0.00     0.093 C 
ATOM      9  O   UNL     1      -9.433 -30.573  15.215  1.00  0.00    -0.295 OA
ENDBRANCH   1   7
BRANCH   3  10
ATOM     10  O   UNL     1     -13.861 -28.050  16.143  1.00  0.00    -0.493 OA
ATOM     11  C   UNL     1     -14.615 -28.053  14.935  1.00  0.00     0.278 C 
ENDBRANCH   3  10
BRANCH   4  12
ATOM     12  O   UNL     1     -13.045 -25.564  17.011  1.00  0.00    -0.504 OA
ATOM     13  H   UNL     1     -14.033 -25.792  17.029  1.00  0.00     0.293 HD
ENDBRANCH   4  12
TORSDOF 3
ENDMDL
MODEL 3
REMARK VINA RESULT:     0.000      8.073      9.143
REMARK INTER + INTRA:          -0.139
REMARK INTER:                   0.000
REMARK INTRA:                  -0.139
REMARK UNBOUND:                -0.139
REMARK SMILES COc1cc(C(C)=O)ccc1O
REMARK SMILES IDX 5 1 4 2 3 3 11 4 10 5 9 6 6 7 7 8 8 9 2 10 1 11 12 12
REMARK H PARENT 12 13
REMARK Flexibility Score: inf
ROOT
ATOM      1  C   UNL     1     -16.144 -35.011   7.684  1.00  0.00     0.021 A 
ATOM      2  C   UNL     1     -16.250 -36.278   7.072  1.00  0.00     0.062 A 
ATOM      3  C   UNL     1     -15.586 -37.396   7.612  1.00  0.00     0.161 A 
ATOM      4  C   UNL     1     -14.810 -37.245   8.769  1.00  0.00     0.157 A 
ATOM      5  C   UNL     1     -14.700 -35.991   9.381  1.00  0.00     0.051 A 
ATOM      6  C   UNL     1     -15.361 -34.884   8.844  1.00  0.00     0.016 A 
ENDROOT
BRANCH   1   7
ATOM      7  C   UNL     1     -16.841 -33.820   7.125  1.00  0.00     0.159 C 
ATOM      8  C   UNL     1     -16.752 -32.471   7.776  1.00  0.00     0.093 C 
ATOM      9  O   UNL     1     -17.530 -33.932   6.074  1.00  0.00    -0.295 OA
ENDBRANCH   1   7
BRANCH   3  10
ATOM     10  O   UNL     1     -15.671 -38.671   7.029  1.00  0.00    -0.493 OA
ATOM     11  C   UNL     1     -16.784 -39.548   7.164  1.00  0.00     0.278 C 
ENDBRANCH   3  10
BRANCH   4  12
ATOM     12  O   UNL     1     -14.150 -38.348   9.306  1.00  0.00    -0.504 OA
ATOM     13  H   UNL     1     -13.288 -38.248   9.831  1.00  0.00     0.293 HD
ENDBRANCH   4  12
TORSDOF 3
ENDMDL
MODEL 4
REMARK VINA RESULT:     0.000      7.752      9.448
REMARK INTER + INTRA:          -0.139
REMARK INTER:                   0.000
REMARK INTRA:                  -0.139
REMARK UNBOUND:                -0.139
REMARK SMILES COc1cc(C(C)=O)ccc1O
REMARK SMILES IDX 5 1 4 2 3 3 11 4 10 5 9 6 6 7 7 8 8 9 2 10 1 11 12 12
REMARK H PARENT 12 13
REMARK Flexibility Score: inf
ROOT
ATOM      1  C   UNL     1     -16.144 -35.011   7.684  1.00  0.00     0.021 A 
ATOM      2  C   UNL     1     -16.549 -35.748   6.552  1.00  0.00     0.062 A 
ATOM      3  C   UNL     1     -17.209 -36.984   6.694  1.00  0.00     0.161 A 
ATOM      4  C   UNL     1     -17.463 -37.485   7.978  1.00  0.00     0.157 A 
ATOM      5  C   UNL     1     -17.064 -36.760   9.106  1.00  0.00     0.051 A 
ATOM      6  C   UNL     1     -16.411 -35.535   8.961  1.00  0.00     0.016 A 
ENDROOT
BRANCH   1   7
ATOM      7  C   UNL     1     -15.446 -33.703   7.549  1.00  0.00     0.159 C 
ATOM      8  C   UNL     1     -15.026 -32.900   8.745  1.00  0.00     0.093 C 
ATOM      9  O   UNL     1     -15.193 -33.244   6.402  1.00  0.00    -0.295 OA
ENDBRANCH   1   7
BRANCH   3  10
ATOM     10  O   UNL     1     -17.627 -37.743   5.588  1.00  0.00    -0.493 OA
ATOM     11  C   UNL     1     -18.787 -37.466   4.811  1.00  0.00     0.278 C 
ENDBRANCH   3  10
BRANCH   4  12
ATOM     12  O   UNL     1     -18.115 -38.708   8.124  1.00  0.00    -0.504 OA
ATOM     13  H   UNL     1     -17.954 -39.303   8.930  1.00  0.00     0.293 HD
ENDBRANCH   4  12
TORSDOF 3
ENDMDL
MODEL 5
REMARK VINA RESULT:     0.000      6.100      7.997
REMARK INTER + INTRA:          -0.139
REMARK INTER:                   0.000
REMARK INTRA:                  -0.139
REMARK UNBOUND:                -0.139
REMARK SMILES COc1cc(C(C)=O)ccc1O
REMARK SMILES IDX 5 1 4 2 3 3 11 4 10 5 9 6 6 7 7 8 8 9 2 10 1 11 12 12
REMARK H PARENT 12 13
REMARK Flexibility Score: inf
ROOT
ATOM      1  C   UNL     1     -15.274 -29.948   9.439  1.00  0.00     0.021 A 
ATOM      2  C   UNL     1     -14.789 -30.205   8.140  1.00  0.00     0.062 A 
ATOM      3  C   UNL     1     -14.604 -29.156   7.218  1.00  0.00     0.161 A 
ATOM      4  C   UNL     1     -14.907 -27.843   7.600  1.00  0.00     0.157 A 
ATOM      5  C   UNL     1     -15.390 -27.580   8.887  1.00  0.00     0.051 A 
ATOM      6  C   UNL     1     -15.572 -28.621   9.798  1.00  0.00     0.016 A 
ENDROOT
BRANCH   1   7
ATOM      7  C   UNL     1     -15.475 -31.046  10.424  1.00  0.00     0.159 C 
ATOM      8  C   UNL     1     -15.973 -30.783  11.815  1.00  0.00     0.093 C 
ATOM      9  O   UNL     1     -15.224 -32.237  10.094  1.00  0.00    -0.295 OA
ENDBRANCH   1   7
BRANCH   3  10
ATOM     10  O   UNL     1     -14.121 -29.378   5.918  1.00  0.00    -0.493 OA
ATOM     11  C   UNL     1     -12.754 -29.607   5.592  1.00  0.00     0.278 C 
ENDBRANCH   3  10
BRANCH   4  12
ATOM     12  O   UNL     1     -14.727 -26.802   6.691  1.00  0.00    -0.504 OA
ATOM     13  H   UNL     1     -15.358 -26.664   5.909  1.00  0.00     0.293 HD
ENDBRANCH   4  12
TORSDOF 3
ENDMDL
MODEL 6
REMARK VINA RESULT:     0.000      7.835      8.901
REMARK INTER + INTRA:          -0.139
REMARK INTER:                   0.000
REMARK INTRA:                  -0.139
REMARK UNBOUND:                -0.139
REMARK SMILES COc1cc(C(C)=O)ccc1O
REMARK SMILES IDX 5 1 4 2 3 3 11 4 10 5 9 6 6 7 7 8 8 9 2 10 1 11 12 12
REMARK H PARENT 12 13
REMARK Flexibility Score: inf
ROOT
ATOM      1  C   UNL     1     -17.723 -25.902  18.348  1.00  0.00     0.021 A 
ATOM      2  C   UNL     1     -18.795 -25.848  19.263  1.00  0.00     0.062 A 
ATOM      3  C   UNL     1     -19.533 -24.661  19.439  1.00  0.00     0.161 A 
ATOM      4  C   UNL     1     -19.196 -23.523  18.695  1.00  0.00     0.157 A 
ATOM      5  C   UNL     1     -18.133 -23.569  17.786  1.00  0.00     0.051 A 
ATOM      6  C   UNL     1     -17.404 -24.747  17.613  1.00  0.00     0.016 A 
ENDROOT
BRANCH   1   7
ATOM      7  C   UNL     1     -16.934 -27.149  18.150  1.00  0.00     0.159 C 
ATOM      8  C   UNL     1     -15.803 -27.225  17.167  1.00  0.00     0.093 C 
ATOM      9  O   UNL     1     -17.211 -28.179  18.823  1.00  0.00    -0.295 OA
ENDBRANCH   1   7
BRANCH   3  10
ATOM     10  O   UNL     1     -20.607 -24.574  20.341  1.00  0.00    -0.493 OA
ATOM     11  C   UNL     1     -21.912 -25.086  20.095  1.00  0.00     0.278 C 
ENDBRANCH   3  10
BRANCH   4  12
ATOM     12  O   UNL     1     -19.923 -22.347  18.867  1.00  0.00    -0.504 OA
ATOM     13  H   UNL     1     -20.918 -22.304  18.675  1.00  0.00     0.293 HD
ENDBRANCH   4  12
TORSDOF 3
ENDMDL
MODEL 7
REMARK VINA RESULT:     0.000      6.329      7.536
REMARK INTER + INTRA:          -0.139
REMARK INTER:                   0.000
REMARK INTRA:                  -0.139
REMARK UNBOUND:                -0.139
REMARK SMILES COc1cc(C(C)=O)ccc1O
REMARK SMILES IDX 5 1 4 2 3 3 11 4 10 5 9 6 6 7 7 8 8 9 2 10 1 11 12 12
REMARK H PARENT 12 13
REMARK Flexibility Score: inf
ROOT
ATOM      1  C   UNL     1     -16.192 -37.312  19.587  1.00  0.00     0.021 A 
ATOM      2  C   UNL     1     -17.392 -38.030  19.410  1.00  0.00     0.062 A 
ATOM      3  C   UNL     1     -18.641 -37.395  19.556  1.00  0.00     0.161 A 
ATOM      4  C   UNL     1     -18.686 -36.033  19.881  1.00  0.00     0.157 A 
ATOM      5  C   UNL     1     -17.499 -35.313  20.058  1.00  0.00     0.051 A 
ATOM      6  C   UNL     1     -16.263 -35.946  19.913  1.00  0.00     0.016 A 
ENDROOT
BRANCH   1   7
ATOM      7  C   UNL     1     -14.864 -37.970  19.436  1.00  0.00     0.159 C 
ATOM      8  C   UNL     1     -13.579 -37.214  19.604  1.00  0.00     0.093 C 
ATOM      9  O   UNL     1     -14.802 -39.199  19.160  1.00  0.00    -0.295 OA
ENDBRANCH   1   7
BRANCH   3  10
ATOM     10  O   UNL     1     -19.855 -38.080  19.386  1.00  0.00    -0.493 OA
ATOM     11  C   UNL     1     -20.423 -38.415  18.124  1.00  0.00     0.278 C 
ENDBRANCH   3  10
BRANCH   4  12
ATOM     12  O   UNL     1     -19.919 -35.400  20.027  1.00  0.00    -0.504 OA
ATOM     13  H   UNL     1     -20.779 -35.830  19.704  1.00  0.00     0.293 HD
ENDBRANCH   4  12
TORSDOF 3
ENDMDL
MODEL 8
REMARK VINA RESULT:     0.000     10.087     11.448
REMARK INTER + INTRA:          -0.139
REMARK INTER:                   0.000
REMARK INTRA:                  -0.139
REMARK UNBOUND:                -0.139
REMARK SMILES COc1cc(C(C)=O)ccc1O
REMARK SMILES IDX 5 1 4 2 3 3 11 4 10 5 9 6 6 7 7 8 8 9 2 10 1 11 12 12
REMARK H PARENT 12 13
REMARK Flexibility Score: inf
ROOT
ATOM      1  C   UNL     1     -12.041 -32.878   6.235  1.00  0.00     0.021 A 
ATOM      2  C   UNL     1     -10.939 -32.326   5.549  1.00  0.00     0.062 A 
ATOM      3  C   UNL     1     -10.940 -30.974   5.154  1.00  0.00     0.161 A 
ATOM      4  C   UNL     1     -12.050 -30.172   5.447  1.00  0.00     0.157 A 
ATOM      5  C   UNL     1     -13.147 -30.713   6.127  1.00  0.00     0.051 A 
ATOM      6  C   UNL     1     -13.143 -32.053   6.518  1.00  0.00     0.016 A 
ENDROOT
BRANCH   1   7
ATOM      7  C   UNL     1     -12.054 -34.305   6.659  1.00  0.00     0.159 C 
ATOM      8  C   UNL     1     -13.212 -34.901   7.406  1.00  0.00     0.093 C 
ATOM      9  O   UNL     1     -11.071 -35.048   6.390  1.00  0.00    -0.295 OA
ENDBRANCH   1   7
BRANCH   3  10
ATOM     10  O   UNL     1      -9.860 -30.393   4.470  1.00  0.00    -0.493 OA
ATOM     11  C   UNL     1      -8.643 -29.981   5.084  1.00  0.00     0.278 C 
ENDBRANCH   3  10
BRANCH   4  12
ATOM     12  O   UNL     1     -12.056 -28.834   5.057  1.00  0.00    -0.504 OA
ATOM     13  H   UNL     1     -12.125 -28.565   4.082  1.00  0.00     0.293 HD
ENDBRANCH   4  12
TORSDOF 3
ENDMDL
MODEL 9
REMARK VINA RESULT:     0.000      9.839     11.218
REMARK INTER + INTRA:          -0.139
REMARK INTER:                   0.000
REMARK INTRA:                  -0.139
REMARK UNBOUND:                -0.139
REMARK SMILES COc1cc(C(C)=O)ccc1O
REMARK SMILES IDX 5 1 4 2 3 3 11 4 10 5 9 6 6 7 7 8 8 9 2 10 1 11 12 12
REMARK H PARENT 12 13
REMARK Flexibility Score: inf
ROOT
ATOM      1  C   UNL     1     -13.574 -32.771   5.500  1.00  0.00     0.021 A 
ATOM      2  C   UNL     1     -13.053 -31.792   4.629  1.00  0.00     0.062 A 
ATOM      3  C   UNL     1     -13.534 -30.468   4.662  1.00  0.00     0.161 A 
ATOM      4  C   UNL     1     -14.542 -30.124   5.571  1.00  0.00     0.157 A 
ATOM      5  C   UNL     1     -15.064 -31.090   6.439  1.00  0.00     0.051 A 
ATOM      6  C   UNL     1     -14.586 -32.401   6.404  1.00  0.00     0.016 A 
ENDROOT
BRANCH   1   7
ATOM      7  C   UNL     1     -13.075 -34.174   5.478  1.00  0.00     0.159 C 
ATOM      8  C   UNL     1     -13.608 -35.221   6.411  1.00  0.00     0.093 C 
ATOM      9  O   UNL     1     -12.180 -34.507   4.655  1.00  0.00    -0.295 OA
ENDBRANCH   1   7
BRANCH   3  10
ATOM     10  O   UNL     1     -13.036 -29.469   3.809  1.00  0.00    -0.493 OA
ATOM     11  C   UNL     1     -11.800 -28.788   3.998  1.00  0.00     0.278 C 
ENDBRANCH   3  10
BRANCH   4  12
ATOM     12  O   UNL     1     -15.022 -28.817   5.607  1.00  0.00    -0.504 OA
ATOM     13  H   UNL     1     -15.579 -28.434   4.851  1.00  0.00     0.293 HD
ENDBRANCH   4  12
TORSDOF 3
ENDMDL
