MODEL 1
REMARK VINA RESULT:    -3.562      0.000      0.000
REMARK INTER + INTRA:          -8.954
REMARK INTER:                  -6.686
REMARK INTRA:                  -2.268
REMARK UNBOUND:                -2.268
REMARK SMILES CCCCCCCCC=CCCCCCCCC(=O)[O-]
REMARK SMILES IDX 10 1 9 2 11 3 12 4 13 5 14 6 15 7 16 8 17 9 18 10 19 11
REMARK SMILES IDX 20 12 8 13 7 14 6 15 5 16 4 17 3 18 2 19 1 20
REMARK H PARENT
REMARK Flexibility Score: inf
ROOT
ATOM      1  C   UNL     1      57.094  27.030  51.034  1.00  0.00    -0.031 C 
ATOM      2  C   UNL     1      56.511  26.857  49.843  1.00  0.00    -0.031 C 
ENDROOT
BRANCH   1   3
ATOM      3  C   UNL     1      58.012  28.192  51.297  1.00  0.00     0.027 C 
BRANCH   3   4
ATOM      4  C   UNL     1      57.995  29.195  50.134  1.00  0.00     0.004 C 
BRANCH   4   5
ATOM      5  C   UNL     1      59.379  29.461  49.508  1.00  0.00     0.000 C 
BRANCH   5   6
ATOM      6  C   UNL     1      59.992  28.204  48.871  1.00  0.00     0.000 C 
BRANCH   6   7
ATOM      7  C   UNL     1      61.378  27.897  49.465  1.00  0.00     0.000 C 
BRANCH   7   8
ATOM      8  C   UNL     1      61.490  26.455  50.010  1.00  0.00     0.006 C 
BRANCH   8   9
ATOM      9  C   UNL     1      60.262  25.573  49.727  1.00  0.00     0.053 C 
BRANCH   9  10
ATOM     10  C   UNL     1      60.211  24.374  50.618  1.00  0.00     0.041 C 
ATOM     11  O   UNL     1      61.028  23.427  50.459  1.00  0.00    -0.550 OA
ATOM     12  O   UNL     1      59.234  24.278  51.599  1.00  0.00    -0.550 OA
ENDBRANCH   9  10
ENDBRANCH   8   9
ENDBRANCH   7   8
ENDBRANCH   6   7
ENDBRANCH   5   6
ENDBRANCH   4   5
ENDBRANCH   3   4
ENDBRANCH   1   3
BRANCH   2  13
ATOM     13  C   UNL     1      55.507  25.762  49.609  1.00  0.00     0.027 C 
BRANCH  13  14
ATOM     14  C   UNL     1      54.194  26.289  49.002  1.00  0.00     0.004 C 
BRANCH  14  15
ATOM     15  C   UNL     1      53.352  27.154  49.960  1.00  0.00     0.000 C 
BRANCH  15  16
ATOM     16  C   UNL     1      52.926  28.493  49.338  1.00  0.00     0.000 C 
BRANCH  16  17
ATOM     17  C   UNL     1      52.982  29.625  50.372  1.00  0.00    -0.000 C 
BRANCH  17  18
ATOM     18  C   UNL     1      54.435  30.066  50.623  1.00  0.00    -0.000 C 
BRANCH  18  19
ATOM     19  C   UNL     1      54.555  31.092  51.760  1.00  0.00    -0.003 C 
ATOM     20  C   UNL     1      55.736  30.807  52.693  1.00  0.00     0.004 C 
ENDBRANCH  18  19
ENDBRANCH  17  18
ENDBRANCH  16  17
ENDBRANCH  15  16
ENDBRANCH  14  15
ENDBRANCH  13  14
ENDBRANCH   2  13
TORSDOF 15
ENDMDL
MODEL 2
REMARK VINA RESULT:    -3.545      2.915      6.357
REMARK INTER + INTRA:          -8.923
REMARK INTER:                  -5.965
REMARK INTRA:                  -2.957
REMARK UNBOUND:                -2.268
REMARK SMILES CCCCCCCCC=CCCCCCCCC(=O)[O-]
REMARK SMILES IDX 10 1 9 2 11 3 12 4 13 5 14 6 15 7 16 8 17 9 18 10 19 11
REMARK SMILES IDX 20 12 8 13 7 14 6 15 5 16 4 17 3 18 2 19 1 20
REMARK H PARENT
REMARK Flexibility Score: inf
ROOT
ATOM      1  C   UNL     1      55.594  28.899  50.377  1.00  0.00    -0.031 C 
ATOM      2  C   UNL     1      56.896  28.623  50.510  1.00  0.00    -0.031 C 
ENDROOT
BRANCH   1   3
ATOM      3  C   UNL     1      54.645  27.924  49.737  1.00  0.00     0.027 C 
BRANCH   3   4
ATOM      4  C   UNL     1      55.315  26.563  49.499  1.00  0.00     0.004 C 
BRANCH   4   5
ATOM      5  C   UNL     1      54.350  25.362  49.567  1.00  0.00     0.000 C 
BRANCH   5   6
ATOM      6  C   UNL     1      53.988  24.975  51.009  1.00  0.00     0.000 C 
BRANCH   6   7
ATOM      7  C   UNL     1      55.178  25.190  51.960  1.00  0.00     0.000 C 
BRANCH   7   8
ATOM      8  C   UNL     1      54.805  26.019  53.210  1.00  0.00     0.006 C 
BRANCH   8   9
ATOM      9  C   UNL     1      55.874  27.039  53.636  1.00  0.00     0.053 C 
BRANCH   9  10
ATOM     10  C   UNL     1      55.277  28.352  54.027  1.00  0.00     0.041 C 
ATOM     11  O   UNL     1      55.888  29.118  54.820  1.00  0.00    -0.550 OA
ATOM     12  O   UNL     1      54.025  28.716  53.551  1.00  0.00    -0.550 OA
ENDBRANCH   9  10
ENDBRANCH   8   9
ENDBRANCH   7   8
ENDBRANCH   6   7
ENDBRANCH   5   6
ENDBRANCH   4   5
ENDBRANCH   3   4
ENDBRANCH   1   3
BRANCH   2  13
ATOM     13  C   UNL     1      57.826  29.545  51.248  1.00  0.00     0.027 C 
BRANCH  13  14
ATOM     14  C   UNL     1      59.215  29.628  50.588  1.00  0.00     0.004 C 
BRANCH  14  15
ATOM     15  C   UNL     1      59.364  28.782  49.309  1.00  0.00     0.000 C 
BRANCH  15  16
ATOM     16  C   UNL     1      60.719  28.061  49.223  1.00  0.00     0.000 C 
BRANCH  16  17
ATOM     17  C   UNL     1      60.553  26.549  49.419  1.00  0.00    -0.000 C 
BRANCH  17  18
ATOM     18  C   UNL     1      59.070  26.178  49.585  1.00  0.00    -0.000 C 
BRANCH  18  19
ATOM     19  C   UNL     1      58.805  25.345  50.849  1.00  0.00    -0.003 C 
ATOM     20  C   UNL     1      59.148  26.100  52.138  1.00  0.00     0.004 C 
ENDBRANCH  18  19
ENDBRANCH  17  18
ENDBRANCH  16  17
ENDBRANCH  15  16
ENDBRANCH  14  15
ENDBRANCH  13  14
ENDBRANCH   2  13
TORSDOF 15
ENDMDL
MODEL 3
REMARK VINA RESULT:    -3.506     11.135     13.071
REMARK INTER + INTRA:          -8.849
REMARK INTER:                  -6.679
REMARK INTRA:                  -2.171
REMARK UNBOUND:                -2.268
REMARK SMILES CCCCCCCCC=CCCCCCCCC(=O)[O-]
REMARK SMILES IDX 10 1 9 2 11 3 12 4 13 5 14 6 15 7 16 8 17 9 18 10 19 11
REMARK SMILES IDX 20 12 8 13 7 14 6 15 5 16 4 17 3 18 2 19 1 20
REMARK H PARENT
REMARK Flexibility Score: inf
ROOT
ATOM      1  C   UNL     1      62.268  32.883  60.288  1.00  0.00    -0.031 C 
ATOM      2  C   UNL     1      63.600  32.765  60.245  1.00  0.00    -0.031 C 
ENDROOT
BRANCH   1   3
ATOM      3  C   UNL     1      61.367  31.700  60.070  1.00  0.00     0.027 C 
BRANCH   3   4
ATOM      4  C   UNL     1      61.297  30.809  61.320  1.00  0.00     0.004 C 
BRANCH   4   5
ATOM      5  C   UNL     1      61.773  29.360  61.091  1.00  0.00     0.000 C 
BRANCH   5   6
ATOM      6  C   UNL     1      63.297  29.256  60.928  1.00  0.00     0.000 C 
BRANCH   6   7
ATOM      7  C   UNL     1      63.684  28.988  59.464  1.00  0.00     0.000 C 
BRANCH   7   8
ATOM      8  C   UNL     1      65.214  28.959  59.244  1.00  0.00     0.006 C 
BRANCH   8   9
ATOM      9  C   UNL     1      66.042  29.274  60.501  1.00  0.00     0.053 C 
BRANCH   9  10
ATOM     10  C   UNL     1      67.100  28.249  60.753  1.00  0.00     0.041 C 
ATOM     11  O   UNL     1      68.050  28.496  61.544  1.00  0.00    -0.550 OA
ATOM     12  O   UNL     1      67.065  27.035  60.082  1.00  0.00    -0.550 OA
ENDBRANCH   9  10
ENDBRANCH   8   9
ENDBRANCH   7   8
ENDBRANCH   6   7
ENDBRANCH   5   6
ENDBRANCH   4   5
ENDBRANCH   3   4
ENDBRANCH   1   3
BRANCH   2  13
ATOM     13  C   UNL     1      64.504  33.920  60.573  1.00  0.00     0.027 C 
BRANCH  13  14
ATOM     14  C   UNL     1      63.991  35.251  59.990  1.00  0.00     0.004 C 
BRANCH  14  15
ATOM     15  C   UNL     1      63.528  36.272  61.047  1.00  0.00     0.000 C 
BRANCH  15  16
ATOM     16  C   UNL     1      62.155  36.884  60.726  1.00  0.00     0.000 C 
BRANCH  16  17
ATOM     17  C   UNL     1      61.723  36.548  59.292  1.00  0.00    -0.000 C 
BRANCH  17  18
ATOM     18  C   UNL     1      60.329  35.899  59.278  1.00  0.00    -0.000 C 
BRANCH  18  19
ATOM     19  C   UNL     1      60.112  34.985  58.062  1.00  0.00    -0.003 C 
ATOM     20  C   UNL     1      61.376  34.823  57.211  1.00  0.00     0.004 C 
ENDBRANCH  18  19
ENDBRANCH  17  18
ENDBRANCH  16  17
ENDBRANCH  15  16
ENDBRANCH  14  15
ENDBRANCH  13  14
ENDBRANCH   2  13
TORSDOF 15
ENDMDL
MODEL 4
REMARK VINA RESULT:    -3.481      1.865      3.132
REMARK INTER + INTRA:          -8.801
REMARK INTER:                  -6.493
REMARK INTRA:                  -2.308
REMARK UNBOUND:                -2.268
REMARK SMILES CCCCCCCCC=CCCCCCCCC(=O)[O-]
REMARK SMILES IDX 10 1 9 2 11 3 12 4 13 5 14 6 15 7 16 8 17 9 18 10 19 11
REMARK SMILES IDX 20 12 8 13 7 14 6 15 5 16 4 17 3 18 2 19 1 20
REMARK H PARENT
REMARK Flexibility Score: inf
ROOT
ATOM      1  C   UNL     1      57.040  28.322  50.188  1.00  0.00    -0.031 C 
ATOM      2  C   UNL     1      55.748  28.667  50.222  1.00  0.00    -0.031 C 
ENDROOT
BRANCH   1   3
ATOM      3  C   UNL     1      58.104  29.202  50.782  1.00  0.00     0.027 C 
BRANCH   3   4
ATOM      4  C   UNL     1      59.267  29.417  49.801  1.00  0.00     0.004 C 
BRANCH   4   5
ATOM      5  C   UNL     1      59.673  28.154  49.015  1.00  0.00     0.000 C 
BRANCH   5   6
ATOM      6  C   UNL     1      61.113  27.710  49.312  1.00  0.00     0.000 C 
BRANCH   6   7
ATOM      7  C   UNL     1      61.148  26.611  50.388  1.00  0.00     0.000 C 
BRANCH   7   8
ATOM      8  C   UNL     1      61.809  25.305  49.891  1.00  0.00     0.006 C 
BRANCH   8   9
ATOM      9  C   UNL     1      60.937  24.050  50.057  1.00  0.00     0.053 C 
BRANCH   9  10
ATOM     10  C   UNL     1      61.681  22.798  49.720  1.00  0.00     0.041 C 
ATOM     11  O   UNL     1      62.854  22.621  50.145  1.00  0.00    -0.550 OA
ATOM     12  O   UNL     1      61.098  21.842  48.901  1.00  0.00    -0.550 OA
ENDBRANCH   9  10
ENDBRANCH   8   9
ENDBRANCH   7   8
ENDBRANCH   6   7
ENDBRANCH   5   6
ENDBRANCH   4   5
ENDBRANCH   3   4
ENDBRANCH   1   3
BRANCH   2  13
ATOM     13  C   UNL     1      54.672  27.739  49.729  1.00  0.00     0.027 C 
BRANCH  13  14
ATOM     14  C   UNL     1      55.223  26.353  49.345  1.00  0.00     0.004 C 
BRANCH  14  15
ATOM     15  C   UNL     1      54.443  25.169  49.950  1.00  0.00     0.000 C 
BRANCH  15  16
ATOM     16  C   UNL     1      53.998  25.424  51.399  1.00  0.00     0.000 C 
BRANCH  16  17
ATOM     17  C   UNL     1      55.071  24.966  52.395  1.00  0.00    -0.000 C 
BRANCH  17  18
ATOM     18  C   UNL     1      55.807  26.174  53.000  1.00  0.00    -0.000 C 
BRANCH  18  19
ATOM     19  C   UNL     1      57.323  25.949  53.111  1.00  0.00    -0.003 C 
ATOM     20  C   UNL     1      57.928  25.351  51.837  1.00  0.00     0.004 C 
ENDBRANCH  18  19
ENDBRANCH  17  18
ENDBRANCH  16  17
ENDBRANCH  15  16
ENDBRANCH  14  15
ENDBRANCH  13  14
ENDBRANCH   2  13
TORSDOF 15
ENDMDL
MODEL 5
REMARK VINA RESULT:    -3.477     10.883     13.007
REMARK INTER + INTRA:          -8.793
REMARK INTER:                  -5.906
REMARK INTRA:                  -2.887
REMARK UNBOUND:                -2.268
REMARK SMILES CCCCCCCCC=CCCCCCCCC(=O)[O-]
REMARK SMILES IDX 10 1 9 2 11 3 12 4 13 5 14 6 15 7 16 8 17 9 18 10 19 11
REMARK SMILES IDX 20 12 8 13 7 14 6 15 5 16 4 17 3 18 2 19 1 20
REMARK H PARENT
REMARK Flexibility Score: inf
ROOT
ATOM      1  C   UNL     1      60.892  31.409  58.713  1.00  0.00    -0.031 C 
ATOM      2  C   UNL     1      61.157  32.682  59.024  1.00  0.00    -0.031 C 
ENDROOT
BRANCH   1   3
ATOM      3  C   UNL     1      60.744  30.354  59.775  1.00  0.00     0.027 C 
BRANCH   3   4
ATOM      4  C   UNL     1      61.469  30.757  61.068  1.00  0.00     0.004 C 
BRANCH   4   5
ATOM      5  C   UNL     1      62.612  29.804  61.475  1.00  0.00     0.000 C 
BRANCH   5   6
ATOM      6  C   UNL     1      63.963  30.208  60.866  1.00  0.00     0.000 C 
BRANCH   6   7
ATOM      7  C   UNL     1      64.104  31.739  60.788  1.00  0.00     0.000 C 
BRANCH   7   8
ATOM      8  C   UNL     1      64.790  32.211  59.485  1.00  0.00     0.006 C 
BRANCH   8   9
ATOM      9  C   UNL     1      64.581  31.275  58.283  1.00  0.00     0.053 C 
BRANCH   9  10
ATOM     10  C   UNL     1      64.474  32.026  56.995  1.00  0.00     0.041 C 
ATOM     11  O   UNL     1      63.568  31.741  56.166  1.00  0.00    -0.550 OA
ATOM     12  O   UNL     1      65.401  33.011  56.686  1.00  0.00    -0.550 OA
ENDBRANCH   9  10
ENDBRANCH   8   9
ENDBRANCH   7   8
ENDBRANCH   6   7
ENDBRANCH   5   6
ENDBRANCH   4   5
ENDBRANCH   3   4
ENDBRANCH   1   3
BRANCH   2  13
ATOM     13  C   UNL     1      61.194  33.758  57.975  1.00  0.00     0.027 C 
BRANCH  13  14
ATOM     14  C   UNL     1      61.741  35.091  58.520  1.00  0.00     0.004 C 
BRANCH  14  15
ATOM     15  C   UNL     1      62.248  35.023  59.974  1.00  0.00     0.000 C 
BRANCH  15  16
ATOM     16  C   UNL     1      62.233  36.391  60.676  1.00  0.00     0.000 C 
BRANCH  16  17
ATOM     17  C   UNL     1      63.622  36.745  61.223  1.00  0.00    -0.000 C 
BRANCH  17  18
ATOM     18  C   UNL     1      64.504  35.490  61.332  1.00  0.00    -0.000 C 
BRANCH  18  19
ATOM     19  C   UNL     1      65.921  35.710  60.779  1.00  0.00    -0.003 C 
ATOM     20  C   UNL     1      65.955  35.774  59.248  1.00  0.00     0.004 C 
ENDBRANCH  18  19
ENDBRANCH  17  18
ENDBRANCH  16  17
ENDBRANCH  15  16
ENDBRANCH  14  15
ENDBRANCH  13  14
ENDBRANCH   2  13
TORSDOF 15
ENDMDL
MODEL 6
REMARK VINA RESULT:    -3.425      2.824      3.609
REMARK INTER + INTRA:          -8.696
REMARK INTER:                  -6.724
REMARK INTRA:                  -1.971
REMARK UNBOUND:                -2.268
REMARK SMILES CCCCCCCCC=CCCCCCCCC(=O)[O-]
REMARK SMILES IDX 10 1 9 2 11 3 12 4 13 5 14 6 15 7 16 8 17 9 18 10 19 11
REMARK SMILES IDX 20 12 8 13 7 14 6 15 5 16 4 17 3 18 2 19 1 20
REMARK H PARENT
REMARK Flexibility Score: inf
ROOT
ATOM      1  C   UNL     1      57.691  28.332  50.136  1.00  0.00    -0.031 C 
ATOM      2  C   UNL     1      57.329  27.527  51.141  1.00  0.00    -0.031 C 
ENDROOT
BRANCH   1   3
ATOM      3  C   UNL     1      58.875  29.251  50.254  1.00  0.00     0.027 C 
BRANCH   3   4
ATOM      4  C   UNL     1      59.920  28.961  49.166  1.00  0.00     0.004 C 
BRANCH   4   5
ATOM      5  C   UNL     1      60.295  27.472  49.030  1.00  0.00     0.000 C 
BRANCH   5   6
ATOM      6  C   UNL     1      61.095  26.951  50.234  1.00  0.00     0.000 C 
BRANCH   6   7
ATOM      7  C   UNL     1      62.520  26.544  49.822  1.00  0.00     0.000 C 
BRANCH   7   8
ATOM      8  C   UNL     1      63.557  27.665  50.064  1.00  0.00     0.006 C 
BRANCH   8   9
ATOM      9  C   UNL     1      64.032  28.376  48.786  1.00  0.00     0.053 C 
BRANCH   9  10
ATOM     10  C   UNL     1      64.145  29.855  48.972  1.00  0.00     0.041 C 
ATOM     11  O   UNL     1      65.130  30.482  48.496  1.00  0.00    -0.550 OA
ATOM     12  O   UNL     1      63.189  30.539  49.708  1.00  0.00    -0.550 OA
ENDBRANCH   9  10
ENDBRANCH   8   9
ENDBRANCH   7   8
ENDBRANCH   6   7
ENDBRANCH   5   6
ENDBRANCH   4   5
ENDBRANCH   3   4
ENDBRANCH   1   3
BRANCH   2  13
ATOM     13  C   UNL     1      56.216  26.527  50.988  1.00  0.00     0.027 C 
BRANCH  13  14
ATOM     14  C   UNL     1      56.072  26.027  49.538  1.00  0.00     0.004 C 
BRANCH  14  15
ATOM     15  C   UNL     1      54.635  26.091  48.984  1.00  0.00     0.000 C 
BRANCH  15  16
ATOM     16  C   UNL     1      53.657  26.792  49.939  1.00  0.00     0.000 C 
BRANCH  16  17
ATOM     17  C   UNL     1      52.913  27.931  49.229  1.00  0.00    -0.000 C 
BRANCH  17  18
ATOM     18  C   UNL     1      52.935  29.213  50.080  1.00  0.00    -0.000 C 
BRANCH  18  19
ATOM     19  C   UNL     1      54.356  29.758  50.294  1.00  0.00    -0.003 C 
ATOM     20  C   UNL     1      54.666  30.038  51.768  1.00  0.00     0.004 C 
ENDBRANCH  18  19
ENDBRANCH  17  18
ENDBRANCH  16  17
ENDBRANCH  15  16
ENDBRANCH  14  15
ENDBRANCH  13  14
ENDBRANCH   2  13
TORSDOF 15
ENDMDL
MODEL 7
REMARK VINA RESULT:    -3.419      2.933      6.914
REMARK INTER + INTRA:          -8.686
REMARK INTER:                  -6.026
REMARK INTRA:                  -2.660
REMARK UNBOUND:                -2.268
REMARK SMILES CCCCCCCCC=CCCCCCCCC(=O)[O-]
REMARK SMILES IDX 10 1 9 2 11 3 12 4 13 5 14 6 15 7 16 8 17 9 18 10 19 11
REMARK SMILES IDX 20 12 8 13 7 14 6 15 5 16 4 17 3 18 2 19 1 20
REMARK H PARENT
REMARK Flexibility Score: inf
ROOT
ATOM      1  C   UNL     1      57.522  28.464  52.280  1.00  0.00    -0.031 C 
ATOM      2  C   UNL     1      58.008  28.699  51.056  1.00  0.00    -0.031 C 
ENDROOT
BRANCH   1   3
ATOM      3  C   UNL     1      56.437  27.449  52.513  1.00  0.00     0.027 C 
BRANCH   3   4
ATOM      4  C   UNL     1      56.632  26.207  51.630  1.00  0.00     0.004 C 
BRANCH   4   5
ATOM      5  C   UNL     1      55.432  25.887  50.716  1.00  0.00     0.000 C 
BRANCH   5   6
ATOM      6  C   UNL     1      55.254  26.919  49.591  1.00  0.00     0.000 C 
BRANCH   6   7
ATOM      7  C   UNL     1      53.766  27.217  49.338  1.00  0.00     0.000 C 
BRANCH   7   8
ATOM      8  C   UNL     1      53.333  28.602  49.870  1.00  0.00     0.006 C 
BRANCH   8   9
ATOM      9  C   UNL     1      54.496  29.578  50.116  1.00  0.00     0.053 C 
BRANCH   9  10
ATOM     10  C   UNL     1      54.194  30.553  51.207  1.00  0.00     0.041 C 
ATOM     11  O   UNL     1      55.091  30.890  52.026  1.00  0.00    -0.550 OA
ATOM     12  O   UNL     1      52.910  31.059  51.352  1.00  0.00    -0.550 OA
ENDBRANCH   9  10
ENDBRANCH   8   9
ENDBRANCH   7   8
ENDBRANCH   6   7
ENDBRANCH   5   6
ENDBRANCH   4   5
ENDBRANCH   3   4
ENDBRANCH   1   3
BRANCH   2  13
ATOM     13  C   UNL     1      59.168  29.629  50.835  1.00  0.00     0.027 C 
BRANCH  13  14
ATOM     14  C   UNL     1      59.819  29.437  49.452  1.00  0.00     0.004 C 
BRANCH  14  15
ATOM     15  C   UNL     1      60.047  27.965  49.056  1.00  0.00     0.000 C 
BRANCH  15  16
ATOM     16  C   UNL     1      61.469  27.475  49.371  1.00  0.00     0.000 C 
BRANCH  16  17
ATOM     17  C   UNL     1      61.469  25.988  49.751  1.00  0.00    -0.000 C 
BRANCH  17  18
ATOM     18  C   UNL     1      60.075  25.544  50.225  1.00  0.00    -0.000 C 
BRANCH  18  19
ATOM     19  C   UNL     1      60.083  24.999  51.662  1.00  0.00    -0.003 C 
ATOM     20  C   UNL     1      60.227  26.104  52.714  1.00  0.00     0.004 C 
ENDBRANCH  18  19
ENDBRANCH  17  18
ENDBRANCH  16  17
ENDBRANCH  15  16
ENDBRANCH  14  15
ENDBRANCH  13  14
ENDBRANCH   2  13
TORSDOF 15
ENDMDL
MODEL 8
REMARK VINA RESULT:    -3.397     10.594     12.619
REMARK INTER + INTRA:          -8.645
REMARK INTER:                  -5.938
REMARK INTRA:                  -2.707
REMARK UNBOUND:                -2.268
REMARK SMILES CCCCCCCCC=CCCCCCCCC(=O)[O-]
REMARK SMILES IDX 10 1 9 2 11 3 12 4 13 5 14 6 15 7 16 8 17 9 18 10 19 11
REMARK SMILES IDX 20 12 8 13 7 14 6 15 5 16 4 17 3 18 2 19 1 20
REMARK H PARENT
REMARK Flexibility Score: inf
ROOT
ATOM      1  C   UNL     1      61.197  34.780  59.901  1.00  0.00    -0.031 C 
ATOM      2  C   UNL     1      61.338  34.387  58.630  1.00  0.00    -0.031 C 
ENDROOT
BRANCH   1   3
ATOM      3  C   UNL     1      61.742  36.096  60.382  1.00  0.00     0.027 C 
BRANCH   3   4
ATOM      4  C   UNL     1      63.248  36.215  60.102  1.00  0.00     0.004 C 
BRANCH   4   5
ATOM      5  C   UNL     1      64.131  35.333  61.007  1.00  0.00     0.000 C 
BRANCH   5   6
ATOM      6  C   UNL     1      64.801  34.183  60.240  1.00  0.00     0.000 C 
BRANCH   6   7
ATOM      7  C   UNL     1      64.276  32.816  60.714  1.00  0.00     0.000 C 
BRANCH   7   8
ATOM      8  C   UNL     1      64.854  31.636  59.900  1.00  0.00     0.006 C 
BRANCH   8   9
ATOM      9  C   UNL     1      65.198  31.981  58.441  1.00  0.00     0.053 C 
BRANCH   9  10
ATOM     10  C   UNL     1      66.250  31.080  57.881  1.00  0.00     0.041 C 
ATOM     11  O   UNL     1      66.593  31.177  56.672  1.00  0.00    -0.550 OA
ATOM     12  O   UNL     1      66.824  30.101  58.680  1.00  0.00    -0.550 OA
ENDBRANCH   9  10
ENDBRANCH   8   9
ENDBRANCH   7   8
ENDBRANCH   6   7
ENDBRANCH   5   6
ENDBRANCH   4   5
ENDBRANCH   3   4
ENDBRANCH   1   3
BRANCH   2  13
ATOM     13  C   UNL     1      60.699  33.125  58.121  1.00  0.00     0.027 C 
BRANCH  13  14
ATOM     14  C   UNL     1      61.473  31.863  58.545  1.00  0.00     0.004 C 
BRANCH  14  15
ATOM     15  C   UNL     1      60.692  30.925  59.486  1.00  0.00     0.000 C 
BRANCH  15  16
ATOM     16  C   UNL     1      61.023  31.157  60.969  1.00  0.00     0.000 C 
BRANCH  16  17
ATOM     17  C   UNL     1      61.940  30.052  61.510  1.00  0.00    -0.000 C 
BRANCH  17  18
ATOM     18  C   UNL     1      61.727  28.738  60.739  1.00  0.00    -0.000 C 
BRANCH  18  19
ATOM     19  C   UNL     1      63.050  28.064  60.341  1.00  0.00    -0.003 C 
ATOM     20  C   UNL     1      63.519  28.462  58.938  1.00  0.00     0.004 C 
ENDBRANCH  18  19
ENDBRANCH  17  18
ENDBRANCH  16  17
ENDBRANCH  15  16
ENDBRANCH  14  15
ENDBRANCH  13  14
ENDBRANCH   2  13
TORSDOF 15
ENDMDL
MODEL 9
REMARK VINA RESULT:    -3.334     10.484     12.789
REMARK INTER + INTRA:          -8.525
REMARK INTER:                  -5.713
REMARK INTRA:                  -2.812
REMARK UNBOUND:                -2.268
REMARK SMILES CCCCCCCCC=CCCCCCCCC(=O)[O-]
REMARK SMILES IDX 10 1 9 2 11 3 12 4 13 5 14 6 15 7 16 8 17 9 18 10 19 11
REMARK SMILES IDX 20 12 8 13 7 14 6 15 5 16 4 17 3 18 2 19 1 20
REMARK H PARENT
REMARK Flexibility Score: inf
ROOT
ATOM      1  C   UNL     1      60.722  33.374  58.657  1.00  0.00    -0.031 C 
ATOM      2  C   UNL     1      60.654  34.473  57.897  1.00  0.00    -0.031 C 
ENDROOT
BRANCH   1   3
ATOM      3  C   UNL     1      60.591  31.999  58.063  1.00  0.00     0.027 C 
BRANCH   3   4
ATOM      4  C   UNL     1      61.140  30.923  59.014  1.00  0.00     0.004 C 
BRANCH   4   5
ATOM      5  C   UNL     1      61.066  31.302  60.507  1.00  0.00     0.000 C 
BRANCH   5   6
ATOM      6  C   UNL     1      61.978  30.430  61.384  1.00  0.00     0.000 C 
BRANCH   6   7
ATOM      7  C   UNL     1      62.681  29.345  60.550  1.00  0.00     0.000 C 
BRANCH   7   8
ATOM      8  C   UNL     1      64.129  29.073  61.019  1.00  0.00     0.006 C 
BRANCH   8   9
ATOM      9  C   UNL     1      64.957  28.210  60.052  1.00  0.00     0.053 C 
BRANCH   9  10
ATOM     10  C   UNL     1      66.403  28.587  60.056  1.00  0.00     0.041 C 
ATOM     11  O   UNL     1      67.080  28.499  61.116  1.00  0.00    -0.550 OA
ATOM     12  O   UNL     1      66.997  29.080  58.903  1.00  0.00    -0.550 OA
ENDBRANCH   9  10
ENDBRANCH   8   9
ENDBRANCH   7   8
ENDBRANCH   6   7
ENDBRANCH   5   6
ENDBRANCH   4   5
ENDBRANCH   3   4
ENDBRANCH   1   3
BRANCH   2  13
ATOM     13  C   UNL     1      60.895  35.842  58.470  1.00  0.00     0.027 C 
BRANCH  13  14
ATOM     14  C   UNL     1      61.162  35.806  59.986  1.00  0.00     0.004 C 
BRANCH  14  15
ATOM     15  C   UNL     1      62.605  36.172  60.386  1.00  0.00     0.000 C 
BRANCH  15  16
ATOM     16  C   UNL     1      63.425  34.955  60.843  1.00  0.00     0.000 C 
BRANCH  16  17
ATOM     17  C   UNL     1      64.023  34.209  59.643  1.00  0.00    -0.000 C 
BRANCH  17  18
ATOM     18  C   UNL     1      64.507  32.809  60.054  1.00  0.00    -0.000 C 
BRANCH  18  19
ATOM     19  C   UNL     1      64.924  31.948  58.851  1.00  0.00    -0.003 C 
ATOM     20  C   UNL     1      64.263  32.398  57.544  1.00  0.00     0.004 C 
ENDBRANCH  18  19
ENDBRANCH  17  18
ENDBRANCH  16  17
ENDBRANCH  15  16
ENDBRANCH  14  15
ENDBRANCH  13  14
ENDBRANCH   2  13
TORSDOF 15
ENDMDL
