MODEL 1
REMARK VINA RESULT:    -6.400      0.000      0.000
REMARK INTER + INTRA:          -7.659
REMARK INTER:                  -7.523
REMARK INTRA:                  -0.136
REMARK UNBOUND:                -0.136
REMARK SMILES O=C([O-])C=Cc1ccc(O)c(O)c1
REMARK SMILES IDX 6 1 13 2 7 3 11 4 8 5 9 6 5 7 4 8 2 9 1 10 3 11 12 12 10 14
REMARK H PARENT 12 13 10 15
REMARK Flexibility Score: inf
ROOT
ATOM      1  C   UNL     1      12.573  50.173  -5.021  1.00  0.00    -0.022 A 
ATOM      2  C   UNL     1      11.761  49.116  -5.464  1.00  0.00     0.058 A 
ATOM      3  C   UNL     1      12.759  50.351  -3.635  1.00  0.00     0.012 A 
ATOM      4  C   UNL     1      11.165  48.235  -4.549  1.00  0.00     0.157 A 
ATOM      5  C   UNL     1      12.165  49.474  -2.723  1.00  0.00     0.051 A 
ATOM      6  C   UNL     1      11.370  48.415  -3.175  1.00  0.00     0.157 A 
ENDROOT
BRANCH   1   7
ATOM      7  C   UNL     1      13.170  51.081  -6.030  1.00  0.00     0.010 C 
ATOM      8  C   UNL     1      13.242  52.411  -5.886  1.00  0.00     0.025 C 
BRANCH   8   9
ATOM      9  C   UNL     1      13.855  53.273  -6.908  1.00  0.00     0.064 C 
ATOM     10  O   UNL     1      15.042  53.062  -7.269  1.00  0.00    -0.545 OA
ATOM     11  O   UNL     1      13.145  54.321  -7.484  1.00  0.00    -0.545 OA
ENDBRANCH   8   9
ENDBRANCH   1   7
BRANCH   4  12
ATOM     12  O   UNL     1      10.369  47.184  -4.996  1.00  0.00    -0.504 OA
ATOM     13  H   UNL     1       9.687  46.740  -4.392  1.00  0.00     0.293 HD
ENDBRANCH   4  12
BRANCH   6  14
ATOM     14  O   UNL     1      10.778  47.539  -2.268  1.00  0.00    -0.504 OA
ATOM     15  H   UNL     1      10.434  47.858  -1.370  1.00  0.00     0.293 HD
ENDBRANCH   6  14
TORSDOF 4
ENDMDL
MODEL 2
REMARK VINA RESULT:    -6.001      1.298      5.857
REMARK INTER + INTRA:          -7.190
REMARK INTER:                  -7.049
REMARK INTRA:                  -0.141
REMARK UNBOUND:                -0.136
REMARK SMILES O=C([O-])C=Cc1ccc(O)c(O)c1
REMARK SMILES IDX 6 1 13 2 7 3 11 4 8 5 9 6 5 7 4 8 2 9 1 10 3 11 12 12 10 14
REMARK H PARENT 12 13 10 15
REMARK Flexibility Score: inf
ROOT
ATOM      1  C   UNL     1      12.804  50.843  -4.540  1.00  0.00    -0.022 A 
ATOM      2  C   UNL     1      13.005  51.291  -5.856  1.00  0.00     0.058 A 
ATOM      3  C   UNL     1      13.286  51.629  -3.474  1.00  0.00     0.012 A 
ATOM      4  C   UNL     1      13.649  52.511  -6.109  1.00  0.00     0.157 A 
ATOM      5  C   UNL     1      13.928  52.845  -3.726  1.00  0.00     0.051 A 
ATOM      6  C   UNL     1      14.110  53.290  -5.040  1.00  0.00     0.157 A 
ENDROOT
BRANCH   1   7
ATOM      7  C   UNL     1      12.126  49.541  -4.329  1.00  0.00     0.010 C 
ATOM      8  C   UNL     1      11.732  49.092  -3.129  1.00  0.00     0.025 C 
BRANCH   8   9
ATOM      9  C   UNL     1      11.052  47.797  -2.968  1.00  0.00     0.064 C 
ATOM     10  O   UNL     1      10.420  47.303  -3.938  1.00  0.00    -0.545 OA
ATOM     11  O   UNL     1      11.091  47.110  -1.760  1.00  0.00    -0.545 OA
ENDBRANCH   8   9
ENDBRANCH   1   7
BRANCH   4  12
ATOM     12  O   UNL     1      13.836  52.954  -7.416  1.00  0.00    -0.504 OA
ATOM     13  H   UNL     1      13.179  52.725  -8.153  1.00  0.00     0.293 HD
ENDBRANCH   4  12
BRANCH   6  14
ATOM     14  O   UNL     1      14.749  54.502  -5.294  1.00  0.00    -0.504 OA
ATOM     15  H   UNL     1      14.602  55.008  -6.159  1.00  0.00     0.293 HD
ENDBRANCH   6  14
TORSDOF 4
ENDMDL
MODEL 3
REMARK VINA RESULT:    -5.987      1.689      2.421
REMARK INTER + INTRA:          -7.174
REMARK INTER:                  -7.042
REMARK INTRA:                  -0.131
REMARK UNBOUND:                -0.136
REMARK SMILES O=C([O-])C=Cc1ccc(O)c(O)c1
REMARK SMILES IDX 6 1 13 2 7 3 11 4 8 5 9 6 5 7 4 8 2 9 1 10 3 11 12 12 10 14
REMARK H PARENT 12 13 10 15
REMARK Flexibility Score: inf
ROOT
ATOM      1  C   UNL     1      12.858  50.770  -4.363  1.00  0.00    -0.022 A 
ATOM      2  C   UNL     1      12.453  50.120  -3.185  1.00  0.00     0.058 A 
ATOM      3  C   UNL     1      12.535  50.188  -5.605  1.00  0.00     0.012 A 
ATOM      4  C   UNL     1      11.716  48.928  -3.240  1.00  0.00     0.157 A 
ATOM      5  C   UNL     1      11.801  49.000  -5.660  1.00  0.00     0.051 A 
ATOM      6  C   UNL     1      11.388  48.369  -4.481  1.00  0.00     0.157 A 
ENDROOT
BRANCH   1   7
ATOM      7  C   UNL     1      13.645  52.023  -4.248  1.00  0.00     0.010 C 
ATOM      8  C   UNL     1      13.263  53.193  -4.776  1.00  0.00     0.025 C 
BRANCH   8   9
ATOM      9  C   UNL     1      14.069  54.414  -4.627  1.00  0.00     0.064 C 
ATOM     10  O   UNL     1      14.487  54.747  -3.487  1.00  0.00    -0.545 OA
ATOM     11  O   UNL     1      14.376  55.211  -5.724  1.00  0.00    -0.545 OA
ENDBRANCH   8   9
ENDBRANCH   1   7
BRANCH   4  12
ATOM     12  O   UNL     1      11.308  48.295  -2.068  1.00  0.00    -0.504 OA
ATOM     13  H   UNL     1      11.836  47.527  -1.668  1.00  0.00     0.293 HD
ENDBRANCH   4  12
BRANCH   6  14
ATOM     14  O   UNL     1      10.655  47.185  -4.533  1.00  0.00    -0.504 OA
ATOM     15  H   UNL     1       9.895  47.002  -3.888  1.00  0.00     0.293 HD
ENDBRANCH   6  14
TORSDOF 4
ENDMDL
MODEL 4
REMARK VINA RESULT:    -5.876     10.613     12.381
REMARK INTER + INTRA:          -7.043
REMARK INTER:                  -6.909
REMARK INTRA:                  -0.134
REMARK UNBOUND:                -0.136
REMARK SMILES O=C([O-])C=Cc1ccc(O)c(O)c1
REMARK SMILES IDX 6 1 13 2 7 3 11 4 8 5 9 6 5 7 4 8 2 9 1 10 3 11 12 12 10 14
REMARK H PARENT 12 13 10 15
REMARK Flexibility Score: inf
ROOT
ATOM      1  C   UNL     1      11.220  55.459   4.823  1.00  0.00    -0.022 A 
ATOM      2  C   UNL     1      12.222  56.012   4.008  1.00  0.00     0.058 A 
ATOM      3  C   UNL     1      10.026  55.011   4.223  1.00  0.00     0.012 A 
ATOM      4  C   UNL     1      12.052  56.094   2.618  1.00  0.00     0.157 A 
ATOM      5  C   UNL     1       9.857  55.093   2.838  1.00  0.00     0.051 A 
ATOM      6  C   UNL     1      10.867  55.631   2.032  1.00  0.00     0.157 A 
ENDROOT
BRANCH   1   7
ATOM      7  C   UNL     1      11.446  55.406   6.289  1.00  0.00     0.010 C 
ATOM      8  C   UNL     1      12.381  56.125   6.924  1.00  0.00     0.025 C 
BRANCH   8   9
ATOM      9  C   UNL     1      12.562  56.050   8.382  1.00  0.00     0.064 C 
ATOM     10  O   UNL     1      11.560  55.877   9.125  1.00  0.00    -0.545 OA
ATOM     11  O   UNL     1      13.822  56.170   8.957  1.00  0.00    -0.545 OA
ENDBRANCH   8   9
ENDBRANCH   1   7
BRANCH   4  12
ATOM     12  O   UNL     1      13.053  56.634   1.815  1.00  0.00    -0.504 OA
ATOM     13  H   UNL     1      13.713  56.045   1.319  1.00  0.00     0.293 HD
ENDBRANCH   4  12
BRANCH   6  14
ATOM     14  O   UNL     1      10.701  55.712   0.651  1.00  0.00    -0.504 OA
ATOM     15  H   UNL     1      11.472  55.949   0.038  1.00  0.00     0.293 HD
ENDBRANCH   6  14
TORSDOF 4
ENDMDL
MODEL 5
REMARK VINA RESULT:    -5.855     12.091     13.318
REMARK INTER + INTRA:          -7.018
REMARK INTER:                  -6.878
REMARK INTRA:                  -0.141
REMARK UNBOUND:                -0.136
REMARK SMILES O=C([O-])C=Cc1ccc(O)c(O)c1
REMARK SMILES IDX 6 1 13 2 7 3 11 4 8 5 9 6 5 7 4 8 2 9 1 10 3 11 12 12 10 14
REMARK H PARENT 12 13 10 15
REMARK Flexibility Score: inf
ROOT
ATOM      1  C   UNL     1      11.946  55.819   6.576  1.00  0.00    -0.022 A 
ATOM      2  C   UNL     1      11.753  55.339   5.270  1.00  0.00     0.058 A 
ATOM      3  C   UNL     1      10.914  55.652   7.521  1.00  0.00     0.012 A 
ATOM      4  C   UNL     1      10.566  54.680   4.916  1.00  0.00     0.157 A 
ATOM      5  C   UNL     1       9.731  54.996   7.167  1.00  0.00     0.051 A 
ATOM      6  C   UNL     1       9.555  54.507   5.868  1.00  0.00     0.157 A 
ENDROOT
BRANCH   1   7
ATOM      7  C   UNL     1      13.215  56.518   6.895  1.00  0.00     0.010 C 
ATOM      8  C   UNL     1      13.363  57.358   7.928  1.00  0.00     0.025 C 
BRANCH   8   9
ATOM      9  C   UNL     1      14.646  58.020   8.215  1.00  0.00     0.064 C 
ATOM     10  O   UNL     1      14.652  59.200   8.652  1.00  0.00    -0.545 OA
ATOM     11  O   UNL     1      15.854  57.365   8.008  1.00  0.00    -0.545 OA
ENDBRANCH   8   9
ENDBRANCH   1   7
BRANCH   4  12
ATOM     12  O   UNL     1      10.386  54.198   3.621  1.00  0.00    -0.504 OA
ATOM     13  H   UNL     1       9.485  53.861   3.300  1.00  0.00     0.293 HD
ENDBRANCH   4  12
BRANCH   6  14
ATOM     14  O   UNL     1       8.377  53.852   5.513  1.00  0.00    -0.504 OA
ATOM     15  H   UNL     1       8.381  52.891   5.191  1.00  0.00     0.293 HD
ENDBRANCH   6  14
TORSDOF 4
ENDMDL
MODEL 6
REMARK VINA RESULT:    -5.839      1.487      6.015
REMARK INTER + INTRA:          -7.000
REMARK INTER:                  -6.867
REMARK INTRA:                  -0.132
REMARK UNBOUND:                -0.136
REMARK SMILES O=C([O-])C=Cc1ccc(O)c(O)c1
REMARK SMILES IDX 6 1 13 2 7 3 11 4 8 5 9 6 5 7 4 8 2 9 1 10 3 11 12 12 10 14
REMARK H PARENT 12 13 10 15
REMARK Flexibility Score: inf
ROOT
ATOM      1  C   UNL     1      12.857  50.897  -5.188  1.00  0.00    -0.022 A 
ATOM      2  C   UNL     1      13.255  51.829  -4.216  1.00  0.00     0.058 A 
ATOM      3  C   UNL     1      12.973  51.244  -6.549  1.00  0.00     0.012 A 
ATOM      4  C   UNL     1      13.784  53.074  -4.589  1.00  0.00     0.157 A 
ATOM      5  C   UNL     1      13.499  52.484  -6.921  1.00  0.00     0.051 A 
ATOM      6  C   UNL     1      13.908  53.400  -5.945  1.00  0.00     0.157 A 
ENDROOT
BRANCH   1   7
ATOM      7  C   UNL     1      12.295  49.600  -4.740  1.00  0.00     0.010 C 
ATOM      8  C   UNL     1      11.799  49.387  -3.513  1.00  0.00     0.025 C 
BRANCH   8   9
ATOM      9  C   UNL     1      11.239  48.086  -3.115  1.00  0.00     0.064 C 
ATOM     10  O   UNL     1      11.376  47.688  -1.929  1.00  0.00    -0.545 OA
ATOM     11  O   UNL     1      10.564  47.285  -4.029  1.00  0.00    -0.545 OA
ENDBRANCH   8   9
ENDBRANCH   1   7
BRANCH   4  12
ATOM     12  O   UNL     1      14.186  53.989  -3.619  1.00  0.00    -0.504 OA
ATOM     13  H   UNL     1      14.809  53.725  -2.865  1.00  0.00     0.293 HD
ENDBRANCH   4  12
BRANCH   6  14
ATOM     14  O   UNL     1      14.434  54.637  -6.313  1.00  0.00    -0.504 OA
ATOM     15  H   UNL     1      15.345  54.717  -6.749  1.00  0.00     0.293 HD
ENDBRANCH   6  14
TORSDOF 4
ENDMDL
MODEL 7
REMARK VINA RESULT:    -5.831      9.008     10.069
REMARK INTER + INTRA:          -6.990
REMARK INTER:                  -6.861
REMARK INTRA:                  -0.129
REMARK UNBOUND:                -0.136
REMARK SMILES O=C([O-])C=Cc1ccc(O)c(O)c1
REMARK SMILES IDX 6 1 13 2 7 3 11 4 8 5 9 6 5 7 4 8 2 9 1 10 3 11 12 12 10 14
REMARK H PARENT 12 13 10 15
REMARK Flexibility Score: inf
ROOT
ATOM      1  C   UNL     1      10.933  55.205   3.497  1.00  0.00    -0.022 A 
ATOM      2  C   UNL     1       9.534  55.151   3.608  1.00  0.00     0.058 A 
ATOM      3  C   UNL     1      11.709  55.197   4.673  1.00  0.00     0.012 A 
ATOM      4  C   UNL     1       8.917  55.064   4.865  1.00  0.00     0.157 A 
ATOM      5  C   UNL     1      11.095  55.111   5.925  1.00  0.00     0.051 A 
ATOM      6  C   UNL     1       9.700  55.041   6.026  1.00  0.00     0.157 A 
ENDROOT
BRANCH   1   7
ATOM      7  C   UNL     1      11.534  55.308   2.144  1.00  0.00     0.010 C 
ATOM      8  C   UNL     1      11.068  54.655   1.071  1.00  0.00     0.025 C 
BRANCH   8   9
ATOM      9  C   UNL     1      11.689  54.796  -0.256  1.00  0.00     0.064 C 
ATOM     10  O   UNL     1      10.976  55.105  -1.246  1.00  0.00    -0.545 OA
ATOM     11  O   UNL     1      13.052  54.592  -0.436  1.00  0.00    -0.545 OA
ENDBRANCH   8   9
ENDBRANCH   1   7
BRANCH   4  12
ATOM     12  O   UNL     1       7.529  55.000   4.968  1.00  0.00    -0.504 OA
ATOM     13  H   UNL     1       6.981  55.802   5.260  1.00  0.00     0.293 HD
ENDBRANCH   4  12
BRANCH   6  14
ATOM     14  O   UNL     1       9.085  54.954   7.273  1.00  0.00    -0.504 OA
ATOM     15  H   UNL     1       8.448  54.198   7.498  1.00  0.00     0.293 HD
ENDBRANCH   6  14
TORSDOF 4
ENDMDL
MODEL 8
REMARK VINA RESULT:    -5.591     11.687     13.070
REMARK INTER + INTRA:          -6.708
REMARK INTER:                  -6.570
REMARK INTRA:                  -0.138
REMARK UNBOUND:                -0.136
REMARK SMILES O=C([O-])C=Cc1ccc(O)c(O)c1
REMARK SMILES IDX 6 1 13 2 7 3 11 4 8 5 9 6 5 7 4 8 2 9 1 10 3 11 12 12 10 14
REMARK H PARENT 12 13 10 15
REMARK Flexibility Score: inf
ROOT
ATOM      1  C   UNL     1      12.045  55.715   6.261  1.00  0.00    -0.022 A 
ATOM      2  C   UNL     1      10.792  55.136   6.525  1.00  0.00     0.058 A 
ATOM      3  C   UNL     1      12.494  55.784   4.927  1.00  0.00     0.012 A 
ATOM      4  C   UNL     1       9.989  54.658   5.479  1.00  0.00     0.157 A 
ATOM      5  C   UNL     1      11.694  55.306   3.885  1.00  0.00     0.051 A 
ATOM      6  C   UNL     1      10.440  54.745   4.157  1.00  0.00     0.157 A 
ENDROOT
BRANCH   1   7
ATOM      7  C   UNL     1      12.859  56.196   7.404  1.00  0.00     0.010 C 
ATOM      8  C   UNL     1      13.979  56.919   7.269  1.00  0.00     0.025 C 
BRANCH   8   9
ATOM      9  C   UNL     1      14.749  57.386   8.432  1.00  0.00     0.064 C 
ATOM     10  O   UNL     1      15.392  56.555   9.125  1.00  0.00    -0.545 OA
ATOM     11  O   UNL     1      14.777  58.731   8.783  1.00  0.00    -0.545 OA
ENDBRANCH   8   9
ENDBRANCH   1   7
BRANCH   4  12
ATOM     12  O   UNL     1       8.744  54.093   5.747  1.00  0.00    -0.504 OA
ATOM     13  H   UNL     1       8.561  53.595   6.611  1.00  0.00     0.293 HD
ENDBRANCH   4  12
BRANCH   6  14
ATOM     14  O   UNL     1       9.640  54.270   3.120  1.00  0.00    -0.504 OA
ATOM     15  H   UNL     1       9.711  53.314   2.791  1.00  0.00     0.293 HD
ENDBRANCH   6  14
TORSDOF 4
ENDMDL
MODEL 9
REMARK VINA RESULT:    -5.549      9.388     10.575
REMARK INTER + INTRA:          -6.659
REMARK INTER:                  -6.519
REMARK INTRA:                  -0.140
REMARK UNBOUND:                -0.136
REMARK SMILES O=C([O-])C=Cc1ccc(O)c(O)c1
REMARK SMILES IDX 6 1 13 2 7 3 11 4 8 5 9 6 5 7 4 8 2 9 1 10 3 11 12 12 10 14
REMARK H PARENT 12 13 10 15
REMARK Flexibility Score: inf
ROOT
ATOM      1  C   UNL     1      10.929  54.995   3.833  1.00  0.00    -0.022 A 
ATOM      2  C   UNL     1      11.681  55.313   4.977  1.00  0.00     0.058 A 
ATOM      3  C   UNL     1       9.562  54.686   3.983  1.00  0.00     0.012 A 
ATOM      4  C   UNL     1      11.080  55.349   6.243  1.00  0.00     0.157 A 
ATOM      5  C   UNL     1       8.963  54.721   5.246  1.00  0.00     0.051 A 
ATOM      6  C   UNL     1       9.718  55.054   6.377  1.00  0.00     0.157 A 
ENDROOT
BRANCH   1   7
ATOM      7  C   UNL     1      11.616  54.962   2.519  1.00  0.00     0.010 C 
ATOM      8  C   UNL     1      10.976  54.849   1.347  1.00  0.00     0.025 C 
BRANCH   8   9
ATOM      9  C   UNL     1      11.698  54.832   0.065  1.00  0.00     0.064 C 
ATOM     10  O   UNL     1      11.096  54.480  -0.983  1.00  0.00    -0.545 OA
ATOM     11  O   UNL     1      13.038  55.196  -0.010  1.00  0.00    -0.545 OA
ENDBRANCH   8   9
ENDBRANCH   1   7
BRANCH   4  12
ATOM     12  O   UNL     1      11.829  55.675   7.371  1.00  0.00    -0.504 OA
ATOM     13  H   UNL     1      11.758  56.586   7.812  1.00  0.00     0.293 HD
ENDBRANCH   4  12
BRANCH   6  14
ATOM     14  O   UNL     1       9.123  55.091   7.637  1.00  0.00    -0.504 OA
ATOM     15  H   UNL     1       9.675  55.181   8.481  1.00  0.00     0.293 HD
ENDBRANCH   6  14
TORSDOF 4
ENDMDL
