MODEL 1
REMARK VINA RESULT:    -4.601      0.000      0.000
REMARK INTER + INTRA:          -5.671
REMARK INTER:                  -5.542
REMARK INTRA:                  -0.129
REMARK UNBOUND:                -0.129
REMARK SMILES NC(=O)C[C@@H]([NH3+])C(=O)[O-]
REMARK SMILES IDX 4 1 5 2 6 3 7 7 8 8 9 9 2 10 3 11 1 12
REMARK H PARENT 6 4 6 5 6 6 1 13 1 14
REMARK Flexibility Score: inf
ROOT
ATOM      1  C   UNL     1      10.370  39.886  72.039  1.00  0.00     0.171 C 
ENDROOT
BRANCH   1   2
ATOM      2  C   UNL     1      10.035  39.659  70.548  1.00  0.00     0.237 C 
BRANCH   2   3
ATOM      3  N   UNL     1       9.905  40.928  69.819  1.00  0.00    -0.350 N 
ATOM      4  H   UNL     1       9.471  40.783  68.879  1.00  0.00     0.345 HD
ATOM      5  H   UNL     1       9.307  41.588  70.369  1.00  0.00     0.345 HD
ATOM      6  H   UNL     1      10.848  41.366  69.698  1.00  0.00     0.345 HD
ENDBRANCH   2   3
BRANCH   2   7
ATOM      7  C   UNL     1      11.045  38.754  69.889  1.00  0.00     0.100 C 
ATOM      8  O   UNL     1      11.702  37.935  70.585  1.00  0.00    -0.544 OA
ATOM      9  O   UNL     1      11.297  38.847  68.525  1.00  0.00    -0.544 OA
ENDBRANCH   2   7
ENDBRANCH   1   2
BRANCH   1  10
ATOM     10  C   UNL     1       9.321  39.350  72.972  1.00  0.00     0.223 C 
ATOM     11  O   UNL     1       9.086  38.112  73.005  1.00  0.00    -0.275 OA
ATOM     12  N   UNL     1       8.602  40.229  73.836  1.00  0.00    -0.369 N 
ATOM     13  H   UNL     1       8.790  41.256  73.829  1.00  0.00     0.159 HD
ATOM     14  H   UNL     1       7.882  39.852  74.491  1.00  0.00     0.159 HD
ENDBRANCH   1  10
TORSDOF 4
ENDMDL
MODEL 2
REMARK VINA RESULT:    -4.496      5.628      7.111
REMARK INTER + INTRA:          -5.545
REMARK INTER:                  -5.056
REMARK INTRA:                  -0.489
REMARK UNBOUND:                -0.129
REMARK SMILES NC(=O)C[C@@H]([NH3+])C(=O)[O-]
REMARK SMILES IDX 4 1 5 2 6 3 7 7 8 8 9 9 2 10 3 11 1 12
REMARK H PARENT 6 4 6 5 6 6 1 13 1 14
REMARK Flexibility Score: inf
ROOT
ATOM      1  C   UNL     1      11.677  38.472  64.480  1.00  0.00     0.171 C 
ENDROOT
BRANCH   1   2
ATOM      2  C   UNL     1      10.586  37.590  65.127  1.00  0.00     0.237 C 
BRANCH   2   3
ATOM      3  N   UNL     1      10.961  36.170  65.126  1.00  0.00    -0.350 N 
ATOM      4  H   UNL     1      10.222  35.582  64.679  1.00  0.00     0.345 HD
ATOM      5  H   UNL     1      11.857  36.045  64.599  1.00  0.00     0.345 HD
ATOM      6  H   UNL     1      11.112  35.843  66.109  1.00  0.00     0.345 HD
ENDBRANCH   2   3
BRANCH   2   7
ATOM      7  C   UNL     1      10.249  38.064  66.519  1.00  0.00     0.100 C 
ATOM      8  O   UNL     1       9.096  38.504  66.771  1.00  0.00    -0.544 OA
ATOM      9  O   UNL     1      11.216  38.070  67.518  1.00  0.00    -0.544 OA
ENDBRANCH   2   7
ENDBRANCH   1   2
BRANCH   1  10
ATOM     10  C   UNL     1      13.073  37.997  64.769  1.00  0.00     0.223 C 
ATOM     11  O   UNL     1      13.611  37.139  64.018  1.00  0.00    -0.275 OA
ATOM     12  N   UNL     1      13.804  38.525  65.876  1.00  0.00    -0.369 N 
ATOM     13  H   UNL     1      13.378  39.243  66.503  1.00  0.00     0.159 HD
ATOM     14  H   UNL     1      14.777  38.200  66.067  1.00  0.00     0.159 HD
ENDBRANCH   1  10
TORSDOF 4
ENDMDL
MODEL 3
REMARK VINA RESULT:    -4.394      1.994      2.549
REMARK INTER + INTRA:          -5.422
REMARK INTER:                  -4.916
REMARK INTRA:                  -0.506
REMARK UNBOUND:                -0.129
REMARK SMILES NC(=O)C[C@@H]([NH3+])C(=O)[O-]
REMARK SMILES IDX 4 1 5 2 6 3 7 7 8 8 9 9 2 10 3 11 1 12
REMARK H PARENT 6 4 6 5 6 6 1 13 1 14
REMARK Flexibility Score: inf
ROOT
ATOM      1  C   UNL     1      11.573  39.323  72.749  1.00  0.00     0.171 C 
ENDROOT
BRANCH   1   2
ATOM      2  C   UNL     1      11.615  37.816  72.410  1.00  0.00     0.237 C 
BRANCH   2   3
ATOM      3  N   UNL     1      10.326  37.162  72.670  1.00  0.00    -0.350 N 
ATOM      4  H   UNL     1      10.372  36.560  73.523  1.00  0.00     0.345 HD
ATOM      5  H   UNL     1       9.586  37.889  72.810  1.00  0.00     0.345 HD
ATOM      6  H   UNL     1      10.054  36.574  71.849  1.00  0.00     0.345 HD
ENDBRANCH   2   3
BRANCH   2   7
ATOM      7  C   UNL     1      12.066  37.586  70.989  1.00  0.00     0.100 C 
ATOM      8  O   UNL     1      13.269  37.299  70.750  1.00  0.00    -0.544 OA
ATOM      9  O   UNL     1      11.177  37.737  69.930  1.00  0.00    -0.544 OA
ENDBRANCH   2   7
ENDBRANCH   1   2
BRANCH   1  10
ATOM     10  C   UNL     1      10.238  39.956  72.474  1.00  0.00     0.223 C 
ATOM     11  O   UNL     1       9.412  40.112  73.414  1.00  0.00    -0.275 OA
ATOM     12  N   UNL     1       9.905  40.402  71.159  1.00  0.00    -0.369 N 
ATOM     13  H   UNL     1      10.580  40.290  70.371  1.00  0.00     0.159 HD
ATOM     14  H   UNL     1       8.981  40.852  70.974  1.00  0.00     0.159 HD
ENDBRANCH   1  10
TORSDOF 4
ENDMDL
MODEL 4
REMARK VINA RESULT:    -4.334     11.369     11.997
REMARK INTER + INTRA:          -5.349
REMARK INTER:                  -5.074
REMARK INTRA:                  -0.275
REMARK UNBOUND:                -0.129
REMARK SMILES NC(=O)C[C@@H]([NH3+])C(=O)[O-]
REMARK SMILES IDX 4 1 5 2 6 3 7 7 8 8 9 9 2 10 3 11 1 12
REMARK H PARENT 6 4 6 5 6 6 1 13 1 14
REMARK Flexibility Score: inf
ROOT
ATOM      1  C   UNL     1       4.554  30.340  70.507  1.00  0.00     0.171 C 
ENDROOT
BRANCH   1   2
ATOM      2  C   UNL     1       3.426  29.462  69.921  1.00  0.00     0.237 C 
BRANCH   2   3
ATOM      3  N   UNL     1       3.206  28.251  70.723  1.00  0.00    -0.350 N 
ATOM      4  H   UNL     1       3.609  27.407  70.255  1.00  0.00     0.345 HD
ATOM      5  H   UNL     1       3.657  28.365  71.660  1.00  0.00     0.345 HD
ATOM      6  H   UNL     1       2.180  28.105  70.870  1.00  0.00     0.345 HD
ENDBRANCH   2   3
BRANCH   2   7
ATOM      7  C   UNL     1       2.149  30.245  69.755  1.00  0.00     0.100 C 
ATOM      8  O   UNL     1       2.158  31.334  69.122  1.00  0.00    -0.544 OA
ATOM      9  O   UNL     1       0.966  29.805  70.339  1.00  0.00    -0.544 OA
ENDBRANCH   2   7
ENDBRANCH   1   2
BRANCH   1  10
ATOM     10  C   UNL     1       5.597  29.551  71.248  1.00  0.00     0.223 C 
ATOM     11  O   UNL     1       6.313  28.721  70.626  1.00  0.00    -0.275 OA
ATOM     12  N   UNL     1       5.798  29.750  72.647  1.00  0.00    -0.369 N 
ATOM     13  H   UNL     1       5.220  30.441  73.176  1.00  0.00     0.159 HD
ATOM     14  H   UNL     1       6.531  29.208  73.156  1.00  0.00     0.159 HD
ENDBRANCH   1  10
TORSDOF 4
ENDMDL
MODEL 5
REMARK VINA RESULT:    -4.328      1.162      1.585
REMARK INTER + INTRA:          -5.342
REMARK INTER:                  -4.970
REMARK INTRA:                  -0.372
REMARK UNBOUND:                -0.129
REMARK SMILES NC(=O)C[C@@H]([NH3+])C(=O)[O-]
REMARK SMILES IDX 4 1 5 2 6 3 7 7 8 8 9 9 2 10 3 11 1 12
REMARK H PARENT 6 4 6 5 6 6 1 13 1 14
REMARK Flexibility Score: inf
ROOT
ATOM      1  C   UNL     1       9.737  38.603  71.658  1.00  0.00     0.171 C 
ENDROOT
BRANCH   1   2
ATOM      2  C   UNL     1      10.024  39.134  70.237  1.00  0.00     0.237 C 
BRANCH   2   3
ATOM      3  N   UNL     1      10.038  40.603  70.196  1.00  0.00    -0.350 N 
ATOM      4  H   UNL     1       9.292  41.006  70.807  1.00  0.00     0.345 HD
ATOM      5  H   UNL     1      10.968  40.953  70.524  1.00  0.00     0.345 HD
ATOM      6  H   UNL     1       9.892  40.932  69.214  1.00  0.00     0.345 HD
ENDBRANCH   2   3
BRANCH   2   7
ATOM      7  C   UNL     1      11.306  38.562  69.685  1.00  0.00     0.100 C 
ATOM      8  O   UNL     1      11.611  38.757  68.478  1.00  0.00    -0.544 OA
ATOM      9  O   UNL     1      12.132  37.776  70.480  1.00  0.00    -0.544 OA
ENDBRANCH   2   7
ENDBRANCH   1   2
BRANCH   1  10
ATOM     10  C   UNL     1      10.024  39.608  72.738  1.00  0.00     0.223 C 
ATOM     11  O   UNL     1      11.212  39.971  72.956  1.00  0.00    -0.275 OA
ATOM     12  N   UNL     1       8.961  40.172  73.505  1.00  0.00    -0.369 N 
ATOM     13  H   UNL     1       7.970  39.891  73.332  1.00  0.00     0.159 HD
ATOM     14  H   UNL     1       9.164  40.878  74.247  1.00  0.00     0.159 HD
ENDBRANCH   1  10
TORSDOF 4
ENDMDL
MODEL 6
REMARK VINA RESULT:    -4.307      2.436      2.696
REMARK INTER + INTRA:          -5.317
REMARK INTER:                  -5.056
REMARK INTRA:                  -0.261
REMARK UNBOUND:                -0.129
REMARK SMILES NC(=O)C[C@@H]([NH3+])C(=O)[O-]
REMARK SMILES IDX 4 1 5 2 6 3 7 7 8 8 9 9 2 10 3 11 1 12
REMARK H PARENT 6 4 6 5 6 6 1 13 1 14
REMARK Flexibility Score: inf
ROOT
ATOM      1  C   UNL     1      10.308  37.933  72.347  1.00  0.00     0.171 C 
ENDROOT
BRANCH   1   2
ATOM      2  C   UNL     1      11.710  38.288  71.803  1.00  0.00     0.237 C 
BRANCH   2   3
ATOM      3  N   UNL     1      12.550  38.918  72.830  1.00  0.00    -0.350 N 
ATOM      4  H   UNL     1      13.549  38.628  72.733  1.00  0.00     0.345 HD
ATOM      5  H   UNL     1      12.490  39.959  72.742  1.00  0.00     0.345 HD
ATOM      6  H   UNL     1      12.206  38.651  73.782  1.00  0.00     0.345 HD
ENDBRANCH   2   3
BRANCH   2   7
ATOM      7  C   UNL     1      12.390  37.082  71.207  1.00  0.00     0.100 C 
ATOM      8  O   UNL     1      13.444  37.225  70.531  1.00  0.00    -0.544 OA
ATOM      9  O   UNL     1      11.840  35.814  71.351  1.00  0.00    -0.544 OA
ENDBRANCH   2   7
ENDBRANCH   1   2
BRANCH   1  10
ATOM     10  C   UNL     1       9.502  39.138  72.745  1.00  0.00     0.223 C 
ATOM     11  O   UNL     1       9.932  40.294  72.483  1.00  0.00    -0.275 OA
ATOM     12  N   UNL     1       8.243  38.984  73.398  1.00  0.00    -0.369 N 
ATOM     13  H   UNL     1       7.866  38.034  73.614  1.00  0.00     0.159 HD
ATOM     14  H   UNL     1       7.681  39.823  73.663  1.00  0.00     0.159 HD
ENDBRANCH   1  10
TORSDOF 4
ENDMDL
MODEL 7
REMARK VINA RESULT:    -4.265     10.994     11.357
REMARK INTER + INTRA:          -5.267
REMARK INTER:                  -5.003
REMARK INTRA:                  -0.263
REMARK UNBOUND:                -0.129
REMARK SMILES NC(=O)C[C@@H]([NH3+])C(=O)[O-]
REMARK SMILES IDX 4 1 5 2 6 3 7 7 8 8 9 9 2 10 3 11 1 12
REMARK H PARENT 6 4 6 5 6 6 1 13 1 14
REMARK Flexibility Score: inf
ROOT
ATOM      1  C   UNL     1       2.108  30.856  69.443  1.00  0.00     0.171 C 
ENDROOT
BRANCH   1   2
ATOM      2  C   UNL     1       3.533  31.443  69.549  1.00  0.00     0.237 C 
BRANCH   2   3
ATOM      3  N   UNL     1       4.460  30.795  68.611  1.00  0.00    -0.350 N 
ATOM      4  H   UNL     1       4.160  29.817  68.396  1.00  0.00     0.345 HD
ATOM      5  H   UNL     1       4.496  31.341  67.720  1.00  0.00     0.345 HD
ATOM      6  H   UNL     1       5.423  30.775  69.021  1.00  0.00     0.345 HD
ENDBRANCH   2   3
BRANCH   2   7
ATOM      7  C   UNL     1       3.527  32.939  69.361  1.00  0.00     0.100 C 
ATOM      8  O   UNL     1       2.476  33.520  68.980  1.00  0.00    -0.544 OA
ATOM      9  O   UNL     1       4.686  33.683  69.553  1.00  0.00    -0.544 OA
ENDBRANCH   2   7
ENDBRANCH   1   2
BRANCH   1  10
ATOM     10  C   UNL     1       1.973  29.503  70.084  1.00  0.00     0.223 C 
ATOM     11  O   UNL     1       3.006  28.839  70.367  1.00  0.00    -0.275 OA
ATOM     12  N   UNL     1       0.684  28.974  70.395  1.00  0.00    -0.369 N 
ATOM     13  H   UNL     1      -0.182  29.514  70.176  1.00  0.00     0.159 HD
ATOM     14  H   UNL     1       0.595  28.039  70.850  1.00  0.00     0.159 HD
ENDBRANCH   1  10
TORSDOF 4
ENDMDL
MODEL 8
REMARK VINA RESULT:    -4.249     11.826     12.549
REMARK INTER + INTRA:          -5.247
REMARK INTER:                  -5.109
REMARK INTRA:                  -0.138
REMARK UNBOUND:                -0.129
REMARK SMILES NC(=O)C[C@@H]([NH3+])C(=O)[O-]
REMARK SMILES IDX 4 1 5 2 6 3 7 7 8 8 9 9 2 10 3 11 1 12
REMARK H PARENT 6 4 6 5 6 6 1 13 1 14
REMARK Flexibility Score: inf
ROOT
ATOM      1  C   UNL     1       4.387  29.849  69.854  1.00  0.00     0.171 C 
ENDROOT
BRANCH   1   2
ATOM      2  C   UNL     1       3.055  29.071  69.772  1.00  0.00     0.237 C 
BRANCH   2   3
ATOM      3  N   UNL     1       2.948  28.059  70.832  1.00  0.00    -0.350 N 
ATOM      4  H   UNL     1       3.539  27.224  70.619  1.00  0.00     0.345 HD
ATOM      5  H   UNL     1       3.261  28.471  71.742  1.00  0.00     0.345 HD
ATOM      6  H   UNL     1       1.952  27.758  70.935  1.00  0.00     0.345 HD
ENDBRANCH   2   3
BRANCH   2   7
ATOM      7  C   UNL     1       1.872  30.006  69.790  1.00  0.00     0.100 C 
ATOM      8  O   UNL     1       1.897  31.064  69.108  1.00  0.00    -0.544 OA
ATOM      9  O   UNL     1       0.770  29.739  70.595  1.00  0.00    -0.544 OA
ENDBRANCH   2   7
ENDBRANCH   1   2
BRANCH   1  10
ATOM     10  C   UNL     1       5.184  29.798  68.580  1.00  0.00     0.223 C 
ATOM     11  O   UNL     1       6.346  30.284  68.548  1.00  0.00    -0.275 OA
ATOM     12  N   UNL     1       4.641  29.185  67.410  1.00  0.00    -0.369 N 
ATOM     13  H   UNL     1       3.684  28.770  67.420  1.00  0.00     0.159 HD
ATOM     14  H   UNL     1       5.202  29.143  66.530  1.00  0.00     0.159 HD
ENDBRANCH   1  10
TORSDOF 4
ENDMDL
MODEL 9
REMARK VINA RESULT:    -4.222      5.000      6.148
REMARK INTER + INTRA:          -5.215
REMARK INTER:                  -4.761
REMARK INTRA:                  -0.454
REMARK UNBOUND:                -0.129
REMARK SMILES NC(=O)C[C@@H]([NH3+])C(=O)[O-]
REMARK SMILES IDX 4 1 5 2 6 3 7 7 8 8 9 9 2 10 3 11 1 12
REMARK H PARENT 6 4 6 5 6 6 1 13 1 14
REMARK Flexibility Score: inf
ROOT
ATOM      1  C   UNL     1      10.647  37.047  65.738  1.00  0.00     0.171 C 
ENDROOT
BRANCH   1   2
ATOM      2  C   UNL     1      11.288  37.761  64.528  1.00  0.00     0.237 C 
BRANCH   2   3
ATOM      3  N   UNL     1      10.644  39.053  64.253  1.00  0.00    -0.350 N 
ATOM      4  H   UNL     1      11.341  39.833  64.261  1.00  0.00     0.345 HD
ATOM      5  H   UNL     1      10.183  39.022  63.314  1.00  0.00     0.345 HD
ATOM      6  H   UNL     1       9.909  39.243  64.973  1.00  0.00     0.345 HD
ENDBRANCH   2   3
BRANCH   2   7
ATOM      7  C   UNL     1      12.776  37.922  64.709  1.00  0.00     0.100 C 
ATOM      8  O   UNL     1      13.561  37.588  63.782  1.00  0.00    -0.544 OA
ATOM      9  O   UNL     1      13.298  38.386  65.912  1.00  0.00    -0.544 OA
ENDBRANCH   2   7
ENDBRANCH   1   2
BRANCH   1  10
ATOM     10  C   UNL     1      10.196  37.993  66.816  1.00  0.00     0.223 C 
ATOM     11  O   UNL     1       9.046  38.505  66.759  1.00  0.00    -0.275 OA
ATOM     12  N   UNL     1      11.054  38.301  67.915  1.00  0.00    -0.369 N 
ATOM     13  H   UNL     1      12.006  37.880  67.983  1.00  0.00     0.159 HD
ATOM     14  H   UNL     1      10.733  38.951  68.667  1.00  0.00     0.159 HD
ENDBRANCH   1  10
TORSDOF 4
ENDMDL
