MODEL 1
REMARK VINA RESULT:    -5.243      0.000      0.000
REMARK INTER + INTRA:         -12.793
REMARK INTER:                 -11.374
REMARK INTRA:                  -1.419
REMARK UNBOUND:                -1.419
REMARK SMILES CCCCCCCCCCCCCCCCCCCCCC(=O)[O-]
REMARK SMILES IDX 12 1 11 2 10 3 9 4 8 5 7 6 6 7 5 8 4 9 3 10 2 11 1 12 13 13
REMARK SMILES IDX 14 14 15 15 16 16 17 17 18 18 19 19 20 20 21 21 22 22 23 23
REMARK SMILES IDX 24 24
REMARK H PARENT
REMARK Flexibility Score: inf
ROOT
ATOM      1  C   UNL     1      21.772  11.849  49.677  1.00  0.00     0.000 C 
ENDROOT
BRANCH   1   2
ATOM      2  C   UNL     1      20.781  10.723  49.336  1.00  0.00     0.000 C 
BRANCH   2   3
ATOM      3  C   UNL     1      19.597  10.682  50.321  1.00  0.00     0.000 C 
BRANCH   3   4
ATOM      4  C   UNL     1      18.529   9.649  49.927  1.00  0.00    -0.000 C 
BRANCH   4   5
ATOM      5  C   UNL     1      19.124   8.258  49.656  1.00  0.00    -0.000 C 
BRANCH   5   6
ATOM      6  C   UNL     1      18.104   7.351  48.958  1.00  0.00    -0.000 C 
BRANCH   6   7
ATOM      7  C   UNL     1      16.793   7.275  49.754  1.00  0.00    -0.000 C 
BRANCH   7   8
ATOM      8  C   UNL     1      15.819   6.229  49.170  1.00  0.00    -0.000 C 
BRANCH   8   9
ATOM      9  C   UNL     1      14.389   6.765  48.969  1.00  0.00    -0.000 C 
BRANCH   9  10
ATOM     10  C   UNL     1      14.128   7.248  47.533  1.00  0.00    -0.000 C 
BRANCH  10  11
ATOM     11  C   UNL     1      15.029   8.426  47.130  1.00  0.00    -0.003 C 
ATOM     12  C   UNL     1      15.942   8.101  45.948  1.00  0.00     0.004 C 
ENDBRANCH  10  11
ENDBRANCH   9  10
ENDBRANCH   8   9
ENDBRANCH   7   8
ENDBRANCH   6   7
ENDBRANCH   5   6
ENDBRANCH   4   5
ENDBRANCH   3   4
ENDBRANCH   2   3
ENDBRANCH   1   2
BRANCH   1  13
ATOM     13  C   UNL     1      22.501  12.399  48.436  1.00  0.00     0.000 C 
BRANCH  13  14
ATOM     14  C   UNL     1      23.328  13.657  48.763  1.00  0.00     0.000 C 
BRANCH  14  15
ATOM     15  C   UNL     1      23.163  14.083  50.234  1.00  0.00     0.000 C 
BRANCH  15  16
ATOM     16  C   UNL     1      24.502  14.402  50.923  1.00  0.00     0.000 C 
BRANCH  16  17
ATOM     17  C   UNL     1      25.741  14.323  50.009  1.00  0.00     0.000 C 
BRANCH  17  18
ATOM     18  C   UNL     1      27.080  14.677  50.686  1.00  0.00     0.000 C 
BRANCH  18  19
ATOM     19  C   UNL     1      26.972  15.643  51.881  1.00  0.00     0.000 C 
BRANCH  19  20
ATOM     20  C   UNL     1      27.588  15.075  53.170  1.00  0.00     0.006 C 
BRANCH  20  21
ATOM     21  C   UNL     1      27.323  13.572  53.282  1.00  0.00     0.053 C 
BRANCH  21  22
ATOM     22  C   UNL     1      26.209  13.300  54.244  1.00  0.00     0.041 C 
ATOM     23  O   UNL     1      25.515  14.251  54.689  1.00  0.00    -0.550 OA
ATOM     24  O   UNL     1      25.912  11.994  54.619  1.00  0.00    -0.550 OA
ENDBRANCH  21  22
ENDBRANCH  20  21
ENDBRANCH  19  20
ENDBRANCH  18  19
ENDBRANCH  17  18
ENDBRANCH  16  17
ENDBRANCH  15  16
ENDBRANCH  14  15
ENDBRANCH  13  14
ENDBRANCH   1  13
TORSDOF 20
ENDMDL
MODEL 2
REMARK VINA RESULT:    -5.194     10.772     15.262
REMARK INTER + INTRA:         -12.686
REMARK INTER:                 -10.516
REMARK INTRA:                  -2.170
REMARK UNBOUND:                -1.419
REMARK SMILES CCCCCCCCCCCCCCCCCCCCCC(=O)[O-]
REMARK SMILES IDX 12 1 11 2 10 3 9 4 8 5 7 6 6 7 5 8 4 9 3 10 2 11 1 12 13 13
REMARK SMILES IDX 14 14 15 15 16 16 17 17 18 18 19 19 20 20 21 21 22 22 23 23
REMARK SMILES IDX 24 24
REMARK H PARENT
REMARK Flexibility Score: inf
ROOT
ATOM      1  C   UNL     1      20.364  -0.144  46.663  1.00  0.00     0.000 C 
ENDROOT
BRANCH   1   2
ATOM      2  C   UNL     1      20.442   0.657  47.975  1.00  0.00     0.000 C 
BRANCH   2   3
ATOM      3  C   UNL     1      21.899   0.925  48.398  1.00  0.00     0.000 C 
BRANCH   3   4
ATOM      4  C   UNL     1      22.871  -0.159  47.908  1.00  0.00    -0.000 C 
BRANCH   4   5
ATOM      5  C   UNL     1      24.272  -0.018  48.524  1.00  0.00    -0.000 C 
BRANCH   5   6
ATOM      6  C   UNL     1      25.223   0.709  47.567  1.00  0.00    -0.000 C 
BRANCH   6   7
ATOM      7  C   UNL     1      25.657   2.066  48.142  1.00  0.00    -0.000 C 
BRANCH   7   8
ATOM      8  C   UNL     1      25.994   3.085  47.032  1.00  0.00    -0.000 C 
BRANCH   8   9
ATOM      9  C   UNL     1      24.895   4.143  46.815  1.00  0.00    -0.000 C 
BRANCH   9  10
ATOM     10  C   UNL     1      24.101   3.922  45.517  1.00  0.00    -0.000 C 
BRANCH  10  11
ATOM     11  C   UNL     1      22.822   3.101  45.735  1.00  0.00    -0.003 C 
ATOM     12  C   UNL     1      22.663   1.965  44.725  1.00  0.00     0.004 C 
ENDBRANCH  10  11
ENDBRANCH   9  10
ENDBRANCH   8   9
ENDBRANCH   7   8
ENDBRANCH   6   7
ENDBRANCH   5   6
ENDBRANCH   4   5
ENDBRANCH   3   4
ENDBRANCH   2   3
ENDBRANCH   1   2
BRANCH   1  13
ATOM     13  C   UNL     1      19.019  -0.876  46.490  1.00  0.00     0.000 C 
BRANCH  13  14
ATOM     14  C   UNL     1      18.382  -1.240  47.845  1.00  0.00     0.000 C 
BRANCH  14  15
ATOM     15  C   UNL     1      16.864  -1.464  47.722  1.00  0.00     0.000 C 
BRANCH  15  16
ATOM     16  C   UNL     1      16.182  -0.470  46.765  1.00  0.00     0.000 C 
BRANCH  16  17
ATOM     17  C   UNL     1      15.925   0.930  47.355  1.00  0.00     0.000 C 
BRANCH  17  18
ATOM     18  C   UNL     1      14.887   0.984  48.494  1.00  0.00     0.000 C 
BRANCH  18  19
ATOM     19  C   UNL     1      13.559   1.677  48.133  1.00  0.00     0.000 C 
BRANCH  19  20
ATOM     20  C   UNL     1      12.749   0.910  47.075  1.00  0.00     0.006 C 
BRANCH  20  21
ATOM     21  C   UNL     1      12.832   1.608  45.716  1.00  0.00     0.053 C 
BRANCH  21  22
ATOM     22  C   UNL     1      11.596   1.350  44.912  1.00  0.00     0.041 C 
ATOM     23  O   UNL     1      10.736   2.258  44.768  1.00  0.00    -0.550 OA
ATOM     24  O   UNL     1      11.413   0.120  44.289  1.00  0.00    -0.550 OA
ENDBRANCH  21  22
ENDBRANCH  20  21
ENDBRANCH  19  20
ENDBRANCH  18  19
ENDBRANCH  17  18
ENDBRANCH  16  17
ENDBRANCH  15  16
ENDBRANCH  14  15
ENDBRANCH  13  14
ENDBRANCH   1  13
TORSDOF 20
ENDMDL
MODEL 3
REMARK VINA RESULT:    -5.149     11.475     13.382
REMARK INTER + INTRA:         -12.588
REMARK INTER:                 -10.571
REMARK INTRA:                  -2.018
REMARK UNBOUND:                -1.419
REMARK SMILES CCCCCCCCCCCCCCCCCCCCCC(=O)[O-]
REMARK SMILES IDX 12 1 11 2 10 3 9 4 8 5 7 6 6 7 5 8 4 9 3 10 2 11 1 12 13 13
REMARK SMILES IDX 14 14 15 15 16 16 17 17 18 18 19 19 20 20 21 21 22 22 23 23
REMARK SMILES IDX 24 24
REMARK H PARENT
REMARK Flexibility Score: inf
ROOT
ATOM      1  C   UNL     1      15.635  -1.197  47.861  1.00  0.00     0.000 C 
ENDROOT
BRANCH   1   2
ATOM      2  C   UNL     1      15.870   0.323  47.890  1.00  0.00     0.000 C 
BRANCH   2   3
ATOM      3  C   UNL     1      14.595   1.094  48.280  1.00  0.00     0.000 C 
BRANCH   3   4
ATOM      4  C   UNL     1      13.386   0.731  47.404  1.00  0.00    -0.000 C 
BRANCH   4   5
ATOM      5  C   UNL     1      13.258   1.637  46.170  1.00  0.00    -0.000 C 
BRANCH   5   6
ATOM      6  C   UNL     1      12.048   1.237  45.317  1.00  0.00    -0.000 C 
BRANCH   6   7
ATOM      7  C   UNL     1      12.289   1.549  43.832  1.00  0.00    -0.000 C 
BRANCH   7   8
ATOM      8  C   UNL     1      12.508   0.269  42.999  1.00  0.00    -0.000 C 
BRANCH   8   9
ATOM      9  C   UNL     1      12.334  -1.030  43.809  1.00  0.00    -0.000 C 
BRANCH   9  10
ATOM     10  C   UNL     1      13.655  -1.794  44.004  1.00  0.00    -0.000 C 
BRANCH  10  11
ATOM     11  C   UNL     1      13.589  -2.809  45.155  1.00  0.00    -0.003 C 
ATOM     12  C   UNL     1      12.401  -2.575  46.088  1.00  0.00     0.004 C 
ENDBRANCH  10  11
ENDBRANCH   9  10
ENDBRANCH   8   9
ENDBRANCH   7   8
ENDBRANCH   6   7
ENDBRANCH   5   6
ENDBRANCH   4   5
ENDBRANCH   3   4
ENDBRANCH   2   3
ENDBRANCH   1   2
BRANCH   1  13
ATOM     13  C   UNL     1      16.902  -1.990  47.489  1.00  0.00     0.000 C 
BRANCH  13  14
ATOM     14  C   UNL     1      18.185  -1.170  47.723  1.00  0.00     0.000 C 
BRANCH  14  15
ATOM     15  C   UNL     1      19.140  -1.244  46.517  1.00  0.00     0.000 C 
BRANCH  15  16
ATOM     16  C   UNL     1      20.443  -0.453  46.729  1.00  0.00     0.000 C 
BRANCH  16  17
ATOM     17  C   UNL     1      20.407   0.562  47.888  1.00  0.00     0.000 C 
BRANCH  17  18
ATOM     18  C   UNL     1      21.780   1.115  48.321  1.00  0.00     0.000 C 
BRANCH  18  19
ATOM     19  C   UNL     1      22.992   0.279  47.866  1.00  0.00     0.000 C 
BRANCH  19  20
ATOM     20  C   UNL     1      24.313   0.739  48.503  1.00  0.00     0.006 C 
BRANCH  20  21
ATOM     21  C   UNL     1      24.702  -0.177  49.666  1.00  0.00     0.053 C 
BRANCH  21  22
ATOM     22  C   UNL     1      25.452  -1.374  49.168  1.00  0.00     0.041 C 
ATOM     23  O   UNL     1      26.431  -1.226  48.390  1.00  0.00    -0.550 OA
ATOM     24  O   UNL     1      25.095  -2.649  49.592  1.00  0.00    -0.550 OA
ENDBRANCH  21  22
ENDBRANCH  20  21
ENDBRANCH  19  20
ENDBRANCH  18  19
ENDBRANCH  17  18
ENDBRANCH  16  17
ENDBRANCH  15  16
ENDBRANCH  14  15
ENDBRANCH  13  14
ENDBRANCH   1  13
TORSDOF 20
ENDMDL
MODEL 4
REMARK VINA RESULT:    -5.142      1.274      2.213
REMARK INTER + INTRA:         -12.574
REMARK INTER:                 -11.104
REMARK INTRA:                  -1.470
REMARK UNBOUND:                -1.419
REMARK SMILES CCCCCCCCCCCCCCCCCCCCCC(=O)[O-]
REMARK SMILES IDX 12 1 11 2 10 3 9 4 8 5 7 6 6 7 5 8 4 9 3 10 2 11 1 12 13 13
REMARK SMILES IDX 14 14 15 15 16 16 17 17 18 18 19 19 20 20 21 21 22 22 23 23
REMARK SMILES IDX 24 24
REMARK H PARENT
REMARK Flexibility Score: inf
ROOT
ATOM      1  C   UNL     1      22.987  13.729  48.879  1.00  0.00     0.000 C 
ENDROOT
BRANCH   1   2
ATOM      2  C   UNL     1      22.132  12.803  49.762  1.00  0.00     0.000 C 
BRANCH   2   3
ATOM      3  C   UNL     1      21.712  11.524  49.014  1.00  0.00     0.000 C 
BRANCH   3   4
ATOM      4  C   UNL     1      20.513  10.818  49.667  1.00  0.00    -0.000 C 
BRANCH   4   5
ATOM      5  C   UNL     1      20.477   9.312  49.362  1.00  0.00    -0.000 C 
BRANCH   5   6
ATOM      6  C   UNL     1      19.313   8.631  50.092  1.00  0.00    -0.000 C 
BRANCH   6   7
ATOM      7  C   UNL     1      18.020   9.448  49.959  1.00  0.00    -0.000 C 
BRANCH   7   8
ATOM      8  C   UNL     1      16.760   8.562  50.064  1.00  0.00    -0.000 C 
BRANCH   8   9
ATOM      9  C   UNL     1      16.997   7.103  49.628  1.00  0.00    -0.000 C 
BRANCH   9  10
ATOM     10  C   UNL     1      16.199   6.719  48.371  1.00  0.00    -0.000 C 
BRANCH  10  11
ATOM     11  C   UNL     1      14.977   7.620  48.145  1.00  0.00    -0.003 C 
ATOM     12  C   UNL     1      14.882   8.148  46.714  1.00  0.00     0.004 C 
ENDBRANCH  10  11
ENDBRANCH   9  10
ENDBRANCH   8   9
ENDBRANCH   7   8
ENDBRANCH   6   7
ENDBRANCH   5   6
ENDBRANCH   4   5
ENDBRANCH   3   4
ENDBRANCH   2   3
ENDBRANCH   1   2
BRANCH   1  13
ATOM     13  C   UNL     1      23.882  12.955  47.893  1.00  0.00     0.000 C 
BRANCH  13  14
ATOM     14  C   UNL     1      25.178  13.721  47.567  1.00  0.00     0.000 C 
BRANCH  14  15
ATOM     15  C   UNL     1      26.431  12.928  47.984  1.00  0.00     0.000 C 
BRANCH  15  16
ATOM     16  C   UNL     1      27.213  13.592  49.131  1.00  0.00     0.000 C 
BRANCH  16  17
ATOM     17  C   UNL     1      26.411  14.617  49.957  1.00  0.00     0.000 C 
BRANCH  17  18
ATOM     18  C   UNL     1      27.145  15.189  51.186  1.00  0.00     0.000 C 
BRANCH  18  19
ATOM     19  C   UNL     1      27.739  14.134  52.140  1.00  0.00     0.000 C 
BRANCH  19  20
ATOM     20  C   UNL     1      27.171  14.226  53.566  1.00  0.00     0.006 C 
BRANCH  20  21
ATOM     21  C   UNL     1      26.133  13.128  53.808  1.00  0.00     0.053 C 
BRANCH  21  22
ATOM     22  C   UNL     1      24.763  13.716  53.952  1.00  0.00     0.041 C 
ATOM     23  O   UNL     1      24.410  14.231  55.046  1.00  0.00    -0.550 OA
ATOM     24  O   UNL     1      23.892  13.731  52.869  1.00  0.00    -0.550 OA
ENDBRANCH  21  22
ENDBRANCH  20  21
ENDBRANCH  19  20
ENDBRANCH  18  19
ENDBRANCH  17  18
ENDBRANCH  16  17
ENDBRANCH  15  16
ENDBRANCH  14  15
ENDBRANCH  13  14
ENDBRANCH   1  13
TORSDOF 20
ENDMDL
MODEL 5
REMARK VINA RESULT:    -5.098      5.159     10.593
REMARK INTER + INTRA:         -12.478
REMARK INTER:                 -10.614
REMARK INTRA:                  -1.864
REMARK UNBOUND:                -1.419
REMARK SMILES CCCCCCCCCCCCCCCCCCCCCC(=O)[O-]
REMARK SMILES IDX 12 1 11 2 10 3 9 4 8 5 7 6 6 7 5 8 4 9 3 10 2 11 1 12 13 13
REMARK SMILES IDX 14 14 15 15 16 16 17 17 18 18 19 19 20 20 21 21 22 22 23 23
REMARK SMILES IDX 24 24
REMARK H PARENT
REMARK Flexibility Score: inf
ROOT
ATOM      1  C   UNL     1      22.924  13.759  48.728  1.00  0.00     0.000 C 
ENDROOT
BRANCH   1   2
ATOM      2  C   UNL     1      23.968  13.233  47.727  1.00  0.00     0.000 C 
BRANCH   2   3
ATOM      3  C   UNL     1      25.375  13.787  48.022  1.00  0.00     0.000 C 
BRANCH   3   4
ATOM      4  C   UNL     1      26.001  14.499  46.813  1.00  0.00    -0.000 C 
BRANCH   4   5
ATOM      5  C   UNL     1      27.300  13.826  46.338  1.00  0.00    -0.000 C 
BRANCH   5   6
ATOM      6  C   UNL     1      27.272  13.583  44.825  1.00  0.00    -0.000 C 
BRANCH   6   7
ATOM      7  C   UNL     1      26.113  12.653  44.434  1.00  0.00    -0.000 C 
BRANCH   7   8
ATOM      8  C   UNL     1      26.599  11.222  44.120  1.00  0.00    -0.000 C 
BRANCH   8   9
ATOM      9  C   UNL     1      25.774  10.126  44.820  1.00  0.00    -0.000 C 
BRANCH   9  10
ATOM     10  C   UNL     1      26.511   9.492  46.011  1.00  0.00    -0.000 C 
BRANCH  10  11
ATOM     11  C   UNL     1      26.384  10.321  47.298  1.00  0.00    -0.003 C 
ATOM     12  C   UNL     1      27.705  10.455  48.054  1.00  0.00     0.004 C 
ENDBRANCH  10  11
ENDBRANCH   9  10
ENDBRANCH   8   9
ENDBRANCH   7   8
ENDBRANCH   6   7
ENDBRANCH   5   6
ENDBRANCH   4   5
ENDBRANCH   3   4
ENDBRANCH   2   3
ENDBRANCH   1   2
BRANCH   1  13
ATOM     13  C   UNL     1      22.476  12.689  49.741  1.00  0.00     0.000 C 
BRANCH  13  14
ATOM     14  C   UNL     1      21.917  11.433  49.044  1.00  0.00     0.000 C 
BRANCH  14  15
ATOM     15  C   UNL     1      20.605  10.955  49.692  1.00  0.00     0.000 C 
BRANCH  15  16
ATOM     16  C   UNL     1      20.269   9.489  49.366  1.00  0.00     0.000 C 
BRANCH  16  17
ATOM     17  C   UNL     1      19.795   8.647  50.567  1.00  0.00     0.000 C 
BRANCH  17  18
ATOM     18  C   UNL     1      18.450   9.080  51.183  1.00  0.00     0.000 C 
BRANCH  18  19
ATOM     19  C   UNL     1      17.242   9.007  50.229  1.00  0.00     0.000 C 
BRANCH  19  20
ATOM     20  C   UNL     1      17.154   7.671  49.473  1.00  0.00     0.006 C 
BRANCH  20  21
ATOM     21  C   UNL     1      15.847   6.946  49.804  1.00  0.00     0.053 C 
BRANCH  21  22
ATOM     22  C   UNL     1      15.007   6.781  48.575  1.00  0.00     0.041 C 
ATOM     23  O   UNL     1      13.912   6.163  48.638  1.00  0.00    -0.550 OA
ATOM     24  O   UNL     1      15.415   7.341  47.370  1.00  0.00    -0.550 OA
ENDBRANCH  21  22
ENDBRANCH  20  21
ENDBRANCH  19  20
ENDBRANCH  18  19
ENDBRANCH  17  18
ENDBRANCH  16  17
ENDBRANCH  15  16
ENDBRANCH  14  15
ENDBRANCH  13  14
ENDBRANCH   1  13
TORSDOF 20
ENDMDL
MODEL 6
REMARK VINA RESULT:    -5.040      4.249     10.935
REMARK INTER + INTRA:         -12.352
REMARK INTER:                 -10.710
REMARK INTRA:                  -1.642
REMARK UNBOUND:                -1.419
REMARK SMILES CCCCCCCCCCCCCCCCCCCCCC(=O)[O-]
REMARK SMILES IDX 12 1 11 2 10 3 9 4 8 5 7 6 6 7 5 8 4 9 3 10 2 11 1 12 13 13
REMARK SMILES IDX 14 14 15 15 16 16 17 17 18 18 19 19 20 20 21 21 22 22 23 23
REMARK SMILES IDX 24 24
REMARK H PARENT
REMARK Flexibility Score: inf
ROOT
ATOM      1  C   UNL     1      22.133  12.842  49.855  1.00  0.00     0.000 C 
ENDROOT
BRANCH   1   2
ATOM      2  C   UNL     1      23.042  13.763  49.023  1.00  0.00     0.000 C 
BRANCH   2   3
ATOM      3  C   UNL     1      23.725  13.005  47.868  1.00  0.00     0.000 C 
BRANCH   3   4
ATOM      4  C   UNL     1      25.151  12.551  48.214  1.00  0.00    -0.000 C 
BRANCH   4   5
ATOM      5  C   UNL     1      26.217  13.233  47.342  1.00  0.00    -0.000 C 
BRANCH   5   6
ATOM      6  C   UNL     1      26.787  14.473  48.039  1.00  0.00    -0.000 C 
BRANCH   6   7
ATOM      7  C   UNL     1      27.494  14.097  49.349  1.00  0.00    -0.000 C 
BRANCH   7   8
ATOM      8  C   UNL     1      27.169  15.087  50.488  1.00  0.00    -0.000 C 
BRANCH   8   9
ATOM      9  C   UNL     1      25.789  14.852  51.131  1.00  0.00    -0.000 C 
BRANCH   9  10
ATOM     10  C   UNL     1      25.882  14.422  52.605  1.00  0.00    -0.000 C 
BRANCH  10  11
ATOM     11  C   UNL     1      24.619  13.695  53.092  1.00  0.00    -0.003 C 
ATOM     12  C   UNL     1      24.321  13.944  54.570  1.00  0.00     0.004 C 
ENDBRANCH  10  11
ENDBRANCH   9  10
ENDBRANCH   8   9
ENDBRANCH   7   8
ENDBRANCH   6   7
ENDBRANCH   5   6
ENDBRANCH   4   5
ENDBRANCH   3   4
ENDBRANCH   2   3
ENDBRANCH   1   2
BRANCH   1  13
ATOM     13  C   UNL     1      21.839  11.502  49.155  1.00  0.00     0.000 C 
BRANCH  13  14
ATOM     14  C   UNL     1      20.455  10.943  49.536  1.00  0.00     0.000 C 
BRANCH  14  15
ATOM     15  C   UNL     1      20.391   9.413  49.375  1.00  0.00     0.000 C 
BRANCH  15  16
ATOM     16  C   UNL     1      19.825   8.698  50.614  1.00  0.00     0.000 C 
BRANCH  16  17
ATOM     17  C   UNL     1      18.790   9.510  51.419  1.00  0.00     0.000 C 
BRANCH  17  18
ATOM     18  C   UNL     1      17.344   9.440  50.888  1.00  0.00     0.000 C 
BRANCH  18  19
ATOM     19  C   UNL     1      17.001   8.162  50.097  1.00  0.00     0.000 C 
BRANCH  19  20
ATOM     20  C   UNL     1      16.564   8.450  48.652  1.00  0.00     0.006 C 
BRANCH  20  21
ATOM     21  C   UNL     1      16.253   7.148  47.910  1.00  0.00     0.053 C 
BRANCH  21  22
ATOM     22  C   UNL     1      15.315   6.296  48.707  1.00  0.00     0.041 C 
ATOM     23  O   UNL     1      15.744   5.273  49.302  1.00  0.00    -0.550 OA
ATOM     24  O   UNL     1      13.976   6.653  48.825  1.00  0.00    -0.550 OA
ENDBRANCH  21  22
ENDBRANCH  20  21
ENDBRANCH  19  20
ENDBRANCH  18  19
ENDBRANCH  17  18
ENDBRANCH  16  17
ENDBRANCH  15  16
ENDBRANCH  14  15
ENDBRANCH  13  14
ENDBRANCH   1  13
TORSDOF 20
ENDMDL
MODEL 7
REMARK VINA RESULT:    -4.953     10.358     14.860
REMARK INTER + INTRA:         -12.164
REMARK INTER:                  -9.707
REMARK INTRA:                  -2.457
REMARK UNBOUND:                -1.419
REMARK SMILES CCCCCCCCCCCCCCCCCCCCCC(=O)[O-]
REMARK SMILES IDX 12 1 11 2 10 3 9 4 8 5 7 6 6 7 5 8 4 9 3 10 2 11 1 12 13 13
REMARK SMILES IDX 14 14 15 15 16 16 17 17 18 18 19 19 20 20 21 21 22 22 23 23
REMARK SMILES IDX 24 24
REMARK H PARENT
REMARK Flexibility Score: inf
ROOT
ATOM      1  C   UNL     1      21.426   0.425  47.510  1.00  0.00     0.000 C 
ENDROOT
BRANCH   1   2
ATOM      2  C   UNL     1      22.636   0.961  48.295  1.00  0.00     0.000 C 
BRANCH   2   3
ATOM      3  C   UNL     1      23.671  -0.143  48.579  1.00  0.00     0.000 C 
BRANCH   3   4
ATOM      4  C   UNL     1      25.077   0.413  48.852  1.00  0.00    -0.000 C 
BRANCH   4   5
ATOM      5  C   UNL     1      25.795   0.861  47.569  1.00  0.00    -0.000 C 
BRANCH   5   6
ATOM      6  C   UNL     1      26.777   2.002  47.857  1.00  0.00    -0.000 C 
BRANCH   6   7
ATOM      7  C   UNL     1      26.468   3.232  46.990  1.00  0.00    -0.000 C 
BRANCH   7   8
ATOM      8  C   UNL     1      25.005   3.700  47.148  1.00  0.00    -0.000 C 
BRANCH   8   9
ATOM      9  C   UNL     1      24.289   3.942  45.806  1.00  0.00    -0.000 C 
BRANCH   9  10
ATOM     10  C   UNL     1      22.933   3.222  45.714  1.00  0.00    -0.000 C 
BRANCH  10  11
ATOM     11  C   UNL     1      22.819   2.326  44.473  1.00  0.00    -0.003 C 
ATOM     12  C   UNL     1      23.628   1.035  44.593  1.00  0.00     0.004 C 
ENDBRANCH  10  11
ENDBRANCH   9  10
ENDBRANCH   8   9
ENDBRANCH   7   8
ENDBRANCH   6   7
ENDBRANCH   5   6
ENDBRANCH   4   5
ENDBRANCH   3   4
ENDBRANCH   2   3
ENDBRANCH   1   2
BRANCH   1  13
ATOM     13  C   UNL     1      20.097   0.604  48.268  1.00  0.00     0.000 C 
BRANCH  13  14
ATOM     14  C   UNL     1      18.928  -0.104  47.557  1.00  0.00     0.000 C 
BRANCH  14  15
ATOM     15  C   UNL     1      19.425  -1.110  46.501  1.00  0.00     0.000 C 
BRANCH  15  16
ATOM     16  C   UNL     1      18.691  -2.461  46.562  1.00  0.00     0.000 C 
BRANCH  16  17
ATOM     17  C   UNL     1      17.805  -2.666  47.807  1.00  0.00     0.000 C 
BRANCH  17  18
ATOM     18  C   UNL     1      16.317  -2.945  47.516  1.00  0.00     0.000 C 
BRANCH  18  19
ATOM     19  C   UNL     1      15.696  -2.075  46.405  1.00  0.00     0.000 C 
BRANCH  19  20
ATOM     20  C   UNL     1      14.591  -1.140  46.922  1.00  0.00     0.006 C 
BRANCH  20  21
ATOM     21  C   UNL     1      15.073  -0.356  48.146  1.00  0.00     0.053 C 
BRANCH  21  22
ATOM     22  C   UNL     1      15.239   1.094  47.813  1.00  0.00     0.041 C 
ATOM     23  O   UNL     1      16.050   1.447  46.917  1.00  0.00    -0.550 OA
ATOM     24  O   UNL     1      14.471   2.053  48.466  1.00  0.00    -0.550 OA
ENDBRANCH  21  22
ENDBRANCH  20  21
ENDBRANCH  19  20
ENDBRANCH  18  19
ENDBRANCH  17  18
ENDBRANCH  16  17
ENDBRANCH  15  16
ENDBRANCH  14  15
ENDBRANCH  13  14
ENDBRANCH   1  13
TORSDOF 20
ENDMDL
MODEL 8
REMARK VINA RESULT:    -4.929     10.398     13.640
REMARK INTER + INTRA:         -12.111
REMARK INTER:                  -8.821
REMARK INTRA:                  -3.290
REMARK UNBOUND:                -1.419
REMARK SMILES CCCCCCCCCCCCCCCCCCCCCC(=O)[O-]
REMARK SMILES IDX 12 1 11 2 10 3 9 4 8 5 7 6 6 7 5 8 4 9 3 10 2 11 1 12 13 13
REMARK SMILES IDX 14 14 15 15 16 16 17 17 18 18 19 19 20 20 21 21 22 22 23 23
REMARK SMILES IDX 24 24
REMARK H PARENT
REMARK Flexibility Score: inf
ROOT
ATOM      1  C   UNL     1      24.375  -0.867  48.743  1.00  0.00     0.000 C 
ENDROOT
BRANCH   1   2
ATOM      2  C   UNL     1      24.468   0.645  49.010  1.00  0.00     0.000 C 
BRANCH   2   3
ATOM      3  C   UNL     1      25.597   1.304  48.195  1.00  0.00     0.000 C 
BRANCH   3   4
ATOM      4  C   UNL     1      25.276   2.752  47.793  1.00  0.00    -0.000 C 
BRANCH   4   5
ATOM      5  C   UNL     1      25.863   3.128  46.423  1.00  0.00    -0.000 C 
BRANCH   5   6
ATOM      6  C   UNL     1      25.716   4.630  46.156  1.00  0.00    -0.000 C 
BRANCH   6   7
ATOM      7  C   UNL     1      24.476   4.922  45.297  1.00  0.00    -0.000 C 
BRANCH   7   8
ATOM      8  C   UNL     1      24.336   3.928  44.124  1.00  0.00    -0.000 C 
BRANCH   8   9
ATOM      9  C   UNL     1      23.735   4.558  42.853  1.00  0.00    -0.000 C 
BRANCH   9  10
ATOM     10  C   UNL     1      24.738   5.444  42.094  1.00  0.00    -0.000 C 
BRANCH  10  11
ATOM     11  C   UNL     1      24.145   6.803  41.694  1.00  0.00    -0.003 C 
ATOM     12  C   UNL     1      24.485   7.916  42.685  1.00  0.00     0.004 C 
ENDBRANCH  10  11
ENDBRANCH   9  10
ENDBRANCH   8   9
ENDBRANCH   7   8
ENDBRANCH   6   7
ENDBRANCH   5   6
ENDBRANCH   4   5
ENDBRANCH   3   4
ENDBRANCH   2   3
ENDBRANCH   1   2
BRANCH   1  13
ATOM     13  C   UNL     1      24.793  -1.248  47.310  1.00  0.00     0.000 C 
BRANCH  13  14
ATOM     14  C   UNL     1      23.619  -1.833  46.503  1.00  0.00     0.000 C 
BRANCH  14  15
ATOM     15  C   UNL     1      23.506  -1.189  45.108  1.00  0.00     0.000 C 
BRANCH  15  16
ATOM     16  C   UNL     1      23.644   0.343  45.137  1.00  0.00     0.000 C 
BRANCH  16  17
ATOM     17  C   UNL     1      22.312   1.116  45.203  1.00  0.00     0.000 C 
BRANCH  17  18
ATOM     18  C   UNL     1      22.118   1.983  46.463  1.00  0.00     0.000 C 
BRANCH  18  19
ATOM     19  C   UNL     1      21.315   1.315  47.597  1.00  0.00     0.000 C 
BRANCH  19  20
ATOM     20  C   UNL     1      20.547   0.066  47.133  1.00  0.00     0.006 C 
BRANCH  20  21
ATOM     21  C   UNL     1      19.229  -0.075  47.898  1.00  0.00     0.053 C 
BRANCH  21  22
ATOM     22  C   UNL     1      18.103  -0.383  46.961  1.00  0.00     0.041 C 
ATOM     23  O   UNL     1      18.307  -0.413  45.719  1.00  0.00    -0.550 OA
ATOM     24  O   UNL     1      16.838  -0.675  47.459  1.00  0.00    -0.550 OA
ENDBRANCH  21  22
ENDBRANCH  20  21
ENDBRANCH  19  20
ENDBRANCH  18  19
ENDBRANCH  17  18
ENDBRANCH  16  17
ENDBRANCH  15  16
ENDBRANCH  14  15
ENDBRANCH  13  14
ENDBRANCH   1  13
TORSDOF 20
ENDMDL
MODEL 9
REMARK VINA RESULT:    -4.928     10.580     14.786
REMARK INTER + INTRA:         -12.110
REMARK INTER:                  -9.894
REMARK INTRA:                  -2.216
REMARK UNBOUND:                -1.419
REMARK SMILES CCCCCCCCCCCCCCCCCCCCCC(=O)[O-]
REMARK SMILES IDX 12 1 11 2 10 3 9 4 8 5 7 6 6 7 5 8 4 9 3 10 2 11 1 12 13 13
REMARK SMILES IDX 14 14 15 15 16 16 17 17 18 18 19 19 20 20 21 21 22 22 23 23
REMARK SMILES IDX 24 24
REMARK H PARENT
REMARK Flexibility Score: inf
ROOT
ATOM      1  C   UNL     1      22.180   1.003  48.411  1.00  0.00     0.000 C 
ENDROOT
BRANCH   1   2
ATOM      2  C   UNL     1      23.353   0.029  48.200  1.00  0.00     0.000 C 
BRANCH   2   3
ATOM      3  C   UNL     1      24.703   0.765  48.113  1.00  0.00     0.000 C 
BRANCH   3   4
ATOM      4  C   UNL     1      24.562   2.288  48.261  1.00  0.00    -0.000 C 
BRANCH   4   5
ATOM      5  C   UNL     1      25.422   3.062  47.249  1.00  0.00    -0.000 C 
BRANCH   5   6
ATOM      6  C   UNL     1      24.612   4.177  46.578  1.00  0.00    -0.000 C 
BRANCH   6   7
ATOM      7  C   UNL     1      23.292   3.638  46.008  1.00  0.00    -0.000 C 
BRANCH   7   8
ATOM      8  C   UNL     1      23.513   2.781  44.744  1.00  0.00    -0.000 C 
BRANCH   8   9
ATOM      9  C   UNL     1      24.417   3.455  43.695  1.00  0.00    -0.000 C 
BRANCH   9  10
ATOM     10  C   UNL     1      23.622   4.091  42.542  1.00  0.00    -0.000 C 
BRANCH  10  11
ATOM     11  C   UNL     1      24.022   5.550  42.280  1.00  0.00    -0.003 C 
ATOM     12  C   UNL     1      24.736   6.196  43.468  1.00  0.00     0.004 C 
ENDBRANCH  10  11
ENDBRANCH   9  10
ENDBRANCH   8   9
ENDBRANCH   7   8
ENDBRANCH   6   7
ENDBRANCH   5   6
ENDBRANCH   4   5
ENDBRANCH   3   4
ENDBRANCH   2   3
ENDBRANCH   1   2
BRANCH   1  13
ATOM     13  C   UNL     1      21.110   0.897  47.308  1.00  0.00     0.000 C 
BRANCH  13  14
ATOM     14  C   UNL     1      21.077  -0.505  46.670  1.00  0.00     0.000 C 
BRANCH  14  15
ATOM     15  C   UNL     1      19.820  -0.710  45.804  1.00  0.00     0.000 C 
BRANCH  15  16
ATOM     16  C   UNL     1      18.509  -0.559  46.596  1.00  0.00     0.000 C 
BRANCH  16  17
ATOM     17  C   UNL     1      18.406  -1.437  47.859  1.00  0.00     0.000 C 
BRANCH  17  18
ATOM     18  C   UNL     1      17.355  -2.563  47.791  1.00  0.00     0.000 C 
BRANCH  18  19
ATOM     19  C   UNL     1      16.054  -2.198  47.050  1.00  0.00     0.000 C 
BRANCH  19  20
ATOM     20  C   UNL     1      15.032  -1.482  47.948  1.00  0.00     0.006 C 
BRANCH  20  21
ATOM     21  C   UNL     1      14.954   0.007  47.600  1.00  0.00     0.053 C 
BRANCH  21  22
ATOM     22  C   UNL     1      13.732   0.297  46.786  1.00  0.00     0.041 C 
ATOM     23  O   UNL     1      12.904  -0.620  46.543  1.00  0.00    -0.550 OA
ATOM     24  O   UNL     1      13.486   1.587  46.329  1.00  0.00    -0.550 OA
ENDBRANCH  21  22
ENDBRANCH  20  21
ENDBRANCH  19  20
ENDBRANCH  18  19
ENDBRANCH  17  18
ENDBRANCH  16  17
ENDBRANCH  15  16
ENDBRANCH  14  15
ENDBRANCH  13  14
ENDBRANCH   1  13
TORSDOF 20
ENDMDL
