MODEL 1
REMARK VINA RESULT:    -4.651      0.000      0.000
REMARK INTER + INTRA:          -6.380
REMARK INTER:                  -6.146
REMARK INTRA:                  -0.234
REMARK UNBOUND:                -0.234
REMARK SMILES CCCCC=CC=CCO
REMARK SMILES IDX 5 1 6 2 4 3 3 4 2 5 1 6 7 7 8 8 9 9 10 10
REMARK H PARENT 10 11
REMARK Flexibility Score: inf
ROOT
ATOM      1  C   UNL     1      32.607  79.672  22.247  1.00  0.00    -0.027 C 
ATOM      2  C   UNL     1      32.350  79.191  21.028  1.00  0.00    -0.005 C 
ENDROOT
BRANCH   1   3
ATOM      3  C   UNL     1      33.964  80.201  22.614  1.00  0.00     0.027 C 
BRANCH   3   4
ATOM      4  C   UNL     1      33.922  80.950  23.955  1.00  0.00     0.004 C 
BRANCH   4   5
ATOM      5  C   UNL     1      35.057  80.530  24.901  1.00  0.00    -0.003 C 
ATOM      6  C   UNL     1      35.398  79.044  24.789  1.00  0.00     0.004 C 
ENDBRANCH   4   5
ENDBRANCH   3   4
ENDBRANCH   1   3
BRANCH   2   7
ATOM      7  C   UNL     1      31.013  78.664  20.689  1.00  0.00    -0.002 C 
ATOM      8  C   UNL     1      30.061  79.386  20.083  1.00  0.00     0.001 C 
BRANCH   8   9
ATOM      9  C   UNL     1      30.225  80.820  19.663  1.00  0.00     0.183 C 
BRANCH   9  10
ATOM     10  O   UNL     1      29.071  81.558  19.965  1.00  0.00    -0.392 OA
ATOM     11  H   UNL     1      28.314  81.095  19.521  1.00  0.00     0.210 HD
ENDBRANCH   9  10
ENDBRANCH   8   9
ENDBRANCH   2   7
TORSDOF 6
ENDMDL
MODEL 2
REMARK VINA RESULT:    -4.505      0.836      1.560
REMARK INTER + INTRA:          -6.188
REMARK INTER:                  -5.951
REMARK INTRA:                  -0.237
REMARK UNBOUND:                -0.234
REMARK SMILES CCCCC=CC=CCO
REMARK SMILES IDX 5 1 6 2 4 3 3 4 2 5 1 6 7 7 8 8 9 9 10 10
REMARK H PARENT 10 11
REMARK Flexibility Score: inf
ROOT
ATOM      1  C   UNL     1      32.686  79.710  22.253  1.00  0.00    -0.027 C 
ATOM      2  C   UNL     1      32.396  79.292  21.017  1.00  0.00    -0.005 C 
ENDROOT
BRANCH   1   3
ATOM      3  C   UNL     1      34.038  80.263  22.599  1.00  0.00     0.027 C 
BRANCH   3   4
ATOM      4  C   UNL     1      34.116  80.644  24.085  1.00  0.00     0.004 C 
BRANCH   4   5
ATOM      5  C   UNL     1      33.121  81.750  24.464  1.00  0.00    -0.003 C 
ATOM      6  C   UNL     1      33.811  83.068  24.819  1.00  0.00     0.004 C 
ENDBRANCH   4   5
ENDBRANCH   3   4
ENDBRANCH   1   3
BRANCH   2   7
ATOM      7  C   UNL     1      31.065  78.739  20.699  1.00  0.00    -0.002 C 
ATOM      8  C   UNL     1      30.092  79.439  20.101  1.00  0.00     0.001 C 
BRANCH   8   9
ATOM      9  C   UNL     1      30.224  80.874  19.671  1.00  0.00     0.183 C 
BRANCH   9  10
ATOM     10  O   UNL     1      29.034  81.573  19.916  1.00  0.00    -0.392 OA
ATOM     11  H   UNL     1      28.617  81.744  19.031  1.00  0.00     0.210 HD
ENDBRANCH   9  10
ENDBRANCH   8   9
ENDBRANCH   2   7
TORSDOF 6
ENDMDL
MODEL 3
REMARK VINA RESULT:    -4.415      8.634     10.818
REMARK INTER + INTRA:          -6.069
REMARK INTER:                  -5.881
REMARK INTRA:                  -0.189
REMARK UNBOUND:                -0.234
REMARK SMILES CCCCC=CC=CCO
REMARK SMILES IDX 5 1 6 2 4 3 3 4 2 5 1 6 7 7 8 8 9 9 10 10
REMARK H PARENT 10 11
REMARK Flexibility Score: inf
ROOT
ATOM      1  C   UNL     1      40.987  73.124  24.077  1.00  0.00    -0.027 C 
ATOM      2  C   UNL     1      39.749  73.593  24.260  1.00  0.00    -0.005 C 
ENDROOT
BRANCH   1   3
ATOM      3  C   UNL     1      41.972  73.830  23.192  1.00  0.00     0.027 C 
BRANCH   3   4
ATOM      4  C   UNL     1      42.507  72.892  22.098  1.00  0.00     0.004 C 
BRANCH   4   5
ATOM      5  C   UNL     1      43.542  73.573  21.191  1.00  0.00    -0.003 C 
ATOM      6  C   UNL     1      42.900  74.312  20.016  1.00  0.00     0.004 C 
ENDBRANCH   4   5
ENDBRANCH   3   4
ENDBRANCH   1   3
BRANCH   2   7
ATOM      7  C   UNL     1      38.790  72.877  25.125  1.00  0.00    -0.002 C 
ATOM      8  C   UNL     1      37.460  73.006  25.027  1.00  0.00     0.001 C 
BRANCH   8   9
ATOM      9  C   UNL     1      36.768  73.890  24.027  1.00  0.00     0.183 C 
BRANCH   9  10
ATOM     10  O   UNL     1      36.180  73.120  23.013  1.00  0.00    -0.392 OA
ATOM     11  H   UNL     1      35.341  72.746  23.390  1.00  0.00     0.210 HD
ENDBRANCH   9  10
ENDBRANCH   8   9
ENDBRANCH   2   7
TORSDOF 6
ENDMDL
MODEL 4
REMARK VINA RESULT:    -4.280      3.297      5.414
REMARK INTER + INTRA:          -5.890
REMARK INTER:                  -5.616
REMARK INTRA:                  -0.275
REMARK UNBOUND:                -0.234
REMARK SMILES CCCCC=CC=CCO
REMARK SMILES IDX 5 1 6 2 4 3 3 4 2 5 1 6 7 7 8 8 9 9 10 10
REMARK H PARENT 10 11
REMARK Flexibility Score: inf
ROOT
ATOM      1  C   UNL     1      30.561  76.591  21.000  1.00  0.00    -0.027 C 
ATOM      2  C   UNL     1      30.330  77.859  20.647  1.00  0.00    -0.005 C 
ENDROOT
BRANCH   1   3
ATOM      3  C   UNL     1      29.478  75.552  20.955  1.00  0.00     0.027 C 
BRANCH   3   4
ATOM      4  C   UNL     1      29.977  74.261  20.287  1.00  0.00     0.004 C 
BRANCH   4   5
ATOM      5  C   UNL     1      31.501  74.098  20.383  1.00  0.00    -0.003 C 
ATOM      6  C   UNL     1      32.094  73.375  19.174  1.00  0.00     0.004 C 
ENDBRANCH   4   5
ENDBRANCH   3   4
ENDBRANCH   1   3
BRANCH   2   7
ATOM      7  C   UNL     1      31.404  78.869  20.709  1.00  0.00    -0.002 C 
ATOM      8  C   UNL     1      31.226  80.164  20.419  1.00  0.00     0.001 C 
BRANCH   8   9
ATOM      9  C   UNL     1      29.912  80.763  19.997  1.00  0.00     0.183 C 
BRANCH   9  10
ATOM     10  O   UNL     1      30.095  81.647  18.924  1.00  0.00    -0.392 OA
ATOM     11  H   UNL     1      29.845  82.549  19.252  1.00  0.00     0.210 HD
ENDBRANCH   9  10
ENDBRANCH   8   9
ENDBRANCH   2   7
TORSDOF 6
ENDMDL
MODEL 5
REMARK VINA RESULT:    -4.221      8.916     11.262
REMARK INTER + INTRA:          -5.812
REMARK INTER:                  -5.650
REMARK INTRA:                  -0.162
REMARK UNBOUND:                -0.234
REMARK SMILES CCCCC=CC=CCO
REMARK SMILES IDX 5 1 6 2 4 3 3 4 2 5 1 6 7 7 8 8 9 9 10 10
REMARK H PARENT 10 11
REMARK Flexibility Score: inf
ROOT
ATOM      1  C   UNL     1      40.468  73.022  24.296  1.00  0.00    -0.027 C 
ATOM      2  C   UNL     1      41.353  73.650  23.516  1.00  0.00    -0.005 C 
ENDROOT
BRANCH   1   3
ATOM      3  C   UNL     1      39.359  73.765  24.982  1.00  0.00     0.027 C 
BRANCH   3   4
ATOM      4  C   UNL     1      38.021  73.025  24.830  1.00  0.00     0.004 C 
BRANCH   4   5
ATOM      5  C   UNL     1      36.812  73.968  24.922  1.00  0.00    -0.003 C 
ATOM      6  C   UNL     1      35.840  73.798  23.754  1.00  0.00     0.004 C 
ENDBRANCH   4   5
ENDBRANCH   3   4
ENDBRANCH   1   3
BRANCH   2   7
ATOM      7  C   UNL     1      42.445  72.903  22.859  1.00  0.00    -0.002 C 
ATOM      8  C   UNL     1      42.872  73.152  21.614  1.00  0.00     0.001 C 
BRANCH   8   9
ATOM      9  C   UNL     1      42.303  74.220  20.722  1.00  0.00     0.183 C 
BRANCH   9  10
ATOM     10  O   UNL     1      42.772  74.069  19.410  1.00  0.00    -0.392 OA
ATOM     11  H   UNL     1      42.171  74.604  18.829  1.00  0.00     0.210 HD
ENDBRANCH   9  10
ENDBRANCH   8   9
ENDBRANCH   2   7
TORSDOF 6
ENDMDL
MODEL 6
REMARK VINA RESULT:    -4.193      1.837      2.145
REMARK INTER + INTRA:          -5.776
REMARK INTER:                  -5.574
REMARK INTRA:                  -0.202
REMARK UNBOUND:                -0.234
REMARK SMILES CCCCC=CC=CCO
REMARK SMILES IDX 5 1 6 2 4 3 3 4 2 5 1 6 7 7 8 8 9 9 10 10
REMARK H PARENT 10 11
REMARK Flexibility Score: inf
ROOT
ATOM      1  C   UNL     1      32.405  80.066  21.855  1.00  0.00    -0.027 C 
ATOM      2  C   UNL     1      32.004  79.517  20.704  1.00  0.00    -0.005 C 
ENDROOT
BRANCH   1   3
ATOM      3  C   UNL     1      33.831  79.978  22.314  1.00  0.00     0.027 C 
BRANCH   3   4
ATOM      4  C   UNL     1      33.994  80.558  23.728  1.00  0.00     0.004 C 
BRANCH   4   5
ATOM      5  C   UNL     1      35.272  80.065  24.423  1.00  0.00    -0.003 C 
ATOM      6  C   UNL     1      35.243  78.565  24.716  1.00  0.00     0.004 C 
ENDBRANCH   4   5
ENDBRANCH   3   4
ENDBRANCH   1   3
BRANCH   2   7
ATOM      7  C   UNL     1      30.594  79.603  20.275  1.00  0.00    -0.002 C 
ATOM      8  C   UNL     1      29.747  78.566  20.291  1.00  0.00     0.001 C 
BRANCH   8   9
ATOM      9  C   UNL     1      30.114  77.181  20.747  1.00  0.00     0.183 C 
BRANCH   9  10
ATOM     10  O   UNL     1      28.984  76.351  20.761  1.00  0.00    -0.392 OA
ATOM     11  H   UNL     1      29.268  75.478  20.383  1.00  0.00     0.210 HD
ENDBRANCH   9  10
ENDBRANCH   8   9
ENDBRANCH   2   7
TORSDOF 6
ENDMDL
MODEL 7
REMARK VINA RESULT:    -3.997      3.130      4.287
REMARK INTER + INTRA:          -5.516
REMARK INTER:                  -5.257
REMARK INTRA:                  -0.259
REMARK UNBOUND:                -0.234
REMARK SMILES CCCCC=CC=CCO
REMARK SMILES IDX 5 1 6 2 4 3 3 4 2 5 1 6 7 7 8 8 9 9 10 10
REMARK H PARENT 10 11
REMARK Flexibility Score: inf
ROOT
ATOM      1  C   UNL     1      30.134  78.994  20.197  1.00  0.00    -0.027 C 
ATOM      2  C   UNL     1      30.359  77.784  20.718  1.00  0.00    -0.005 C 
ENDROOT
BRANCH   1   3
ATOM      3  C   UNL     1      31.112  80.119  20.369  1.00  0.00     0.027 C 
BRANCH   3   4
ATOM      4  C   UNL     1      32.426  79.621  20.991  1.00  0.00     0.004 C 
BRANCH   4   5
ATOM      5  C   UNL     1      32.605  80.089  22.443  1.00  0.00    -0.003 C 
ATOM      6  C   UNL     1      34.074  80.250  22.834  1.00  0.00     0.004 C 
ENDBRANCH   4   5
ENDBRANCH   3   4
ENDBRANCH   1   3
BRANCH   2   7
ATOM      7  C   UNL     1      29.379  76.693  20.548  1.00  0.00    -0.002 C 
ATOM      8  C   UNL     1      29.683  75.394  20.672  1.00  0.00     0.001 C 
BRANCH   8   9
ATOM      9  C   UNL     1      31.055  74.874  21.003  1.00  0.00     0.183 C 
BRANCH   9  10
ATOM     10  O   UNL     1      31.591  74.170  19.915  1.00  0.00    -0.392 OA
ATOM     11  H   UNL     1      31.246  74.609  19.095  1.00  0.00     0.210 HD
ENDBRANCH   9  10
ENDBRANCH   8   9
ENDBRANCH   2   7
TORSDOF 6
ENDMDL
MODEL 8
REMARK VINA RESULT:    -3.995      2.009      5.340
REMARK INTER + INTRA:          -5.514
REMARK INTER:                  -5.227
REMARK INTRA:                  -0.287
REMARK UNBOUND:                -0.234
REMARK SMILES CCCCC=CC=CCO
REMARK SMILES IDX 5 1 6 2 4 3 3 4 2 5 1 6 7 7 8 8 9 9 10 10
REMARK H PARENT 10 11
REMARK Flexibility Score: inf
ROOT
ATOM      1  C   UNL     1      32.771  79.625  22.143  1.00  0.00    -0.027 C 
ATOM      2  C   UNL     1      33.911  80.205  22.530  1.00  0.00    -0.005 C 
ENDROOT
BRANCH   1   3
ATOM      3  C   UNL     1      32.286  79.711  20.725  1.00  0.00     0.027 C 
BRANCH   3   4
ATOM      4  C   UNL     1      30.847  79.190  20.600  1.00  0.00     0.004 C 
BRANCH   4   5
ATOM      5  C   UNL     1      29.876  80.258  20.074  1.00  0.00    -0.003 C 
ATOM      6  C   UNL     1      30.545  81.242  19.114  1.00  0.00     0.004 C 
ENDBRANCH   4   5
ENDBRANCH   3   4
ENDBRANCH   1   3
BRANCH   2   7
ATOM      7  C   UNL     1      34.366  80.119  23.932  1.00  0.00    -0.002 C 
ATOM      8  C   UNL     1      34.262  81.124  24.811  1.00  0.00     0.001 C 
BRANCH   8   9
ATOM      9  C   UNL     1      33.668  82.469  24.492  1.00  0.00     0.183 C 
BRANCH   9  10
ATOM     10  O   UNL     1      32.280  82.455  24.690  1.00  0.00    -0.392 OA
ATOM     11  H   UNL     1      32.131  82.226  25.644  1.00  0.00     0.210 HD
ENDBRANCH   9  10
ENDBRANCH   8   9
ENDBRANCH   2   7
TORSDOF 6
ENDMDL
MODEL 9
REMARK VINA RESULT:    -3.916      3.711      5.074
REMARK INTER + INTRA:          -5.410
REMARK INTER:                  -5.132
REMARK INTRA:                  -0.278
REMARK UNBOUND:                -0.234
REMARK SMILES CCCCC=CC=CCO
REMARK SMILES IDX 5 1 6 2 4 3 3 4 2 5 1 6 7 7 8 8 9 9 10 10
REMARK H PARENT 10 11
REMARK Flexibility Score: inf
ROOT
ATOM      1  C   UNL     1      30.475  77.774  20.772  1.00  0.00    -0.027 C 
ATOM      2  C   UNL     1      29.713  76.693  20.576  1.00  0.00    -0.005 C 
ENDROOT
BRANCH   1   3
ATOM      3  C   UNL     1      30.097  79.114  20.212  1.00  0.00     0.027 C 
BRANCH   3   4
ATOM      4  C   UNL     1      31.264  80.108  20.320  1.00  0.00     0.004 C 
BRANCH   4   5
ATOM      5  C   UNL     1      32.490  79.504  21.020  1.00  0.00    -0.003 C 
ATOM      6  C   UNL     1      32.768  80.145  22.380  1.00  0.00     0.004 C 
ENDBRANCH   4   5
ENDBRANCH   3   4
ENDBRANCH   1   3
BRANCH   2   7
ATOM      7  C   UNL     1      30.108  75.381  21.125  1.00  0.00    -0.002 C 
ATOM      8  C   UNL     1      29.709  74.209  20.612  1.00  0.00     0.001 C 
BRANCH   8   9
ATOM      9  C   UNL     1      28.814  74.073  19.412  1.00  0.00     0.183 C 
BRANCH   9  10
ATOM     10  O   UNL     1      27.599  73.470  19.768  1.00  0.00    -0.392 OA
ATOM     11  H   UNL     1      26.942  73.718  19.067  1.00  0.00     0.210 HD
ENDBRANCH   9  10
ENDBRANCH   8   9
ENDBRANCH   2   7
TORSDOF 6
ENDMDL
