MODEL 1
REMARK VINA RESULT:    -3.935      0.000      0.000
REMARK INTER + INTRA:          -4.610
REMARK INTER:                  -4.510
REMARK INTRA:                  -0.100
REMARK UNBOUND:                -0.100
REMARK SMILES C=Cc1ccc(O)c(OC)c1
REMARK SMILES IDX 8 1 6 2 5 3 4 4 3 5 11 6 9 7 10 8 7 9 2 11 1 12
REMARK H PARENT 7 10
REMARK Flexibility Score: inf
ROOT
ATOM      1  C   UNL     1       2.303 -15.091   9.686  1.00  0.00     0.161 A 
ATOM      2  C   UNL     1       1.421 -16.170   9.500  1.00  0.00     0.157 A 
ATOM      3  C   UNL     1       0.197 -15.969   8.860  1.00  0.00     0.051 A 
ATOM      4  C   UNL     1      -0.164 -14.700   8.405  1.00  0.00     0.012 A 
ATOM      5  C   UNL     1       0.690 -13.604   8.593  1.00  0.00    -0.022 A 
ATOM      6  C   UNL     1       1.934 -13.810   9.225  1.00  0.00     0.058 A 
ENDROOT
BRANCH   1   7
ATOM      7  O   UNL     1       3.532 -15.326  10.324  1.00  0.00    -0.493 OA
ATOM      8  C   UNL     1       4.776 -15.490   9.650  1.00  0.00     0.278 C 
ENDBRANCH   1   7
BRANCH   2   9
ATOM      9  O   UNL     1       1.747 -17.453   9.943  1.00  0.00    -0.504 OA
ATOM     10  H   UNL     1       1.450 -18.285   9.448  1.00  0.00     0.293 HD
ENDBRANCH   2   9
BRANCH   5  11
ATOM     11  C   UNL     1       0.262 -12.278   8.086  1.00  0.00     0.000 C 
ATOM     12  C   UNL     1       0.405 -11.875   6.822  1.00  0.00     0.009 C 
ENDBRANCH   5  11
TORSDOF 3
ENDMDL
MODEL 2
REMARK VINA RESULT:    -3.682      2.386      3.718
REMARK INTER + INTRA:          -4.320
REMARK INTER:                  -4.225
REMARK INTRA:                  -0.095
REMARK UNBOUND:                -0.100
REMARK SMILES C=Cc1ccc(O)c(OC)c1
REMARK SMILES IDX 8 1 6 2 5 3 4 4 3 5 11 6 9 7 10 8 7 9 2 11 1 12
REMARK H PARENT 7 10
REMARK Flexibility Score: inf
ROOT
ATOM      1  C   UNL     1       2.573 -16.306  12.142  1.00  0.00     0.161 A 
ATOM      2  C   UNL     1       3.857 -16.098  11.609  1.00  0.00     0.157 A 
ATOM      3  C   UNL     1       4.004 -15.560  10.328  1.00  0.00     0.051 A 
ATOM      4  C   UNL     1       2.882 -15.230   9.566  1.00  0.00     0.012 A 
ATOM      5  C   UNL     1       1.590 -15.443  10.069  1.00  0.00    -0.022 A 
ATOM      6  C   UNL     1       1.442 -15.971  11.368  1.00  0.00     0.058 A 
ENDROOT
BRANCH   1   7
ATOM      7  O   UNL     1       2.458 -16.838  13.436  1.00  0.00    -0.493 OA
ATOM      8  C   UNL     1       2.092 -18.184  13.729  1.00  0.00     0.278 C 
ENDBRANCH   1   7
BRANCH   2   9
ATOM      9  O   UNL     1       5.002 -16.418  12.340  1.00  0.00    -0.504 OA
ATOM     10  H   UNL     1       5.306 -15.868  13.134  1.00  0.00     0.293 HD
ENDBRANCH   2   9
BRANCH   5  11
ATOM     11  C   UNL     1       0.431 -15.070   9.222  1.00  0.00     0.000 C 
ATOM     12  C   UNL     1      -0.274 -15.934   8.491  1.00  0.00     0.009 C 
ENDBRANCH   5  11
TORSDOF 3
ENDMDL
MODEL 3
REMARK VINA RESULT:    -3.669      1.482      1.710
REMARK INTER + INTRA:          -4.305
REMARK INTER:                  -4.206
REMARK INTRA:                  -0.099
REMARK UNBOUND:                -0.100
REMARK SMILES C=Cc1ccc(O)c(OC)c1
REMARK SMILES IDX 8 1 6 2 5 3 4 4 3 5 11 6 9 7 10 8 7 9 2 11 1 12
REMARK H PARENT 7 10
REMARK Flexibility Score: inf
ROOT
ATOM      1  C   UNL     1       1.873 -14.531  10.739  1.00  0.00     0.161 A 
ATOM      2  C   UNL     1       1.439 -15.833  10.434  1.00  0.00     0.157 A 
ATOM      3  C   UNL     1       0.648 -16.061   9.307  1.00  0.00     0.051 A 
ATOM      4  C   UNL     1       0.277 -15.001   8.477  1.00  0.00     0.012 A 
ATOM      5  C   UNL     1       0.683 -13.691   8.768  1.00  0.00    -0.022 A 
ATOM      6  C   UNL     1       1.495 -13.463   9.898  1.00  0.00     0.058 A 
ENDROOT
BRANCH   1   7
ATOM      7  O   UNL     1       2.676 -14.335  11.874  1.00  0.00    -0.493 OA
ATOM      8  C   UNL     1       2.196 -13.892  13.140  1.00  0.00     0.278 C 
ENDBRANCH   1   7
BRANCH   2   9
ATOM      9  O   UNL     1       1.788 -16.917  11.241  1.00  0.00    -0.504 OA
ATOM     10  H   UNL     1       1.403 -17.842  11.097  1.00  0.00     0.293 HD
ENDBRANCH   2   9
BRANCH   5  11
ATOM     11  C   UNL     1       0.266 -12.601   7.851  1.00  0.00     0.000 C 
ATOM     12  C   UNL     1       0.958 -12.218   6.778  1.00  0.00     0.009 C 
ENDBRANCH   5  11
TORSDOF 3
ENDMDL
MODEL 4
REMARK VINA RESULT:    -3.575      2.456      3.936
REMARK INTER + INTRA:          -4.198
REMARK INTER:                  -4.103
REMARK INTRA:                  -0.095
REMARK UNBOUND:                -0.100
REMARK SMILES C=Cc1ccc(O)c(OC)c1
REMARK SMILES IDX 8 1 6 2 5 3 4 4 3 5 11 6 9 7 10 8 7 9 2 11 1 12
REMARK H PARENT 7 10
REMARK Flexibility Score: inf
ROOT
ATOM      1  C   UNL     1       1.842 -13.277   8.642  1.00  0.00     0.161 A 
ATOM      2  C   UNL     1       0.631 -13.525   7.973  1.00  0.00     0.157 A 
ATOM      3  C   UNL     1      -0.093 -14.688   8.246  1.00  0.00     0.051 A 
ATOM      4  C   UNL     1       0.380 -15.614   9.177  1.00  0.00     0.012 A 
ATOM      5  C   UNL     1       1.593 -15.397   9.846  1.00  0.00    -0.022 A 
ATOM      6  C   UNL     1       2.316 -14.216   9.582  1.00  0.00     0.058 A 
ENDROOT
BRANCH   1   7
ATOM      7  O   UNL     1       2.542 -12.094   8.354  1.00  0.00    -0.493 OA
ATOM      8  C   UNL     1       3.623 -11.997   7.432  1.00  0.00     0.278 C 
ENDBRANCH   1   7
BRANCH   2   9
ATOM      9  O   UNL     1       0.127 -12.624   7.034  1.00  0.00    -0.504 OA
ATOM     10  H   UNL     1       0.052 -11.632   7.224  1.00  0.00     0.293 HD
ENDBRANCH   2   9
BRANCH   5  11
ATOM     11  C   UNL     1       2.048 -16.409  10.831  1.00  0.00     0.000 C 
ATOM     12  C   UNL     1       1.997 -16.245  12.154  1.00  0.00     0.009 C 
ENDBRANCH   5  11
TORSDOF 3
ENDMDL
MODEL 5
REMARK VINA RESULT:    -3.493      1.390      2.499
REMARK INTER + INTRA:          -4.104
REMARK INTER:                  -3.999
REMARK INTRA:                  -0.105
REMARK UNBOUND:                -0.100
REMARK SMILES C=Cc1ccc(O)c(OC)c1
REMARK SMILES IDX 8 1 6 2 5 3 4 4 3 5 11 6 9 7 10 8 7 9 2 11 1 12
REMARK H PARENT 7 10
REMARK Flexibility Score: inf
ROOT
ATOM      1  C   UNL     1       2.345 -15.588  10.154  1.00  0.00     0.161 A 
ATOM      2  C   UNL     1       3.662 -15.356   9.723  1.00  0.00     0.157 A 
ATOM      3  C   UNL     1       3.949 -14.255   8.913  1.00  0.00     0.051 A 
ATOM      4  C   UNL     1       2.934 -13.382   8.520  1.00  0.00     0.012 A 
ATOM      5  C   UNL     1       1.609 -13.601   8.924  1.00  0.00    -0.022 A 
ATOM      6  C   UNL     1       1.322 -14.703   9.755  1.00  0.00     0.058 A 
ENDROOT
BRANCH   1   7
ATOM      7  O   UNL     1       2.090 -16.698  10.977  1.00  0.00    -0.493 OA
ATOM      8  C   UNL     1       2.065 -16.661  12.400  1.00  0.00     0.278 C 
ENDBRANCH   1   7
BRANCH   2   9
ATOM      9  O   UNL     1       4.704 -16.208  10.093  1.00  0.00    -0.504 OA
ATOM     10  H   UNL     1       4.997 -16.315  11.056  1.00  0.00     0.293 HD
ENDBRANCH   2   9
BRANCH   5  11
ATOM     11  C   UNL     1       0.568 -12.639   8.484  1.00  0.00     0.000 C 
ATOM     12  C   UNL     1       0.369 -12.276   7.216  1.00  0.00     0.009 C 
ENDBRANCH   5  11
TORSDOF 3
ENDMDL
MODEL 6
REMARK VINA RESULT:    -3.451      6.024      7.909
REMARK INTER + INTRA:          -4.056
REMARK INTER:                  -3.987
REMARK INTRA:                  -0.069
REMARK UNBOUND:                -0.100
REMARK SMILES C=Cc1ccc(O)c(OC)c1
REMARK SMILES IDX 8 1 6 2 5 3 4 4 3 5 11 6 9 7 10 8 7 9 2 11 1 12
REMARK H PARENT 7 10
REMARK Flexibility Score: inf
ROOT
ATOM      1  C   UNL     1       1.497 -17.777  14.100  1.00  0.00     0.161 A 
ATOM      2  C   UNL     1       0.525 -17.859  15.112  1.00  0.00     0.157 A 
ATOM      3  C   UNL     1       0.549 -18.920  16.020  1.00  0.00     0.051 A 
ATOM      4  C   UNL     1       1.531 -19.908  15.928  1.00  0.00     0.012 A 
ATOM      5  C   UNL     1       2.502 -19.857  14.918  1.00  0.00    -0.022 A 
ATOM      6  C   UNL     1       2.487 -18.777  14.011  1.00  0.00     0.058 A 
ENDROOT
BRANCH   1   7
ATOM      7  O   UNL     1       1.453 -16.692  13.209  1.00  0.00    -0.493 OA
ATOM      8  C   UNL     1       2.177 -16.621  11.984  1.00  0.00     0.278 C 
ENDBRANCH   1   7
BRANCH   2   9
ATOM      9  O   UNL     1      -0.474 -16.892  15.234  1.00  0.00    -0.504 OA
ATOM     10  H   UNL     1      -1.458 -17.130  15.236  1.00  0.00     0.293 HD
ENDBRANCH   2   9
BRANCH   5  11
ATOM     11  C   UNL     1       3.527 -20.928  14.868  1.00  0.00     0.000 C 
ATOM     12  C   UNL     1       3.785 -21.671  13.791  1.00  0.00     0.009 C 
ENDBRANCH   5  11
TORSDOF 3
ENDMDL
MODEL 7
REMARK VINA RESULT:    -3.393      2.237      3.100
REMARK INTER + INTRA:          -3.989
REMARK INTER:                  -3.899
REMARK INTRA:                  -0.090
REMARK UNBOUND:                -0.100
REMARK SMILES C=Cc1ccc(O)c(OC)c1
REMARK SMILES IDX 8 1 6 2 5 3 4 4 3 5 11 6 9 7 10 8 7 9 2 11 1 12
REMARK H PARENT 7 10
REMARK Flexibility Score: inf
ROOT
ATOM      1  C   UNL     1       4.103 -15.392  10.276  1.00  0.00     0.161 A 
ATOM      2  C   UNL     1       3.936 -16.002  11.531  1.00  0.00     0.157 A 
ATOM      3  C   UNL     1       2.653 -16.287  12.005  1.00  0.00     0.051 A 
ATOM      4  C   UNL     1       1.529 -15.964  11.242  1.00  0.00     0.012 A 
ATOM      5  C   UNL     1       1.669 -15.340   9.994  1.00  0.00    -0.022 A 
ATOM      6  C   UNL     1       2.964 -15.067   9.509  1.00  0.00     0.058 A 
ENDROOT
BRANCH   1   7
ATOM      7  O   UNL     1       5.405 -15.128   9.822  1.00  0.00    -0.493 OA
ATOM      8  C   UNL     1       6.113 -13.913  10.053  1.00  0.00     0.278 C 
ENDBRANCH   1   7
BRANCH   2   9
ATOM      9  O   UNL     1       5.035 -16.338  12.323  1.00  0.00    -0.504 OA
ATOM     10  H   UNL     1       5.988 -16.223  11.999  1.00  0.00     0.293 HD
ENDBRANCH   2   9
BRANCH   5  11
ATOM     11  C   UNL     1       0.443 -15.024   9.221  1.00  0.00     0.000 C 
ATOM     12  C   UNL     1      -0.243 -15.915   8.503  1.00  0.00     0.009 C 
ENDBRANCH   5  11
TORSDOF 3
ENDMDL
MODEL 8
REMARK VINA RESULT:    -3.377      5.940      7.079
REMARK INTER + INTRA:          -3.971
REMARK INTER:                  -3.882
REMARK INTRA:                  -0.090
REMARK UNBOUND:                -0.100
REMARK SMILES C=Cc1ccc(O)c(OC)c1
REMARK SMILES IDX 8 1 6 2 5 3 4 4 3 5 11 6 9 7 10 8 7 9 2 11 1 12
REMARK H PARENT 7 10
REMARK Flexibility Score: inf
ROOT
ATOM      1  C   UNL     1       2.700 -19.689  14.810  1.00  0.00     0.161 A 
ATOM      2  C   UNL     1       1.629 -19.802  15.713  1.00  0.00     0.157 A 
ATOM      3  C   UNL     1       0.614 -18.843  15.719  1.00  0.00     0.051 A 
ATOM      4  C   UNL     1       0.655 -17.764  14.834  1.00  0.00     0.012 A 
ATOM      5  C   UNL     1       1.720 -17.620  13.934  1.00  0.00    -0.022 A 
ATOM      6  C   UNL     1       2.737 -18.597  13.918  1.00  0.00     0.058 A 
ENDROOT
BRANCH   1   7
ATOM      7  O   UNL     1       3.700 -20.675  14.821  1.00  0.00    -0.493 OA
ATOM      8  C   UNL     1       3.870 -21.666  13.813  1.00  0.00     0.278 C 
ENDBRANCH   1   7
BRANCH   2   9
ATOM      9  O   UNL     1       1.554 -20.865  16.614  1.00  0.00    -0.504 OA
ATOM     10  H   UNL     1       0.671 -21.211  16.968  1.00  0.00     0.293 HD
ENDBRANCH   2   9
BRANCH   5  11
ATOM     11  C   UNL     1       1.714 -16.458  13.010  1.00  0.00     0.000 C 
ATOM     12  C   UNL     1       2.107 -16.510  11.737  1.00  0.00     0.009 C 
ENDBRANCH   5  11
TORSDOF 3
ENDMDL
