MODEL 1
REMARK VINA RESULT:    -3.193      0.000      0.000
REMARK INTER + INTRA:          -6.805
REMARK INTER:                  -5.807
REMARK INTRA:                  -0.997
REMARK UNBOUND:                -0.997
REMARK SMILES CCCCCCCCCCCCCCCC(=O)[O-]
REMARK SMILES IDX 9 1 10 2 11 3 12 4 13 5 14 6 15 7 16 8 17 9 18 10 8 11 7 12
REMARK SMILES IDX 6 13 5 14 4 15 3 16 2 17 1 18
REMARK H PARENT
REMARK Flexibility Score: inf
ROOT
ATOM      1  C   UNL     1       0.453 -15.908 -18.210  1.00  0.00     0.000 C 
ENDROOT
BRANCH   1   2
ATOM      2  C   UNL     1       1.336 -14.760 -17.691  1.00  0.00     0.000 C 
BRANCH   2   3
ATOM      3  C   UNL     1       1.878 -13.867 -18.820  1.00  0.00     0.000 C 
BRANCH   3   4
ATOM      4  C   UNL     1       2.899 -12.815 -18.336  1.00  0.00     0.000 C 
BRANCH   4   5
ATOM      5  C   UNL     1       2.530 -11.393 -18.797  1.00  0.00     0.000 C 
BRANCH   5   6
ATOM      6  C   UNL     1       3.730 -10.435 -18.783  1.00  0.00     0.006 C 
BRANCH   6   7
ATOM      7  C   UNL     1       4.645 -10.613 -20.001  1.00  0.00     0.053 C 
BRANCH   7   8
ATOM      8  C   UNL     1       6.028 -10.985 -19.568  1.00  0.00     0.041 C 
ATOM      9  O   UNL     1       7.016 -10.706 -20.297  1.00  0.00    -0.550 OA
ATOM     10  O   UNL     1       6.224 -11.677 -18.379  1.00  0.00    -0.550 OA
ENDBRANCH   7   8
ENDBRANCH   6   7
ENDBRANCH   5   6
ENDBRANCH   4   5
ENDBRANCH   3   4
ENDBRANCH   2   3
ENDBRANCH   1   2
BRANCH   1  11
ATOM     11  C   UNL     1      -1.003 -15.475 -18.452  1.00  0.00     0.000 C 
BRANCH  11  12
ATOM     12  C   UNL     1      -1.905 -16.647 -18.876  1.00  0.00    -0.000 C 
BRANCH  12  13
ATOM     13  C   UNL     1      -1.234 -17.570 -19.908  1.00  0.00    -0.000 C 
BRANCH  13  14
ATOM     14  C   UNL     1      -1.773 -19.018 -19.888  1.00  0.00    -0.000 C 
BRANCH  14  15
ATOM     15  C   UNL     1      -0.646 -20.053 -19.732  1.00  0.00    -0.000 C 
BRANCH  15  16
ATOM     16  C   UNL     1       0.479 -19.568 -18.803  1.00  0.00    -0.000 C 
BRANCH  16  17
ATOM     17  C   UNL     1       0.158 -19.798 -17.318  1.00  0.00    -0.003 C 
ATOM     18  C   UNL     1       1.435 -19.991 -16.505  1.00  0.00     0.004 C 
ENDBRANCH  16  17
ENDBRANCH  15  16
ENDBRANCH  14  15
ENDBRANCH  13  14
ENDBRANCH  12  13
ENDBRANCH  11  12
ENDBRANCH   1  11
TORSDOF 14
ENDMDL
MODEL 2
REMARK VINA RESULT:    -2.739      3.267      8.396
REMARK INTER + INTRA:          -5.979
REMARK INTER:                  -5.047
REMARK INTRA:                  -0.932
REMARK UNBOUND:                -0.997
REMARK SMILES CCCCCCCCCCCCCCCC(=O)[O-]
REMARK SMILES IDX 9 1 10 2 11 3 12 4 13 5 14 6 15 7 16 8 17 9 18 10 8 11 7 12
REMARK SMILES IDX 6 13 5 14 4 15 3 16 2 17 1 18
REMARK H PARENT
REMARK Flexibility Score: inf
ROOT
ATOM      1  C   UNL     1       0.030 -16.045 -18.586  1.00  0.00     0.000 C 
ENDROOT
BRANCH   1   2
ATOM      2  C   UNL     1      -1.451 -15.719 -18.847  1.00  0.00     0.000 C 
BRANCH   2   3
ATOM      3  C   UNL     1      -2.125 -16.728 -19.794  1.00  0.00     0.000 C 
BRANCH   3   4
ATOM      4  C   UNL     1      -2.089 -18.180 -19.272  1.00  0.00     0.000 C 
BRANCH   4   5
ATOM      5  C   UNL     1      -1.126 -19.064 -20.083  1.00  0.00     0.000 C 
BRANCH   5   6
ATOM      6  C   UNL     1      -0.401 -20.104 -19.214  1.00  0.00     0.006 C 
BRANCH   6   7
ATOM      7  C   UNL     1      -0.602 -19.865 -17.713  1.00  0.00     0.053 C 
BRANCH   7   8
ATOM      8  C   UNL     1       0.714 -19.645 -17.036  1.00  0.00     0.041 C 
ATOM      9  O   UNL     1       1.647 -19.058 -17.644  1.00  0.00    -0.550 OA
ATOM     10  O   UNL     1       0.925 -20.125 -15.750  1.00  0.00    -0.550 OA
ENDBRANCH   7   8
ENDBRANCH   6   7
ENDBRANCH   5   6
ENDBRANCH   4   5
ENDBRANCH   3   4
ENDBRANCH   2   3
ENDBRANCH   1   2
BRANCH   1  11
ATOM     11  C   UNL     1       0.721 -15.000 -17.694  1.00  0.00     0.000 C 
BRANCH  11  12
ATOM     12  C   UNL     1       2.093 -14.570 -18.240  1.00  0.00    -0.000 C 
BRANCH  12  13
ATOM     13  C   UNL     1       2.058 -13.186 -18.912  1.00  0.00    -0.000 C 
BRANCH  13  14
ATOM     14  C   UNL     1       2.937 -12.131 -18.205  1.00  0.00    -0.000 C 
BRANCH  14  15
ATOM     15  C   UNL     1       2.820 -10.745 -18.862  1.00  0.00    -0.000 C 
BRANCH  15  16
ATOM     16  C   UNL     1       4.184 -10.167 -19.270  1.00  0.00    -0.000 C 
BRANCH  16  17
ATOM     17  C   UNL     1       5.294 -11.228 -19.283  1.00  0.00    -0.003 C 
ATOM     18  C   UNL     1       6.312 -10.943 -20.384  1.00  0.00     0.004 C 
ENDBRANCH  16  17
ENDBRANCH  15  16
ENDBRANCH  14  15
ENDBRANCH  13  14
ENDBRANCH  12  13
ENDBRANCH  11  12
ENDBRANCH   1  11
TORSDOF 14
ENDMDL
MODEL 3
REMARK VINA RESULT:    -2.711      3.612      8.756
REMARK INTER + INTRA:          -5.927
REMARK INTER:                  -5.284
REMARK INTRA:                  -0.643
REMARK UNBOUND:                -0.997
REMARK SMILES CCCCCCCCCCCCCCCC(=O)[O-]
REMARK SMILES IDX 9 1 10 2 11 3 12 4 13 5 14 6 15 7 16 8 17 9 18 10 8 11 7 12
REMARK SMILES IDX 6 13 5 14 4 15 3 16 2 17 1 18
REMARK H PARENT
REMARK Flexibility Score: inf
ROOT
ATOM      1  C   UNL     1       1.006 -14.678 -17.734  1.00  0.00     0.000 C 
ENDROOT
BRANCH   1   2
ATOM      2  C   UNL     1       0.310 -15.918 -18.321  1.00  0.00     0.000 C 
BRANCH   2   3
ATOM      3  C   UNL     1      -1.193 -15.698 -18.566  1.00  0.00     0.000 C 
BRANCH   3   4
ATOM      4  C   UNL     1      -2.011 -17.007 -18.584  1.00  0.00     0.000 C 
BRANCH   4   5
ATOM      5  C   UNL     1      -1.764 -17.829 -19.861  1.00  0.00     0.000 C 
BRANCH   5   6
ATOM      6  C   UNL     1      -1.428 -19.298 -19.565  1.00  0.00     0.006 C 
BRANCH   6   7
ATOM      7  C   UNL     1       0.058 -19.516 -19.255  1.00  0.00     0.053 C 
BRANCH   7   8
ATOM      8  C   UNL     1       0.270 -19.662 -17.781  1.00  0.00     0.041 C 
ATOM      9  O   UNL     1      -0.694 -19.960 -17.029  1.00  0.00    -0.550 OA
ATOM     10  O   UNL     1       1.524 -19.427 -17.231  1.00  0.00    -0.550 OA
ENDBRANCH   7   8
ENDBRANCH   6   7
ENDBRANCH   5   6
ENDBRANCH   4   5
ENDBRANCH   3   4
ENDBRANCH   2   3
ENDBRANCH   1   2
BRANCH   1  11
ATOM     11  C   UNL     1       2.267 -14.277 -18.517  1.00  0.00     0.000 C 
BRANCH  11  12
ATOM     12  C   UNL     1       2.344 -12.763 -18.779  1.00  0.00    -0.000 C 
BRANCH  12  13
ATOM     13  C   UNL     1       3.684 -12.150 -18.334  1.00  0.00    -0.000 C 
BRANCH  13  14
ATOM     14  C   UNL     1       4.129 -10.945 -19.192  1.00  0.00    -0.000 C 
BRANCH  14  15
ATOM     15  C   UNL     1       3.391  -9.653 -18.802  1.00  0.00    -0.000 C 
BRANCH  15  16
ATOM     16  C   UNL     1       2.750  -9.735 -17.408  1.00  0.00    -0.000 C 
BRANCH  16  17
ATOM     17  C   UNL     1       2.917  -8.436 -16.605  1.00  0.00    -0.003 C 
ATOM     18  C   UNL     1       3.644  -8.695 -15.288  1.00  0.00     0.004 C 
ENDBRANCH  16  17
ENDBRANCH  15  16
ENDBRANCH  14  15
ENDBRANCH  13  14
ENDBRANCH  12  13
ENDBRANCH  11  12
ENDBRANCH   1  11
TORSDOF 14
ENDMDL
MODEL 4
REMARK VINA RESULT:    -2.606      3.943      9.027
REMARK INTER + INTRA:          -5.737
REMARK INTER:                  -5.029
REMARK INTRA:                  -0.708
REMARK UNBOUND:                -0.997
REMARK SMILES CCCCCCCCCCCCCCCC(=O)[O-]
REMARK SMILES IDX 9 1 10 2 11 3 12 4 13 5 14 6 15 7 16 8 17 9 18 10 8 11 7 12
REMARK SMILES IDX 6 13 5 14 4 15 3 16 2 17 1 18
REMARK H PARENT
REMARK Flexibility Score: inf
ROOT
ATOM      1  C   UNL     1       2.314 -13.895 -18.729  1.00  0.00     0.000 C 
ENDROOT
BRANCH   1   2
ATOM      2  C   UNL     1       1.300 -14.425 -17.700  1.00  0.00     0.000 C 
BRANCH   2   3
ATOM      3  C   UNL     1       0.602 -15.716 -18.162  1.00  0.00     0.000 C 
BRANCH   3   4
ATOM      4  C   UNL     1      -0.875 -15.509 -18.558  1.00  0.00     0.000 C 
BRANCH   4   5
ATOM      5  C   UNL     1      -1.640 -16.840 -18.666  1.00  0.00     0.000 C 
BRANCH   5   6
ATOM      6  C   UNL     1      -1.094 -17.749 -19.777  1.00  0.00     0.006 C 
BRANCH   6   7
ATOM      7  C   UNL     1      -1.058 -19.227 -19.370  1.00  0.00     0.053 C 
BRANCH   7   8
ATOM      8  C   UNL     1      -0.234 -19.412 -18.135  1.00  0.00     0.041 C 
ATOM      9  O   UNL     1       1.002 -19.173 -18.158  1.00  0.00    -0.550 OA
ATOM     10  O   UNL     1      -0.822 -19.887 -16.970  1.00  0.00    -0.550 OA
ENDBRANCH   7   8
ENDBRANCH   6   7
ENDBRANCH   5   6
ENDBRANCH   4   5
ENDBRANCH   3   4
ENDBRANCH   2   3
ENDBRANCH   1   2
BRANCH   1  11
ATOM     11  C   UNL     1       2.413 -12.361 -18.731  1.00  0.00     0.000 C 
BRANCH  11  12
ATOM     12  C   UNL     1       3.865 -11.862 -18.643  1.00  0.00    -0.000 C 
BRANCH  12  13
ATOM     13  C   UNL     1       3.965 -10.327 -18.589  1.00  0.00    -0.000 C 
BRANCH  13  14
ATOM     14  C   UNL     1       2.613  -9.628 -18.322  1.00  0.00    -0.000 C 
BRANCH  14  15
ATOM     15  C   UNL     1       2.362  -9.407 -16.820  1.00  0.00    -0.000 C 
BRANCH  15  16
ATOM     16  C   UNL     1       3.176  -8.233 -16.251  1.00  0.00    -0.000 C 
BRANCH  16  17
ATOM     17  C   UNL     1       3.798  -8.556 -14.884  1.00  0.00    -0.003 C 
ATOM     18  C   UNL     1       3.512  -7.446 -13.876  1.00  0.00     0.004 C 
ENDBRANCH  16  17
ENDBRANCH  15  16
ENDBRANCH  14  15
ENDBRANCH  13  14
ENDBRANCH  12  13
ENDBRANCH  11  12
ENDBRANCH   1  11
TORSDOF 14
ENDMDL
MODEL 5
REMARK VINA RESULT:    -2.602      2.927      3.912
REMARK INTER + INTRA:          -5.729
REMARK INTER:                  -4.957
REMARK INTRA:                  -0.772
REMARK UNBOUND:                -0.997
REMARK SMILES CCCCCCCCCCCCCCCC(=O)[O-]
REMARK SMILES IDX 9 1 10 2 11 3 12 4 13 5 14 6 15 7 16 8 17 9 18 10 8 11 7 12
REMARK SMILES IDX 6 13 5 14 4 15 3 16 2 17 1 18
REMARK H PARENT
REMARK Flexibility Score: inf
ROOT
ATOM      1  C   UNL     1       2.374 -13.727 -18.783  1.00  0.00     0.000 C 
ENDROOT
BRANCH   1   2
ATOM      2  C   UNL     1       2.301 -12.190 -18.763  1.00  0.00     0.000 C 
BRANCH   2   3
ATOM      3  C   UNL     1       3.688 -11.527 -18.816  1.00  0.00     0.000 C 
BRANCH   3   4
ATOM      4  C   UNL     1       3.636  -9.986 -18.745  1.00  0.00     0.000 C 
BRANCH   4   5
ATOM      5  C   UNL     1       2.734  -9.487 -17.603  1.00  0.00     0.000 C 
BRANCH   5   6
ATOM      6  C   UNL     1       3.502  -9.274 -16.290  1.00  0.00     0.006 C 
BRANCH   6   7
ATOM      7  C   UNL     1       3.160  -7.941 -15.613  1.00  0.00     0.053 C 
BRANCH   7   8
ATOM      8  C   UNL     1       3.607  -7.948 -14.185  1.00  0.00     0.041 C 
ATOM      9  O   UNL     1       3.990  -9.020 -13.647  1.00  0.00    -0.550 OA
ATOM     10  O   UNL     1       3.560  -6.780 -13.435  1.00  0.00    -0.550 OA
ENDBRANCH   7   8
ENDBRANCH   6   7
ENDBRANCH   5   6
ENDBRANCH   4   5
ENDBRANCH   3   4
ENDBRANCH   2   3
ENDBRANCH   1   2
BRANCH   1  11
ATOM     11  C   UNL     1       1.492 -14.379 -17.706  1.00  0.00     0.000 C 
BRANCH  11  12
ATOM     12  C   UNL     1       0.950 -15.752 -18.137  1.00  0.00    -0.000 C 
BRANCH  12  13
ATOM     13  C   UNL     1      -0.556 -15.726 -18.450  1.00  0.00    -0.000 C 
BRANCH  13  14
ATOM     14  C   UNL     1      -1.029 -16.912 -19.319  1.00  0.00    -0.000 C 
BRANCH  14  15
ATOM     15  C   UNL     1      -1.872 -17.918 -18.516  1.00  0.00    -0.000 C 
BRANCH  15  16
ATOM     16  C   UNL     1      -1.222 -19.310 -18.444  1.00  0.00    -0.000 C 
BRANCH  16  17
ATOM     17  C   UNL     1       0.272 -19.282 -18.803  1.00  0.00    -0.003 C 
ATOM     18  C   UNL     1       1.138 -19.414 -17.553  1.00  0.00     0.004 C 
ENDBRANCH  16  17
ENDBRANCH  15  16
ENDBRANCH  14  15
ENDBRANCH  13  14
ENDBRANCH  12  13
ENDBRANCH  11  12
ENDBRANCH   1  11
TORSDOF 14
ENDMDL
MODEL 6
REMARK VINA RESULT:    -2.428      3.229      4.402
REMARK INTER + INTRA:          -5.413
REMARK INTER:                  -4.779
REMARK INTRA:                  -0.635
REMARK UNBOUND:                -0.997
REMARK SMILES CCCCCCCCCCCCCCCC(=O)[O-]
REMARK SMILES IDX 9 1 10 2 11 3 12 4 13 5 14 6 15 7 16 8 17 9 18 10 8 11 7 12
REMARK SMILES IDX 6 13 5 14 4 15 3 16 2 17 1 18
REMARK H PARENT
REMARK Flexibility Score: inf
ROOT
ATOM      1  C   UNL     1       3.071 -12.793 -18.122  1.00  0.00     0.000 C 
ENDROOT
BRANCH   1   2
ATOM      2  C   UNL     1       3.808 -11.855 -19.095  1.00  0.00     0.000 C 
BRANCH   2   3
ATOM      3  C   UNL     1       3.676 -10.372 -18.708  1.00  0.00     0.000 C 
BRANCH   3   4
ATOM      4  C   UNL     1       2.440 -10.072 -17.833  1.00  0.00     0.000 C 
BRANCH   4   5
ATOM      5  C   UNL     1       2.575  -8.738 -17.076  1.00  0.00     0.000 C 
BRANCH   5   6
ATOM      6  C   UNL     1       3.483  -8.846 -15.842  1.00  0.00     0.006 C 
BRANCH   6   7
ATOM      7  C   UNL     1       3.505  -7.559 -15.008  1.00  0.00     0.053 C 
BRANCH   7   8
ATOM      8  C   UNL     1       3.535  -7.880 -13.547  1.00  0.00     0.041 C 
ATOM      9  O   UNL     1       3.381  -6.967 -12.695  1.00  0.00    -0.550 OA
ATOM     10  O   UNL     1       3.774  -9.182 -13.125  1.00  0.00    -0.550 OA
ENDBRANCH   7   8
ENDBRANCH   6   7
ENDBRANCH   5   6
ENDBRANCH   4   5
ENDBRANCH   3   4
ENDBRANCH   2   3
ENDBRANCH   1   2
BRANCH   1  11
ATOM     11  C   UNL     1       1.981 -13.628 -18.813  1.00  0.00     0.000 C 
BRANCH  11  12
ATOM     12  C   UNL     1       1.610 -14.890 -18.016  1.00  0.00    -0.000 C 
BRANCH  12  13
ATOM     13  C   UNL     1       0.120 -15.256 -18.141  1.00  0.00    -0.000 C 
BRANCH  13  14
ATOM     14  C   UNL     1      -0.129 -16.606 -18.850  1.00  0.00    -0.000 C 
BRANCH  14  15
ATOM     15  C   UNL     1       0.893 -17.677 -18.431  1.00  0.00    -0.000 C 
BRANCH  15  16
ATOM     16  C   UNL     1       0.399 -19.106 -18.706  1.00  0.00    -0.000 C 
BRANCH  16  17
ATOM     17  C   UNL     1       0.230 -19.929 -17.420  1.00  0.00    -0.003 C 
ATOM     18  C   UNL     1       1.475 -19.835 -16.541  1.00  0.00     0.004 C 
ENDBRANCH  16  17
ENDBRANCH  15  16
ENDBRANCH  14  15
ENDBRANCH  13  14
ENDBRANCH  12  13
ENDBRANCH  11  12
ENDBRANCH   1  11
TORSDOF 14
ENDMDL
MODEL 7
REMARK VINA RESULT:    -2.420      1.935      2.281
REMARK INTER + INTRA:          -5.399
REMARK INTER:                  -4.348
REMARK INTRA:                  -1.051
REMARK UNBOUND:                -0.997
REMARK SMILES CCCCCCCCCCCCCCCC(=O)[O-]
REMARK SMILES IDX 9 1 10 2 11 3 12 4 13 5 14 6 15 7 16 8 17 9 18 10 8 11 7 12
REMARK SMILES IDX 6 13 5 14 4 15 3 16 2 17 1 18
REMARK H PARENT
REMARK Flexibility Score: inf
ROOT
ATOM      1  C   UNL     1       0.283 -16.022 -18.372  1.00  0.00     0.000 C 
ENDROOT
BRANCH   1   2
ATOM      2  C   UNL     1       1.115 -14.917 -17.699  1.00  0.00     0.000 C 
BRANCH   2   3
ATOM      3  C   UNL     1       1.882 -14.049 -18.711  1.00  0.00     0.000 C 
BRANCH   3   4
ATOM      4  C   UNL     1       2.748 -12.954 -18.051  1.00  0.00     0.000 C 
BRANCH   4   5
ATOM      5  C   UNL     1       3.558 -12.152 -19.085  1.00  0.00     0.000 C 
BRANCH   5   6
ATOM      6  C   UNL     1       4.286 -10.950 -18.465  1.00  0.00     0.006 C 
BRANCH   6   7
ATOM      7  C   UNL     1       3.555  -9.624 -18.707  1.00  0.00     0.053 C 
BRANCH   7   8
ATOM      8  C   UNL     1       2.688  -9.282 -17.537  1.00  0.00     0.041 C 
ATOM      9  O   UNL     1       3.204  -8.852 -16.472  1.00  0.00    -0.550 OA
ATOM     10  O   UNL     1       1.315  -9.476 -17.607  1.00  0.00    -0.550 OA
ENDBRANCH   7   8
ENDBRANCH   6   7
ENDBRANCH   5   6
ENDBRANCH   4   5
ENDBRANCH   3   4
ENDBRANCH   2   3
ENDBRANCH   1   2
BRANCH   1  11
ATOM     11  C   UNL     1      -1.223 -15.709 -18.385  1.00  0.00     0.000 C 
BRANCH  11  12
ATOM     12  C   UNL     1      -2.075 -16.922 -18.796  1.00  0.00    -0.000 C 
BRANCH  12  13
ATOM     13  C   UNL     1      -1.578 -17.586 -20.093  1.00  0.00    -0.000 C 
BRANCH  13  14
ATOM     14  C   UNL     1      -1.861 -19.103 -20.159  1.00  0.00    -0.000 C 
BRANCH  14  15
ATOM     15  C   UNL     1      -0.832 -19.919 -19.357  1.00  0.00    -0.000 C 
BRANCH  15  16
ATOM     16  C   UNL     1      -1.253 -20.125 -17.893  1.00  0.00    -0.000 C 
BRANCH  16  17
ATOM     17  C   UNL     1      -0.127 -19.790 -16.903  1.00  0.00    -0.003 C 
ATOM     18  C   UNL     1       1.142 -19.369 -17.639  1.00  0.00     0.004 C 
ENDBRANCH  16  17
ENDBRANCH  15  16
ENDBRANCH  14  15
ENDBRANCH  13  14
ENDBRANCH  12  13
ENDBRANCH  11  12
ENDBRANCH   1  11
TORSDOF 14
ENDMDL
MODEL 8
REMARK VINA RESULT:    -2.218      4.361      9.381
REMARK INTER + INTRA:          -5.030
REMARK INTER:                  -4.465
REMARK INTRA:                  -0.565
REMARK UNBOUND:                -0.997
REMARK SMILES CCCCCCCCCCCCCCCC(=O)[O-]
REMARK SMILES IDX 9 1 10 2 11 3 12 4 13 5 14 6 15 7 16 8 17 9 18 10 8 11 7 12
REMARK SMILES IDX 6 13 5 14 4 15 3 16 2 17 1 18
REMARK H PARENT
REMARK Flexibility Score: inf
ROOT
ATOM      1  C   UNL     1       2.885 -12.725 -18.107  1.00  0.00     0.000 C 
ENDROOT
BRANCH   1   2
ATOM      2  C   UNL     1       2.024 -13.810 -18.777  1.00  0.00     0.000 C 
BRANCH   2   3
ATOM      3  C   UNL     1       1.326 -14.729 -17.759  1.00  0.00     0.000 C 
BRANCH   3   4
ATOM      4  C   UNL     1       0.631 -15.947 -18.405  1.00  0.00     0.000 C 
BRANCH   4   5
ATOM      5  C   UNL     1      -0.882 -15.727 -18.578  1.00  0.00     0.000 C 
BRANCH   5   6
ATOM      6  C   UNL     1      -1.680 -17.039 -18.540  1.00  0.00     0.006 C 
BRANCH   6   7
ATOM      7  C   UNL     1      -1.302 -17.995 -19.678  1.00  0.00     0.053 C 
BRANCH   7   8
ATOM      8  C   UNL     1      -0.652 -19.228 -19.134  1.00  0.00     0.041 C 
ATOM      9  O   UNL     1      -0.914 -19.618 -17.966  1.00  0.00    -0.550 OA
ATOM     10  O   UNL     1       0.275 -19.923 -19.899  1.00  0.00    -0.550 OA
ENDBRANCH   7   8
ENDBRANCH   6   7
ENDBRANCH   5   6
ENDBRANCH   4   5
ENDBRANCH   3   4
ENDBRANCH   2   3
ENDBRANCH   1   2
BRANCH   1  11
ATOM     11  C   UNL     1       3.643 -11.855 -19.124  1.00  0.00     0.000 C 
BRANCH  11  12
ATOM     12  C   UNL     1       3.427 -10.350 -18.892  1.00  0.00    -0.000 C 
BRANCH  12  13
ATOM     13  C   UNL     1       3.588  -9.947 -17.415  1.00  0.00    -0.000 C 
BRANCH  13  14
ATOM     14  C   UNL     1       2.650  -8.800 -16.980  1.00  0.00    -0.000 C 
BRANCH  14  15
ATOM     15  C   UNL     1       3.227  -7.994 -15.803  1.00  0.00    -0.000 C 
BRANCH  15  16
ATOM     16  C   UNL     1       3.964  -8.879 -14.785  1.00  0.00    -0.000 C 
BRANCH  16  17
ATOM     17  C   UNL     1       3.882  -8.326 -13.355  1.00  0.00    -0.003 C 
ATOM     18  C   UNL     1       3.409  -6.875 -13.354  1.00  0.00     0.004 C 
ENDBRANCH  16  17
ENDBRANCH  15  16
ENDBRANCH  14  15
ENDBRANCH  13  14
ENDBRANCH  12  13
ENDBRANCH  11  12
ENDBRANCH   1  11
TORSDOF 14
ENDMDL
MODEL 9
REMARK VINA RESULT:    -1.973      3.548      8.862
REMARK INTER + INTRA:          -4.586
REMARK INTER:                  -4.141
REMARK INTRA:                  -0.445
REMARK UNBOUND:                -0.997
REMARK SMILES CCCCCCCCCCCCCCCC(=O)[O-]
REMARK SMILES IDX 9 1 10 2 11 3 12 4 13 5 14 6 15 7 16 8 17 9 18 10 8 11 7 12
REMARK SMILES IDX 6 13 5 14 4 15 3 16 2 17 1 18
REMARK H PARENT
REMARK Flexibility Score: inf
ROOT
ATOM      1  C   UNL     1       1.410 -14.831 -17.755  1.00  0.00     0.000 C 
ENDROOT
BRANCH   1   2
ATOM      2  C   UNL     1       0.461 -15.915 -18.295  1.00  0.00     0.000 C 
BRANCH   2   3
ATOM      3  C   UNL     1      -0.930 -15.364 -18.656  1.00  0.00     0.000 C 
BRANCH   3   4
ATOM      4  C   UNL     1      -2.025 -16.450 -18.719  1.00  0.00     0.000 C 
BRANCH   4   5
ATOM      5  C   UNL     1      -1.431 -17.868 -18.810  1.00  0.00     0.000 C 
BRANCH   5   6
ATOM      6  C   UNL     1      -1.890 -18.777 -17.659  1.00  0.00     0.006 C 
BRANCH   6   7
ATOM      7  C   UNL     1      -1.140 -20.114 -17.627  1.00  0.00     0.053 C 
BRANCH   7   8
ATOM      8  C   UNL     1       0.270 -19.937 -18.096  1.00  0.00     0.041 C 
ATOM      9  O   UNL     1       1.169 -19.595 -17.285  1.00  0.00    -0.550 OA
ATOM     10  O   UNL     1       0.583 -20.109 -19.439  1.00  0.00    -0.550 OA
ENDBRANCH   7   8
ENDBRANCH   6   7
ENDBRANCH   5   6
ENDBRANCH   4   5
ENDBRANCH   3   4
ENDBRANCH   2   3
ENDBRANCH   1   2
BRANCH   1  11
ATOM     11  C   UNL     1       1.788 -13.787 -18.820  1.00  0.00     0.000 C 
BRANCH  11  12
ATOM     12  C   UNL     1       2.907 -12.843 -18.350  1.00  0.00    -0.000 C 
BRANCH  12  13
ATOM     13  C   UNL     1       2.554 -11.358 -18.546  1.00  0.00    -0.000 C 
BRANCH  13  14
ATOM     14  C   UNL     1       3.698 -10.526 -19.167  1.00  0.00    -0.000 C 
BRANCH  14  15
ATOM     15  C   UNL     1       4.991 -11.344 -19.322  1.00  0.00    -0.000 C 
BRANCH  15  16
ATOM     16  C   UNL     1       5.952 -10.741 -20.359  1.00  0.00    -0.000 C 
BRANCH  16  17
ATOM     17  C   UNL     1       7.388 -10.612 -19.828  1.00  0.00    -0.003 C 
ATOM     18  C   UNL     1       8.356 -10.241 -20.948  1.00  0.00     0.004 C 
ENDBRANCH  16  17
ENDBRANCH  15  16
ENDBRANCH  14  15
ENDBRANCH  13  14
ENDBRANCH  12  13
ENDBRANCH  11  12
ENDBRANCH   1  11
TORSDOF 14
ENDMDL
