MODEL 1
REMARK VINA RESULT:    -4.063      0.000      0.000
REMARK INTER + INTRA:         -11.934
REMARK INTER:                  -8.814
REMARK INTRA:                  -3.120
REMARK UNBOUND:                -3.120
REMARK SMILES CCCCCCCCCCCCCCCCCCCCCC(=O)[O-]
REMARK SMILES IDX 12 1 11 2 10 3 9 4 8 5 7 6 6 7 5 8 4 9 3 10 2 11 1 12 13 13
REMARK SMILES IDX 14 14 15 15 16 16 17 17 18 18 19 19 20 20 21 21 22 22 23 23
REMARK SMILES IDX 24 24
REMARK H PARENT
REMARK Flexibility Score: inf
ROOT
ATOM      1  C   UNL     1      21.853  13.377 -18.900  1.00  0.00     0.000 C 
ENDROOT
BRANCH   1   2
ATOM      2  C   UNL     1      21.973  12.665 -17.544  1.00  0.00     0.000 C 
BRANCH   2   3
ATOM      3  C   UNL     1      21.478  13.534 -16.376  1.00  0.00     0.000 C 
BRANCH   3   4
ATOM      4  C   UNL     1      21.819  15.022 -16.569  1.00  0.00    -0.000 C 
BRANCH   4   5
ATOM      5  C   UNL     1      20.597  15.945 -16.382  1.00  0.00    -0.000 C 
BRANCH   5   6
ATOM      6  C   UNL     1      20.177  16.692 -17.663  1.00  0.00    -0.000 C 
BRANCH   6   7
ATOM      7  C   UNL     1      21.330  17.073 -18.613  1.00  0.00    -0.000 C 
BRANCH   7   8
ATOM      8  C   UNL     1      21.036  16.851 -20.110  1.00  0.00    -0.000 C 
BRANCH   8   9
ATOM      9  C   UNL     1      19.685  17.449 -20.543  1.00  0.00    -0.000 C 
BRANCH   9  10
ATOM     10  C   UNL     1      19.699  17.930 -22.007  1.00  0.00    -0.000 C 
BRANCH  10  11
ATOM     11  C   UNL     1      18.294  18.150 -22.601  1.00  0.00    -0.003 C 
ATOM     12  C   UNL     1      17.217  18.333 -21.531  1.00  0.00     0.004 C 
ENDBRANCH  10  11
ENDBRANCH   9  10
ENDBRANCH   8   9
ENDBRANCH   7   8
ENDBRANCH   6   7
ENDBRANCH   5   6
ENDBRANCH   4   5
ENDBRANCH   3   4
ENDBRANCH   2   3
ENDBRANCH   1   2
BRANCH   1  13
ATOM     13  C   UNL     1      20.690  12.802 -19.717  1.00  0.00     0.000 C 
BRANCH  13  14
ATOM     14  C   UNL     1      19.455  13.712 -19.638  1.00  0.00     0.000 C 
BRANCH  14  15
ATOM     15  C   UNL     1      18.239  13.017 -18.999  1.00  0.00     0.000 C 
BRANCH  15  16
ATOM     16  C   UNL     1      18.080  13.246 -17.483  1.00  0.00     0.000 C 
BRANCH  16  17
ATOM     17  C   UNL     1      18.025  11.963 -16.630  1.00  0.00     0.000 C 
BRANCH  17  18
ATOM     18  C   UNL     1      18.382  10.677 -17.407  1.00  0.00     0.000 C 
BRANCH  18  19
ATOM     19  C   UNL     1      19.611   9.953 -16.827  1.00  0.00     0.000 C 
BRANCH  19  20
ATOM     20  C   UNL     1      19.323   8.489 -16.443  1.00  0.00     0.006 C 
BRANCH  20  21
ATOM     21  C   UNL     1      19.634   7.476 -17.559  1.00  0.00     0.053 C 
BRANCH  21  22
ATOM     22  C   UNL     1      18.850   6.205 -17.420  1.00  0.00     0.041 C 
ATOM     23  O   UNL     1      17.634   6.176 -17.744  1.00  0.00    -0.550 OA
ATOM     24  O   UNL     1      19.473   5.042 -16.981  1.00  0.00    -0.550 OA
ENDBRANCH  21  22
ENDBRANCH  20  21
ENDBRANCH  19  20
ENDBRANCH  18  19
ENDBRANCH  17  18
ENDBRANCH  16  17
ENDBRANCH  15  16
ENDBRANCH  14  15
ENDBRANCH  13  14
ENDBRANCH   1  13
TORSDOF 20
ENDMDL
MODEL 2
REMARK VINA RESULT:    -3.908      4.052      7.768
REMARK INTER + INTRA:         -11.597
REMARK INTER:                  -7.480
REMARK INTRA:                  -4.117
REMARK UNBOUND:                -3.120
REMARK SMILES CCCCCCCCCCCCCCCCCCCCCC(=O)[O-]
REMARK SMILES IDX 12 1 11 2 10 3 9 4 8 5 7 6 6 7 5 8 4 9 3 10 2 11 1 12 13 13
REMARK SMILES IDX 14 14 15 15 16 16 17 17 18 18 19 19 20 20 21 21 22 22 23 23
REMARK SMILES IDX 24 24
REMARK H PARENT
REMARK Flexibility Score: inf
ROOT
ATOM      1  C   UNL     1      21.650  13.207 -19.565  1.00  0.00     0.000 C 
ENDROOT
BRANCH   1   2
ATOM      2  C   UNL     1      20.715  12.310 -20.389  1.00  0.00     0.000 C 
BRANCH   2   3
ATOM      3  C   UNL     1      19.231  12.659 -20.185  1.00  0.00     0.000 C 
BRANCH   3   4
ATOM      4  C   UNL     1      18.940  13.162 -18.760  1.00  0.00    -0.000 C 
BRANCH   4   5
ATOM      5  C   UNL     1      17.659  12.546 -18.158  1.00  0.00    -0.000 C 
BRANCH   5   6
ATOM      6  C   UNL     1      17.840  12.005 -16.726  1.00  0.00    -0.000 C 
BRANCH   6   7
ATOM      7  C   UNL     1      19.230  11.415 -16.414  1.00  0.00    -0.000 C 
BRANCH   7   8
ATOM      8  C   UNL     1      19.353   9.895 -16.636  1.00  0.00    -0.000 C 
BRANCH   8   9
ATOM      9  C   UNL     1      20.168   9.544 -17.894  1.00  0.00    -0.000 C 
BRANCH   9  10
ATOM     10  C   UNL     1      19.280   9.029 -19.044  1.00  0.00    -0.000 C 
BRANCH  10  11
ATOM     11  C   UNL     1      20.067   8.648 -20.313  1.00  0.00    -0.003 C 
ATOM     12  C   UNL     1      21.580   8.785 -20.138  1.00  0.00     0.004 C 
ENDBRANCH  10  11
ENDBRANCH   9  10
ENDBRANCH   8   9
ENDBRANCH   7   8
ENDBRANCH   6   7
ENDBRANCH   5   6
ENDBRANCH   4   5
ENDBRANCH   3   4
ENDBRANCH   2   3
ENDBRANCH   1   2
BRANCH   1  13
ATOM     13  C   UNL     1      22.476  12.374 -18.578  1.00  0.00     0.000 C 
BRANCH  13  14
ATOM     14  C   UNL     1      22.299  12.884 -17.140  1.00  0.00     0.000 C 
BRANCH  14  15
ATOM     15  C   UNL     1      22.180  14.416 -17.058  1.00  0.00     0.000 C 
BRANCH  15  16
ATOM     16  C   UNL     1      21.002  14.933 -16.209  1.00  0.00     0.000 C 
BRANCH  16  17
ATOM     17  C   UNL     1      20.505  16.347 -16.571  1.00  0.00     0.000 C 
BRANCH  17  18
ATOM     18  C   UNL     1      19.858  16.446 -17.969  1.00  0.00     0.000 C 
BRANCH  18  19
ATOM     19  C   UNL     1      20.805  17.048 -19.023  1.00  0.00     0.000 C 
BRANCH  19  20
ATOM     20  C   UNL     1      20.553  16.503 -20.442  1.00  0.00     0.006 C 
BRANCH  20  21
ATOM     21  C   UNL     1      19.077  16.556 -20.879  1.00  0.00     0.053 C 
BRANCH  21  22
ATOM     22  C   UNL     1      18.663  17.920 -21.346  1.00  0.00     0.041 C 
ATOM     23  O   UNL     1      19.500  18.676 -21.906  1.00  0.00    -0.550 OA
ATOM     24  O   UNL     1      17.343  18.336 -21.209  1.00  0.00    -0.550 OA
ENDBRANCH  21  22
ENDBRANCH  20  21
ENDBRANCH  19  20
ENDBRANCH  18  19
ENDBRANCH  17  18
ENDBRANCH  16  17
ENDBRANCH  15  16
ENDBRANCH  14  15
ENDBRANCH  13  14
ENDBRANCH   1  13
TORSDOF 20
ENDMDL
MODEL 3
REMARK VINA RESULT:    -3.841      1.591      2.813
REMARK INTER + INTRA:         -11.452
REMARK INTER:                  -7.908
REMARK INTRA:                  -3.543
REMARK UNBOUND:                -3.120
REMARK SMILES CCCCCCCCCCCCCCCCCCCCCC(=O)[O-]
REMARK SMILES IDX 12 1 11 2 10 3 9 4 8 5 7 6 6 7 5 8 4 9 3 10 2 11 1 12 13 13
REMARK SMILES IDX 14 14 15 15 16 16 17 17 18 18 19 19 20 20 21 21 22 22 23 23
REMARK SMILES IDX 24 24
REMARK H PARENT
REMARK Flexibility Score: inf
ROOT
ATOM      1  C   UNL     1      20.967  11.540 -20.772  1.00  0.00     0.000 C 
ENDROOT
BRANCH   1   2
ATOM      2  C   UNL     1      21.390  10.578 -19.652  1.00  0.00     0.000 C 
BRANCH   2   3
ATOM      3  C   UNL     1      22.481  11.171 -18.746  1.00  0.00     0.000 C 
BRANCH   3   4
ATOM      4  C   UNL     1      22.782  12.643 -19.080  1.00  0.00    -0.000 C 
BRANCH   4   5
ATOM      5  C   UNL     1      22.878  13.534 -17.824  1.00  0.00    -0.000 C 
BRANCH   5   6
ATOM      6  C   UNL     1      21.808  13.226 -16.757  1.00  0.00    -0.000 C 
BRANCH   6   7
ATOM      7  C   UNL     1      21.091  14.457 -16.166  1.00  0.00    -0.000 C 
BRANCH   7   8
ATOM      8  C   UNL     1      21.758  15.809 -16.485  1.00  0.00    -0.000 C 
BRANCH   8   9
ATOM      9  C   UNL     1      20.770  16.833 -17.073  1.00  0.00    -0.000 C 
BRANCH   9  10
ATOM     10  C   UNL     1      19.791  16.195 -18.077  1.00  0.00    -0.000 C 
BRANCH  10  11
ATOM     11  C   UNL     1      20.021  16.637 -19.535  1.00  0.00    -0.003 C 
ATOM     12  C   UNL     1      21.184  15.901 -20.203  1.00  0.00     0.004 C 
ENDBRANCH  10  11
ENDBRANCH   9  10
ENDBRANCH   8   9
ENDBRANCH   7   8
ENDBRANCH   6   7
ENDBRANCH   5   6
ENDBRANCH   4   5
ENDBRANCH   3   4
ENDBRANCH   2   3
ENDBRANCH   1   2
BRANCH   1  13
ATOM     13  C   UNL     1      19.451  11.770 -20.750  1.00  0.00     0.000 C 
BRANCH  13  14
ATOM     14  C   UNL     1      19.075  12.879 -19.756  1.00  0.00     0.000 C 
BRANCH  14  15
ATOM     15  C   UNL     1      17.942  12.467 -18.799  1.00  0.00     0.000 C 
BRANCH  15  16
ATOM     16  C   UNL     1      18.128  12.920 -17.337  1.00  0.00     0.000 C 
BRANCH  16  17
ATOM     17  C   UNL     1      18.278  11.778 -16.312  1.00  0.00     0.000 C 
BRANCH  17  18
ATOM     18  C   UNL     1      19.287  10.687 -16.731  1.00  0.00     0.000 C 
BRANCH  18  19
ATOM     19  C   UNL     1      18.878   9.282 -16.254  1.00  0.00     0.000 C 
BRANCH  19  20
ATOM     20  C   UNL     1      19.798   8.170 -16.792  1.00  0.00     0.006 C 
BRANCH  20  21
ATOM     21  C   UNL     1      19.060   7.072 -17.579  1.00  0.00     0.053 C 
BRANCH  21  22
ATOM     22  C   UNL     1      19.625   5.706 -17.331  1.00  0.00     0.041 C 
ATOM     23  O   UNL     1      20.847   5.569 -17.058  1.00  0.00    -0.550 OA
ATOM     24  O   UNL     1      18.795   4.590 -17.349  1.00  0.00    -0.550 OA
ENDBRANCH  21  22
ENDBRANCH  20  21
ENDBRANCH  19  20
ENDBRANCH  18  19
ENDBRANCH  17  18
ENDBRANCH  16  17
ENDBRANCH  15  16
ENDBRANCH  14  15
ENDBRANCH  13  14
ENDBRANCH   1  13
TORSDOF 20
ENDMDL
MODEL 4
REMARK VINA RESULT:    -3.828      1.634      3.369
REMARK INTER + INTRA:         -11.424
REMARK INTER:                  -7.772
REMARK INTRA:                  -3.653
REMARK UNBOUND:                -3.120
REMARK SMILES CCCCCCCCCCCCCCCCCCCCCC(=O)[O-]
REMARK SMILES IDX 12 1 11 2 10 3 9 4 8 5 7 6 6 7 5 8 4 9 3 10 2 11 1 12 13 13
REMARK SMILES IDX 14 14 15 15 16 16 17 17 18 18 19 19 20 20 21 21 22 22 23 23
REMARK SMILES IDX 24 24
REMARK H PARENT
REMARK Flexibility Score: inf
ROOT
ATOM      1  C   UNL     1      19.674  13.533 -16.764  1.00  0.00     0.000 C 
ENDROOT
BRANCH   1   2
ATOM      2  C   UNL     1      21.204  13.512 -16.632  1.00  0.00     0.000 C 
BRANCH   2   3
ATOM      3  C   UNL     1      21.787  14.899 -16.313  1.00  0.00     0.000 C 
BRANCH   3   4
ATOM      4  C   UNL     1      20.705  15.993 -16.272  1.00  0.00    -0.000 C 
BRANCH   4   5
ATOM      5  C   UNL     1      20.868  17.036 -17.397  1.00  0.00    -0.000 C 
BRANCH   5   6
ATOM      6  C   UNL     1      19.938  16.803 -18.605  1.00  0.00    -0.000 C 
BRANCH   6   7
ATOM      7  C   UNL     1      20.644  16.711 -19.973  1.00  0.00    -0.000 C 
BRANCH   7   8
ATOM      8  C   UNL     1      21.554  15.481 -20.151  1.00  0.00    -0.000 C 
BRANCH   8   9
ATOM      9  C   UNL     1      20.771  14.156 -20.125  1.00  0.00    -0.000 C 
BRANCH   9  10
ATOM     10  C   UNL     1      21.562  12.994 -20.756  1.00  0.00    -0.000 C 
BRANCH  10  11
ATOM     11  C   UNL     1      23.023  12.903 -20.275  1.00  0.00    -0.003 C 
ATOM     12  C   UNL     1      23.271  11.716 -19.344  1.00  0.00     0.004 C 
ENDBRANCH  10  11
ENDBRANCH   9  10
ENDBRANCH   8   9
ENDBRANCH   7   8
ENDBRANCH   6   7
ENDBRANCH   5   6
ENDBRANCH   4   5
ENDBRANCH   3   4
ENDBRANCH   2   3
ENDBRANCH   1   2
BRANCH   1  13
ATOM     13  C   UNL     1      19.042  12.394 -15.956  1.00  0.00     0.000 C 
BRANCH  13  14
ATOM     14  C   UNL     1      17.806  11.829 -16.672  1.00  0.00     0.000 C 
BRANCH  14  15
ATOM     15  C   UNL     1      17.608  12.417 -18.081  1.00  0.00     0.000 C 
BRANCH  15  16
ATOM     16  C   UNL     1      17.603  11.383 -19.224  1.00  0.00     0.000 C 
BRANCH  16  17
ATOM     17  C   UNL     1      18.325  10.057 -18.910  1.00  0.00     0.000 C 
BRANCH  17  18
ATOM     18  C   UNL     1      19.859  10.124 -19.074  1.00  0.00     0.000 C 
BRANCH  18  19
ATOM     19  C   UNL     1      20.613   9.507 -17.881  1.00  0.00     0.000 C 
BRANCH  19  20
ATOM     20  C   UNL     1      19.697   8.699 -16.942  1.00  0.00     0.006 C 
BRANCH  20  21
ATOM     21  C   UNL     1      19.867   7.173 -17.062  1.00  0.00     0.053 C 
BRANCH  21  22
ATOM     22  C   UNL     1      18.873   6.554 -17.998  1.00  0.00     0.041 C 
ATOM     23  O   UNL     1      19.094   6.546 -19.237  1.00  0.00    -0.550 OA
ATOM     24  O   UNL     1      17.728   5.941 -17.499  1.00  0.00    -0.550 OA
ENDBRANCH  21  22
ENDBRANCH  20  21
ENDBRANCH  19  20
ENDBRANCH  18  19
ENDBRANCH  17  18
ENDBRANCH  16  17
ENDBRANCH  15  16
ENDBRANCH  14  15
ENDBRANCH  13  14
ENDBRANCH   1  13
TORSDOF 20
ENDMDL
MODEL 5
REMARK VINA RESULT:    -3.817      1.373      2.333
REMARK INTER + INTRA:         -11.399
REMARK INTER:                  -8.887
REMARK INTRA:                  -2.512
REMARK UNBOUND:                -3.120
REMARK SMILES CCCCCCCCCCCCCCCCCCCCCC(=O)[O-]
REMARK SMILES IDX 12 1 11 2 10 3 9 4 8 5 7 6 6 7 5 8 4 9 3 10 2 11 1 12 13 13
REMARK SMILES IDX 14 14 15 15 16 16 17 17 18 18 19 19 20 20 21 21 22 22 23 23
REMARK SMILES IDX 24 24
REMARK H PARENT
REMARK Flexibility Score: inf
ROOT
ATOM      1  C   UNL     1      19.503  13.342 -15.932  1.00  0.00     0.000 C 
ENDROOT
BRANCH   1   2
ATOM      2  C   UNL     1      21.010  13.627 -16.023  1.00  0.00     0.000 C 
BRANCH   2   3
ATOM      3  C   UNL     1      21.640  13.064 -17.307  1.00  0.00     0.000 C 
BRANCH   3   4
ATOM      4  C   UNL     1      22.816  13.923 -17.807  1.00  0.00    -0.000 C 
BRANCH   4   5
ATOM      5  C   UNL     1      22.868  15.312 -17.136  1.00  0.00    -0.000 C 
BRANCH   5   6
ATOM      6  C   UNL     1      22.368  16.459 -18.037  1.00  0.00    -0.000 C 
BRANCH   6   7
ATOM      7  C   UNL     1      21.007  17.065 -17.639  1.00  0.00    -0.000 C 
BRANCH   7   8
ATOM      8  C   UNL     1      19.875  16.841 -18.661  1.00  0.00    -0.000 C 
BRANCH   8   9
ATOM      9  C   UNL     1      20.330  16.014 -19.877  1.00  0.00    -0.000 C 
BRANCH   9  10
ATOM     10  C   UNL     1      20.342  16.840 -21.177  1.00  0.00    -0.000 C 
BRANCH  10  11
ATOM     11  C   UNL     1      18.940  17.250 -21.666  1.00  0.00    -0.003 C 
ATOM     12  C   UNL     1      18.746  18.766 -21.714  1.00  0.00     0.004 C 
ENDBRANCH  10  11
ENDBRANCH   9  10
ENDBRANCH   8   9
ENDBRANCH   7   8
ENDBRANCH   6   7
ENDBRANCH   5   6
ENDBRANCH   4   5
ENDBRANCH   3   4
ENDBRANCH   2   3
ENDBRANCH   1   2
BRANCH   1  13
ATOM     13  C   UNL     1      18.759  13.956 -17.124  1.00  0.00     0.000 C 
BRANCH  13  14
ATOM     14  C   UNL     1      17.952  12.891 -17.881  1.00  0.00     0.000 C 
BRANCH  14  15
ATOM     15  C   UNL     1      17.840  11.563 -17.109  1.00  0.00     0.000 C 
BRANCH  15  16
ATOM     16  C   UNL     1      18.409  10.333 -17.843  1.00  0.00     0.000 C 
BRANCH  16  17
ATOM     17  C   UNL     1      19.713   9.762 -17.250  1.00  0.00     0.000 C 
BRANCH  17  18
ATOM     18  C   UNL     1      19.520   8.449 -16.460  1.00  0.00     0.000 C 
BRANCH  18  19
ATOM     19  C   UNL     1      20.352   7.284 -17.027  1.00  0.00     0.000 C 
BRANCH  19  20
ATOM     20  C   UNL     1      19.492   6.073 -17.435  1.00  0.00     0.006 C 
BRANCH  20  21
ATOM     21  C   UNL     1      17.989   6.385 -17.557  1.00  0.00     0.053 C 
BRANCH  21  22
ATOM     22  C   UNL     1      17.318   5.578 -18.627  1.00  0.00     0.041 C 
ATOM     23  O   UNL     1      16.554   6.140 -19.456  1.00  0.00    -0.550 OA
ATOM     24  O   UNL     1      17.574   4.216 -18.742  1.00  0.00    -0.550 OA
ENDBRANCH  21  22
ENDBRANCH  20  21
ENDBRANCH  19  20
ENDBRANCH  18  19
ENDBRANCH  17  18
ENDBRANCH  16  17
ENDBRANCH  15  16
ENDBRANCH  14  15
ENDBRANCH  13  14
ENDBRANCH   1  13
TORSDOF 20
ENDMDL
MODEL 6
REMARK VINA RESULT:    -3.808      1.406      2.438
REMARK INTER + INTRA:         -11.380
REMARK INTER:                  -7.967
REMARK INTRA:                  -3.412
REMARK UNBOUND:                -3.120
REMARK SMILES CCCCCCCCCCCCCCCCCCCCCC(=O)[O-]
REMARK SMILES IDX 12 1 11 2 10 3 9 4 8 5 7 6 6 7 5 8 4 9 3 10 2 11 1 12 13 13
REMARK SMILES IDX 14 14 15 15 16 16 17 17 18 18 19 19 20 20 21 21 22 22 23 23
REMARK SMILES IDX 24 24
REMARK H PARENT
REMARK Flexibility Score: inf
ROOT
ATOM      1  C   UNL     1      20.007  12.541 -20.418  1.00  0.00     0.000 C 
ENDROOT
BRANCH   1   2
ATOM      2  C   UNL     1      21.385  13.165 -20.151  1.00  0.00     0.000 C 
BRANCH   2   3
ATOM      3  C   UNL     1      21.847  12.974 -18.697  1.00  0.00     0.000 C 
BRANCH   3   4
ATOM      4  C   UNL     1      23.029  13.890 -18.335  1.00  0.00    -0.000 C 
BRANCH   4   5
ATOM      5  C   UNL     1      22.727  14.807 -17.131  1.00  0.00    -0.000 C 
BRANCH   5   6
ATOM      6  C   UNL     1      21.407  14.474 -16.408  1.00  0.00    -0.000 C 
BRANCH   6   7
ATOM      7  C   UNL     1      20.464  15.671 -16.171  1.00  0.00    -0.000 C 
BRANCH   7   8
ATOM      8  C   UNL     1      20.634  16.836 -17.166  1.00  0.00    -0.000 C 
BRANCH   8   9
ATOM      9  C   UNL     1      19.915  16.583 -18.503  1.00  0.00    -0.000 C 
BRANCH   9  10
ATOM     10  C   UNL     1      20.854  16.744 -19.714  1.00  0.00    -0.000 C 
BRANCH  10  11
ATOM     11  C   UNL     1      20.113  16.938 -21.052  1.00  0.00    -0.003 C 
ATOM     12  C   UNL     1      18.728  17.562 -20.880  1.00  0.00     0.004 C 
ENDBRANCH  10  11
ENDBRANCH   9  10
ENDBRANCH   8   9
ENDBRANCH   7   8
ENDBRANCH   6   7
ENDBRANCH   5   6
ENDBRANCH   4   5
ENDBRANCH   3   4
ENDBRANCH   2   3
ENDBRANCH   1   2
BRANCH   1  13
ATOM     13  C   UNL     1      18.885  13.485 -19.968  1.00  0.00     0.000 C 
BRANCH  13  14
ATOM     14  C   UNL     1      17.900  12.766 -19.033  1.00  0.00     0.000 C 
BRANCH  14  15
ATOM     15  C   UNL     1      18.084  13.155 -17.555  1.00  0.00     0.000 C 
BRANCH  15  16
ATOM     16  C   UNL     1      18.140  11.969 -16.572  1.00  0.00     0.000 C 
BRANCH  16  17
ATOM     17  C   UNL     1      19.499  11.245 -16.495  1.00  0.00     0.000 C 
BRANCH  17  18
ATOM     18  C   UNL     1      19.540   9.905 -17.261  1.00  0.00     0.000 C 
BRANCH  18  19
ATOM     19  C   UNL     1      19.407   8.684 -16.333  1.00  0.00     0.000 C 
BRANCH  19  20
ATOM     20  C   UNL     1      19.757   7.356 -17.030  1.00  0.00     0.006 C 
BRANCH  20  21
ATOM     21  C   UNL     1      20.980   7.442 -17.962  1.00  0.00     0.053 C 
BRANCH  21  22
ATOM     22  C   UNL     1      20.666   7.015 -19.365  1.00  0.00     0.041 C 
ATOM     23  O   UNL     1      20.120   5.901 -19.578  1.00  0.00    -0.550 OA
ATOM     24  O   UNL     1      20.929   7.868 -20.432  1.00  0.00    -0.550 OA
ENDBRANCH  21  22
ENDBRANCH  20  21
ENDBRANCH  19  20
ENDBRANCH  18  19
ENDBRANCH  17  18
ENDBRANCH  16  17
ENDBRANCH  15  16
ENDBRANCH  14  15
ENDBRANCH  13  14
ENDBRANCH   1  13
TORSDOF 20
ENDMDL
MODEL 7
REMARK VINA RESULT:    -3.806      4.081      8.244
REMARK INTER + INTRA:         -11.376
REMARK INTER:                  -8.178
REMARK INTRA:                  -3.198
REMARK UNBOUND:                -3.120
REMARK SMILES CCCCCCCCCCCCCCCCCCCCCC(=O)[O-]
REMARK SMILES IDX 12 1 11 2 10 3 9 4 8 5 7 6 6 7 5 8 4 9 3 10 2 11 1 12 13 13
REMARK SMILES IDX 14 14 15 15 16 16 17 17 18 18 19 19 20 20 21 21 22 22 23 23
REMARK SMILES IDX 24 24
REMARK H PARENT
REMARK Flexibility Score: inf
ROOT
ATOM      1  C   UNL     1      20.651  12.814 -16.322  1.00  0.00     0.000 C 
ENDROOT
BRANCH   1   2
ATOM      2  C   UNL     1      19.212  13.153 -15.906  1.00  0.00     0.000 C 
BRANCH   2   3
ATOM      3  C   UNL     1      18.275  11.936 -15.980  1.00  0.00     0.000 C 
BRANCH   3   4
ATOM      4  C   UNL     1      17.670  11.748 -17.383  1.00  0.00    -0.000 C 
BRANCH   4   5
ATOM      5  C   UNL     1      17.719  13.036 -18.232  1.00  0.00    -0.000 C 
BRANCH   5   6
ATOM      6  C   UNL     1      18.337  12.838 -19.631  1.00  0.00    -0.000 C 
BRANCH   6   7
ATOM      7  C   UNL     1      19.070  11.499 -19.845  1.00  0.00    -0.000 C 
BRANCH   7   8
ATOM      8  C   UNL     1      20.608  11.595 -19.841  1.00  0.00    -0.000 C 
BRANCH   8   9
ATOM      9  C   UNL     1      21.271  10.460 -19.041  1.00  0.00    -0.000 C 
BRANCH   9  10
ATOM     10  C   UNL     1      20.291   9.313 -18.726  1.00  0.00    -0.000 C 
BRANCH  10  11
ATOM     11  C   UNL     1      20.616   8.559 -17.422  1.00  0.00    -0.003 C 
ATOM     12  C   UNL     1      19.458   8.569 -16.423  1.00  0.00     0.004 C 
ENDBRANCH  10  11
ENDBRANCH   9  10
ENDBRANCH   8   9
ENDBRANCH   7   8
ENDBRANCH   6   7
ENDBRANCH   5   6
ENDBRANCH   4   5
ENDBRANCH   3   4
ENDBRANCH   2   3
ENDBRANCH   1   2
BRANCH   1  13
ATOM     13  C   UNL     1      21.352  14.042 -16.915  1.00  0.00     0.000 C 
BRANCH  13  14
ATOM     14  C   UNL     1      20.996  15.313 -16.130  1.00  0.00     0.000 C 
BRANCH  14  15
ATOM     15  C   UNL     1      20.445  16.437 -17.027  1.00  0.00     0.000 C 
BRANCH  15  16
ATOM     16  C   UNL     1      19.864  15.967 -18.375  1.00  0.00     0.000 C 
BRANCH  16  17
ATOM     17  C   UNL     1      20.593  16.501 -19.625  1.00  0.00     0.000 C 
BRANCH  17  18
ATOM     18  C   UNL     1      19.731  16.491 -20.906  1.00  0.00     0.000 C 
BRANCH  18  19
ATOM     19  C   UNL     1      20.089  17.634 -21.873  1.00  0.00     0.000 C 
BRANCH  19  20
ATOM     20  C   UNL     1      19.005  18.727 -21.943  1.00  0.00     0.006 C 
BRANCH  20  21
ATOM     21  C   UNL     1      17.695  18.356 -21.224  1.00  0.00     0.053 C 
BRANCH  21  22
ATOM     22  C   UNL     1      16.514  18.347 -22.146  1.00  0.00     0.041 C 
ATOM     23  O   UNL     1      16.516  17.608 -23.166  1.00  0.00    -0.550 OA
ATOM     24  O   UNL     1      15.390  19.113 -21.854  1.00  0.00    -0.550 OA
ENDBRANCH  21  22
ENDBRANCH  20  21
ENDBRANCH  19  20
ENDBRANCH  18  19
ENDBRANCH  17  18
ENDBRANCH  16  17
ENDBRANCH  15  16
ENDBRANCH  14  15
ENDBRANCH  13  14
ENDBRANCH   1  13
TORSDOF 20
ENDMDL
MODEL 8
REMARK VINA RESULT:    -3.789      3.319      7.283
REMARK INTER + INTRA:         -11.338
REMARK INTER:                  -7.454
REMARK INTRA:                  -3.885
REMARK UNBOUND:                -3.120
REMARK SMILES CCCCCCCCCCCCCCCCCCCCCC(=O)[O-]
REMARK SMILES IDX 12 1 11 2 10 3 9 4 8 5 7 6 6 7 5 8 4 9 3 10 2 11 1 12 13 13
REMARK SMILES IDX 14 14 15 15 16 16 17 17 18 18 19 19 20 20 21 21 22 22 23 23
REMARK SMILES IDX 24 24
REMARK H PARENT
REMARK Flexibility Score: inf
ROOT
ATOM      1  C   UNL     1      19.977  13.092 -16.513  1.00  0.00     0.000 C 
ENDROOT
BRANCH   1   2
ATOM      2  C   UNL     1      18.989  12.105 -15.873  1.00  0.00     0.000 C 
BRANCH   2   3
ATOM      3  C   UNL     1      17.783  11.807 -16.780  1.00  0.00     0.000 C 
BRANCH   3   4
ATOM      4  C   UNL     1      17.697  12.774 -17.974  1.00  0.00    -0.000 C 
BRANCH   4   5
ATOM      5  C   UNL     1      17.559  12.042 -19.326  1.00  0.00    -0.000 C 
BRANCH   5   6
ATOM      6  C   UNL     1      18.052  10.582 -19.299  1.00  0.00    -0.000 C 
BRANCH   6   7
ATOM      7  C   UNL     1      18.934  10.160 -20.492  1.00  0.00    -0.000 C 
BRANCH   7   8
ATOM      8  C   UNL     1      20.366   9.731 -20.118  1.00  0.00    -0.000 C 
BRANCH   8   9
ATOM      9  C   UNL     1      20.673   9.929 -18.623  1.00  0.00    -0.000 C 
BRANCH   9  10
ATOM     10  C   UNL     1      21.347   8.695 -17.994  1.00  0.00    -0.000 C 
BRANCH  10  11
ATOM     11  C   UNL     1      20.365   7.749 -17.276  1.00  0.00    -0.003 C 
ATOM     12  C   UNL     1      19.464   8.475 -16.277  1.00  0.00     0.004 C 
ENDBRANCH  10  11
ENDBRANCH   9  10
ENDBRANCH   8   9
ENDBRANCH   7   8
ENDBRANCH   6   7
ENDBRANCH   5   6
ENDBRANCH   4   5
ENDBRANCH   3   4
ENDBRANCH   2   3
ENDBRANCH   1   2
BRANCH   1  13
ATOM     13  C   UNL     1      20.030  14.402 -15.720  1.00  0.00     0.000 C 
BRANCH  13  14
ATOM     14  C   UNL     1      21.233  15.258 -16.146  1.00  0.00     0.000 C 
BRANCH  14  15
ATOM     15  C   UNL     1      20.820  16.545 -16.884  1.00  0.00     0.000 C 
BRANCH  15  16
ATOM     16  C   UNL     1      19.809  16.342 -18.030  1.00  0.00     0.000 C 
BRANCH  16  17
ATOM     17  C   UNL     1      20.111  17.134 -19.318  1.00  0.00     0.000 C 
BRANCH  17  18
ATOM     18  C   UNL     1      19.772  16.371 -20.617  1.00  0.00     0.000 C 
BRANCH  18  19
ATOM     19  C   UNL     1      19.466  14.882 -20.372  1.00  0.00     0.000 C 
BRANCH  19  20
ATOM     20  C   UNL     1      20.583  13.947 -20.872  1.00  0.00     0.006 C 
BRANCH  20  21
ATOM     21  C   UNL     1      21.447  13.346 -19.748  1.00  0.00     0.053 C 
BRANCH  21  22
ATOM     22  C   UNL     1      22.665  14.169 -19.453  1.00  0.00     0.041 C 
ATOM     23  O   UNL     1      23.385  13.896 -18.457  1.00  0.00    -0.550 OA
ATOM     24  O   UNL     1      23.034  15.204 -20.306  1.00  0.00    -0.550 OA
ENDBRANCH  21  22
ENDBRANCH  20  21
ENDBRANCH  19  20
ENDBRANCH  18  19
ENDBRANCH  17  18
ENDBRANCH  16  17
ENDBRANCH  15  16
ENDBRANCH  14  15
ENDBRANCH  13  14
ENDBRANCH   1  13
TORSDOF 20
ENDMDL
MODEL 9
REMARK VINA RESULT:    -3.757      1.982      2.993
REMARK INTER + INTRA:         -11.269
REMARK INTER:                  -7.237
REMARK INTRA:                  -4.031
REMARK UNBOUND:                -3.120
REMARK SMILES CCCCCCCCCCCCCCCCCCCCCC(=O)[O-]
REMARK SMILES IDX 12 1 11 2 10 3 9 4 8 5 7 6 6 7 5 8 4 9 3 10 2 11 1 12 13 13
REMARK SMILES IDX 14 14 15 15 16 16 17 17 18 18 19 19 20 20 21 21 22 22 23 23
REMARK SMILES IDX 24 24
REMARK H PARENT
REMARK Flexibility Score: inf
ROOT
ATOM      1  C   UNL     1      21.904  12.496 -18.852  1.00  0.00     0.000 C 
ENDROOT
BRANCH   1   2
ATOM      2  C   UNL     1      22.265  13.444 -17.698  1.00  0.00     0.000 C 
BRANCH   2   3
ATOM      3  C   UNL     1      21.389  13.219 -16.455  1.00  0.00     0.000 C 
BRANCH   3   4
ATOM      4  C   UNL     1      20.709  14.514 -15.976  1.00  0.00    -0.000 C 
BRANCH   4   5
ATOM      5  C   UNL     1      21.492  15.782 -16.375  1.00  0.00    -0.000 C 
BRANCH   5   6
ATOM      6  C   UNL     1      20.630  16.855 -17.070  1.00  0.00    -0.000 C 
BRANCH   6   7
ATOM      7  C   UNL     1      19.747  16.345 -18.226  1.00  0.00    -0.000 C 
BRANCH   7   8
ATOM      8  C   UNL     1      20.267  16.684 -19.636  1.00  0.00    -0.000 C 
BRANCH   8   9
ATOM      9  C   UNL     1      21.775  16.991 -19.654  1.00  0.00    -0.000 C 
BRANCH   9  10
ATOM     10  C   UNL     1      22.495  16.331 -20.845  1.00  0.00    -0.000 C 
BRANCH  10  11
ATOM     11  C   UNL     1      23.772  15.565 -20.452  1.00  0.00    -0.003 C 
ATOM     12  C   UNL     1      24.379  16.055 -19.136  1.00  0.00     0.004 C 
ENDBRANCH  10  11
ENDBRANCH   9  10
ENDBRANCH   8   9
ENDBRANCH   7   8
ENDBRANCH   6   7
ENDBRANCH   5   6
ENDBRANCH   4   5
ENDBRANCH   3   4
ENDBRANCH   2   3
ENDBRANCH   1   2
BRANCH   1  13
ATOM     13  C   UNL     1      20.957  13.181 -19.845  1.00  0.00     0.000 C 
BRANCH  13  14
ATOM     14  C   UNL     1      19.615  12.439 -19.929  1.00  0.00     0.000 C 
BRANCH  14  15
ATOM     15  C   UNL     1      18.676  12.764 -18.753  1.00  0.00     0.000 C 
BRANCH  15  16
ATOM     16  C   UNL     1      17.833  11.577 -18.246  1.00  0.00     0.000 C 
BRANCH  16  17
ATOM     17  C   UNL     1      18.049  11.205 -16.765  1.00  0.00     0.000 C 
BRANCH  17  18
ATOM     18  C   UNL     1      19.370  10.453 -16.493  1.00  0.00     0.000 C 
BRANCH  18  19
ATOM     19  C   UNL     1      19.173   8.931 -16.368  1.00  0.00     0.000 C 
BRANCH  19  20
ATOM     20  C   UNL     1      20.122   8.124 -17.274  1.00  0.00     0.006 C 
BRANCH  20  21
ATOM     21  C   UNL     1      21.052   8.995 -18.139  1.00  0.00     0.053 C 
BRANCH  21  22
ATOM     22  C   UNL     1      20.664   8.991 -19.587  1.00  0.00     0.041 C 
ATOM     23  O   UNL     1      21.527   9.231 -20.472  1.00  0.00    -0.550 OA
ATOM     24  O   UNL     1      19.363   8.672 -19.963  1.00  0.00    -0.550 OA
ENDBRANCH  21  22
ENDBRANCH  20  21
ENDBRANCH  19  20
ENDBRANCH  18  19
ENDBRANCH  17  18
ENDBRANCH  16  17
ENDBRANCH  15  16
ENDBRANCH  14  15
ENDBRANCH  13  14
ENDBRANCH   1  13
TORSDOF 20
ENDMDL
