MODEL 1
REMARK VINA RESULT:    -2.650      0.000      0.000
REMARK INTER + INTRA:          -3.252
REMARK INTER:                  -3.115
REMARK INTRA:                  -0.137
REMARK UNBOUND:                -0.137
REMARK SMILES CCCCC(=O)[O-]
REMARK SMILES IDX 4 1 5 2 6 3 7 4 3 5 2 6 1 7
REMARK H PARENT
REMARK Flexibility Score: inf
ROOT
ATOM      1  C   UNL     1     -12.821  10.411   4.180  1.00  0.00     0.053 C 
ENDROOT
BRANCH   1   2
ATOM      2  C   UNL     1     -12.063  10.680   5.441  1.00  0.00     0.041 C 
ATOM      3  O   UNL     1     -12.076   9.840   6.380  1.00  0.00    -0.550 OA
ATOM      4  O   UNL     1     -11.380  11.879   5.602  1.00  0.00    -0.550 OA
ENDBRANCH   1   2
BRANCH   1   5
ATOM      5  C   UNL     1     -14.312  10.230   4.479  1.00  0.00     0.006 C 
BRANCH   5   6
ATOM      6  C   UNL     1     -14.915  11.515   5.059  1.00  0.00    -0.003 C 
ATOM      7  C   UNL     1     -15.644  11.238   6.371  1.00  0.00     0.004 C 
ENDBRANCH   5   6
ENDBRANCH   1   5
TORSDOF 3
ENDMDL
MODEL 2
REMARK VINA RESULT:    -2.600      1.960      2.824
REMARK INTER + INTRA:          -3.193
REMARK INTER:                  -3.092
REMARK INTRA:                  -0.102
REMARK UNBOUND:                -0.137
REMARK SMILES CCCCC(=O)[O-]
REMARK SMILES IDX 4 1 5 2 6 3 7 4 3 5 2 6 1 7
REMARK H PARENT
REMARK Flexibility Score: inf
ROOT
ATOM      1  C   UNL     1     -11.998  10.756   5.529  1.00  0.00     0.053 C 
ENDROOT
BRANCH   1   2
ATOM      2  C   UNL     1     -13.318  10.835   6.228  1.00  0.00     0.041 C 
ATOM      3  O   UNL     1     -13.620   9.986   7.109  1.00  0.00    -0.550 OA
ATOM      4  O   UNL     1     -14.235  11.815   5.874  1.00  0.00    -0.550 OA
ENDBRANCH   1   2
BRANCH   1   5
ATOM      5  C   UNL     1     -11.879   9.441   4.754  1.00  0.00     0.006 C 
BRANCH   5   6
ATOM      6  C   UNL     1     -12.376   9.607   3.313  1.00  0.00    -0.003 C 
ATOM      7  C   UNL     1     -13.699   8.875   3.098  1.00  0.00     0.004 C 
ENDBRANCH   5   6
ENDBRANCH   1   5
TORSDOF 3
ENDMDL
MODEL 3
REMARK VINA RESULT:    -2.593      2.382      3.656
REMARK INTER + INTRA:          -3.184
REMARK INTER:                  -3.077
REMARK INTRA:                  -0.107
REMARK UNBOUND:                -0.137
REMARK SMILES CCCCC(=O)[O-]
REMARK SMILES IDX 4 1 5 2 6 3 7 4 3 5 2 6 1 7
REMARK H PARENT
REMARK Flexibility Score: inf
ROOT
ATOM      1  C   UNL     1     -13.852  10.477   6.501  1.00  0.00     0.053 C 
ENDROOT
BRANCH   1   2
ATOM      2  C   UNL     1     -15.070  11.250   6.105  1.00  0.00     0.041 C 
ATOM      3  O   UNL     1     -15.075  11.921   5.039  1.00  0.00    -0.550 OA
ATOM      4  O   UNL     1     -16.183  11.269   6.935  1.00  0.00    -0.550 OA
ENDBRANCH   1   2
BRANCH   1   5
ATOM      5  C   UNL     1     -12.619  11.004   5.763  1.00  0.00     0.006 C 
BRANCH   5   6
ATOM      6  C   UNL     1     -11.907   9.876   5.008  1.00  0.00    -0.003 C 
ATOM      7  C   UNL     1     -12.464   9.721   3.595  1.00  0.00     0.004 C 
ENDBRANCH   5   6
ENDBRANCH   1   5
TORSDOF 3
ENDMDL
MODEL 4
REMARK VINA RESULT:    -2.548      2.718      3.118
REMARK INTER + INTRA:          -3.131
REMARK INTER:                  -3.036
REMARK INTRA:                  -0.095
REMARK UNBOUND:                -0.137
REMARK SMILES CCCCC(=O)[O-]
REMARK SMILES IDX 4 1 5 2 6 3 7 4 3 5 2 6 1 7
REMARK H PARENT
REMARK Flexibility Score: inf
ROOT
ATOM      1  C   UNL     1     -11.930   9.405   4.485  1.00  0.00     0.053 C 
ENDROOT
BRANCH   1   2
ATOM      2  C   UNL     1     -12.737   9.305   3.230  1.00  0.00     0.041 C 
ATOM      3  O   UNL     1     -12.172   9.383   2.106  1.00  0.00    -0.550 OA
ATOM      4  O   UNL     1     -14.118   9.174   3.297  1.00  0.00    -0.550 OA
ENDBRANCH   1   2
BRANCH   1   5
ATOM      5  C   UNL     1     -11.960  10.836   5.029  1.00  0.00     0.006 C 
BRANCH   5   6
ATOM      6  C   UNL     1     -13.038  10.991   6.108  1.00  0.00    -0.003 C 
ATOM      7  C   UNL     1     -13.063   9.783   7.041  1.00  0.00     0.004 C 
ENDBRANCH   5   6
ENDBRANCH   1   5
TORSDOF 3
ENDMDL
MODEL 5
REMARK VINA RESULT:    -2.539      1.500      2.241
REMARK INTER + INTRA:          -3.121
REMARK INTER:                  -3.016
REMARK INTRA:                  -0.105
REMARK UNBOUND:                -0.137
REMARK SMILES CCCCC(=O)[O-]
REMARK SMILES IDX 4 1 5 2 6 3 7 4 3 5 2 6 1 7
REMARK H PARENT
REMARK Flexibility Score: inf
ROOT
ATOM      1  C   UNL     1     -11.748   9.451   4.766  1.00  0.00     0.053 C 
ENDROOT
BRANCH   1   2
ATOM      2  C   UNL     1     -12.080  10.448   5.830  1.00  0.00     0.041 C 
ATOM      3  O   UNL     1     -11.712  11.647   5.711  1.00  0.00    -0.550 OA
ATOM      4  O   UNL     1     -12.755  10.047   6.975  1.00  0.00    -0.550 OA
ENDBRANCH   1   2
BRANCH   1   5
ATOM      5  C   UNL     1     -12.657   9.641   3.550  1.00  0.00     0.006 C 
BRANCH   5   6
ATOM      6  C   UNL     1     -13.993   8.915   3.744  1.00  0.00    -0.003 C 
ATOM      7  C   UNL     1     -15.146   9.907   3.870  1.00  0.00     0.004 C 
ENDBRANCH   5   6
ENDBRANCH   1   5
TORSDOF 3
ENDMDL
MODEL 6
REMARK VINA RESULT:    -2.537      2.092      3.332
REMARK INTER + INTRA:          -3.118
REMARK INTER:                  -2.994
REMARK INTRA:                  -0.124
REMARK UNBOUND:                -0.137
REMARK SMILES CCCCC(=O)[O-]
REMARK SMILES IDX 4 1 5 2 6 3 7 4 3 5 2 6 1 7
REMARK H PARENT
REMARK Flexibility Score: inf
ROOT
ATOM      1  C   UNL     1     -13.456  10.947   5.900  1.00  0.00     0.053 C 
ENDROOT
BRANCH   1   2
ATOM      2  C   UNL     1     -13.881   9.873   6.850  1.00  0.00     0.041 C 
ATOM      3  O   UNL     1     -13.279   9.722   7.947  1.00  0.00    -0.550 OA
ATOM      4  O   UNL     1     -14.910   9.006   6.507  1.00  0.00    -0.550 OA
ENDBRANCH   1   2
BRANCH   1   5
ATOM      5  C   UNL     1     -11.971  10.804   5.559  1.00  0.00     0.006 C 
BRANCH   5   6
ATOM      6  C   UNL     1     -11.718   9.538   4.731  1.00  0.00    -0.003 C 
ATOM      7  C   UNL     1     -12.488   9.578   3.414  1.00  0.00     0.004 C 
ENDBRANCH   5   6
ENDBRANCH   1   5
TORSDOF 3
ENDMDL
MODEL 7
REMARK VINA RESULT:    -2.480      2.497      3.386
REMARK INTER + INTRA:          -3.051
REMARK INTER:                  -2.966
REMARK INTRA:                  -0.085
REMARK UNBOUND:                -0.137
REMARK SMILES CCCCC(=O)[O-]
REMARK SMILES IDX 4 1 5 2 6 3 7 4 3 5 2 6 1 7
REMARK H PARENT
REMARK Flexibility Score: inf
ROOT
ATOM      1  C   UNL     1     -14.158   9.797   4.356  1.00  0.00     0.053 C 
ENDROOT
BRANCH   1   2
ATOM      2  C   UNL     1     -15.248  10.821   4.359  1.00  0.00     0.041 C 
ATOM      3  O   UNL     1     -16.243  10.690   3.597  1.00  0.00    -0.550 OA
ATOM      4  O   UNL     1     -15.145  11.946   5.168  1.00  0.00    -0.550 OA
ENDBRANCH   1   2
BRANCH   1   5
ATOM      5  C   UNL     1     -12.816  10.444   4.004  1.00  0.00     0.006 C 
BRANCH   5   6
ATOM      6  C   UNL     1     -11.942  10.610   5.252  1.00  0.00    -0.003 C 
ATOM      7  C   UNL     1     -12.261   9.541   6.295  1.00  0.00     0.004 C 
ENDBRANCH   5   6
ENDBRANCH   1   5
TORSDOF 3
ENDMDL
MODEL 8
REMARK VINA RESULT:    -2.464      1.598      1.849
REMARK INTER + INTRA:          -3.033
REMARK INTER:                  -2.922
REMARK INTRA:                  -0.111
REMARK UNBOUND:                -0.137
REMARK SMILES CCCCC(=O)[O-]
REMARK SMILES IDX 4 1 5 2 6 3 7 4 3 5 2 6 1 7
REMARK H PARENT
REMARK Flexibility Score: inf
ROOT
ATOM      1  C   UNL     1     -12.483  11.015   5.538  1.00  0.00     0.053 C 
ENDROOT
BRANCH   1   2
ATOM      2  C   UNL     1     -12.055   9.856   4.695  1.00  0.00     0.041 C 
ATOM      3  O   UNL     1     -11.461   8.876   5.219  1.00  0.00    -0.550 OA
ATOM      4  O   UNL     1     -12.268   9.876   3.323  1.00  0.00    -0.550 OA
ENDBRANCH   1   2
BRANCH   1   5
ATOM      5  C   UNL     1     -13.910  10.806   6.053  1.00  0.00     0.006 C 
BRANCH   5   6
ATOM      6  C   UNL     1     -14.915  11.622   5.232  1.00  0.00    -0.003 C 
ATOM      7  C   UNL     1     -15.681  10.733   4.256  1.00  0.00     0.004 C 
ENDBRANCH   5   6
ENDBRANCH   1   5
TORSDOF 3
ENDMDL
MODEL 9
REMARK VINA RESULT:    -2.448      2.497      2.998
REMARK INTER + INTRA:          -3.014
REMARK INTER:                  -2.992
REMARK INTRA:                  -0.022
REMARK UNBOUND:                -0.137
REMARK SMILES CCCCC(=O)[O-]
REMARK SMILES IDX 4 1 5 2 6 3 7 4 3 5 2 6 1 7
REMARK H PARENT
REMARK Flexibility Score: inf
ROOT
ATOM      1  C   UNL     1     -11.809  10.208   4.961  1.00  0.00     0.053 C 
ENDROOT
BRANCH   1   2
ATOM      2  C   UNL     1     -12.790   9.973   3.856  1.00  0.00     0.041 C 
ATOM      3  O   UNL     1     -14.002  10.281   4.010  1.00  0.00    -0.550 OA
ATOM      4  O   UNL     1     -12.378   9.371   2.675  1.00  0.00    -0.550 OA
ENDBRANCH   1   2
BRANCH   1   5
ATOM      5  C   UNL     1     -12.539  10.445   6.285  1.00  0.00     0.006 C 
BRANCH   5   6
ATOM      6  C   UNL     1     -12.817   9.119   7.003  1.00  0.00    -0.003 C 
ATOM      7  C   UNL     1     -13.515   9.352   8.341  1.00  0.00     0.004 C 
ENDBRANCH   5   6
ENDBRANCH   1   5
TORSDOF 3
ENDMDL
