MODEL 1
REMARK VINA RESULT:    -7.470      0.000      0.000
REMARK INTER + INTRA:          -7.826
REMARK INTER:                  -8.125
REMARK INTRA:                   0.299
REMARK UNBOUND:                 0.299
REMARK SMILES C[C@H]1[C@H](C)CC[C@@]2(C(=O)[O-])CC[C@@]3(C)C(=CC[C@@H]4[C@@]5(C)CC[C@@H](O)C(C)(C)[C@H]5CC[C@@]43C)[C@H]12
REMARK SMILES IDX 7 1 6 2 11 3 33 4 5 5 12 6 15 7 2 8 3 9 13 10 16 11 1 12
REMARK SMILES IDX 4 13 14 14 31 15 17 16 18 17 30 18 32 19 19 20 29 21 28 22
REMARK SMILES IDX 21 23 20 24 25 25 22 26 23 27 26 28 27 29 8 30 9 31 10 32
REMARK SMILES IDX 24 33
REMARK H PARENT 24 34
REMARK Flexibility Score: inf
ROOT
ATOM      1  C   UNL     1      55.713 -38.013 -23.128  1.00  0.00     0.017 C 
ATOM      2  C   UNL     1      55.869 -37.695 -21.618  1.00  0.00     0.014 C 
ATOM      3  C   UNL     1      56.162 -39.481 -23.459  1.00  0.00     0.014 C 
ATOM      4  C   UNL     1      54.191 -37.836 -23.446  1.00  0.00     0.030 C 
ATOM      5  C   UNL     1      55.419 -36.250 -21.310  1.00  0.00     0.004 C 
ATOM      6  C   UNL     1      55.001 -40.496 -23.557  1.00  0.00     0.013 C 
ATOM      7  C   UNL     1      53.864 -38.592 -24.732  1.00  0.00    -0.063 C 
ATOM      8  C   UNL     1      53.688 -36.379 -23.242  1.00  0.00    -0.003 C 
ATOM      9  C   UNL     1      53.963 -35.955 -21.757  1.00  0.00    -0.011 C 
ATOM     10  C   UNL     1      53.854 -40.126 -24.617  1.00  0.00    -0.006 C 
ATOM     11  C   UNL     1      53.993 -37.958 -25.898  1.00  0.00    -0.027 C 
ATOM     12  C   UNL     1      52.182 -36.278 -23.563  1.00  0.00     0.008 C 
ATOM     13  C   UNL     1      53.656 -34.467 -21.519  1.00  0.00     0.008 C 
ATOM     14  C   UNL     1      52.492 -40.498 -23.944  1.00  0.00     0.017 C 
ATOM     15  C   UNL     1      53.968 -40.899 -26.055  1.00  0.00    -0.020 C 
ATOM     16  C   UNL     1      54.364 -38.625 -27.171  1.00  0.00     0.032 C 
ATOM     17  C   UNL     1      54.897 -40.098 -27.053  1.00  0.00     0.006 C 
ATOM     18  C   UNL     1      52.591 -41.021 -26.783  1.00  0.00     0.008 C 
ATOM     19  C   UNL     1      54.463 -42.352 -25.766  1.00  0.00     0.012 C 
ATOM     20  C   UNL     1      55.081 -40.703 -28.538  1.00  0.00    -0.025 C 
ATOM     21  C   UNL     1      52.661 -41.638 -28.195  1.00  0.00     0.005 C 
ATOM     22  C   UNL     1      53.667 -40.993 -29.200  1.00  0.00     0.003 C 
ATOM     23  C   UNL     1      55.974 -41.988 -28.562  1.00  0.00     0.010 C 
ATOM     24  C   UNL     1      55.878 -39.629 -29.361  1.00  0.00     0.012 C 
ATOM     25  C   UNL     1      53.722 -41.797 -30.582  1.00  0.00    -0.006 C 
ATOM     26  C   UNL     1      56.067 -42.674 -29.936  1.00  0.00     0.033 C 
ATOM     27  C   UNL     1      54.682 -43.029 -30.502  1.00  0.00     0.120 C 
ATOM     28  C   UNL     1      52.308 -42.301 -31.003  1.00  0.00     0.014 C 
ATOM     29  C   UNL     1      54.162 -40.867 -31.753  1.00  0.00     0.014 C 
ENDROOT
BRANCH   1  30
ATOM     30  C   UNL     1      56.649 -37.086 -23.911  1.00  0.00     0.048 C 
ATOM     31  O   UNL     1      57.823 -37.465 -24.176  1.00  0.00    -0.550 OA
ATOM     32  O   UNL     1      56.224 -35.872 -24.430  1.00  0.00    -0.550 OA
ENDBRANCH   1  30
BRANCH  27  33
ATOM     33  O   UNL     1      54.115 -44.054 -29.724  1.00  0.00    -0.393 OA
ATOM     34  H   UNL     1      54.315 -43.846 -28.774  1.00  0.00     0.210 HD
ENDBRANCH  27  33
TORSDOF 2
ENDMDL
MODEL 2
REMARK VINA RESULT:    -7.334      2.358      7.931
REMARK INTER + INTRA:          -7.678
REMARK INTER:                  -7.964
REMARK INTRA:                   0.286
REMARK UNBOUND:                 0.299
REMARK SMILES C[C@H]1[C@H](C)CC[C@@]2(C(=O)[O-])CC[C@@]3(C)C(=CC[C@@H]4[C@@]5(C)CC[C@@H](O)C(C)(C)[C@H]5CC[C@@]43C)[C@H]12
REMARK SMILES IDX 7 1 6 2 11 3 33 4 5 5 12 6 15 7 2 8 3 9 13 10 16 11 1 12
REMARK SMILES IDX 4 13 14 14 31 15 17 16 18 17 30 18 32 19 19 20 29 21 28 22
REMARK SMILES IDX 21 23 20 24 25 25 22 26 23 27 26 28 27 29 8 30 9 31 10 32
REMARK SMILES IDX 24 33
REMARK H PARENT 24 34
REMARK Flexibility Score: inf
ROOT
ATOM      1  C   UNL     1      55.338 -41.273 -26.195  1.00  0.00     0.017 C 
ATOM      2  C   UNL     1      55.822 -42.733 -26.392  1.00  0.00     0.014 C 
ATOM      3  C   UNL     1      54.945 -40.991 -24.701  1.00  0.00     0.014 C 
ATOM      4  C   UNL     1      56.542 -40.364 -26.612  1.00  0.00     0.030 C 
ATOM      5  C   UNL     1      56.209 -42.992 -27.865  1.00  0.00     0.004 C 
ATOM      6  C   UNL     1      56.047 -40.291 -23.873  1.00  0.00     0.013 C 
ATOM      7  C   UNL     1      56.352 -38.981 -25.992  1.00  0.00    -0.063 C 
ATOM      8  C   UNL     1      56.928 -40.508 -28.111  1.00  0.00    -0.003 C 
ATOM      9  C   UNL     1      57.284 -42.008 -28.396  1.00  0.00    -0.011 C 
ATOM     10  C   UNL     1      56.572 -38.897 -24.472  1.00  0.00    -0.006 C 
ATOM     11  C   UNL     1      55.663 -38.064 -26.673  1.00  0.00    -0.027 C 
ATOM     12  C   UNL     1      58.125 -39.594 -28.450  1.00  0.00     0.008 C 
ATOM     13  C   UNL     1      57.508 -42.270 -29.896  1.00  0.00     0.008 C 
ATOM     14  C   UNL     1      58.122 -38.880 -24.261  1.00  0.00     0.017 C 
ATOM     15  C   UNL     1      55.924 -37.562 -23.783  1.00  0.00    -0.020 C 
ATOM     16  C   UNL     1      54.847 -36.999 -26.039  1.00  0.00     0.032 C 
ATOM     17  C   UNL     1      54.575 -37.155 -24.500  1.00  0.00     0.006 C 
ATOM     18  C   UNL     1      56.851 -36.310 -23.908  1.00  0.00     0.008 C 
ATOM     19  C   UNL     1      55.759 -37.858 -22.257  1.00  0.00     0.012 C 
ATOM     20  C   UNL     1      53.827 -35.827 -23.969  1.00  0.00    -0.025 C 
ATOM     21  C   UNL     1      56.238 -34.999 -23.377  1.00  0.00     0.005 C 
ATOM     22  C   UNL     1      54.833 -34.599 -23.930  1.00  0.00     0.003 C 
ATOM     23  C   UNL     1      53.152 -36.031 -22.572  1.00  0.00     0.010 C 
ATOM     24  C   UNL     1      52.643 -35.553 -24.964  1.00  0.00     0.012 C 
ATOM     25  C   UNL     1      54.266 -33.285 -23.215  1.00  0.00    -0.006 C 
ATOM     26  C   UNL     1      52.542 -34.754 -21.966  1.00  0.00     0.033 C 
ATOM     27  C   UNL     1      53.571 -33.617 -21.853  1.00  0.00     0.120 C 
ATOM     28  C   UNL     1      55.399 -32.249 -22.949  1.00  0.00     0.014 C 
ATOM     29  C   UNL     1      53.266 -32.531 -24.142  1.00  0.00     0.014 C 
ENDROOT
BRANCH   1  30
ATOM     30  C   UNL     1      54.063 -41.078 -27.023  1.00  0.00     0.048 C 
ATOM     31  O   UNL     1      52.948 -41.416 -26.540  1.00  0.00    -0.550 OA
ATOM     32  O   UNL     1      54.073 -40.446 -28.258  1.00  0.00    -0.550 OA
ENDBRANCH   1  30
BRANCH  27  33
ATOM     33  O   UNL     1      54.524 -33.954 -20.875  1.00  0.00    -0.393 OA
ATOM     34  H   UNL     1      55.175 -34.570 -21.300  1.00  0.00     0.210 HD
ENDBRANCH  27  33
TORSDOF 2
ENDMDL
MODEL 3
REMARK VINA RESULT:    -7.125      3.427      7.664
REMARK INTER + INTRA:          -7.450
REMARK INTER:                  -7.745
REMARK INTRA:                   0.295
REMARK UNBOUND:                 0.299
REMARK SMILES C[C@H]1[C@H](C)CC[C@@]2(C(=O)[O-])CC[C@@]3(C)C(=CC[C@@H]4[C@@]5(C)CC[C@@H](O)C(C)(C)[C@H]5CC[C@@]43C)[C@H]12
REMARK SMILES IDX 7 1 6 2 11 3 33 4 5 5 12 6 15 7 2 8 3 9 13 10 16 11 1 12
REMARK SMILES IDX 4 13 14 14 31 15 17 16 18 17 30 18 32 19 19 20 29 21 28 22
REMARK SMILES IDX 21 23 20 24 25 25 22 26 23 27 26 28 27 29 8 30 9 31 10 32
REMARK SMILES IDX 24 33
REMARK H PARENT 24 34
REMARK Flexibility Score: inf
ROOT
ATOM      1  C   UNL     1      54.130 -40.686 -28.604  1.00  0.00     0.017 C 
ATOM      2  C   UNL     1      54.710 -40.553 -30.036  1.00  0.00     0.014 C 
ATOM      3  C   UNL     1      52.603 -40.320 -28.562  1.00  0.00     0.014 C 
ATOM      4  C   UNL     1      54.332 -42.184 -28.199  1.00  0.00     0.030 C 
ATOM      5  C   UNL     1      56.209 -40.921 -30.060  1.00  0.00     0.004 C 
ATOM      6  C   UNL     1      51.654 -41.539 -28.603  1.00  0.00     0.013 C 
ATOM      7  C   UNL     1      53.372 -42.520 -27.059  1.00  0.00    -0.063 C 
ATOM      8  C   UNL     1      55.827 -42.600 -28.116  1.00  0.00    -0.003 C 
ATOM      9  C   UNL     1      56.499 -42.342 -29.510  1.00  0.00    -0.011 C 
ATOM     10  C   UNL     1      51.888 -42.629 -27.450  1.00  0.00    -0.006 C 
ATOM     11  C   UNL     1      53.775 -42.318 -25.804  1.00  0.00    -0.027 C 
ATOM     12  C   UNL     1      55.952 -44.088 -27.723  1.00  0.00     0.008 C 
ATOM     13  C   UNL     1      58.021 -42.563 -29.463  1.00  0.00     0.008 C 
ATOM     14  C   UNL     1      51.723 -44.031 -28.124  1.00  0.00     0.017 C 
ATOM     15  C   UNL     1      50.861 -42.523 -26.181  1.00  0.00    -0.020 C 
ATOM     16  C   UNL     1      52.866 -41.954 -24.688  1.00  0.00     0.032 C 
ATOM     17  C   UNL     1      51.412 -41.517 -25.091  1.00  0.00     0.006 C 
ATOM     18  C   UNL     1      50.685 -43.884 -25.433  1.00  0.00     0.008 C 
ATOM     19  C   UNL     1      49.459 -42.128 -26.747  1.00  0.00     0.012 C 
ATOM     20  C   UNL     1      50.536 -41.329 -23.749  1.00  0.00    -0.025 C 
ATOM     21  C   UNL     1      49.818 -43.812 -24.160  1.00  0.00     0.005 C 
ATOM     22  C   UNL     1      50.210 -42.740 -23.095  1.00  0.00     0.003 C 
ATOM     23  C   UNL     1      49.220 -40.518 -23.993  1.00  0.00     0.010 C 
ATOM     24  C   UNL     1      51.395 -40.443 -22.777  1.00  0.00     0.012 C 
ATOM     25  C   UNL     1      49.165 -42.695 -21.884  1.00  0.00    -0.006 C 
ATOM     26  C   UNL     1      48.290 -40.429 -22.770  1.00  0.00     0.033 C 
ATOM     27  C   UNL     1      47.916 -41.817 -22.223  1.00  0.00     0.120 C 
ATOM     28  C   UNL     1      48.673 -44.125 -21.506  1.00  0.00     0.014 C 
ATOM     29  C   UNL     1      49.839 -42.165 -20.583  1.00  0.00     0.014 C 
ENDROOT
BRANCH   1  30
ATOM     30  C   UNL     1      54.844 -39.671 -27.704  1.00  0.00     0.048 C 
ATOM     31  O   UNL     1      54.367 -38.512 -27.571  1.00  0.00    -0.550 OA
ATOM     32  O   UNL     1      55.954 -40.010 -26.944  1.00  0.00    -0.550 OA
ENDBRANCH   1  30
BRANCH  27  33
ATOM     33  O   UNL     1      47.085 -42.468 -23.151  1.00  0.00    -0.393 OA
ATOM     34  H   UNL     1      47.505 -43.344 -23.358  1.00  0.00     0.210 HD
ENDBRANCH  27  33
TORSDOF 2
ENDMDL
MODEL 4
REMARK VINA RESULT:    -7.113      2.455      8.021
REMARK INTER + INTRA:          -7.438
REMARK INTER:                  -7.723
REMARK INTRA:                   0.286
REMARK UNBOUND:                 0.299
REMARK SMILES C[C@H]1[C@H](C)CC[C@@]2(C(=O)[O-])CC[C@@]3(C)C(=CC[C@@H]4[C@@]5(C)CC[C@@H](O)C(C)(C)[C@H]5CC[C@@]43C)[C@H]12
REMARK SMILES IDX 7 1 6 2 11 3 33 4 5 5 12 6 15 7 2 8 3 9 13 10 16 11 1 12
REMARK SMILES IDX 4 13 14 14 31 15 17 16 18 17 30 18 32 19 19 20 29 21 28 22
REMARK SMILES IDX 21 23 20 24 25 25 22 26 23 27 26 28 27 29 8 30 9 31 10 32
REMARK SMILES IDX 24 33
REMARK H PARENT 24 34
REMARK Flexibility Score: inf
ROOT
ATOM      1  C   UNL     1      55.265 -40.438 -26.341  1.00  0.00     0.017 C 
ATOM      2  C   UNL     1      56.174 -41.475 -27.052  1.00  0.00     0.014 C 
ATOM      3  C   UNL     1      55.067 -40.788 -24.823  1.00  0.00     0.014 C 
ATOM      4  C   UNL     1      55.998 -39.062 -26.481  1.00  0.00     0.030 C 
ATOM      5  C   UNL     1      56.363 -41.113 -28.541  1.00  0.00     0.004 C 
ATOM      6  C   UNL     1      55.991 -40.007 -23.862  1.00  0.00     0.013 C 
ATOM      7  C   UNL     1      55.461 -38.108 -25.415  1.00  0.00    -0.063 C 
ATOM      8  C   UNL     1      56.143 -38.592 -27.956  1.00  0.00    -0.003 C 
ATOM      9  C   UNL     1      56.932 -39.686 -28.756  1.00  0.00    -0.011 C 
ATOM     10  C   UNL     1      55.900 -38.409 -23.972  1.00  0.00    -0.006 C 
ATOM     11  C   UNL     1      54.394 -37.362 -25.705  1.00  0.00    -0.027 C 
ATOM     12  C   UNL     1      56.880 -37.238 -28.020  1.00  0.00     0.008 C 
ATOM     13  C   UNL     1      56.967 -39.380 -30.264  1.00  0.00     0.008 C 
ATOM     14  C   UNL     1      57.364 -37.871 -23.847  1.00  0.00     0.017 C 
ATOM     15  C   UNL     1      54.968 -37.691 -22.835  1.00  0.00    -0.020 C 
ATOM     16  C   UNL     1      53.389 -36.927 -24.703  1.00  0.00     0.032 C 
ATOM     17  C   UNL     1      53.457 -37.628 -23.299  1.00  0.00     0.006 C 
ATOM     18  C   UNL     1      55.378 -36.207 -22.569  1.00  0.00     0.008 C 
ATOM     19  C   UNL     1      55.181 -38.470 -21.497  1.00  0.00     0.012 C 
ATOM     20  C   UNL     1      52.408 -36.908 -22.308  1.00  0.00    -0.025 C 
ATOM     21  C   UNL     1      54.459 -35.449 -21.590  1.00  0.00     0.005 C 
ATOM     22  C   UNL     1      52.929 -35.464 -21.901  1.00  0.00     0.003 C 
ATOM     23  C   UNL     1      52.096 -37.761 -21.033  1.00  0.00     0.010 C 
ATOM     24  C   UNL     1      51.048 -36.816 -23.088  1.00  0.00     0.012 C 
ATOM     25  C   UNL     1      52.083 -34.742 -20.750  1.00  0.00    -0.006 C 
ATOM     26  C   UNL     1      51.204 -37.055 -19.996  1.00  0.00     0.033 C 
ATOM     27  C   UNL     1      51.789 -35.704 -19.552  1.00  0.00     0.120 C 
ATOM     28  C   UNL     1      52.825 -33.486 -20.202  1.00  0.00     0.014 C 
ATOM     29  C   UNL     1      50.741 -34.181 -21.311  1.00  0.00     0.014 C 
ENDROOT
BRANCH   1  30
ATOM     30  C   UNL     1      53.877 -40.500 -26.986  1.00  0.00     0.048 C 
ATOM     31  O   UNL     1      53.056 -41.383 -26.615  1.00  0.00    -0.550 OA
ATOM     32  O   UNL     1      53.445 -39.553 -27.903  1.00  0.00    -0.550 OA
ENDBRANCH   1  30
BRANCH  27  33
ATOM     33  O   UNL     1      52.954 -35.933 -18.798  1.00  0.00    -0.393 OA
ATOM     34  H   UNL     1      53.607 -36.383 -19.395  1.00  0.00     0.210 HD
ENDBRANCH  27  33
TORSDOF 2
ENDMDL
MODEL 5
REMARK VINA RESULT:    -7.031      2.077      3.165
REMARK INTER + INTRA:          -7.348
REMARK INTER:                  -7.633
REMARK INTRA:                   0.285
REMARK UNBOUND:                 0.299
REMARK SMILES C[C@H]1[C@H](C)CC[C@@]2(C(=O)[O-])CC[C@@]3(C)C(=CC[C@@H]4[C@@]5(C)CC[C@@H](O)C(C)(C)[C@H]5CC[C@@]43C)[C@H]12
REMARK SMILES IDX 7 1 6 2 11 3 33 4 5 5 12 6 15 7 2 8 3 9 13 10 16 11 1 12
REMARK SMILES IDX 4 13 14 14 31 15 17 16 18 17 30 18 32 19 19 20 29 21 28 22
REMARK SMILES IDX 21 23 20 24 25 25 22 26 23 27 26 28 27 29 8 30 9 31 10 32
REMARK SMILES IDX 24 33
REMARK H PARENT 24 34
REMARK Flexibility Score: inf
ROOT
ATOM      1  C   UNL     1      57.196 -35.506 -24.955  1.00  0.00     0.017 C 
ATOM      2  C   UNL     1      58.113 -34.485 -24.232  1.00  0.00     0.014 C 
ATOM      3  C   UNL     1      57.911 -36.891 -25.148  1.00  0.00     0.014 C 
ATOM      4  C   UNL     1      55.940 -35.676 -24.037  1.00  0.00     0.030 C 
ATOM      5  C   UNL     1      57.394 -33.132 -24.047  1.00  0.00     0.004 C 
ATOM      6  C   UNL     1      57.542 -37.952 -24.086  1.00  0.00     0.013 C 
ATOM      7  C   UNL     1      55.245 -36.989 -24.391  1.00  0.00    -0.063 C 
ATOM      8  C   UNL     1      55.116 -34.367 -23.878  1.00  0.00    -0.003 C 
ATOM      9  C   UNL     1      56.048 -33.255 -23.286  1.00  0.00    -0.011 C 
ATOM     10  C   UNL     1      55.976 -38.269 -23.949  1.00  0.00    -0.006 C 
ATOM     11  C   UNL     1      54.316 -36.983 -25.348  1.00  0.00    -0.027 C 
ATOM     12  C   UNL     1      53.901 -34.604 -22.955  1.00  0.00     0.008 C 
ATOM     13  C   UNL     1      55.357 -31.880 -23.261  1.00  0.00     0.008 C 
ATOM     14  C   UNL     1      55.686 -38.422 -22.419  1.00  0.00     0.017 C 
ATOM     15  C   UNL     1      55.474 -39.619 -24.726  1.00  0.00    -0.020 C 
ATOM     16  C   UNL     1      54.038 -38.134 -26.243  1.00  0.00     0.032 C 
ATOM     17  C   UNL     1      55.093 -39.298 -26.227  1.00  0.00     0.006 C 
ATOM     18  C   UNL     1      54.181 -40.230 -24.095  1.00  0.00     0.008 C 
ATOM     19  C   UNL     1      56.604 -40.688 -24.580  1.00  0.00     0.012 C 
ATOM     20  C   UNL     1      54.534 -40.517 -27.124  1.00  0.00    -0.025 C 
ATOM     21  C   UNL     1      53.600 -41.437 -24.859  1.00  0.00     0.005 C 
ATOM     22  C   UNL     1      53.332 -41.246 -26.385  1.00  0.00     0.003 C 
ATOM     23  C   UNL     1      55.649 -41.545 -27.510  1.00  0.00     0.010 C 
ATOM     24  C   UNL     1      54.061 -39.889 -28.484  1.00  0.00     0.012 C 
ATOM     25  C   UNL     1      52.842 -42.604 -27.076  1.00  0.00    -0.006 C 
ATOM     26  C   UNL     1      55.137 -42.792 -28.253  1.00  0.00     0.033 C 
ATOM     27  C   UNL     1      54.042 -43.528 -27.462  1.00  0.00     0.120 C 
ATOM     28  C   UNL     1      51.885 -43.403 -26.140  1.00  0.00     0.014 C 
ATOM     29  C   UNL     1      51.981 -42.308 -28.342  1.00  0.00     0.014 C 
ENDROOT
BRANCH   1  30
ATOM     30  C   UNL     1      56.902 -34.970 -26.361  1.00  0.00     0.048 C 
ATOM     31  O   UNL     1      57.719 -35.192 -27.296  1.00  0.00    -0.550 OA
ATOM     32  O   UNL     1      55.712 -34.328 -26.673  1.00  0.00    -0.550 OA
ENDBRANCH   1  30
BRANCH  27  33
ATOM     33  O   UNL     1      54.614 -44.109 -26.316  1.00  0.00    -0.393 OA
ATOM     34  H   UNL     1      55.600 -44.070 -26.428  1.00  0.00     0.210 HD
ENDBRANCH  27  33
TORSDOF 2
ENDMDL
MODEL 6
REMARK VINA RESULT:    -6.695      3.042      7.802
REMARK INTER + INTRA:          -6.983
REMARK INTER:                  -7.278
REMARK INTRA:                   0.295
REMARK UNBOUND:                 0.299
REMARK SMILES C[C@H]1[C@H](C)CC[C@@]2(C(=O)[O-])CC[C@@]3(C)C(=CC[C@@H]4[C@@]5(C)CC[C@@H](O)C(C)(C)[C@H]5CC[C@@]43C)[C@H]12
REMARK SMILES IDX 7 1 6 2 11 3 33 4 5 5 12 6 15 7 2 8 3 9 13 10 16 11 1 12
REMARK SMILES IDX 4 13 14 14 31 15 17 16 18 17 30 18 32 19 19 20 29 21 28 22
REMARK SMILES IDX 21 23 20 24 25 25 22 26 23 27 26 28 27 29 8 30 9 31 10 32
REMARK SMILES IDX 24 33
REMARK H PARENT 24 34
REMARK Flexibility Score: inf
ROOT
ATOM      1  C   UNL     1      55.775 -40.554 -24.661  1.00  0.00     0.017 C 
ATOM      2  C   UNL     1      56.303 -42.012 -24.630  1.00  0.00     0.014 C 
ATOM      3  C   UNL     1      56.658 -39.600 -23.781  1.00  0.00     0.014 C 
ATOM      4  C   UNL     1      55.839 -40.110 -26.160  1.00  0.00     0.030 C 
ATOM      5  C   UNL     1      55.426 -42.935 -25.504  1.00  0.00     0.004 C 
ATOM      6  C   UNL     1      57.707 -38.789 -24.574  1.00  0.00     0.013 C 
ATOM      7  C   UNL     1      55.826 -38.583 -26.222  1.00  0.00    -0.063 C 
ATOM      8  C   UNL     1      54.909 -40.942 -27.087  1.00  0.00    -0.003 C 
ATOM      9  C   UNL     1      55.309 -42.454 -26.974  1.00  0.00    -0.011 C 
ATOM     10  C   UNL     1      57.120 -37.888 -25.765  1.00  0.00    -0.006 C 
ATOM     11  C   UNL     1      54.650 -37.956 -26.278  1.00  0.00    -0.027 C 
ATOM     12  C   UNL     1      55.029 -40.458 -28.548  1.00  0.00     0.008 C 
ATOM     13  C   UNL     1      54.324 -43.367 -27.725  1.00  0.00     0.008 C 
ATOM     14  C   UNL     1      58.124 -38.020 -26.958  1.00  0.00     0.017 C 
ATOM     15  C   UNL     1      56.926 -36.305 -25.401  1.00  0.00    -0.020 C 
ATOM     16  C   UNL     1      54.400 -36.610 -25.704  1.00  0.00     0.032 C 
ATOM     17  C   UNL     1      55.510 -36.044 -24.748  1.00  0.00     0.006 C 
ATOM     18  C   UNL     1      56.971 -35.387 -26.665  1.00  0.00     0.008 C 
ATOM     19  C   UNL     1      58.124 -35.886 -24.490  1.00  0.00     0.012 C 
ATOM     20  C   UNL     1      55.140 -34.520 -24.368  1.00  0.00    -0.025 C 
ATOM     21  C   UNL     1      56.679 -33.898 -26.392  1.00  0.00     0.005 C 
ATOM     22  C   UNL     1      55.364 -33.565 -25.617  1.00  0.00     0.003 C 
ATOM     23  C   UNL     1      55.933 -33.996 -23.125  1.00  0.00     0.010 C 
ATOM     24  C   UNL     1      53.633 -34.524 -23.926  1.00  0.00     0.012 C 
ATOM     25  C   UNL     1      55.241 -32.002 -25.301  1.00  0.00    -0.006 C 
ATOM     26  C   UNL     1      55.711 -32.507 -22.808  1.00  0.00     0.033 C 
ATOM     27  C   UNL     1      56.032 -31.604 -24.011  1.00  0.00     0.120 C 
ATOM     28  C   UNL     1      55.768 -31.139 -26.487  1.00  0.00     0.014 C 
ATOM     29  C   UNL     1      53.749 -31.577 -25.150  1.00  0.00     0.014 C 
ENDROOT
BRANCH   1  30
ATOM     30  C   UNL     1      54.373 -40.542 -24.042  1.00  0.00     0.048 C 
ATOM     31  O   UNL     1      54.242 -40.379 -22.799  1.00  0.00    -0.550 OA
ATOM     32  O   UNL     1      53.222 -40.605 -24.816  1.00  0.00    -0.550 OA
ENDBRANCH   1  30
BRANCH  27  33
ATOM     33  O   UNL     1      57.418 -31.629 -24.248  1.00  0.00    -0.393 OA
ATOM     34  H   UNL     1      57.865 -31.364 -23.402  1.00  0.00     0.210 HD
ENDBRANCH  27  33
TORSDOF 2
ENDMDL
MODEL 7
REMARK VINA RESULT:    -6.686      3.713      7.761
REMARK INTER + INTRA:          -6.973
REMARK INTER:                  -7.256
REMARK INTRA:                   0.284
REMARK UNBOUND:                 0.299
REMARK SMILES C[C@H]1[C@H](C)CC[C@@]2(C(=O)[O-])CC[C@@]3(C)C(=CC[C@@H]4[C@@]5(C)CC[C@@H](O)C(C)(C)[C@H]5CC[C@@]43C)[C@H]12
REMARK SMILES IDX 7 1 6 2 11 3 33 4 5 5 12 6 15 7 2 8 3 9 13 10 16 11 1 12
REMARK SMILES IDX 4 13 14 14 31 15 17 16 18 17 30 18 32 19 19 20 29 21 28 22
REMARK SMILES IDX 21 23 20 24 25 25 22 26 23 27 26 28 27 29 8 30 9 31 10 32
REMARK SMILES IDX 24 33
REMARK H PARENT 24 34
REMARK Flexibility Score: inf
ROOT
ATOM      1  C   UNL     1      56.181 -38.359 -24.215  1.00  0.00     0.017 C 
ATOM      2  C   UNL     1      57.692 -38.320 -24.562  1.00  0.00     0.014 C 
ATOM      3  C   UNL     1      55.935 -38.891 -22.758  1.00  0.00     0.014 C 
ATOM      4  C   UNL     1      55.677 -36.883 -24.337  1.00  0.00     0.030 C 
ATOM      5  C   UNL     1      57.916 -37.790 -25.995  1.00  0.00     0.004 C 
ATOM      6  C   UNL     1      55.716 -37.784 -21.703  1.00  0.00     0.013 C 
ATOM      7  C   UNL     1      54.375 -36.740 -23.550  1.00  0.00    -0.063 C 
ATOM      8  C   UNL     1      55.790 -36.313 -25.779  1.00  0.00    -0.003 C 
ATOM      9  C   UNL     1      57.289 -36.391 -26.234  1.00  0.00    -0.011 C 
ATOM     10  C   UNL     1      54.518 -36.764 -22.019  1.00  0.00    -0.006 C 
ATOM     11  C   UNL     1      53.222 -36.990 -24.171  1.00  0.00    -0.027 C 
ATOM     12  C   UNL     1      55.287 -34.854 -25.824  1.00  0.00     0.008 C 
ATOM     13  C   UNL     1      57.460 -36.010 -27.715  1.00  0.00     0.008 C 
ATOM     14  C   UNL     1      55.027 -35.342 -21.611  1.00  0.00     0.017 C 
ATOM     15  C   UNL     1      53.120 -37.077 -21.229  1.00  0.00    -0.020 C 
ATOM     16  C   UNL     1      52.017 -37.534 -23.497  1.00  0.00     0.032 C 
ATOM     17  C   UNL     1      52.227 -38.096 -22.045  1.00  0.00     0.006 C 
ATOM     18  C   UNL     1      52.232 -35.804 -21.049  1.00  0.00     0.008 C 
ATOM     19  C   UNL     1      53.494 -37.579 -19.797  1.00  0.00     0.012 C 
ATOM     20  C   UNL     1      50.787 -38.478 -21.424  1.00  0.00    -0.025 C 
ATOM     21  C   UNL     1      50.851 -36.065 -20.414  1.00  0.00     0.005 C 
ATOM     22  C   UNL     1      49.964 -37.165 -21.077  1.00  0.00     0.003 C 
ATOM     23  C   UNL     1      50.897 -39.408 -20.170  1.00  0.00     0.010 C 
ATOM     24  C   UNL     1      50.046 -39.336 -22.512  1.00  0.00     0.012 C 
ATOM     25  C   UNL     1      48.614 -37.414 -20.255  1.00  0.00    -0.006 C 
ATOM     26  C   UNL     1      49.557 -39.690 -19.466  1.00  0.00     0.033 C 
ATOM     27  C   UNL     1      48.834 -38.396 -19.057  1.00  0.00     0.120 C 
ATOM     28  C   UNL     1      48.034 -36.079 -19.697  1.00  0.00     0.014 C 
ATOM     29  C   UNL     1      47.488 -37.964 -21.181  1.00  0.00     0.014 C 
ENDROOT
BRANCH   1  30
ATOM     30  C   UNL     1      55.500 -39.355 -25.162  1.00  0.00     0.048 C 
ATOM     31  O   UNL     1      55.486 -40.581 -24.870  1.00  0.00    -0.550 OA
ATOM     32  O   UNL     1      54.807 -38.945 -26.291  1.00  0.00    -0.550 OA
ENDBRANCH   1  30
BRANCH  27  33
ATOM     33  O   UNL     1      49.557 -37.771 -18.025  1.00  0.00    -0.393 OA
ATOM     34  H   UNL     1      48.899 -37.310 -17.442  1.00  0.00     0.210 HD
ENDBRANCH  27  33
TORSDOF 2
ENDMDL
MODEL 8
REMARK VINA RESULT:    -6.673      2.533      7.558
REMARK INTER + INTRA:          -6.959
REMARK INTER:                  -7.294
REMARK INTRA:                   0.335
REMARK UNBOUND:                 0.299
REMARK SMILES C[C@H]1[C@H](C)CC[C@@]2(C(=O)[O-])CC[C@@]3(C)C(=CC[C@@H]4[C@@]5(C)CC[C@@H](O)C(C)(C)[C@H]5CC[C@@]43C)[C@H]12
REMARK SMILES IDX 7 1 6 2 11 3 33 4 5 5 12 6 15 7 2 8 3 9 13 10 16 11 1 12
REMARK SMILES IDX 4 13 14 14 31 15 17 16 18 17 30 18 32 19 19 20 29 21 28 22
REMARK SMILES IDX 21 23 20 24 25 25 22 26 23 27 26 28 27 29 8 30 9 31 10 32
REMARK SMILES IDX 24 33
REMARK H PARENT 24 34
REMARK Flexibility Score: inf
ROOT
ATOM      1  C   UNL     1      54.164 -42.126 -26.450  1.00  0.00     0.017 C 
ATOM      2  C   UNL     1      54.282 -43.650 -26.711  1.00  0.00     0.014 C 
ATOM      3  C   UNL     1      55.244 -41.630 -25.423  1.00  0.00     0.014 C 
ATOM      4  C   UNL     1      54.389 -41.437 -27.837  1.00  0.00     0.030 C 
ATOM      5  C   UNL     1      53.216 -44.119 -27.726  1.00  0.00     0.004 C 
ATOM      6  C   UNL     1      56.495 -40.994 -26.071  1.00  0.00     0.013 C 
ATOM      7  C   UNL     1      54.787 -39.980 -27.604  1.00  0.00    -0.063 C 
ATOM      8  C   UNL     1      53.297 -41.796 -28.884  1.00  0.00    -0.003 C 
ATOM      9  C   UNL     1      53.275 -43.352 -29.073  1.00  0.00    -0.011 C 
ATOM     10  C   UNL     1      56.205 -39.758 -27.052  1.00  0.00    -0.006 C 
ATOM     11  C   UNL     1      53.824 -39.062 -27.510  1.00  0.00    -0.027 C 
ATOM     12  C   UNL     1      53.585 -41.092 -30.227  1.00  0.00     0.008 C 
ATOM     13  C   UNL     1      52.105 -43.806 -29.962  1.00  0.00     0.008 C 
ATOM     14  C   UNL     1      57.172 -39.923 -28.271  1.00  0.00     0.017 C 
ATOM     15  C   UNL     1      56.432 -38.281 -26.387  1.00  0.00    -0.020 C 
ATOM     16  C   UNL     1      53.926 -37.833 -26.683  1.00  0.00     0.032 C 
ATOM     17  C   UNL     1      55.119 -37.780 -25.662  1.00  0.00     0.006 C 
ATOM     18  C   UNL     1      56.758 -37.185 -27.452  1.00  0.00     0.008 C 
ATOM     19  C   UNL     1      57.671 -38.381 -25.440  1.00  0.00     0.012 C 
ATOM     20  C   UNL     1      55.159 -36.314 -24.988  1.00  0.00    -0.025 C 
ATOM     21  C   UNL     1      56.867 -35.752 -26.890  1.00  0.00     0.005 C 
ATOM     22  C   UNL     1      55.667 -35.234 -26.036  1.00  0.00     0.003 C 
ATOM     23  C   UNL     1      56.027 -36.271 -23.687  1.00  0.00     0.010 C 
ATOM     24  C   UNL     1      53.694 -35.998 -24.520  1.00  0.00     0.012 C 
ATOM     25  C   UNL     1      55.958 -33.786 -25.422  1.00  0.00    -0.006 C 
ATOM     26  C   UNL     1      56.202 -34.865 -23.084  1.00  0.00     0.033 C 
ATOM     27  C   UNL     1      56.788 -33.869 -24.099  1.00  0.00     0.120 C 
ATOM     28  C   UNL     1      56.731 -32.885 -26.432  1.00  0.00     0.014 C 
ATOM     29  C   UNL     1      54.630 -33.013 -25.158  1.00  0.00     0.014 C 
ENDROOT
BRANCH   1  30
ATOM     30  C   UNL     1      52.799 -41.856 -25.807  1.00  0.00     0.048 C 
ATOM     31  O   UNL     1      52.709 -41.756 -24.553  1.00  0.00    -0.550 OA
ATOM     32  O   UNL     1      51.660 -41.619 -26.563  1.00  0.00    -0.550 OA
ENDBRANCH   1  30
BRANCH  27  33
ATOM     33  O   UNL     1      58.124 -34.218 -24.368  1.00  0.00    -0.393 OA
ATOM     34  H   UNL     1      58.627 -34.133 -23.517  1.00  0.00     0.210 HD
ENDBRANCH  27  33
TORSDOF 2
ENDMDL
MODEL 9
REMARK VINA RESULT:    -6.459      4.726      8.223
REMARK INTER + INTRA:          -6.726
REMARK INTER:                  -7.022
REMARK INTRA:                   0.296
REMARK UNBOUND:                 0.299
REMARK SMILES C[C@H]1[C@H](C)CC[C@@]2(C(=O)[O-])CC[C@@]3(C)C(=CC[C@@H]4[C@@]5(C)CC[C@@H](O)C(C)(C)[C@H]5CC[C@@]43C)[C@H]12
REMARK SMILES IDX 7 1 6 2 11 3 33 4 5 5 12 6 15 7 2 8 3 9 13 10 16 11 1 12
REMARK SMILES IDX 4 13 14 14 31 15 17 16 18 17 30 18 32 19 19 20 29 21 28 22
REMARK SMILES IDX 21 23 20 24 25 25 22 26 23 27 26 28 27 29 8 30 9 31 10 32
REMARK SMILES IDX 24 33
REMARK H PARENT 24 34
REMARK Flexibility Score: inf
ROOT
ATOM      1  C   UNL     1      56.498 -37.472 -24.239  1.00  0.00     0.017 C 
ATOM      2  C   UNL     1      57.174 -38.814 -23.858  1.00  0.00     0.014 C 
ATOM      3  C   UNL     1      57.529 -36.287 -24.253  1.00  0.00     0.014 C 
ATOM      4  C   UNL     1      55.908 -37.684 -25.674  1.00  0.00     0.030 C 
ATOM      5  C   UNL     1      56.148 -39.968 -23.854  1.00  0.00     0.004 C 
ATOM      6  C   UNL     1      58.069 -35.928 -25.656  1.00  0.00     0.013 C 
ATOM      7  C   UNL     1      55.680 -36.318 -26.319  1.00  0.00    -0.063 C 
ATOM      8  C   UNL     1      54.801 -38.773 -25.726  1.00  0.00    -0.003 C 
ATOM      9  C   UNL     1      55.400 -40.125 -25.204  1.00  0.00    -0.011 C 
ATOM     10  C   UNL     1      56.950 -35.564 -26.748  1.00  0.00    -0.006 C 
ATOM     11  C   UNL     1      54.509 -35.709 -26.128  1.00  0.00    -0.027 C 
ATOM     12  C   UNL     1      54.272 -38.937 -27.167  1.00  0.00     0.008 C 
ATOM     13  C   UNL     1      54.322 -41.213 -25.058  1.00  0.00     0.008 C 
ATOM     14  C   UNL     1      57.409 -36.224 -28.090  1.00  0.00     0.017 C 
ATOM     15  C   UNL     1      56.719 -33.963 -26.991  1.00  0.00    -0.020 C 
ATOM     16  C   UNL     1      54.338 -34.235 -26.082  1.00  0.00     0.032 C 
ATOM     17  C   UNL     1      55.655 -33.385 -25.974  1.00  0.00     0.006 C 
ATOM     18  C   UNL     1      56.145 -33.647 -28.410  1.00  0.00     0.008 C 
ATOM     19  C   UNL     1      58.116 -33.270 -26.899  1.00  0.00     0.012 C 
ATOM     20  C   UNL     1      55.276 -31.822 -26.108  1.00  0.00    -0.025 C 
ATOM     21  C   UNL     1      55.799 -32.163 -28.650  1.00  0.00     0.005 C 
ATOM     22  C   UNL     1      54.866 -31.476 -27.603  1.00  0.00     0.003 C 
ATOM     23  C   UNL     1      56.423 -30.877 -25.618  1.00  0.00     0.010 C 
ATOM     24  C   UNL     1      54.079 -31.567 -25.123  1.00  0.00     0.012 C 
ATOM     25  C   UNL     1      54.683 -29.916 -27.906  1.00  0.00    -0.006 C 
ATOM     26  C   UNL     1      56.158 -29.379 -25.851  1.00  0.00     0.033 C 
ATOM     27  C   UNL     1      55.862 -29.066 -27.327  1.00  0.00     0.120 C 
ATOM     28  C   UNL     1      54.585 -29.642 -29.438  1.00  0.00     0.014 C 
ATOM     29  C   UNL     1      53.331 -29.390 -27.336  1.00  0.00     0.014 C 
ENDROOT
BRANCH   1  30
ATOM     30  C   UNL     1      55.465 -37.134 -23.159  1.00  0.00     0.048 C 
ATOM     31  O   UNL     1      55.818 -36.477 -22.142  1.00  0.00    -0.550 OA
ATOM     32  O   UNL     1      54.119 -37.442 -23.300  1.00  0.00    -0.550 OA
ENDBRANCH   1  30
BRANCH  27  33
ATOM     33  O   UNL     1      57.033 -29.257 -28.082  1.00  0.00    -0.393 OA
ATOM     34  H   UNL     1      56.838 -29.962 -28.754  1.00  0.00     0.210 HD
ENDBRANCH  27  33
TORSDOF 2
ENDMDL
