MODEL 1
REMARK VINA RESULT:    -5.528      0.000      0.000
REMARK INTER + INTRA:         -12.285
REMARK INTER:                 -10.376
REMARK INTRA:                  -1.908
REMARK UNBOUND:                -1.908
REMARK SMILES CCCCCCCCC=CCCCCCCCC(=O)[O-]
REMARK SMILES IDX 10 1 9 2 11 3 12 4 13 5 14 6 15 7 16 8 17 9 18 10 19 11
REMARK SMILES IDX 20 12 8 13 7 14 6 15 5 16 4 17 3 18 2 19 1 20
REMARK H PARENT
REMARK Flexibility Score: inf
ROOT
ATOM      1  C   UNL     1      24.488  33.818   5.679  1.00  0.00    -0.031 C 
ATOM      2  C   UNL     1      24.853  32.662   6.264  1.00  0.00    -0.031 C 
ENDROOT
BRANCH   1   3
ATOM      3  C   UNL     1      25.350  34.603   4.719  1.00  0.00     0.027 C 
BRANCH   3   4
ATOM      4  C   UNL     1      25.747  35.972   5.291  1.00  0.00     0.004 C 
BRANCH   4   5
ATOM      5  C   UNL     1      27.125  35.936   5.974  1.00  0.00     0.000 C 
BRANCH   5   6
ATOM      6  C   UNL     1      27.155  36.728   7.290  1.00  0.00     0.000 C 
BRANCH   6   7
ATOM      7  C   UNL     1      28.202  36.194   8.279  1.00  0.00     0.000 C 
BRANCH   7   8
ATOM      8  C   UNL     1      29.443  35.676   7.538  1.00  0.00     0.006 C 
BRANCH   8   9
ATOM      9  C   UNL     1      30.404  36.808   7.151  1.00  0.00     0.053 C 
BRANCH   9  10
ATOM     10  C   UNL     1      31.095  36.528   5.852  1.00  0.00     0.041 C 
ATOM     11  O   UNL     1      30.532  36.808   4.760  1.00  0.00    -0.550 OA
ATOM     12  O   UNL     1      32.348  35.928   5.846  1.00  0.00    -0.550 OA
ENDBRANCH   9  10
ENDBRANCH   8   9
ENDBRANCH   7   8
ENDBRANCH   6   7
ENDBRANCH   5   6
ENDBRANCH   4   5
ENDBRANCH   3   4
ENDBRANCH   1   3
BRANCH   2  13
ATOM     13  C   UNL     1      26.212  32.024   6.126  1.00  0.00     0.027 C 
BRANCH  13  14
ATOM     14  C   UNL     1      27.061  32.283   7.376  1.00  0.00     0.004 C 
BRANCH  14  15
ATOM     15  C   UNL     1      26.869  31.170   8.411  1.00  0.00     0.000 C 
BRANCH  15  16
ATOM     16  C   UNL     1      27.843  31.337   9.588  1.00  0.00     0.000 C 
BRANCH  16  17
ATOM     17  C   UNL     1      28.405  32.765   9.701  1.00  0.00    -0.000 C 
BRANCH  17  18
ATOM     18  C   UNL     1      29.225  33.046  10.976  1.00  0.00    -0.000 C 
BRANCH  18  19
ATOM     19  C   UNL     1      28.449  33.746  12.106  1.00  0.00    -0.003 C 
ATOM     20  C   UNL     1      28.150  35.213  11.802  1.00  0.00     0.004 C 
ENDBRANCH  18  19
ENDBRANCH  17  18
ENDBRANCH  16  17
ENDBRANCH  15  16
ENDBRANCH  14  15
ENDBRANCH  13  14
ENDBRANCH   2  13
TORSDOF 15
ENDMDL
MODEL 2
REMARK VINA RESULT:    -5.215      2.419      4.955
REMARK INTER + INTRA:         -11.696
REMARK INTER:                  -9.954
REMARK INTRA:                  -1.742
REMARK UNBOUND:                -1.908
REMARK SMILES CCCCCCCCC=CCCCCCCCC(=O)[O-]
REMARK SMILES IDX 10 1 9 2 11 3 12 4 13 5 14 6 15 7 16 8 17 9 18 10 19 11
REMARK SMILES IDX 20 12 8 13 7 14 6 15 5 16 4 17 3 18 2 19 1 20
REMARK H PARENT
REMARK Flexibility Score: inf
ROOT
ATOM      1  C   UNL     1      26.248  34.016   5.947  1.00  0.00    -0.031 C 
ATOM      2  C   UNL     1      25.231  34.391   5.150  1.00  0.00    -0.031 C 
ENDROOT
BRANCH   1   3
ATOM      3  C   UNL     1      27.451  34.874   6.262  1.00  0.00     0.027 C 
BRANCH   3   4
ATOM      4  C   UNL     1      28.020  34.575   7.656  1.00  0.00     0.004 C 
BRANCH   4   5
ATOM      5  C   UNL     1      28.140  35.845   8.516  1.00  0.00     0.000 C 
BRANCH   5   6
ATOM      6  C   UNL     1      27.512  37.077   7.844  1.00  0.00     0.000 C 
BRANCH   6   7
ATOM      7  C   UNL     1      28.561  38.106   7.395  1.00  0.00     0.000 C 
BRANCH   7   8
ATOM      8  C   UNL     1      29.980  37.629   7.741  1.00  0.00     0.006 C 
BRANCH   8   9
ATOM      9  C   UNL     1      30.986  37.941   6.625  1.00  0.00     0.053 C 
BRANCH   9  10
ATOM     10  C   UNL     1      31.075  36.823   5.632  1.00  0.00     0.041 C 
ATOM     11  O   UNL     1      30.137  36.623   4.816  1.00  0.00    -0.550 OA
ATOM     12  O   UNL     1      32.181  35.982   5.629  1.00  0.00    -0.550 OA
ENDBRANCH   9  10
ENDBRANCH   8   9
ENDBRANCH   7   8
ENDBRANCH   6   7
ENDBRANCH   5   6
ENDBRANCH   4   5
ENDBRANCH   3   4
ENDBRANCH   1   3
BRANCH   2  13
ATOM     13  C   UNL     1      25.180  35.683   4.375  1.00  0.00     0.027 C 
BRANCH  13  14
ATOM     14  C   UNL     1      23.849  36.405   4.611  1.00  0.00     0.004 C 
BRANCH  14  15
ATOM     15  C   UNL     1      22.694  35.404   4.725  1.00  0.00     0.000 C 
BRANCH  15  16
ATOM     16  C   UNL     1      21.596  35.933   5.661  1.00  0.00     0.000 C 
BRANCH  16  17
ATOM     17  C   UNL     1      22.126  36.299   7.058  1.00  0.00    -0.000 C 
BRANCH  17  18
ATOM     18  C   UNL     1      21.558  37.604   7.653  1.00  0.00    -0.000 C 
BRANCH  18  19
ATOM     19  C   UNL     1      22.616  38.622   8.114  1.00  0.00    -0.003 C 
ATOM     20  C   UNL     1      24.012  38.316   7.571  1.00  0.00     0.004 C 
ENDBRANCH  18  19
ENDBRANCH  17  18
ENDBRANCH  16  17
ENDBRANCH  15  16
ENDBRANCH  14  15
ENDBRANCH  13  14
ENDBRANCH   2  13
TORSDOF 15
ENDMDL
MODEL 3
REMARK VINA RESULT:    -5.157      3.953      6.356
REMARK INTER + INTRA:         -11.588
REMARK INTER:                  -9.606
REMARK INTRA:                  -1.982
REMARK UNBOUND:                -1.908
REMARK SMILES CCCCCCCCC=CCCCCCCCC(=O)[O-]
REMARK SMILES IDX 10 1 9 2 11 3 12 4 13 5 14 6 15 7 16 8 17 9 18 10 19 11
REMARK SMILES IDX 20 12 8 13 7 14 6 15 5 16 4 17 3 18 2 19 1 20
REMARK H PARENT
REMARK Flexibility Score: inf
ROOT
ATOM      1  C   UNL     1      26.672  33.330   6.629  1.00  0.00    -0.031 C 
ATOM      2  C   UNL     1      27.484  34.398   6.738  1.00  0.00    -0.031 C 
ENDROOT
BRANCH   1   3
ATOM      3  C   UNL     1      25.605  33.168   5.573  1.00  0.00     0.027 C 
BRANCH   3   4
ATOM      4  C   UNL     1      24.205  33.024   6.187  1.00  0.00     0.004 C 
BRANCH   4   5
ATOM      5  C   UNL     1      23.274  34.180   5.783  1.00  0.00     0.000 C 
BRANCH   5   6
ATOM      6  C   UNL     1      23.835  35.013   4.619  1.00  0.00     0.000 C 
BRANCH   6   7
ATOM      7  C   UNL     1      23.356  36.472   4.652  1.00  0.00     0.000 C 
BRANCH   7   8
ATOM      8  C   UNL     1      23.368  37.022   6.086  1.00  0.00     0.006 C 
BRANCH   8   9
ATOM      9  C   UNL     1      22.106  37.832   6.409  1.00  0.00     0.053 C 
BRANCH   9  10
ATOM     10  C   UNL     1      22.237  38.568   7.708  1.00  0.00     0.041 C 
ATOM     11  O   UNL     1      21.821  38.048   8.777  1.00  0.00    -0.550 OA
ATOM     12  O   UNL     1      22.791  39.841   7.732  1.00  0.00    -0.550 OA
ENDBRANCH   9  10
ENDBRANCH   8   9
ENDBRANCH   7   8
ENDBRANCH   6   7
ENDBRANCH   5   6
ENDBRANCH   4   5
ENDBRANCH   3   4
ENDBRANCH   1   3
BRANCH   2  13
ATOM     13  C   UNL     1      27.390  35.636   5.883  1.00  0.00     0.027 C 
BRANCH  13  14
ATOM     14  C   UNL     1      26.695  36.769   6.646  1.00  0.00     0.004 C 
BRANCH  14  15
ATOM     15  C   UNL     1      27.578  37.285   7.788  1.00  0.00     0.000 C 
BRANCH  15  16
ATOM     16  C   UNL     1      28.811  38.020   7.243  1.00  0.00     0.000 C 
BRANCH  16  17
ATOM     17  C   UNL     1      30.134  37.459   7.794  1.00  0.00    -0.000 C 
BRANCH  17  18
ATOM     18  C   UNL     1      30.685  36.227   7.046  1.00  0.00    -0.000 C 
BRANCH  18  19
ATOM     19  C   UNL     1      31.674  36.544   5.912  1.00  0.00    -0.003 C 
ATOM     20  C   UNL     1      30.982  36.797   4.573  1.00  0.00     0.004 C 
ENDBRANCH  18  19
ENDBRANCH  17  18
ENDBRANCH  16  17
ENDBRANCH  15  16
ENDBRANCH  14  15
ENDBRANCH  13  14
ENDBRANCH   2  13
TORSDOF 15
ENDMDL
MODEL 4
REMARK VINA RESULT:    -5.147      4.091      7.082
REMARK INTER + INTRA:         -11.568
REMARK INTER:                  -9.972
REMARK INTRA:                  -1.596
REMARK UNBOUND:                -1.908
REMARK SMILES CCCCCCCCC=CCCCCCCCC(=O)[O-]
REMARK SMILES IDX 10 1 9 2 11 3 12 4 13 5 14 6 15 7 16 8 17 9 18 10 19 11
REMARK SMILES IDX 20 12 8 13 7 14 6 15 5 16 4 17 3 18 2 19 1 20
REMARK H PARENT
REMARK Flexibility Score: inf
ROOT
ATOM      1  C   UNL     1      26.025  33.475   5.920  1.00  0.00    -0.031 C 
ATOM      2  C   UNL     1      26.215  34.725   5.458  1.00  0.00    -0.031 C 
ENDROOT
BRANCH   1   3
ATOM      3  C   UNL     1      26.956  32.761   6.871  1.00  0.00     0.027 C 
BRANCH   3   4
ATOM      4  C   UNL     1      26.917  31.238   6.678  1.00  0.00     0.004 C 
BRANCH   4   5
ATOM      5  C   UNL     1      25.725  30.795   5.811  1.00  0.00     0.000 C 
BRANCH   5   6
ATOM      6  C   UNL     1      24.707  29.948   6.591  1.00  0.00     0.000 C 
BRANCH   6   7
ATOM      7  C   UNL     1      24.627  30.336   8.075  1.00  0.00     0.000 C 
BRANCH   7   8
ATOM      8  C   UNL     1      23.618  31.474   8.291  1.00  0.00     0.006 C 
BRANCH   8   9
ATOM      9  C   UNL     1      22.926  31.386   9.658  1.00  0.00     0.053 C 
BRANCH   9  10
ATOM     10  C   UNL     1      21.691  32.232   9.709  1.00  0.00     0.041 C 
ATOM     11  O   UNL     1      20.713  31.885  10.422  1.00  0.00    -0.550 OA
ATOM     12  O   UNL     1      21.608  33.388   8.943  1.00  0.00    -0.550 OA
ENDBRANCH   9  10
ENDBRANCH   8   9
ENDBRANCH   7   8
ENDBRANCH   6   7
ENDBRANCH   5   6
ENDBRANCH   4   5
ENDBRANCH   3   4
ENDBRANCH   1   3
BRANCH   2  13
ATOM     13  C   UNL     1      27.433  35.567   5.743  1.00  0.00     0.027 C 
BRANCH  13  14
ATOM     14  C   UNL     1      27.138  36.591   6.844  1.00  0.00     0.004 C 
BRANCH  14  15
ATOM     15  C   UNL     1      27.817  36.195   8.160  1.00  0.00     0.000 C 
BRANCH  15  16
ATOM     16  C   UNL     1      29.315  36.535   8.131  1.00  0.00     0.000 C 
BRANCH  16  17
ATOM     17  C   UNL     1      29.601  37.929   7.546  1.00  0.00    -0.000 C 
BRANCH  17  18
ATOM     18  C   UNL     1      30.801  37.999   6.579  1.00  0.00    -0.000 C 
BRANCH  18  19
ATOM     19  C   UNL     1      30.922  36.812   5.607  1.00  0.00    -0.003 C 
ATOM     20  C   UNL     1      32.183  35.981   5.837  1.00  0.00     0.004 C 
ENDBRANCH  18  19
ENDBRANCH  17  18
ENDBRANCH  16  17
ENDBRANCH  15  16
ENDBRANCH  14  15
ENDBRANCH  13  14
ENDBRANCH   2  13
TORSDOF 15
ENDMDL
MODEL 5
REMARK VINA RESULT:    -5.141      2.368      5.479
REMARK INTER + INTRA:         -11.558
REMARK INTER:                 -10.057
REMARK INTRA:                  -1.502
REMARK UNBOUND:                -1.908
REMARK SMILES CCCCCCCCC=CCCCCCCCC(=O)[O-]
REMARK SMILES IDX 10 1 9 2 11 3 12 4 13 5 14 6 15 7 16 8 17 9 18 10 19 11
REMARK SMILES IDX 20 12 8 13 7 14 6 15 5 16 4 17 3 18 2 19 1 20
REMARK H PARENT
REMARK Flexibility Score: inf
ROOT
ATOM      1  C   UNL     1      24.730  33.746   5.495  1.00  0.00    -0.031 C 
ATOM      2  C   UNL     1      25.926  34.362   5.460  1.00  0.00    -0.031 C 
ENDROOT
BRANCH   1   3
ATOM      3  C   UNL     1      24.258  32.852   6.617  1.00  0.00     0.027 C 
BRANCH   3   4
ATOM      4  C   UNL     1      24.977  31.494   6.610  1.00  0.00     0.004 C 
BRANCH   4   5
ATOM      5  C   UNL     1      25.528  31.124   7.998  1.00  0.00     0.000 C 
BRANCH   5   6
ATOM      6  C   UNL     1      27.045  30.875   7.987  1.00  0.00     0.000 C 
BRANCH   6   7
ATOM      7  C   UNL     1      27.683  31.045   9.374  1.00  0.00     0.000 C 
BRANCH   7   8
ATOM      8  C   UNL     1      28.264  32.457   9.541  1.00  0.00     0.006 C 
BRANCH   8   9
ATOM      9  C   UNL     1      28.661  32.755  10.993  1.00  0.00     0.053 C 
BRANCH   9  10
ATOM     10  C   UNL     1      28.623  34.223  11.287  1.00  0.00     0.041 C 
ATOM     11  O   UNL     1      28.287  34.633  12.430  1.00  0.00    -0.550 OA
ATOM     12  O   UNL     1      28.928  35.141  10.289  1.00  0.00    -0.550 OA
ENDBRANCH   9  10
ENDBRANCH   8   9
ENDBRANCH   7   8
ENDBRANCH   6   7
ENDBRANCH   5   6
ENDBRANCH   4   5
ENDBRANCH   3   4
ENDBRANCH   1   3
BRANCH   2  13
ATOM     13  C   UNL     1      27.015  34.178   6.487  1.00  0.00     0.027 C 
BRANCH  13  14
ATOM     14  C   UNL     1      27.955  35.388   6.502  1.00  0.00     0.004 C 
BRANCH  14  15
ATOM     15  C   UNL     1      27.183  36.680   6.789  1.00  0.00     0.000 C 
BRANCH  15  16
ATOM     16  C   UNL     1      28.128  37.791   7.271  1.00  0.00     0.000 C 
BRANCH  16  17
ATOM     17  C   UNL     1      29.513  37.262   7.682  1.00  0.00    -0.000 C 
BRANCH  17  18
ATOM     18  C   UNL     1      30.710  37.976   7.021  1.00  0.00    -0.000 C 
BRANCH  18  19
ATOM     19  C   UNL     1      31.573  37.088   6.109  1.00  0.00    -0.003 C 
ATOM     20  C   UNL     1      30.916  36.808   4.757  1.00  0.00     0.004 C 
ENDBRANCH  18  19
ENDBRANCH  17  18
ENDBRANCH  16  17
ENDBRANCH  15  16
ENDBRANCH  14  15
ENDBRANCH  13  14
ENDBRANCH   2  13
TORSDOF 15
ENDMDL
MODEL 6
REMARK VINA RESULT:    -5.139      4.321      7.531
REMARK INTER + INTRA:         -11.554
REMARK INTER:                 -10.120
REMARK INTRA:                  -1.433
REMARK UNBOUND:                -1.908
REMARK SMILES CCCCCCCCC=CCCCCCCCC(=O)[O-]
REMARK SMILES IDX 10 1 9 2 11 3 12 4 13 5 14 6 15 7 16 8 17 9 18 10 19 11
REMARK SMILES IDX 20 12 8 13 7 14 6 15 5 16 4 17 3 18 2 19 1 20
REMARK H PARENT
REMARK Flexibility Score: inf
ROOT
ATOM      1  C   UNL     1      28.408  34.452   9.209  1.00  0.00    -0.031 C 
ATOM      2  C   UNL     1      28.696  34.518   7.896  1.00  0.00    -0.031 C 
ENDROOT
BRANCH   1   3
ATOM      3  C   UNL     1      28.528  35.608  10.173  1.00  0.00     0.027 C 
BRANCH   3   4
ATOM      4  C   UNL     1      28.368  35.159  11.633  1.00  0.00     0.004 C 
BRANCH   4   5
ATOM      5  C   UNL     1      28.869  33.721  11.854  1.00  0.00     0.000 C 
BRANCH   5   6
ATOM      6  C   UNL     1      28.833  33.302  13.332  1.00  0.00     0.000 C 
BRANCH   6   7
ATOM      7  C   UNL     1      29.876  32.226  13.669  1.00  0.00     0.000 C 
BRANCH   7   8
ATOM      8  C   UNL     1      30.730  32.647  14.874  1.00  0.00     0.006 C 
BRANCH   8   9
ATOM      9  C   UNL     1      29.890  32.834  16.144  1.00  0.00     0.053 C 
BRANCH   9  10
ATOM     10  C   UNL     1      30.530  33.803  17.093  1.00  0.00     0.041 C 
ATOM     11  O   UNL     1      31.188  34.782  16.651  1.00  0.00    -0.550 OA
ATOM     12  O   UNL     1      30.426  33.605  18.464  1.00  0.00    -0.550 OA
ENDBRANCH   9  10
ENDBRANCH   8   9
ENDBRANCH   7   8
ENDBRANCH   6   7
ENDBRANCH   5   6
ENDBRANCH   4   5
ENDBRANCH   3   4
ENDBRANCH   1   3
BRANCH   2  13
ATOM     13  C   UNL     1      29.271  35.729   7.205  1.00  0.00     0.027 C 
BRANCH  13  14
ATOM     14  C   UNL     1      28.476  36.056   5.936  1.00  0.00     0.004 C 
BRANCH  14  15
ATOM     15  C   UNL     1      26.968  36.027   6.209  1.00  0.00     0.000 C 
BRANCH  15  16
ATOM     16  C   UNL     1      26.216  35.321   5.071  1.00  0.00     0.000 C 
BRANCH  16  17
ATOM     17  C   UNL     1      25.378  34.127   5.559  1.00  0.00    -0.000 C 
BRANCH  17  18
ATOM     18  C   UNL     1      26.167  32.819   5.779  1.00  0.00    -0.000 C 
BRANCH  18  19
ATOM     19  C   UNL     1      25.836  32.073   7.083  1.00  0.00    -0.003 C 
ATOM     20  C   UNL     1      26.958  31.141   7.537  1.00  0.00     0.004 C 
ENDBRANCH  18  19
ENDBRANCH  17  18
ENDBRANCH  16  17
ENDBRANCH  15  16
ENDBRANCH  14  15
ENDBRANCH  13  14
ENDBRANCH   2  13
TORSDOF 15
ENDMDL
MODEL 7
REMARK VINA RESULT:    -5.102      3.581      5.616
REMARK INTER + INTRA:         -11.484
REMARK INTER:                 -10.430
REMARK INTRA:                  -1.054
REMARK UNBOUND:                -1.908
REMARK SMILES CCCCCCCCC=CCCCCCCCC(=O)[O-]
REMARK SMILES IDX 10 1 9 2 11 3 12 4 13 5 14 6 15 7 16 8 17 9 18 10 19 11
REMARK SMILES IDX 20 12 8 13 7 14 6 15 5 16 4 17 3 18 2 19 1 20
REMARK H PARENT
REMARK Flexibility Score: inf
ROOT
ATOM      1  C   UNL     1      28.553  34.797   8.501  1.00  0.00    -0.031 C 
ATOM      2  C   UNL     1      28.580  34.227   9.720  1.00  0.00    -0.031 C 
ENDROOT
BRANCH   1   3
ATOM      3  C   UNL     1      28.728  36.274   8.242  1.00  0.00     0.027 C 
BRANCH   3   4
ATOM      4  C   UNL     1      27.867  36.757   7.066  1.00  0.00     0.004 C 
BRANCH   4   5
ATOM      5  C   UNL     1      27.568  35.627   6.065  1.00  0.00     0.000 C 
BRANCH   5   6
ATOM      6  C   UNL     1      26.170  35.746   5.437  1.00  0.00     0.000 C 
BRANCH   6   7
ATOM      7  C   UNL     1      25.562  34.381   5.082  1.00  0.00     0.000 C 
BRANCH   7   8
ATOM      8  C   UNL     1      26.303  33.246   5.805  1.00  0.00     0.006 C 
BRANCH   8   9
ATOM      9  C   UNL     1      25.352  32.349   6.608  1.00  0.00     0.053 C 
BRANCH   9  10
ATOM     10  C   UNL     1      25.520  30.904   6.250  1.00  0.00     0.041 C 
ATOM     11  O   UNL     1      25.035  30.007   6.989  1.00  0.00    -0.550 OA
ATOM     12  O   UNL     1      26.241  30.547   5.118  1.00  0.00    -0.550 OA
ENDBRANCH   9  10
ENDBRANCH   8   9
ENDBRANCH   7   8
ENDBRANCH   6   7
ENDBRANCH   5   6
ENDBRANCH   4   5
ENDBRANCH   3   4
ENDBRANCH   1   3
BRANCH   2  13
ATOM     13  C   UNL     1      28.694  34.984  11.018  1.00  0.00     0.027 C 
BRANCH  13  14
ATOM     14  C   UNL     1      28.278  34.101  12.199  1.00  0.00     0.004 C 
BRANCH  14  15
ATOM     15  C   UNL     1      29.202  32.885  12.328  1.00  0.00     0.000 C 
BRANCH  15  16
ATOM     16  C   UNL     1      29.334  32.446  13.795  1.00  0.00     0.000 C 
BRANCH  16  17
ATOM     17  C   UNL     1      30.706  32.789  14.400  1.00  0.00    -0.000 C 
BRANCH  17  18
ATOM     18  C   UNL     1      30.796  32.656  15.935  1.00  0.00    -0.000 C 
BRANCH  18  19
ATOM     19  C   UNL     1      30.686  33.980  16.709  1.00  0.00    -0.003 C 
ATOM     20  C   UNL     1      30.386  33.778  18.194  1.00  0.00     0.004 C 
ENDBRANCH  18  19
ENDBRANCH  17  18
ENDBRANCH  16  17
ENDBRANCH  15  16
ENDBRANCH  14  15
ENDBRANCH  13  14
ENDBRANCH   2  13
TORSDOF 15
ENDMDL
MODEL 8
REMARK VINA RESULT:    -5.035      3.084      5.753
REMARK INTER + INTRA:         -11.359
REMARK INTER:                  -9.591
REMARK INTRA:                  -1.768
REMARK UNBOUND:                -1.908
REMARK SMILES CCCCCCCCC=CCCCCCCCC(=O)[O-]
REMARK SMILES IDX 10 1 9 2 11 3 12 4 13 5 14 6 15 7 16 8 17 9 18 10 19 11
REMARK SMILES IDX 20 12 8 13 7 14 6 15 5 16 4 17 3 18 2 19 1 20
REMARK H PARENT
REMARK Flexibility Score: inf
ROOT
ATOM      1  C   UNL     1      27.279  31.417   8.947  1.00  0.00    -0.031 C 
ATOM      2  C   UNL     1      28.127  31.602   9.975  1.00  0.00    -0.031 C 
ENDROOT
BRANCH   1   3
ATOM      3  C   UNL     1      27.207  32.302   7.725  1.00  0.00     0.027 C 
BRANCH   3   4
ATOM      4  C   UNL     1      25.881  32.131   6.969  1.00  0.00     0.004 C 
BRANCH   4   5
ATOM      5  C   UNL     1      25.768  33.094   5.774  1.00  0.00     0.000 C 
BRANCH   5   6
ATOM      6  C   UNL     1      26.662  34.335   5.927  1.00  0.00     0.000 C 
BRANCH   6   7
ATOM      7  C   UNL     1      26.226  35.495   5.019  1.00  0.00     0.000 C 
BRANCH   7   8
ATOM      8  C   UNL     1      24.962  36.175   5.566  1.00  0.00     0.006 C 
BRANCH   8   9
ATOM      9  C   UNL     1      23.936  36.469   4.463  1.00  0.00     0.053 C 
BRANCH   9  10
ATOM     10  C   UNL     1      22.662  35.709   4.676  1.00  0.00     0.041 C 
ATOM     11  O   UNL     1      22.558  34.520   4.275  1.00  0.00    -0.550 OA
ATOM     12  O   UNL     1      21.578  36.326   5.287  1.00  0.00    -0.550 OA
ENDBRANCH   9  10
ENDBRANCH   8   9
ENDBRANCH   7   8
ENDBRANCH   6   7
ENDBRANCH   5   6
ENDBRANCH   4   5
ENDBRANCH   3   4
ENDBRANCH   1   3
BRANCH   2  13
ATOM     13  C   UNL     1      29.069  32.772  10.109  1.00  0.00     0.027 C 
BRANCH  13  14
ATOM     14  C   UNL     1      28.539  33.778  11.137  1.00  0.00     0.004 C 
BRANCH  14  15
ATOM     15  C   UNL     1      28.598  35.207  10.588  1.00  0.00     0.000 C 
BRANCH  15  16
ATOM     16  C   UNL     1      28.499  35.214   9.055  1.00  0.00     0.000 C 
BRANCH  16  17
ATOM     17  C   UNL     1      27.868  36.503   8.502  1.00  0.00    -0.000 C 
BRANCH  17  18
ATOM     18  C   UNL     1      28.865  37.510   7.891  1.00  0.00    -0.000 C 
BRANCH  18  19
ATOM     19  C   UNL     1      29.535  37.049   6.585  1.00  0.00    -0.003 C 
ATOM     20  C   UNL     1      31.019  37.409   6.518  1.00  0.00     0.004 C 
ENDBRANCH  18  19
ENDBRANCH  17  18
ENDBRANCH  16  17
ENDBRANCH  15  16
ENDBRANCH  14  15
ENDBRANCH  13  14
ENDBRANCH   2  13
TORSDOF 15
ENDMDL
MODEL 9
REMARK VINA RESULT:    -5.032      4.392      6.629
REMARK INTER + INTRA:         -11.352
REMARK INTER:                 -10.049
REMARK INTRA:                  -1.303
REMARK UNBOUND:                -1.908
REMARK SMILES CCCCCCCCC=CCCCCCCCC(=O)[O-]
REMARK SMILES IDX 10 1 9 2 11 3 12 4 13 5 14 6 15 7 16 8 17 9 18 10 19 11
REMARK SMILES IDX 20 12 8 13 7 14 6 15 5 16 4 17 3 18 2 19 1 20
REMARK H PARENT
REMARK Flexibility Score: inf
ROOT
ATOM      1  C   UNL     1      26.005  34.294   5.507  1.00  0.00    -0.031 C 
ATOM      2  C   UNL     1      26.496  35.539   5.359  1.00  0.00    -0.031 C 
ENDROOT
BRANCH   1   3
ATOM      3  C   UNL     1      26.627  33.225   6.374  1.00  0.00     0.027 C 
BRANCH   3   4
ATOM      4  C   UNL     1      26.056  31.833   6.067  1.00  0.00     0.004 C 
BRANCH   4   5
ATOM      5  C   UNL     1      24.625  31.663   6.606  1.00  0.00     0.000 C 
BRANCH   5   6
ATOM      6  C   UNL     1      24.474  30.426   7.507  1.00  0.00     0.000 C 
BRANCH   6   7
ATOM      7  C   UNL     1      24.257  30.791   8.983  1.00  0.00     0.000 C 
BRANCH   7   8
ATOM      8  C   UNL     1      22.811  31.247   9.228  1.00  0.00     0.006 C 
BRANCH   8   9
ATOM      9  C   UNL     1      22.406  31.129  10.703  1.00  0.00     0.053 C 
BRANCH   9  10
ATOM     10  C   UNL     1      21.765  32.387  11.203  1.00  0.00     0.041 C 
ATOM     11  O   UNL     1      21.959  32.771  12.387  1.00  0.00    -0.550 OA
ATOM     12  O   UNL     1      20.926  33.119  10.372  1.00  0.00    -0.550 OA
ENDBRANCH   9  10
ENDBRANCH   8   9
ENDBRANCH   7   8
ENDBRANCH   6   7
ENDBRANCH   5   6
ENDBRANCH   4   5
ENDBRANCH   3   4
ENDBRANCH   1   3
BRANCH   2  13
ATOM     13  C   UNL     1      27.791  36.026   5.958  1.00  0.00     0.027 C 
BRANCH  13  14
ATOM     14  C   UNL     1      27.531  37.149   6.968  1.00  0.00     0.004 C 
BRANCH  14  15
ATOM     15  C   UNL     1      27.882  36.701   8.391  1.00  0.00     0.000 C 
BRANCH  15  16
ATOM     16  C   UNL     1      28.802  35.471   8.371  1.00  0.00     0.000 C 
BRANCH  16  17
ATOM     17  C   UNL     1      28.586  34.541   9.577  1.00  0.00    -0.000 C 
BRANCH  17  18
ATOM     18  C   UNL     1      28.531  35.248  10.947  1.00  0.00    -0.000 C 
BRANCH  18  19
ATOM     19  C   UNL     1      28.262  34.322  12.145  1.00  0.00    -0.003 C 
ATOM     20  C   UNL     1      28.909  32.945  11.990  1.00  0.00     0.004 C 
ENDBRANCH  18  19
ENDBRANCH  17  18
ENDBRANCH  16  17
ENDBRANCH  15  16
ENDBRANCH  14  15
ENDBRANCH  13  14
ENDBRANCH   2  13
TORSDOF 15
ENDMDL
