MODEL 1
REMARK VINA RESULT:    -4.640      0.000      0.000
REMARK INTER + INTRA:         -10.561
REMARK INTER:                  -8.709
REMARK INTRA:                  -1.852
REMARK UNBOUND:                -1.852
REMARK SMILES O=C([O-])CCCCCCCCCCCCCCC(=O)[O-]
REMARK SMILES IDX 10 1 9 2 8 3 7 4 6 5 5 6 4 7 2 8 1 9 3 10 11 11 12 12 13 13
REMARK SMILES IDX 14 14 15 15 16 16 17 17 18 18 19 19 20 20
REMARK H PARENT
REMARK Flexibility Score: inf
ROOT
ATOM      1  C   UNL     1     -50.785  14.134 -28.920  1.00  0.00     0.000 C 
ENDROOT
BRANCH   1   2
ATOM      2  C   UNL     1     -50.243  14.305 -30.349  1.00  0.00     0.000 C 
BRANCH   2   3
ATOM      3  C   UNL     1     -50.342  15.755 -30.848  1.00  0.00     0.000 C 
BRANCH   3   4
ATOM      4  C   UNL     1     -51.625  16.024 -31.648  1.00  0.00     0.000 C 
BRANCH   4   5
ATOM      5  C   UNL     1     -52.407  17.202 -31.047  1.00  0.00     0.000 C 
BRANCH   5   6
ATOM      6  C   UNL     1     -51.809  17.694 -29.720  1.00  0.00     0.006 C 
BRANCH   6   7
ATOM      7  C   UNL     1     -52.881  18.022 -28.673  1.00  0.00     0.053 C 
BRANCH   7   8
ATOM      8  C   UNL     1     -52.930  16.956 -27.626  1.00  0.00     0.041 C 
ATOM      9  O   UNL     1     -52.283  17.090 -26.554  1.00  0.00    -0.550 OA
ATOM     10  O   UNL     1     -53.732  15.837 -27.810  1.00  0.00    -0.550 OA
ENDBRANCH   7   8
ENDBRANCH   6   7
ENDBRANCH   5   6
ENDBRANCH   4   5
ENDBRANCH   3   4
ENDBRANCH   2   3
ENDBRANCH   1   2
BRANCH   1  11
ATOM     11  C   UNL     1     -51.808  12.991 -28.810  1.00  0.00     0.000 C 
BRANCH  11  12
ATOM     12  C   UNL     1     -52.656  12.829 -30.081  1.00  0.00     0.000 C 
BRANCH  12  13
ATOM     13  C   UNL     1     -52.642  11.370 -30.566  1.00  0.00     0.000 C 
BRANCH  13  14
ATOM     14  C   UNL     1     -51.797  11.176 -31.834  1.00  0.00     0.000 C 
BRANCH  14  15
ATOM     15  C   UNL     1     -50.657  10.165 -31.637  1.00  0.00     0.000 C 
BRANCH  15  16
ATOM     16  C   UNL     1     -49.729  10.600 -30.492  1.00  0.00     0.006 C 
BRANCH  16  17
ATOM     17  C   UNL     1     -49.152   9.403 -29.726  1.00  0.00     0.053 C 
BRANCH  17  18
ATOM     18  C   UNL     1     -47.735   9.120 -30.123  1.00  0.00     0.041 C 
ATOM     19  O   UNL     1     -46.791   9.381 -29.332  1.00  0.00    -0.550 OA
ATOM     20  O   UNL     1     -47.461   8.540 -31.355  1.00  0.00    -0.550 OA
ENDBRANCH  17  18
ENDBRANCH  16  17
ENDBRANCH  15  16
ENDBRANCH  14  15
ENDBRANCH  13  14
ENDBRANCH  12  13
ENDBRANCH  11  12
ENDBRANCH   1  11
TORSDOF 15
ENDMDL
MODEL 2
REMARK VINA RESULT:    -4.576      2.871      7.833
REMARK INTER + INTRA:         -10.441
REMARK INTER:                  -8.233
REMARK INTRA:                  -2.208
REMARK UNBOUND:                -1.852
REMARK SMILES O=C([O-])CCCCCCCCCCCCCCC(=O)[O-]
REMARK SMILES IDX 10 1 9 2 8 3 7 4 6 5 5 6 4 7 2 8 1 9 3 10 11 11 12 12 13 13
REMARK SMILES IDX 14 14 15 15 16 16 17 17 18 18 19 19 20 20
REMARK H PARENT
REMARK Flexibility Score: inf
ROOT
ATOM      1  C   UNL     1     -51.981   6.643 -31.918  1.00  0.00     0.000 C 
ENDROOT
BRANCH   1   2
ATOM      2  C   UNL     1     -52.003   6.279 -33.412  1.00  0.00     0.000 C 
BRANCH   2   3
ATOM      3  C   UNL     1     -50.610   5.922 -33.954  1.00  0.00     0.000 C 
BRANCH   3   4
ATOM      4  C   UNL     1     -49.481   6.271 -32.971  1.00  0.00     0.000 C 
BRANCH   4   5
ATOM      5  C   UNL     1     -48.761   7.558 -33.402  1.00  0.00     0.000 C 
BRANCH   5   6
ATOM      6  C   UNL     1     -48.424   8.473 -32.214  1.00  0.00     0.006 C 
BRANCH   6   7
ATOM      7  C   UNL     1     -48.475   7.740 -30.868  1.00  0.00     0.053 C 
BRANCH   7   8
ATOM      8  C   UNL     1     -47.343   8.175 -29.994  1.00  0.00     0.041 C 
ATOM      9  O   UNL     1     -46.918   9.359 -30.049  1.00  0.00    -0.550 OA
ATOM     10  O   UNL     1     -46.790   7.288 -29.079  1.00  0.00    -0.550 OA
ENDBRANCH   7   8
ENDBRANCH   6   7
ENDBRANCH   5   6
ENDBRANCH   4   5
ENDBRANCH   3   4
ENDBRANCH   2   3
ENDBRANCH   1   2
BRANCH   1  11
ATOM     11  C   UNL     1     -52.467   8.077 -31.653  1.00  0.00     0.000 C 
BRANCH  11  12
ATOM     12  C   UNL     1     -52.572   8.916 -32.936  1.00  0.00     0.000 C 
BRANCH  12  13
ATOM     13  C   UNL     1     -51.740  10.202 -32.818  1.00  0.00     0.000 C 
BRANCH  13  14
ATOM     14  C   UNL     1     -51.580  10.673 -31.364  1.00  0.00     0.000 C 
BRANCH  14  15
ATOM     15  C   UNL     1     -50.197  11.284 -31.088  1.00  0.00     0.000 C 
BRANCH  15  16
ATOM     16  C   UNL     1     -49.956  11.436 -29.579  1.00  0.00     0.006 C 
BRANCH  16  17
ATOM     17  C   UNL     1     -49.221  12.738 -29.236  1.00  0.00     0.053 C 
BRANCH  17  18
ATOM     18  C   UNL     1     -50.050  13.944 -29.557  1.00  0.00     0.041 C 
ATOM     19  O   UNL     1     -51.035  14.247 -28.833  1.00  0.00    -0.550 OA
ATOM     20  O   UNL     1     -49.715  14.751 -30.637  1.00  0.00    -0.550 OA
ENDBRANCH  17  18
ENDBRANCH  16  17
ENDBRANCH  15  16
ENDBRANCH  14  15
ENDBRANCH  13  14
ENDBRANCH  12  13
ENDBRANCH  11  12
ENDBRANCH   1  11
TORSDOF 15
ENDMDL
MODEL 3
REMARK VINA RESULT:    -4.546      1.944      2.604
REMARK INTER + INTRA:         -10.384
REMARK INTER:                  -9.456
REMARK INTRA:                  -0.928
REMARK UNBOUND:                -1.852
REMARK SMILES O=C([O-])CCCCCCCCCCCCCCC(=O)[O-]
REMARK SMILES IDX 10 1 9 2 8 3 7 4 6 5 5 6 4 7 2 8 1 9 3 10 11 11 12 12 13 13
REMARK SMILES IDX 14 14 15 15 16 16 17 17 18 18 19 19 20 20
REMARK H PARENT
REMARK Flexibility Score: inf
ROOT
ATOM      1  C   UNL     1     -50.716  14.601 -29.744  1.00  0.00     0.000 C 
ENDROOT
BRANCH   1   2
ATOM      2  C   UNL     1     -50.335  15.602 -30.849  1.00  0.00     0.000 C 
BRANCH   2   3
ATOM      3  C   UNL     1     -51.502  15.902 -31.801  1.00  0.00     0.000 C 
BRANCH   3   4
ATOM      4  C   UNL     1     -52.815  16.201 -31.060  1.00  0.00     0.000 C 
BRANCH   4   5
ATOM      5  C   UNL     1     -53.128  17.705 -31.089  1.00  0.00     0.000 C 
BRANCH   5   6
ATOM      6  C   UNL     1     -53.572  18.243 -29.719  1.00  0.00     0.006 C 
BRANCH   6   7
ATOM      7  C   UNL     1     -52.475  18.125 -28.653  1.00  0.00     0.053 C 
BRANCH   7   8
ATOM      8  C   UNL     1     -52.987  17.381 -27.461  1.00  0.00     0.041 C 
ATOM      9  O   UNL     1     -54.058  16.724 -27.534  1.00  0.00    -0.550 OA
ATOM     10  O   UNL     1     -52.253  17.370 -26.282  1.00  0.00    -0.550 OA
ENDBRANCH   7   8
ENDBRANCH   6   7
ENDBRANCH   5   6
ENDBRANCH   4   5
ENDBRANCH   3   4
ENDBRANCH   2   3
ENDBRANCH   1   2
BRANCH   1  11
ATOM     11  C   UNL     1     -49.825  13.348 -29.750  1.00  0.00     0.000 C 
BRANCH  11  12
ATOM     12  C   UNL     1     -50.056  12.448 -28.527  1.00  0.00     0.000 C 
BRANCH  12  13
ATOM     13  C   UNL     1     -48.869  11.496 -28.316  1.00  0.00     0.000 C 
BRANCH  13  14
ATOM     14  C   UNL     1     -48.768  10.424 -29.412  1.00  0.00     0.000 C 
BRANCH  14  15
ATOM     15  C   UNL     1     -47.483   9.587 -29.306  1.00  0.00     0.000 C 
BRANCH  15  16
ATOM     16  C   UNL     1     -47.267   8.750 -30.576  1.00  0.00     0.006 C 
BRANCH  16  17
ATOM     17  C   UNL     1     -48.458   8.838 -31.540  1.00  0.00     0.053 C 
BRANCH  17  18
ATOM     18  C   UNL     1     -48.531   7.645 -32.442  1.00  0.00     0.041 C 
ATOM     19  O   UNL     1     -48.499   6.482 -31.959  1.00  0.00    -0.550 OA
ATOM     20  O   UNL     1     -48.667   7.818 -33.814  1.00  0.00    -0.550 OA
ENDBRANCH  17  18
ENDBRANCH  16  17
ENDBRANCH  15  16
ENDBRANCH  14  15
ENDBRANCH  13  14
ENDBRANCH  12  13
ENDBRANCH  11  12
ENDBRANCH   1  11
TORSDOF 15
ENDMDL
MODEL 4
REMARK VINA RESULT:    -4.505      2.036      8.176
REMARK INTER + INTRA:         -10.307
REMARK INTER:                  -8.997
REMARK INTRA:                  -1.309
REMARK UNBOUND:                -1.852
REMARK SMILES O=C([O-])CCCCCCCCCCCCCCC(=O)[O-]
REMARK SMILES IDX 10 1 9 2 8 3 7 4 6 5 5 6 4 7 2 8 1 9 3 10 11 11 12 12 13 13
REMARK SMILES IDX 14 14 15 15 16 16 17 17 18 18 19 19 20 20
REMARK H PARENT
REMARK Flexibility Score: inf
ROOT
ATOM      1  C   UNL     1     -50.339  14.237 -30.016  1.00  0.00     0.000 C 
ENDROOT
BRANCH   1   2
ATOM      2  C   UNL     1     -50.115  13.199 -28.902  1.00  0.00     0.000 C 
BRANCH   2   3
ATOM      3  C   UNL     1     -49.817  11.796 -29.453  1.00  0.00     0.000 C 
BRANCH   3   4
ATOM      4  C   UNL     1     -50.806  11.363 -30.546  1.00  0.00     0.000 C 
BRANCH   4   5
ATOM      5  C   UNL     1     -50.130  10.417 -31.551  1.00  0.00     0.000 C 
BRANCH   5   6
ATOM      6  C   UNL     1     -49.628   9.119 -30.897  1.00  0.00     0.006 C 
BRANCH   6   7
ATOM      7  C   UNL     1     -48.192   8.767 -31.306  1.00  0.00     0.053 C 
BRANCH   7   8
ATOM      8  C   UNL     1     -47.341   8.559 -30.095  1.00  0.00     0.041 C 
ATOM      9  O   UNL     1     -47.044   7.394 -29.721  1.00  0.00    -0.550 OA
ATOM     10  O   UNL     1     -46.831   9.653 -29.407  1.00  0.00    -0.550 OA
ENDBRANCH   7   8
ENDBRANCH   6   7
ENDBRANCH   5   6
ENDBRANCH   4   5
ENDBRANCH   3   4
ENDBRANCH   2   3
ENDBRANCH   1   2
BRANCH   1  11
ATOM     11  C   UNL     1     -51.724  14.900 -29.934  1.00  0.00     0.000 C 
BRANCH  11  12
ATOM     12  C   UNL     1     -52.649  14.222 -28.912  1.00  0.00     0.000 C 
BRANCH  12  13
ATOM     13  C   UNL     1     -53.502  15.263 -28.171  1.00  0.00     0.000 C 
BRANCH  13  14
ATOM     14  C   UNL     1     -52.659  16.209 -27.302  1.00  0.00     0.000 C 
BRANCH  14  15
ATOM     15  C   UNL     1     -53.069  17.681 -27.460  1.00  0.00     0.000 C 
BRANCH  15  16
ATOM     16  C   UNL     1     -52.549  18.256 -28.787  1.00  0.00     0.006 C 
BRANCH  16  17
ATOM     17  C   UNL     1     -53.689  18.655 -29.733  1.00  0.00     0.053 C 
BRANCH  17  18
ATOM     18  C   UNL     1     -53.295  18.506 -31.171  1.00  0.00     0.041 C 
ATOM     19  O   UNL     1     -53.734  17.541 -31.851  1.00  0.00    -0.550 OA
ATOM     20  O   UNL     1     -52.469  19.449 -31.767  1.00  0.00    -0.550 OA
ENDBRANCH  17  18
ENDBRANCH  16  17
ENDBRANCH  15  16
ENDBRANCH  14  15
ENDBRANCH  13  14
ENDBRANCH  12  13
ENDBRANCH  11  12
ENDBRANCH   1  11
TORSDOF 15
ENDMDL
MODEL 5
REMARK VINA RESULT:    -4.475      2.288      8.038
REMARK INTER + INTRA:         -10.252
REMARK INTER:                  -8.491
REMARK INTRA:                  -1.761
REMARK UNBOUND:                -1.852
REMARK SMILES O=C([O-])CCCCCCCCCCCCCCC(=O)[O-]
REMARK SMILES IDX 10 1 9 2 8 3 7 4 6 5 5 6 4 7 2 8 1 9 3 10 11 11 12 12 13 13
REMARK SMILES IDX 14 14 15 15 16 16 17 17 18 18 19 19 20 20
REMARK H PARENT
REMARK Flexibility Score: inf
ROOT
ATOM      1  C   UNL     1     -50.585  14.528 -29.918  1.00  0.00     0.000 C 
ENDROOT
BRANCH   1   2
ATOM      2  C   UNL     1     -49.548  13.394 -30.007  1.00  0.00     0.000 C 
BRANCH   2   3
ATOM      3  C   UNL     1     -49.989  12.132 -29.250  1.00  0.00     0.000 C 
BRANCH   3   4
ATOM      4  C   UNL     1     -49.866  10.856 -30.097  1.00  0.00     0.000 C 
BRANCH   4   5
ATOM      5  C   UNL     1     -50.956  10.810 -31.179  1.00  0.00     0.000 C 
BRANCH   5   6
ATOM      6  C   UNL     1     -50.485  10.113 -32.465  1.00  0.00     0.006 C 
BRANCH   6   7
ATOM      7  C   UNL     1     -49.208   9.289 -32.259  1.00  0.00     0.053 C 
BRANCH   7   8
ATOM      8  C   UNL     1     -49.368   7.925 -32.850  1.00  0.00     0.041 C 
ATOM      9  O   UNL     1     -48.663   7.572 -33.832  1.00  0.00    -0.550 OA
ATOM     10  O   UNL     1     -50.260   7.023 -32.285  1.00  0.00    -0.550 OA
ENDBRANCH   7   8
ENDBRANCH   6   7
ENDBRANCH   5   6
ENDBRANCH   4   5
ENDBRANCH   3   4
ENDBRANCH   2   3
ENDBRANCH   1   2
BRANCH   1  11
ATOM     11  C   UNL     1     -51.716  14.374 -30.948  1.00  0.00     0.000 C 
BRANCH  11  12
ATOM     12  C   UNL     1     -53.110  14.357 -30.301  1.00  0.00     0.000 C 
BRANCH  12  13
ATOM     13  C   UNL     1     -53.002  14.295 -28.770  1.00  0.00     0.000 C 
BRANCH  13  14
ATOM     14  C   UNL     1     -53.685  15.485 -28.079  1.00  0.00     0.000 C 
BRANCH  14  15
ATOM     15  C   UNL     1     -52.688  16.405 -27.359  1.00  0.00     0.000 C 
BRANCH  15  16
ATOM     16  C   UNL     1     -52.700  17.814 -27.971  1.00  0.00     0.006 C 
BRANCH  16  17
ATOM     17  C   UNL     1     -51.941  17.875 -29.303  1.00  0.00     0.053 C 
BRANCH  17  18
ATOM     18  C   UNL     1     -52.838  18.274 -30.434  1.00  0.00     0.041 C 
ATOM     19  O   UNL     1     -52.771  17.672 -31.539  1.00  0.00    -0.550 OA
ATOM     20  O   UNL     1     -53.769  19.289 -30.259  1.00  0.00    -0.550 OA
ENDBRANCH  17  18
ENDBRANCH  16  17
ENDBRANCH  15  16
ENDBRANCH  14  15
ENDBRANCH  13  14
ENDBRANCH  12  13
ENDBRANCH  11  12
ENDBRANCH   1  11
TORSDOF 15
ENDMDL
MODEL 6
REMARK VINA RESULT:    -4.469      1.248      7.879
REMARK INTER + INTRA:         -10.241
REMARK INTER:                  -8.744
REMARK INTRA:                  -1.497
REMARK UNBOUND:                -1.852
REMARK SMILES O=C([O-])CCCCCCCCCCCCCCC(=O)[O-]
REMARK SMILES IDX 10 1 9 2 8 3 7 4 6 5 5 6 4 7 2 8 1 9 3 10 11 11 12 12 13 13
REMARK SMILES IDX 14 14 15 15 16 16 17 17 18 18 19 19 20 20
REMARK H PARENT
REMARK Flexibility Score: inf
ROOT
ATOM      1  C   UNL     1     -49.897  11.165 -29.953  1.00  0.00     0.000 C 
ENDROOT
BRANCH   1   2
ATOM      2  C   UNL     1     -51.294  10.685 -30.383  1.00  0.00     0.000 C 
BRANCH   2   3
ATOM      3  C   UNL     1     -51.387  10.415 -31.893  1.00  0.00     0.000 C 
BRANCH   3   4
ATOM      4  C   UNL     1     -50.032  10.041 -32.515  1.00  0.00     0.000 C 
BRANCH   4   5
ATOM      5  C   UNL     1     -49.901   8.517 -32.662  1.00  0.00     0.000 C 
BRANCH   5   6
ATOM      6  C   UNL     1     -49.050   7.885 -31.549  1.00  0.00     0.006 C 
BRANCH   6   7
ATOM      7  C   UNL     1     -47.678   8.555 -31.401  1.00  0.00     0.053 C 
BRANCH   7   8
ATOM      8  C   UNL     1     -47.186   8.428 -29.994  1.00  0.00     0.041 C 
ATOM      9  O   UNL     1     -46.612   9.397 -29.433  1.00  0.00    -0.550 OA
ATOM     10  O   UNL     1     -47.409   7.255 -29.284  1.00  0.00    -0.550 OA
ENDBRANCH   7   8
ENDBRANCH   6   7
ENDBRANCH   5   6
ENDBRANCH   4   5
ENDBRANCH   3   4
ENDBRANCH   2   3
ENDBRANCH   1   2
BRANCH   1  11
ATOM     11  C   UNL     1     -49.808  12.696 -29.842  1.00  0.00     0.000 C 
BRANCH  11  12
ATOM     12  C   UNL     1     -51.154  13.346 -29.489  1.00  0.00     0.000 C 
BRANCH  12  13
ATOM     13  C   UNL     1     -51.524  14.429 -30.513  1.00  0.00     0.000 C 
BRANCH  13  14
ATOM     14  C   UNL     1     -50.394  15.447 -30.734  1.00  0.00     0.000 C 
BRANCH  14  15
ATOM     15  C   UNL     1     -50.855  16.898 -30.528  1.00  0.00     0.000 C 
BRANCH  15  16
ATOM     16  C   UNL     1     -52.282  16.945 -29.962  1.00  0.00     0.006 C 
BRANCH  16  17
ATOM     17  C   UNL     1     -52.359  17.730 -28.646  1.00  0.00     0.053 C 
BRANCH  17  18
ATOM     18  C   UNL     1     -52.666  16.836 -27.483  1.00  0.00     0.041 C 
ATOM     19  O   UNL     1     -52.333  17.176 -26.317  1.00  0.00    -0.550 OA
ATOM     20  O   UNL     1     -53.348  15.643 -27.685  1.00  0.00    -0.550 OA
ENDBRANCH  17  18
ENDBRANCH  16  17
ENDBRANCH  15  16
ENDBRANCH  14  15
ENDBRANCH  13  14
ENDBRANCH  12  13
ENDBRANCH  11  12
ENDBRANCH   1  11
TORSDOF 15
ENDMDL
MODEL 7
REMARK VINA RESULT:    -4.440      2.518      4.449
REMARK INTER + INTRA:         -10.185
REMARK INTER:                  -8.460
REMARK INTRA:                  -1.724
REMARK UNBOUND:                -1.852
REMARK SMILES O=C([O-])CCCCCCCCCCCCCCC(=O)[O-]
REMARK SMILES IDX 10 1 9 2 8 3 7 4 6 5 5 6 4 7 2 8 1 9 3 10 11 11 12 12 13 13
REMARK SMILES IDX 14 14 15 15 16 16 17 17 18 18 19 19 20 20
REMARK H PARENT
REMARK Flexibility Score: inf
ROOT
ATOM      1  C   UNL     1     -51.253   9.983 -32.503  1.00  0.00     0.000 C 
ENDROOT
BRANCH   1   2
ATOM      2  C   UNL     1     -50.725  11.039 -31.516  1.00  0.00     0.000 C 
BRANCH   2   3
ATOM      3  C   UNL     1     -50.337  10.435 -30.158  1.00  0.00     0.000 C 
BRANCH   3   4
ATOM      4  C   UNL     1     -49.547  11.412 -29.274  1.00  0.00     0.000 C 
BRANCH   4   5
ATOM      5  C   UNL     1     -50.396  12.645 -28.929  1.00  0.00     0.000 C 
BRANCH   5   6
ATOM      6  C   UNL     1     -49.916  13.916 -29.648  1.00  0.00     0.006 C 
BRANCH   6   7
ATOM      7  C   UNL     1     -51.011  14.984 -29.758  1.00  0.00     0.053 C 
BRANCH   7   8
ATOM      8  C   UNL     1     -51.614  14.974 -31.126  1.00  0.00     0.041 C 
ATOM      9  O   UNL     1     -52.464  14.098 -31.438  1.00  0.00    -0.550 OA
ATOM     10  O   UNL     1     -51.277  15.963 -32.041  1.00  0.00    -0.550 OA
ENDBRANCH   7   8
ENDBRANCH   6   7
ENDBRANCH   5   6
ENDBRANCH   4   5
ENDBRANCH   3   4
ENDBRANCH   2   3
ENDBRANCH   1   2
BRANCH   1  11
ATOM     11  C   UNL     1     -52.038   8.862 -31.803  1.00  0.00     0.000 C 
BRANCH  11  12
ATOM     12  C   UNL     1     -52.262   7.639 -32.706  1.00  0.00     0.000 C 
BRANCH  12  13
ATOM     13  C   UNL     1     -51.160   6.591 -32.490  1.00  0.00     0.000 C 
BRANCH  13  14
ATOM     14  C   UNL     1     -50.164   6.528 -33.659  1.00  0.00     0.000 C 
BRANCH  14  15
ATOM     15  C   UNL     1     -48.861   7.288 -33.369  1.00  0.00     0.000 C 
BRANCH  15  16
ATOM     16  C   UNL     1     -48.560   7.306 -31.863  1.00  0.00     0.006 C 
BRANCH  16  17
ATOM     17  C   UNL     1     -47.715   8.520 -31.455  1.00  0.00     0.053 C 
BRANCH  17  18
ATOM     18  C   UNL     1     -47.168   8.374 -30.068  1.00  0.00     0.041 C 
ATOM     19  O   UNL     1     -46.624   9.354 -29.494  1.00  0.00    -0.550 OA
ATOM     20  O   UNL     1     -47.287   7.163 -29.397  1.00  0.00    -0.550 OA
ENDBRANCH  17  18
ENDBRANCH  16  17
ENDBRANCH  15  16
ENDBRANCH  14  15
ENDBRANCH  13  14
ENDBRANCH  12  13
ENDBRANCH  11  12
ENDBRANCH   1  11
TORSDOF 15
ENDMDL
MODEL 8
REMARK VINA RESULT:    -4.419      1.678      2.890
REMARK INTER + INTRA:         -10.146
REMARK INTER:                  -8.161
REMARK INTRA:                  -1.984
REMARK UNBOUND:                -1.852
REMARK SMILES O=C([O-])CCCCCCCCCCCCCCC(=O)[O-]
REMARK SMILES IDX 10 1 9 2 8 3 7 4 6 5 5 6 4 7 2 8 1 9 3 10 11 11 12 12 13 13
REMARK SMILES IDX 14 14 15 15 16 16 17 17 18 18 19 19 20 20
REMARK H PARENT
REMARK Flexibility Score: inf
ROOT
ATOM      1  C   UNL     1     -50.385  15.627 -30.760  1.00  0.00     0.000 C 
ENDROOT
BRANCH   1   2
ATOM      2  C   UNL     1     -51.676  15.553 -31.593  1.00  0.00     0.000 C 
BRANCH   2   3
ATOM      3  C   UNL     1     -52.403  14.208 -31.437  1.00  0.00     0.000 C 
BRANCH   3   4
ATOM      4  C   UNL     1     -53.750  14.340 -30.709  1.00  0.00     0.000 C 
BRANCH   4   5
ATOM      5  C   UNL     1     -53.641  13.833 -29.262  1.00  0.00     0.000 C 
BRANCH   5   6
ATOM      6  C   UNL     1     -53.995  14.912 -28.227  1.00  0.00     0.006 C 
BRANCH   6   7
ATOM      7  C   UNL     1     -52.861  15.922 -28.014  1.00  0.00     0.053 C 
BRANCH   7   8
ATOM      8  C   UNL     1     -53.344  17.312 -28.280  1.00  0.00     0.041 C 
ATOM      9  O   UNL     1     -53.762  17.630 -29.424  1.00  0.00    -0.550 OA
ATOM     10  O   UNL     1     -53.383  18.244 -27.250  1.00  0.00    -0.550 OA
ENDBRANCH   7   8
ENDBRANCH   6   7
ENDBRANCH   5   6
ENDBRANCH   4   5
ENDBRANCH   3   4
ENDBRANCH   2   3
ENDBRANCH   1   2
BRANCH   1  11
ATOM     11  C   UNL     1     -49.826  14.237 -30.413  1.00  0.00     0.000 C 
BRANCH  11  12
ATOM     12  C   UNL     1     -50.019  13.872 -28.933  1.00  0.00     0.000 C 
BRANCH  12  13
ATOM     13  C   UNL     1     -50.349  12.380 -28.776  1.00  0.00     0.000 C 
BRANCH  13  14
ATOM     14  C   UNL     1     -49.098  11.488 -28.825  1.00  0.00     0.000 C 
BRANCH  14  15
ATOM     15  C   UNL     1     -49.265  10.286 -29.768  1.00  0.00     0.000 C 
BRANCH  15  16
ATOM     16  C   UNL     1     -50.250  10.609 -30.901  1.00  0.00     0.006 C 
BRANCH  16  17
ATOM     17  C   UNL     1     -49.776  10.068 -32.255  1.00  0.00     0.053 C 
BRANCH  17  18
ATOM     18  C   UNL     1     -49.485   8.600 -32.195  1.00  0.00     0.041 C 
ATOM     19  O   UNL     1     -48.325   8.173 -32.438  1.00  0.00    -0.550 OA
ATOM     20  O   UNL     1     -50.486   7.706 -31.840  1.00  0.00    -0.550 OA
ENDBRANCH  17  18
ENDBRANCH  16  17
ENDBRANCH  15  16
ENDBRANCH  14  15
ENDBRANCH  13  14
ENDBRANCH  12  13
ENDBRANCH  11  12
ENDBRANCH   1  11
TORSDOF 15
ENDMDL
MODEL 9
REMARK VINA RESULT:    -4.369      3.029      7.187
REMARK INTER + INTRA:         -10.052
REMARK INTER:                  -7.691
REMARK INTRA:                  -2.361
REMARK UNBOUND:                -1.852
REMARK SMILES O=C([O-])CCCCCCCCCCCCCCC(=O)[O-]
REMARK SMILES IDX 10 1 9 2 8 3 7 4 6 5 5 6 4 7 2 8 1 9 3 10 11 11 12 12 13 13
REMARK SMILES IDX 14 14 15 15 16 16 17 17 18 18 19 19 20 20
REMARK H PARENT
REMARK Flexibility Score: inf
ROOT
ATOM      1  C   UNL     1     -50.379   6.094 -32.935  1.00  0.00     0.000 C 
ENDROOT
BRANCH   1   2
ATOM      2  C   UNL     1     -49.112   6.275 -33.789  1.00  0.00     0.000 C 
BRANCH   2   3
ATOM      3  C   UNL     1     -48.571   7.712 -33.744  1.00  0.00     0.000 C 
BRANCH   3   4
ATOM      4  C   UNL     1     -48.746   8.372 -32.367  1.00  0.00     0.000 C 
BRANCH   4   5
ATOM      5  C   UNL     1     -49.651   9.610 -32.466  1.00  0.00     0.000 C 
BRANCH   5   6
ATOM      6  C   UNL     1     -49.781  10.357 -31.130  1.00  0.00     0.006 C 
BRANCH   6   7
ATOM      7  C   UNL     1     -49.342   9.507 -29.931  1.00  0.00     0.053 C 
BRANCH   7   8
ATOM      8  C   UNL     1     -48.199  10.159 -29.221  1.00  0.00     0.041 C 
ATOM      9  O   UNL     1     -48.403  11.135 -28.452  1.00  0.00    -0.550 OA
ATOM     10  O   UNL     1     -46.912   9.656 -29.368  1.00  0.00    -0.550 OA
ENDBRANCH   7   8
ENDBRANCH   6   7
ENDBRANCH   5   6
ENDBRANCH   4   5
ENDBRANCH   3   4
ENDBRANCH   2   3
ENDBRANCH   1   2
BRANCH   1  11
ATOM     11  C   UNL     1     -51.653   6.554 -33.665  1.00  0.00     0.000 C 
BRANCH  11  12
ATOM     12  C   UNL     1     -52.574   7.403 -32.775  1.00  0.00     0.000 C 
BRANCH  12  13
ATOM     13  C   UNL     1     -52.267   7.166 -31.288  1.00  0.00     0.000 C 
BRANCH  13  14
ATOM     14  C   UNL     1     -52.842   8.267 -30.382  1.00  0.00     0.000 C 
BRANCH  14  15
ATOM     15  C   UNL     1     -53.449   9.432 -31.179  1.00  0.00     0.000 C 
BRANCH  15  16
ATOM     16  C   UNL     1     -53.530  10.701 -30.317  1.00  0.00     0.006 C 
BRANCH  16  17
ATOM     17  C   UNL     1     -53.067  11.951 -31.078  1.00  0.00     0.053 C 
BRANCH  17  18
ATOM     18  C   UNL     1     -52.345  12.910 -30.182  1.00  0.00     0.041 C 
ATOM     19  O   UNL     1     -51.870  12.516 -29.083  1.00  0.00    -0.550 OA
ATOM     20  O   UNL     1     -52.169  14.230 -30.575  1.00  0.00    -0.550 OA
ENDBRANCH  17  18
ENDBRANCH  16  17
ENDBRANCH  15  16
ENDBRANCH  14  15
ENDBRANCH  13  14
ENDBRANCH  12  13
ENDBRANCH  11  12
ENDBRANCH   1  11
TORSDOF 15
ENDMDL
