MODEL 1
REMARK VINA RESULT:    -5.755      0.000      0.000
REMARK INTER + INTRA:          -7.027
REMARK INTER:                  -6.764
REMARK INTRA:                  -0.263
REMARK UNBOUND:                -0.263
REMARK SMILES O=c1cc(-c2ccc(O)c(O)c2)oc2cc(O)cc(O)c12
REMARK SMILES IDX 4 1 3 2 2 3 1 4 21 5 19 6 18 7 16 8 15 9 14 10 13 11 5 12
REMARK SMILES IDX 6 13 7 14 8 15 12 16 10 17 9 18 11 20 20 22 17 24
REMARK H PARENT 9 19 11 21 20 23 17 25
REMARK Flexibility Score: inf
ROOT
ATOM      1  C   UNL     1      14.981  24.448  35.047  1.00  0.00     0.138 A 
ATOM      2  C   UNL     1      15.564  25.282  36.009  1.00  0.00     0.100 A 
ATOM      3  C   UNL     1      14.983  26.517  36.297  1.00  0.00     0.197 A 
ATOM      4  O   UNL     1      15.563  27.267  37.125  1.00  0.00    -0.289 OA
ATOM      5  C   UNL     1      13.790  26.903  35.640  1.00  0.00     0.107 A 
ATOM      6  C   UNL     1      13.089  28.125  35.877  1.00  0.00     0.134 A 
ATOM      7  C   UNL     1      11.971  28.442  35.094  1.00  0.00     0.093 A 
ATOM      8  C   UNL     1      11.495  27.555  34.124  1.00  0.00     0.123 A 
ATOM      9  C   UNL     1      12.143  26.340  33.920  1.00  0.00     0.094 A 
ATOM     10  C   UNL     1      13.281  26.009  34.661  1.00  0.00     0.146 A 
ATOM     11  O   UNL     1      13.878  24.847  34.421  1.00  0.00    -0.456 OA
ENDROOT
BRANCH   1  12
ATOM     12  C   UNL     1      15.555  23.122  34.704  1.00  0.00     0.021 A 
ATOM     13  C   UNL     1      16.214  22.893  33.481  1.00  0.00     0.016 A 
ATOM     14  C   UNL     1      16.735  21.632  33.183  1.00  0.00     0.051 A 
ATOM     15  C   UNL     1      16.602  20.577  34.093  1.00  0.00     0.157 A 
ATOM     16  C   UNL     1      15.413  22.052  35.607  1.00  0.00     0.062 A 
ATOM     17  C   UNL     1      15.935  20.789  35.310  1.00  0.00     0.158 A 
BRANCH  15  18
ATOM     18  O   UNL     1      17.125  19.320  33.792  1.00  0.00    -0.504 OA
ATOM     19  H   UNL     1      18.060  19.053  34.076  1.00  0.00     0.293 HD
ENDBRANCH  15  18
BRANCH  17  20
ATOM     20  O   UNL     1      15.781  19.758  36.237  1.00  0.00    -0.504 OA
ATOM     21  H   UNL     1      14.928  19.634  36.768  1.00  0.00     0.293 HD
ENDBRANCH  17  20
ENDBRANCH   1  12
BRANCH   6  22
ATOM     22  O   UNL     1      13.430  29.044  36.873  1.00  0.00    -0.507 OA
ATOM     23  H   UNL     1      13.302  28.899  37.863  1.00  0.00     0.293 HD
ENDBRANCH   6  22
BRANCH   8  24
ATOM     24  O   UNL     1      10.374  27.873  33.361  1.00  0.00    -0.508 OA
ATOM     25  H   UNL     1       9.496  27.379  33.479  1.00  0.00     0.293 HD
ENDBRANCH   8  24
TORSDOF 5
ENDMDL
MODEL 2
REMARK VINA RESULT:    -5.679      0.652      1.488
REMARK INTER + INTRA:          -6.938
REMARK INTER:                  -6.665
REMARK INTRA:                  -0.272
REMARK UNBOUND:                -0.263
REMARK SMILES O=c1cc(-c2ccc(O)c(O)c2)oc2cc(O)cc(O)c12
REMARK SMILES IDX 4 1 3 2 2 3 1 4 21 5 19 6 18 7 16 8 15 9 14 10 13 11 5 12
REMARK SMILES IDX 6 13 7 14 8 15 12 16 10 17 9 18 11 20 20 22 17 24
REMARK H PARENT 9 19 11 21 20 23 17 25
REMARK Flexibility Score: inf
ROOT
ATOM      1  C   UNL     1      14.805  24.568  35.155  1.00  0.00     0.138 A 
ATOM      2  C   UNL     1      15.377  25.437  36.093  1.00  0.00     0.100 A 
ATOM      3  C   UNL     1      14.802  26.689  36.316  1.00  0.00     0.197 A 
ATOM      4  O   UNL     1      15.372  27.467  37.124  1.00  0.00    -0.289 OA
ATOM      5  C   UNL     1      13.625  27.056  35.621  1.00  0.00     0.107 A 
ATOM      6  C   UNL     1      12.931  28.293  35.792  1.00  0.00     0.134 A 
ATOM      7  C   UNL     1      11.832  28.585  34.974  1.00  0.00     0.093 A 
ATOM      8  C   UNL     1      11.367  27.663  34.033  1.00  0.00     0.123 A 
ATOM      9  C   UNL     1      12.007  26.434  33.894  1.00  0.00     0.094 A 
ATOM     10  C   UNL     1      13.128  26.126  34.670  1.00  0.00     0.146 A 
ATOM     11  O   UNL     1      13.719  24.950  34.492  1.00  0.00    -0.456 OA
ENDROOT
BRANCH   1  12
ATOM     12  C   UNL     1      15.373  23.224  34.880  1.00  0.00     0.021 A 
ATOM     13  C   UNL     1      15.389  22.211  35.859  1.00  0.00     0.016 A 
ATOM     14  C   UNL     1      15.940  20.960  35.573  1.00  0.00     0.051 A 
ATOM     15  C   UNL     1      16.491  20.699  34.313  1.00  0.00     0.157 A 
ATOM     16  C   UNL     1      15.942  22.958  33.621  1.00  0.00     0.062 A 
ATOM     17  C   UNL     1      16.493  21.705  33.334  1.00  0.00     0.158 A 
BRANCH  15  18
ATOM     18  O   UNL     1      17.038  19.448  34.032  1.00  0.00    -0.504 OA
ATOM     19  H   UNL     1      16.452  18.642  33.846  1.00  0.00     0.293 HD
ENDBRANCH  15  18
BRANCH  17  20
ATOM     20  O   UNL     1      17.038  21.478  32.070  1.00  0.00    -0.504 OA
ATOM     21  H   UNL     1      17.942  21.038  31.943  1.00  0.00     0.293 HD
ENDBRANCH  17  20
ENDBRANCH   1  12
BRANCH   6  22
ATOM     22  O   UNL     1      13.261  29.250  36.755  1.00  0.00    -0.507 OA
ATOM     23  H   UNL     1      12.640  29.585  37.476  1.00  0.00     0.293 HD
ENDBRANCH   6  22
BRANCH   8  24
ATOM     24  O   UNL     1      10.263  27.957  33.236  1.00  0.00    -0.508 OA
ATOM     25  H   UNL     1       9.710  27.224  32.806  1.00  0.00     0.293 HD
ENDBRANCH   8  24
TORSDOF 5
ENDMDL
MODEL 3
REMARK VINA RESULT:    -5.385      1.857      2.851
REMARK INTER + INTRA:          -6.593
REMARK INTER:                  -6.328
REMARK INTRA:                  -0.265
REMARK UNBOUND:                -0.263
REMARK SMILES O=c1cc(-c2ccc(O)c(O)c2)oc2cc(O)cc(O)c12
REMARK SMILES IDX 4 1 3 2 2 3 1 4 21 5 19 6 18 7 16 8 15 9 14 10 13 11 5 12
REMARK SMILES IDX 6 13 7 14 8 15 12 16 10 17 9 18 11 20 20 22 17 24
REMARK H PARENT 9 19 11 21 20 23 17 25
REMARK Flexibility Score: inf
ROOT
ATOM      1  C   UNL     1      14.418  25.660  35.109  1.00  0.00     0.138 A 
ATOM      2  C   UNL     1      13.113  25.775  35.605  1.00  0.00     0.100 A 
ATOM      3  C   UNL     1      12.624  27.027  35.980  1.00  0.00     0.197 A 
ATOM      4  O   UNL     1      11.468  27.088  36.474  1.00  0.00    -0.289 OA
ATOM      5  C   UNL     1      13.436  28.176  35.822  1.00  0.00     0.107 A 
ATOM      6  C   UNL     1      13.031  29.508  36.138  1.00  0.00     0.134 A 
ATOM      7  C   UNL     1      13.958  30.554  36.033  1.00  0.00     0.093 A 
ATOM      8  C   UNL     1      15.255  30.324  35.568  1.00  0.00     0.123 A 
ATOM      9  C   UNL     1      15.644  29.035  35.211  1.00  0.00     0.094 A 
ATOM     10  C   UNL     1      14.754  27.965  35.337  1.00  0.00     0.146 A 
ATOM     11  O   UNL     1      15.172  26.750  35.001  1.00  0.00    -0.456 OA
ENDROOT
BRANCH   1  12
ATOM     12  C   UNL     1      14.988  24.354  34.693  1.00  0.00     0.021 A 
ATOM     13  C   UNL     1      15.412  24.117  33.371  1.00  0.00     0.016 A 
ATOM     14  C   UNL     1      15.936  22.875  33.008  1.00  0.00     0.051 A 
ATOM     15  C   UNL     1      16.038  21.846  33.951  1.00  0.00     0.157 A 
ATOM     16  C   UNL     1      15.082  23.310  35.631  1.00  0.00     0.062 A 
ATOM     17  C   UNL     1      15.607  22.065  35.269  1.00  0.00     0.158 A 
BRANCH  15  18
ATOM     18  O   UNL     1      16.563  20.607  33.584  1.00  0.00    -0.504 OA
ATOM     19  H   UNL     1      16.819  20.403  32.625  1.00  0.00     0.293 HD
ENDBRANCH  15  18
BRANCH  17  20
ATOM     20  O   UNL     1      15.692  21.059  36.232  1.00  0.00    -0.504 OA
ATOM     21  H   UNL     1      16.528  20.499  36.353  1.00  0.00     0.293 HD
ENDBRANCH  17  20
ENDBRANCH   1  12
BRANCH   6  22
ATOM     22  O   UNL     1      11.738  29.862  36.535  1.00  0.00    -0.507 OA
ATOM     23  H   UNL     1      11.506  30.349  37.387  1.00  0.00     0.293 HD
ENDBRANCH   6  22
BRANCH   8  24
ATOM     24  O   UNL     1      16.165  31.372  35.452  1.00  0.00    -0.508 OA
ATOM     25  H   UNL     1      15.893  32.332  35.635  1.00  0.00     0.293 HD
ENDBRANCH   8  24
TORSDOF 5
ENDMDL
MODEL 4
REMARK VINA RESULT:    -5.033      1.689      2.418
REMARK INTER + INTRA:          -6.178
REMARK INTER:                  -5.898
REMARK INTRA:                  -0.280
REMARK UNBOUND:                -0.263
REMARK SMILES O=c1cc(-c2ccc(O)c(O)c2)oc2cc(O)cc(O)c12
REMARK SMILES IDX 4 1 3 2 2 3 1 4 21 5 19 6 18 7 16 8 15 9 14 10 13 11 5 12
REMARK SMILES IDX 6 13 7 14 8 15 12 16 10 17 9 18 11 20 20 22 17 24
REMARK H PARENT 9 19 11 21 20 23 17 25
REMARK Flexibility Score: inf
ROOT
ATOM      1  C   UNL     1      15.580  24.924  34.603  1.00  0.00     0.138 A 
ATOM      2  C   UNL     1      16.518  25.840  34.109  1.00  0.00     0.100 A 
ATOM      3  C   UNL     1      16.291  27.209  34.258  1.00  0.00     0.197 A 
ATOM      4  O   UNL     1      17.125  28.006  33.754  1.00  0.00    -0.289 OA
ATOM      5  C   UNL     1      15.135  27.661  34.938  1.00  0.00     0.107 A 
ATOM      6  C   UNL     1      14.816  29.032  35.179  1.00  0.00     0.134 A 
ATOM      7  C   UNL     1      13.592  29.361  35.776  1.00  0.00     0.093 A 
ATOM      8  C   UNL     1      12.703  28.367  36.193  1.00  0.00     0.123 A 
ATOM      9  C   UNL     1      13.027  27.026  36.007  1.00  0.00     0.094 A 
ATOM     10  C   UNL     1      14.224  26.666  35.383  1.00  0.00     0.146 A 
ATOM     11  O   UNL     1      14.486  25.375  35.209  1.00  0.00    -0.456 OA
ENDROOT
BRANCH   1  12
ATOM     12  C   UNL     1      15.771  23.458  34.475  1.00  0.00     0.021 A 
ATOM     13  C   UNL     1      15.415  22.570  35.510  1.00  0.00     0.016 A 
ATOM     14  C   UNL     1      15.616  21.196  35.363  1.00  0.00     0.051 A 
ATOM     15  C   UNL     1      16.183  20.683  34.191  1.00  0.00     0.157 A 
ATOM     16  C   UNL     1      16.353  22.935  33.306  1.00  0.00     0.062 A 
ATOM     17  C   UNL     1      16.554  21.559  33.158  1.00  0.00     0.158 A 
BRANCH  15  18
ATOM     18  O   UNL     1      16.381  19.310  34.049  1.00  0.00    -0.504 OA
ATOM     19  H   UNL     1      16.004  18.648  34.717  1.00  0.00     0.293 HD
ENDBRANCH  15  18
BRANCH  17  20
ATOM     20  O   UNL     1      17.124  21.081  31.978  1.00  0.00    -0.504 OA
ATOM     21  H   UNL     1      17.834  21.599  31.474  1.00  0.00     0.293 HD
ENDBRANCH  17  20
ENDBRANCH   1  12
BRANCH   6  22
ATOM     22  O   UNL     1      15.666  30.100  34.876  1.00  0.00    -0.507 OA
ATOM     23  H   UNL     1      16.300  30.131  34.093  1.00  0.00     0.293 HD
ENDBRANCH   6  22
BRANCH   8  24
ATOM     24  O   UNL     1      11.495  28.704  36.800  1.00  0.00    -0.508 OA
ATOM     25  H   UNL     1      10.628  28.729  36.276  1.00  0.00     0.293 HD
ENDBRANCH   8  24
TORSDOF 5
ENDMDL
MODEL 5
REMARK VINA RESULT:    -4.975      3.612      6.956
REMARK INTER + INTRA:          -6.110
REMARK INTER:                  -5.796
REMARK INTRA:                  -0.314
REMARK UNBOUND:                -0.263
REMARK SMILES O=c1cc(-c2ccc(O)c(O)c2)oc2cc(O)cc(O)c12
REMARK SMILES IDX 4 1 3 2 2 3 1 4 21 5 19 6 18 7 16 8 15 9 14 10 13 11 5 12
REMARK SMILES IDX 6 13 7 14 8 15 12 16 10 17 9 18 11 20 20 22 17 24
REMARK H PARENT 9 19 11 21 20 23 17 25
REMARK Flexibility Score: inf
ROOT
ATOM      1  C   UNL     1      15.820  26.835  34.087  1.00  0.00     0.138 A 
ATOM      2  C   UNL     1      15.111  26.792  35.295  1.00  0.00     0.100 A 
ATOM      3  C   UNL     1      14.848  25.561  35.898  1.00  0.00     0.197 A 
ATOM      4  O   UNL     1      14.160  25.554  36.952  1.00  0.00    -0.289 OA
ATOM      5  C   UNL     1      15.330  24.370  35.306  1.00  0.00     0.107 A 
ATOM      6  C   UNL     1      15.152  23.061  35.849  1.00  0.00     0.134 A 
ATOM      7  C   UNL     1      15.589  21.947  35.121  1.00  0.00     0.093 A 
ATOM      8  C   UNL     1      16.250  22.098  33.899  1.00  0.00     0.123 A 
ATOM      9  C   UNL     1      16.472  23.373  33.385  1.00  0.00     0.094 A 
ATOM     10  C   UNL     1      16.017  24.503  34.070  1.00  0.00     0.146 A 
ATOM     11  O   UNL     1      16.235  25.699  33.535  1.00  0.00    -0.456 OA
ENDROOT
BRANCH   1  12
ATOM     12  C   UNL     1      16.131  28.115  33.403  1.00  0.00     0.021 A 
ATOM     13  C   UNL     1      16.054  29.352  34.074  1.00  0.00     0.016 A 
ATOM     14  C   UNL     1      16.343  30.541  33.401  1.00  0.00     0.051 A 
ATOM     15  C   UNL     1      16.704  30.520  32.049  1.00  0.00     0.157 A 
ATOM     16  C   UNL     1      16.481  28.105  32.041  1.00  0.00     0.062 A 
ATOM     17  C   UNL     1      16.771  29.296  31.366  1.00  0.00     0.158 A 
BRANCH  15  18
ATOM     18  O   UNL     1      16.993  31.710  31.381  1.00  0.00    -0.504 OA
ATOM     19  H   UNL     1      16.376  32.512  31.436  1.00  0.00     0.293 HD
ENDBRANCH  15  18
BRANCH  17  20
ATOM     20  O   UNL     1      17.124  29.240  30.017  1.00  0.00    -0.504 OA
ATOM     21  H   UNL     1      16.563  29.677  29.295  1.00  0.00     0.293 HD
ENDBRANCH  17  20
ENDBRANCH   1  12
BRANCH   6  22
ATOM     22  O   UNL     1      14.578  22.801  37.097  1.00  0.00    -0.507 OA
ATOM     23  H   UNL     1      15.051  22.360  37.871  1.00  0.00     0.293 HD
ENDBRANCH   6  22
BRANCH   8  24
ATOM     24  O   UNL     1      16.695  20.984  33.190  1.00  0.00    -0.508 OA
ATOM     25  H   UNL     1      16.104  20.171  33.056  1.00  0.00     0.293 HD
ENDBRANCH   8  24
TORSDOF 5
ENDMDL
MODEL 6
REMARK VINA RESULT:    -4.776      2.980      3.446
REMARK INTER + INTRA:          -5.877
REMARK INTER:                  -5.559
REMARK INTRA:                  -0.318
REMARK UNBOUND:                -0.263
REMARK SMILES O=c1cc(-c2ccc(O)c(O)c2)oc2cc(O)cc(O)c12
REMARK SMILES IDX 4 1 3 2 2 3 1 4 21 5 19 6 18 7 16 8 15 9 14 10 13 11 5 12
REMARK SMILES IDX 6 13 7 14 8 15 12 16 10 17 9 18 11 20 20 22 17 24
REMARK H PARENT 9 19 11 21 20 23 17 25
REMARK Flexibility Score: inf
ROOT
ATOM      1  C   UNL     1      15.859  25.558  34.713  1.00  0.00     0.138 A 
ATOM      2  C   UNL     1      15.517  26.327  35.833  1.00  0.00     0.100 A 
ATOM      3  C   UNL     1      15.539  27.720  35.747  1.00  0.00     0.197 A 
ATOM      4  O   UNL     1      15.281  28.382  36.786  1.00  0.00    -0.289 OA
ATOM      5  C   UNL     1      15.872  28.344  34.521  1.00  0.00     0.107 A 
ATOM      6  C   UNL     1      15.895  29.756  34.306  1.00  0.00     0.134 A 
ATOM      7  C   UNL     1      16.337  30.259  33.075  1.00  0.00     0.093 A 
ATOM      8  C   UNL     1      16.700  29.401  32.034  1.00  0.00     0.123 A 
ATOM      9  C   UNL     1      16.634  28.022  32.218  1.00  0.00     0.094 A 
ATOM     10  C   UNL     1      16.231  27.489  33.445  1.00  0.00     0.146 A 
ATOM     11  O   UNL     1      16.199  26.168  33.583  1.00  0.00    -0.456 OA
ENDROOT
BRANCH   1  12
ATOM     12  C   UNL     1      15.849  24.074  34.747  1.00  0.00     0.021 A 
ATOM     13  C   UNL     1      15.369  23.361  35.863  1.00  0.00     0.016 A 
ATOM     14  C   UNL     1      15.381  21.964  35.869  1.00  0.00     0.051 A 
ATOM     15  C   UNL     1      15.879  21.255  34.771  1.00  0.00     0.157 A 
ATOM     16  C   UNL     1      16.361  23.353  33.653  1.00  0.00     0.062 A 
ATOM     17  C   UNL     1      16.373  21.954  33.658  1.00  0.00     0.158 A 
BRANCH  15  18
ATOM     18  O   UNL     1      15.888  19.860  34.781  1.00  0.00    -0.504 OA
ATOM     19  H   UNL     1      15.555  19.334  35.580  1.00  0.00     0.293 HD
ENDBRANCH  15  18
BRANCH  17  20
ATOM     20  O   UNL     1      16.880  21.277  32.548  1.00  0.00    -0.504 OA
ATOM     21  H   UNL     1      17.870  21.092  32.437  1.00  0.00     0.293 HD
ENDBRANCH  17  20
ENDBRANCH   1  12
BRANCH   6  22
ATOM     22  O   UNL     1      15.477  30.699  35.249  1.00  0.00    -0.507 OA
ATOM     23  H   UNL     1      14.964  30.489  36.091  1.00  0.00     0.293 HD
ENDBRANCH   6  22
BRANCH   8  24
ATOM     24  O   UNL     1      17.124  29.911  30.809  1.00  0.00    -0.508 OA
ATOM     25  H   UNL     1      18.000  29.622  30.389  1.00  0.00     0.293 HD
ENDBRANCH   8  24
TORSDOF 5
ENDMDL
MODEL 7
REMARK VINA RESULT:    -4.621      1.729      7.236
REMARK INTER + INTRA:          -5.695
REMARK INTER:                  -5.432
REMARK INTRA:                  -0.263
REMARK UNBOUND:                -0.263
REMARK SMILES O=c1cc(-c2ccc(O)c(O)c2)oc2cc(O)cc(O)c12
REMARK SMILES IDX 4 1 3 2 2 3 1 4 21 5 19 6 18 7 16 8 15 9 14 10 13 11 5 12
REMARK SMILES IDX 6 13 7 14 8 15 12 16 10 17 9 18 11 20 20 22 17 24
REMARK H PARENT 9 19 11 21 20 23 17 25
REMARK Flexibility Score: inf
ROOT
ATOM      1  C   UNL     1      14.276  26.397  35.316  1.00  0.00     0.138 A 
ATOM      2  C   UNL     1      15.179  26.411  34.245  1.00  0.00     0.100 A 
ATOM      3  C   UNL     1      15.878  25.249  33.915  1.00  0.00     0.197 A 
ATOM      4  O   UNL     1      16.724  25.310  32.985  1.00  0.00    -0.289 OA
ATOM      5  C   UNL     1      15.643  24.057  34.641  1.00  0.00     0.107 A 
ATOM      6  C   UNL     1      16.273  22.803  34.373  1.00  0.00     0.134 A 
ATOM      7  C   UNL     1      16.034  21.716  35.222  1.00  0.00     0.093 A 
ATOM      8  C   UNL     1      15.144  21.820  36.295  1.00  0.00     0.123 A 
ATOM      9  C   UNL     1      14.487  23.024  36.535  1.00  0.00     0.094 A 
ATOM     10  C   UNL     1      14.731  24.138  35.726  1.00  0.00     0.146 A 
ATOM     11  O   UNL     1      14.097  25.272  36.002  1.00  0.00    -0.456 OA
ENDROOT
BRANCH   1  12
ATOM     12  C   UNL     1      13.503  27.602  35.708  1.00  0.00     0.021 A 
ATOM     13  C   UNL     1      13.973  28.498  36.688  1.00  0.00     0.016 A 
ATOM     14  C   UNL     1      13.219  29.619  37.043  1.00  0.00     0.051 A 
ATOM     15  C   UNL     1      11.982  29.862  36.435  1.00  0.00     0.157 A 
ATOM     16  C   UNL     1      12.252  27.847  35.113  1.00  0.00     0.062 A 
ATOM     17  C   UNL     1      11.496  28.969  35.466  1.00  0.00     0.158 A 
BRANCH  15  18
ATOM     18  O   UNL     1      11.233  30.983  36.791  1.00  0.00    -0.504 OA
ATOM     19  H   UNL     1      11.465  31.538  37.607  1.00  0.00     0.293 HD
ENDBRANCH  15  18
BRANCH  17  20
ATOM     20  O   UNL     1      10.266  29.180  34.845  1.00  0.00    -0.504 OA
ATOM     21  H   UNL     1       9.595  28.433  34.710  1.00  0.00     0.293 HD
ENDBRANCH  17  20
ENDBRANCH   1  12
BRANCH   6  22
ATOM     22  O   UNL     1      17.116  22.566  33.283  1.00  0.00    -0.507 OA
ATOM     23  H   UNL     1      17.448  21.659  32.994  1.00  0.00     0.293 HD
ENDBRANCH   6  22
BRANCH   8  24
ATOM     24  O   UNL     1      14.901  20.728  37.125  1.00  0.00    -0.508 OA
ATOM     25  H   UNL     1      14.927  19.778  36.772  1.00  0.00     0.293 HD
ENDBRANCH   8  24
TORSDOF 5
ENDMDL
MODEL 8
REMARK VINA RESULT:    -4.609      4.736      5.242
REMARK INTER + INTRA:          -5.680
REMARK INTER:                  -5.371
REMARK INTRA:                  -0.309
REMARK UNBOUND:                -0.263
REMARK SMILES O=c1cc(-c2ccc(O)c(O)c2)oc2cc(O)cc(O)c12
REMARK SMILES IDX 4 1 3 2 2 3 1 4 21 5 19 6 18 7 16 8 15 9 14 10 13 11 5 12
REMARK SMILES IDX 6 13 7 14 8 15 12 16 10 17 9 18 11 20 20 22 17 24
REMARK H PARENT 9 19 11 21 20 23 17 25
REMARK Flexibility Score: inf
ROOT
ATOM      1  C   UNL     1      16.505  27.816  33.722  1.00  0.00     0.138 A 
ATOM      2  C   UNL     1      16.292  28.895  34.590  1.00  0.00     0.100 A 
ATOM      3  C   UNL     1      16.264  30.195  34.083  1.00  0.00     0.197 A 
ATOM      4  O   UNL     1      16.128  31.145  34.896  1.00  0.00    -0.289 OA
ATOM      5  C   UNL     1      16.415  30.411  32.692  1.00  0.00     0.107 A 
ATOM      6  C   UNL     1      16.370  31.689  32.057  1.00  0.00     0.134 A 
ATOM      7  C   UNL     1      16.632  31.787  30.685  1.00  0.00     0.093 A 
ATOM      8  C   UNL     1      16.878  30.647  29.914  1.00  0.00     0.123 A 
ATOM      9  C   UNL     1      16.875  29.391  30.516  1.00  0.00     0.094 A 
ATOM     10  C   UNL     1      16.653  29.263  31.889  1.00  0.00     0.146 A 
ATOM     11  O   UNL     1      16.676  28.048  32.425  1.00  0.00    -0.456 OA
ENDROOT
BRANCH   1  12
ATOM     12  C   UNL     1      16.541  26.413  34.207  1.00  0.00     0.021 A 
ATOM     13  C   UNL     1      16.923  26.093  35.525  1.00  0.00     0.016 A 
ATOM     14  C   UNL     1      16.956  24.763  35.949  1.00  0.00     0.051 A 
ATOM     15  C   UNL     1      16.619  23.730  35.067  1.00  0.00     0.157 A 
ATOM     16  C   UNL     1      16.217  25.367  33.324  1.00  0.00     0.062 A 
ATOM     17  C   UNL     1      16.249  24.034  33.748  1.00  0.00     0.158 A 
BRANCH  15  18
ATOM     18  O   UNL     1      16.652  22.403  35.495  1.00  0.00    -0.504 OA
ATOM     19  H   UNL     1      17.137  22.131  36.343  1.00  0.00     0.293 HD
ENDBRANCH  15  18
BRANCH  17  20
ATOM     20  O   UNL     1      15.911  23.028  32.843  1.00  0.00    -0.504 OA
ATOM     21  H   UNL     1      15.587  22.117  33.147  1.00  0.00     0.293 HD
ENDBRANCH  17  20
ENDBRANCH   1  12
BRANCH   6  22
ATOM     22  O   UNL     1      16.055  32.881  32.716  1.00  0.00    -0.507 OA
ATOM     23  H   UNL     1      15.146  33.115  33.086  1.00  0.00     0.293 HD
ENDBRANCH   6  22
BRANCH   8  24
ATOM     24  O   UNL     1      17.122  30.753  28.547  1.00  0.00    -0.508 OA
ATOM     25  H   UNL     1      16.607  30.198  27.873  1.00  0.00     0.293 HD
ENDBRANCH   8  24
TORSDOF 5
ENDMDL
MODEL 9
REMARK VINA RESULT:    -4.533      2.255      4.067
REMARK INTER + INTRA:          -5.591
REMARK INTER:                  -5.329
REMARK INTRA:                  -0.262
REMARK UNBOUND:                -0.263
REMARK SMILES O=c1cc(-c2ccc(O)c(O)c2)oc2cc(O)cc(O)c12
REMARK SMILES IDX 4 1 3 2 2 3 1 4 21 5 19 6 18 7 16 8 15 9 14 10 13 11 5 12
REMARK SMILES IDX 6 13 7 14 8 15 12 16 10 17 9 18 11 20 20 22 17 24
REMARK H PARENT 9 19 11 21 20 23 17 25
REMARK Flexibility Score: inf
ROOT
ATOM      1  C   UNL     1      13.843  26.789  35.485  1.00  0.00     0.138 A 
ATOM      2  C   UNL     1      12.471  27.058  35.394  1.00  0.00     0.100 A 
ATOM      3  C   UNL     1      12.000  28.345  35.656  1.00  0.00     0.197 A 
ATOM      4  O   UNL     1      10.758  28.540  35.620  1.00  0.00    -0.289 OA
ATOM      5  C   UNL     1      12.915  29.377  35.975  1.00  0.00     0.107 A 
ATOM      6  C   UNL     1      12.553  30.735  36.229  1.00  0.00     0.134 A 
ATOM      7  C   UNL     1      13.537  31.647  36.633  1.00  0.00     0.093 A 
ATOM      8  C   UNL     1      14.877  31.264  36.737  1.00  0.00     0.123 A 
ATOM      9  C   UNL     1      15.247  29.953  36.444  1.00  0.00     0.094 A 
ATOM     10  C   UNL     1      14.284  29.011  36.072  1.00  0.00     0.146 A 
ATOM     11  O   UNL     1      14.678  27.768  35.819  1.00  0.00    -0.456 OA
ENDROOT
BRANCH   1  12
ATOM     12  C   UNL     1      14.398  25.439  35.214  1.00  0.00     0.021 A 
ATOM     13  C   UNL     1      14.637  24.514  36.249  1.00  0.00     0.016 A 
ATOM     14  C   UNL     1      15.170  23.255  35.964  1.00  0.00     0.051 A 
ATOM     15  C   UNL     1      15.481  22.899  34.647  1.00  0.00     0.157 A 
ATOM     16  C   UNL     1      14.728  25.078  33.895  1.00  0.00     0.062 A 
ATOM     17  C   UNL     1      15.261  23.817  33.608  1.00  0.00     0.158 A 
BRANCH  15  18
ATOM     18  O   UNL     1      16.012  21.640  34.367  1.00  0.00    -0.504 OA
ATOM     19  H   UNL     1      15.415  20.840  34.189  1.00  0.00     0.293 HD
ENDBRANCH  15  18
BRANCH  17  20
ATOM     20  O   UNL     1      15.564  23.495  32.285  1.00  0.00    -0.504 OA
ATOM     21  H   UNL     1      16.395  22.972  32.035  1.00  0.00     0.293 HD
ENDBRANCH  17  20
ENDBRANCH   1  12
BRANCH   6  22
ATOM     22  O   UNL     1      11.260  31.244  36.078  1.00  0.00    -0.507 OA
ATOM     23  H   UNL     1      10.706  31.646  36.818  1.00  0.00     0.293 HD
ENDBRANCH   6  22
BRANCH   8  24
ATOM     24  O   UNL     1      15.851  32.181  37.125  1.00  0.00    -0.508 OA
ATOM     25  H   UNL     1      15.691  32.834  37.883  1.00  0.00     0.293 HD
ENDBRANCH   8  24
TORSDOF 5
ENDMDL
