MODEL 1
REMARK VINA RESULT:   122.922      0.000      0.000
REMARK INTER + INTRA:         135.370
REMARK INTER:                 133.701
REMARK INTRA:                   1.669
REMARK UNBOUND:                 1.669
REMARK SMILES C[C@@H]1[C@H](C)CC[C@]2(C(=O)[O-])CC[C@@]3(C)C(=CC[C@H]4[C@@]5(C)CC[C@H](O)C(C)(C)[C@H]5CC[C@@]43C)[C@@H]12
REMARK SMILES IDX 7 1 6 2 11 3 33 4 5 5 12 6 15 7 2 8 3 9 13 10 16 11 1 12
REMARK SMILES IDX 4 13 14 14 31 15 17 16 18 17 30 18 32 19 19 20 29 21 28 22
REMARK SMILES IDX 21 23 20 24 25 25 22 26 23 27 26 28 27 29 8 30 9 31 10 32
REMARK SMILES IDX 24 33
REMARK H PARENT 24 34
REMARK Flexibility Score: inf
ROOT
ATOM      1  C   UNL     1      15.903   1.783  12.793  1.00  0.00     0.017 C 
ATOM      2  C   UNL     1      15.333   0.343  12.738  1.00  0.00     0.014 C 
ATOM      3  C   UNL     1      14.868   2.696  13.557  1.00  0.00     0.014 C 
ATOM      4  C   UNL     1      16.106   2.360  11.350  1.00  0.00     0.030 C 
ATOM      5  C   UNL     1      16.186  -0.578  11.863  1.00  0.00     0.004 C 
ATOM      6  C   UNL     1      14.711   4.144  13.006  1.00  0.00     0.013 C 
ATOM      7  C   UNL     1      16.710   3.778  11.487  1.00  0.00    -0.063 C 
ATOM      8  C   UNL     1      16.777   1.376  10.317  1.00  0.00    -0.003 C 
ATOM      9  C   UNL     1      16.219  -0.082  10.412  1.00  0.00    -0.011 C 
ATOM     10  C   UNL     1      16.031   4.770  12.451  1.00  0.00    -0.006 C 
ATOM     11  C   UNL     1      17.754   4.212  10.739  1.00  0.00    -0.027 C 
ATOM     12  C   UNL     1      16.631   1.876   8.854  1.00  0.00     0.008 C 
ATOM     13  C   UNL     1      14.842  -0.281   9.734  1.00  0.00     0.008 C 
ATOM     14  C   UNL     1      16.978   4.976  13.686  1.00  0.00     0.017 C 
ATOM     15  C   UNL     1      15.770   6.122  11.626  1.00  0.00    -0.020 C 
ATOM     16  C   UNL     1      17.941   5.661  10.319  1.00  0.00     0.032 C 
ATOM     17  C   UNL     1      17.162   6.696  11.178  1.00  0.00     0.006 C 
ATOM     18  C   UNL     1      15.065   7.220  12.471  1.00  0.00     0.008 C 
ATOM     19  C   UNL     1      14.885   5.789  10.381  1.00  0.00     0.012 C 
ATOM     20  C   UNL     1      17.220   8.256  10.746  1.00  0.00    -0.025 C 
ATOM     21  C   UNL     1      14.724   8.498  11.683  1.00  0.00     0.005 C 
ATOM     22  C   UNL     1      15.786   8.981  10.636  1.00  0.00     0.003 C 
ATOM     23  C   UNL     1      18.117   8.526   9.481  1.00  0.00     0.010 C 
ATOM     24  C   UNL     1      17.998   8.989  11.902  1.00  0.00     0.012 C 
ATOM     25  C   UNL     1      15.176   9.402   9.204  1.00  0.00    -0.006 C 
ATOM     26  C   UNL     1      17.369   8.591   8.160  1.00  0.00     0.033 C 
ATOM     27  C   UNL     1      16.313   9.704   8.176  1.00  0.00     0.120 C 
ATOM     28  C   UNL     1      14.213   8.378   8.525  1.00  0.00     0.014 C 
ATOM     29  C   UNL     1      14.315  10.692   9.386  1.00  0.00     0.014 C 
ENDROOT
BRANCH   1  30
ATOM     30  C   UNL     1      17.215   1.715  13.578  1.00  0.00     0.048 C 
ATOM     31  O   UNL     1      18.124   2.571  13.413  1.00  0.00    -0.550 OA
ATOM     32  O   UNL     1      17.450   0.653  14.445  1.00  0.00    -0.550 OA
ENDBRANCH   1  30
BRANCH  27  33
ATOM     33  O   UNL     1      16.915  10.967   8.356  1.00  0.00    -0.393 OA
ATOM     34  H   UNL     1      17.515  11.149   7.589  1.00  0.00     0.210 HD
ENDBRANCH  27  33
TORSDOF 2
ENDMDL
