MODEL 1
REMARK VINA RESULT:    -3.599      0.000      0.000
REMARK INTER + INTRA:          -5.623
REMARK INTER:                  -5.072
REMARK INTRA:                  -0.552
REMARK UNBOUND:                -0.552
REMARK SMILES CCCCCCCCC(=O)[O-]
REMARK SMILES IDX 6 1 7 2 8 3 9 4 10 5 11 6 5 7 4 8 3 9 2 10 1 11
REMARK H PARENT
REMARK Flexibility Score: inf
ROOT
ATOM      1  C   UNL     1      -4.918   5.558  -2.253  1.00  0.00     0.000 C 
ENDROOT
BRANCH   1   2
ATOM      2  C   UNL     1      -5.354   6.416  -1.055  1.00  0.00     0.006 C 
BRANCH   2   3
ATOM      3  C   UNL     1      -6.865   6.683  -1.038  1.00  0.00     0.053 C 
BRANCH   3   4
ATOM      4  C   UNL     1      -7.511   5.954   0.096  1.00  0.00     0.041 C 
ATOM      5  O   UNL     1      -6.849   5.125   0.777  1.00  0.00    -0.550 OA
ATOM      6  O   UNL     1      -8.859   6.151   0.372  1.00  0.00    -0.550 OA
ENDBRANCH   3   4
ENDBRANCH   2   3
ENDBRANCH   1   2
BRANCH   1   7
ATOM      7  C   UNL     1      -3.948   6.296  -3.188  1.00  0.00     0.000 C 
BRANCH   7   8
ATOM      8  C   UNL     1      -2.838   6.992  -2.389  1.00  0.00    -0.000 C 
BRANCH   8   9
ATOM      9  C   UNL     1      -1.539   6.174  -2.427  1.00  0.00    -0.000 C 
BRANCH   9  10
ATOM     10  C   UNL     1      -1.327   5.345  -1.150  1.00  0.00    -0.003 C 
ATOM     11  C   UNL     1      -1.886   6.028   0.098  1.00  0.00     0.004 C 
ENDBRANCH   9  10
ENDBRANCH   8   9
ENDBRANCH   7   8
ENDBRANCH   1   7
TORSDOF 7
ENDMDL
MODEL 2
REMARK VINA RESULT:    -3.556      3.196      5.028
REMARK INTER + INTRA:          -5.563
REMARK INTER:                  -5.197
REMARK INTRA:                  -0.366
REMARK UNBOUND:                -0.552
REMARK SMILES CCCCCCCCC(=O)[O-]
REMARK SMILES IDX 6 1 7 2 8 3 9 4 10 5 11 6 5 7 4 8 3 9 2 10 1 11
REMARK H PARENT
REMARK Flexibility Score: inf
ROOT
ATOM      1  C   UNL     1      -4.979   5.819  -3.014  1.00  0.00     0.000 C 
ENDROOT
BRANCH   1   2
ATOM      2  C   UNL     1      -4.355   5.869  -1.610  1.00  0.00     0.006 C 
BRANCH   2   3
ATOM      3  C   UNL     1      -2.830   5.705  -1.634  1.00  0.00     0.053 C 
BRANCH   3   4
ATOM      4  C   UNL     1      -2.264   5.884  -0.262  1.00  0.00     0.041 C 
ATOM      5  O   UNL     1      -1.118   6.384  -0.108  1.00  0.00    -0.550 OA
ATOM      6  O   UNL     1      -2.982   5.453   0.848  1.00  0.00    -0.550 OA
ENDBRANCH   3   4
ENDBRANCH   2   3
ENDBRANCH   1   2
BRANCH   1   7
ATOM      7  C   UNL     1      -4.071   6.439  -4.087  1.00  0.00     0.000 C 
BRANCH   7   8
ATOM      8  C   UNL     1      -4.617   6.164  -5.494  1.00  0.00    -0.000 C 
BRANCH   8   9
ATOM      9  C   UNL     1      -5.868   5.275  -5.433  1.00  0.00    -0.000 C 
BRANCH   9  10
ATOM     10  C   UNL     1      -5.760   4.042  -6.343  1.00  0.00    -0.003 C 
ATOM     11  C   UNL     1      -4.756   4.232  -7.480  1.00  0.00     0.004 C 
ENDBRANCH   9  10
ENDBRANCH   8   9
ENDBRANCH   7   8
ENDBRANCH   1   7
TORSDOF 7
ENDMDL
MODEL 3
REMARK VINA RESULT:    -3.532      3.469      5.539
REMARK INTER + INTRA:          -5.529
REMARK INTER:                  -5.280
REMARK INTRA:                  -0.248
REMARK UNBOUND:                -0.552
REMARK SMILES CCCCCCCCC(=O)[O-]
REMARK SMILES IDX 6 1 7 2 8 3 9 4 10 5 11 6 5 7 4 8 3 9 2 10 1 11
REMARK H PARENT
REMARK Flexibility Score: inf
ROOT
ATOM      1  C   UNL     1      -4.202   5.693  -1.992  1.00  0.00     0.000 C 
ENDROOT
BRANCH   1   2
ATOM      2  C   UNL     1      -2.917   6.456  -2.348  1.00  0.00     0.006 C 
BRANCH   2   3
ATOM      3  C   UNL     1      -1.647   5.709  -1.920  1.00  0.00     0.053 C 
BRANCH   3   4
ATOM      4  C   UNL     1      -1.130   6.258  -0.629  1.00  0.00     0.041 C 
ATOM      5  O   UNL     1      -1.854   6.244   0.402  1.00  0.00    -0.550 OA
ATOM      6  O   UNL     1       0.135   6.831  -0.574  1.00  0.00    -0.550 OA
ENDBRANCH   3   4
ENDBRANCH   2   3
ENDBRANCH   1   2
BRANCH   1   7
ATOM      7  C   UNL     1      -5.310   5.876  -3.042  1.00  0.00     0.000 C 
BRANCH   7   8
ATOM      8  C   UNL     1      -4.712   6.076  -4.440  1.00  0.00    -0.000 C 
BRANCH   8   9
ATOM      9  C   UNL     1      -5.747   5.761  -5.530  1.00  0.00    -0.000 C 
BRANCH   9  10
ATOM     10  C   UNL     1      -5.650   4.312  -6.034  1.00  0.00    -0.003 C 
ATOM     11  C   UNL     1      -4.946   4.202  -7.385  1.00  0.00     0.004 C 
ENDBRANCH   9  10
ENDBRANCH   8   9
ENDBRANCH   7   8
ENDBRANCH   1   7
TORSDOF 7
ENDMDL
MODEL 4
REMARK VINA RESULT:    -3.412     13.397     14.432
REMARK INTER + INTRA:          -5.361
REMARK INTER:                  -5.065
REMARK INTRA:                  -0.296
REMARK UNBOUND:                -0.552
REMARK SMILES CCCCCCCCC(=O)[O-]
REMARK SMILES IDX 6 1 7 2 8 3 9 4 10 5 11 6 5 7 4 8 3 9 2 10 1 11
REMARK H PARENT
REMARK Flexibility Score: inf
ROOT
ATOM      1  C   UNL     1      -8.781  -6.635  -4.209  1.00  0.00     0.000 C 
ENDROOT
BRANCH   1   2
ATOM      2  C   UNL     1      -9.502  -5.407  -4.786  1.00  0.00     0.006 C 
BRANCH   2   3
ATOM      3  C   UNL     1      -8.529  -4.322  -5.266  1.00  0.00     0.053 C 
BRANCH   3   4
ATOM      4  C   UNL     1      -8.328  -3.292  -4.202  1.00  0.00     0.041 C 
ATOM      5  O   UNL     1      -7.358  -2.491  -4.268  1.00  0.00    -0.550 OA
ATOM      6  O   UNL     1      -9.184  -3.247  -3.107  1.00  0.00    -0.550 OA
ENDBRANCH   3   4
ENDBRANCH   2   3
ENDBRANCH   1   2
BRANCH   1   7
ATOM      7  C   UNL     1      -9.707  -7.854  -4.071  1.00  0.00     0.000 C 
BRANCH   7   8
ATOM      8  C   UNL     1      -9.030  -9.122  -4.607  1.00  0.00    -0.000 C 
BRANCH   8   9
ATOM      9  C   UNL     1      -9.606 -10.378  -3.936  1.00  0.00    -0.000 C 
BRANCH   9  10
ATOM     10  C   UNL     1      -9.980 -10.141  -2.465  1.00  0.00    -0.003 C 
ATOM     11  C   UNL     1      -8.883 -10.582  -1.497  1.00  0.00     0.004 C 
ENDBRANCH   9  10
ENDBRANCH   8   9
ENDBRANCH   7   8
ENDBRANCH   1   7
TORSDOF 7
ENDMDL
MODEL 5
REMARK VINA RESULT:    -3.375      3.313      4.080
REMARK INTER + INTRA:          -5.308
REMARK INTER:                  -4.791
REMARK INTRA:                  -0.517
REMARK UNBOUND:                -0.552
REMARK SMILES CCCCCCCCC(=O)[O-]
REMARK SMILES IDX 6 1 7 2 8 3 9 4 10 5 11 6 5 7 4 8 3 9 2 10 1 11
REMARK H PARENT
REMARK Flexibility Score: inf
ROOT
ATOM      1  C   UNL     1      -4.946   5.479  -2.231  1.00  0.00     0.000 C 
ENDROOT
BRANCH   1   2
ATOM      2  C   UNL     1      -5.267   6.667  -3.151  1.00  0.00     0.006 C 
BRANCH   2   3
ATOM      3  C   UNL     1      -6.113   6.262  -4.366  1.00  0.00     0.053 C 
BRANCH   3   4
ATOM      4  C   UNL     1      -5.258   5.605  -5.401  1.00  0.00     0.041 C 
ATOM      5  O   UNL     1      -5.654   4.560  -5.981  1.00  0.00    -0.550 OA
ATOM      6  O   UNL     1      -3.999   6.119  -5.692  1.00  0.00    -0.550 OA
ENDBRANCH   3   4
ENDBRANCH   2   3
ENDBRANCH   1   2
BRANCH   1   7
ATOM      7  C   UNL     1      -4.721   5.905  -0.772  1.00  0.00     0.000 C 
BRANCH   7   8
ATOM      8  C   UNL     1      -3.294   6.429  -0.566  1.00  0.00    -0.000 C 
BRANCH   8   9
ATOM      9  C   UNL     1      -2.281   5.274  -0.553  1.00  0.00    -0.000 C 
BRANCH   9  10
ATOM     10  C   UNL     1      -1.117   5.499  -1.530  1.00  0.00    -0.003 C 
ATOM     11  C   UNL     1      -1.484   6.433  -2.682  1.00  0.00     0.004 C 
ENDBRANCH   9  10
ENDBRANCH   8   9
ENDBRANCH   7   8
ENDBRANCH   1   7
TORSDOF 7
ENDMDL
MODEL 6
REMARK VINA RESULT:    -3.329     11.791     12.885
REMARK INTER + INTRA:          -5.243
REMARK INTER:                  -4.994
REMARK INTRA:                  -0.249
REMARK UNBOUND:                -0.552
REMARK SMILES CCCCCCCCC(=O)[O-]
REMARK SMILES IDX 6 1 7 2 8 3 9 4 10 5 11 6 5 7 4 8 3 9 2 10 1 11
REMARK H PARENT
REMARK Flexibility Score: inf
ROOT
ATOM      1  C   UNL     1      -8.044  -4.069  -3.778  1.00  0.00     0.000 C 
ENDROOT
BRANCH   1   2
ATOM      2  C   UNL     1      -7.913  -2.661  -4.381  1.00  0.00     0.006 C 
BRANCH   2   3
ATOM      3  C   UNL     1      -9.224  -2.157  -4.997  1.00  0.00     0.053 C 
BRANCH   3   4
ATOM      4  C   UNL     1      -8.963  -1.500  -6.314  1.00  0.00     0.041 C 
ATOM      5  O   UNL     1      -8.223  -2.059  -7.166  1.00  0.00    -0.550 OA
ATOM      6  O   UNL     1      -9.497  -0.246  -6.583  1.00  0.00    -0.550 OA
ENDBRANCH   3   4
ENDBRANCH   2   3
ENDBRANCH   1   2
BRANCH   1   7
ATOM      7  C   UNL     1      -8.576  -5.098  -4.788  1.00  0.00     0.000 C 
BRANCH   7   8
ATOM      8  C   UNL     1      -8.622  -6.501  -4.170  1.00  0.00    -0.000 C 
BRANCH   8   9
ATOM      9  C   UNL     1      -9.970  -7.180  -4.449  1.00  0.00    -0.000 C 
BRANCH   9  10
ATOM     10  C   UNL     1      -9.821  -8.673  -4.783  1.00  0.00    -0.003 C 
ATOM     11  C   UNL     1      -9.283  -9.490  -3.609  1.00  0.00     0.004 C 
ENDBRANCH   9  10
ENDBRANCH   8   9
ENDBRANCH   7   8
ENDBRANCH   1   7
TORSDOF 7
ENDMDL
MODEL 7
REMARK VINA RESULT:    -3.302     15.053     16.059
REMARK INTER + INTRA:          -5.205
REMARK INTER:                  -4.811
REMARK INTRA:                  -0.394
REMARK UNBOUND:                -0.552
REMARK SMILES CCCCCCCCC(=O)[O-]
REMARK SMILES IDX 6 1 7 2 8 3 9 4 10 5 11 6 5 7 4 8 3 9 2 10 1 11
REMARK H PARENT
REMARK Flexibility Score: inf
ROOT
ATOM      1  C   UNL     1      -5.378  -6.542   8.537  1.00  0.00     0.000 C 
ENDROOT
BRANCH   1   2
ATOM      2  C   UNL     1      -5.847  -5.607   9.662  1.00  0.00     0.006 C 
BRANCH   2   3
ATOM      3  C   UNL     1      -7.346  -5.293   9.585  1.00  0.00     0.053 C 
BRANCH   3   4
ATOM      4  C   UNL     1      -7.568  -3.952   8.961  1.00  0.00     0.041 C 
ATOM      5  O   UNL     1      -6.787  -2.997   9.217  1.00  0.00    -0.550 OA
ATOM      6  O   UNL     1      -8.666  -3.742   8.136  1.00  0.00    -0.550 OA
ENDBRANCH   3   4
ENDBRANCH   2   3
ENDBRANCH   1   2
BRANCH   1   7
ATOM      7  C   UNL     1      -4.290  -7.524   8.998  1.00  0.00     0.000 C 
BRANCH   7   8
ATOM      8  C   UNL     1      -3.784  -8.373   7.824  1.00  0.00    -0.000 C 
BRANCH   8   9
ATOM      9  C   UNL     1      -4.629  -8.129   6.566  1.00  0.00    -0.000 C 
BRANCH   9  10
ATOM     10  C   UNL     1      -5.390  -9.385   6.114  1.00  0.00    -0.003 C 
ATOM     11  C   UNL     1      -6.375  -9.891   7.167  1.00  0.00     0.004 C 
ENDBRANCH   9  10
ENDBRANCH   8   9
ENDBRANCH   7   8
ENDBRANCH   1   7
TORSDOF 7
ENDMDL
MODEL 8
REMARK VINA RESULT:    -3.282     17.300     18.648
REMARK INTER + INTRA:          -5.177
REMARK INTER:                  -4.799
REMARK INTRA:                  -0.378
REMARK UNBOUND:                -0.552
REMARK SMILES CCCCCCCCC(=O)[O-]
REMARK SMILES IDX 6 1 7 2 8 3 9 4 10 5 11 6 5 7 4 8 3 9 2 10 1 11
REMARK H PARENT
REMARK Flexibility Score: inf
ROOT
ATOM      1  C   UNL     1      -2.434  -9.054   8.626  1.00  0.00     0.000 C 
ENDROOT
BRANCH   1   2
ATOM      2  C   UNL     1      -0.985  -8.845   9.094  1.00  0.00     0.006 C 
BRANCH   2   3
ATOM      3  C   UNL     1      -0.052  -9.980   8.652  1.00  0.00     0.053 C 
BRANCH   3   4
ATOM      4  C   UNL     1       1.315  -9.449   8.360  1.00  0.00     0.041 C 
ATOM      5  O   UNL     1       2.044  -9.024   9.295  1.00  0.00    -0.550 OA
ATOM      6  O   UNL     1       1.766  -9.376   7.048  1.00  0.00    -0.550 OA
ENDBRANCH   3   4
ENDBRANCH   2   3
ENDBRANCH   1   2
BRANCH   1   7
ATOM      7  C   UNL     1      -3.415  -8.069   9.282  1.00  0.00     0.000 C 
BRANCH   7   8
ATOM      8  C   UNL     1      -4.481  -7.608   8.280  1.00  0.00    -0.000 C 
BRANCH   8   9
ATOM      9  C   UNL     1      -4.122  -8.049   6.854  1.00  0.00    -0.000 C 
BRANCH   9  10
ATOM     10  C   UNL     1      -5.221  -8.909   6.209  1.00  0.00    -0.003 C 
ATOM     11  C   UNL     1      -5.757  -9.986   7.150  1.00  0.00     0.004 C 
ENDBRANCH   9  10
ENDBRANCH   8   9
ENDBRANCH   7   8
ENDBRANCH   1   7
TORSDOF 7
ENDMDL
MODEL 9
REMARK VINA RESULT:    -3.265     17.201     18.650
REMARK INTER + INTRA:          -5.153
REMARK INTER:                  -4.833
REMARK INTRA:                  -0.320
REMARK UNBOUND:                -0.552
REMARK SMILES CCCCCCCCC(=O)[O-]
REMARK SMILES IDX 6 1 7 2 8 3 9 4 10 5 11 6 5 7 4 8 3 9 2 10 1 11
REMARK H PARENT
REMARK Flexibility Score: inf
ROOT
ATOM      1  C   UNL     1      -1.818  -8.726   9.814  1.00  0.00     0.000 C 
ENDROOT
BRANCH   1   2
ATOM      2  C   UNL     1      -0.948  -9.309   8.689  1.00  0.00     0.006 C 
BRANCH   2   3
ATOM      3  C   UNL     1       0.549  -9.048   8.903  1.00  0.00     0.053 C 
BRANCH   3   4
ATOM      4  C   UNL     1       1.360  -9.834   7.923  1.00  0.00     0.041 C 
ATOM      5  O   UNL     1       2.181  -9.250   7.167  1.00  0.00    -0.550 OA
ATOM      6  O   UNL     1       1.175 -11.206   7.809  1.00  0.00    -0.550 OA
ENDBRANCH   3   4
ENDBRANCH   2   3
ENDBRANCH   1   2
BRANCH   1   7
ATOM      7  C   UNL     1      -3.286  -8.548   9.396  1.00  0.00     0.000 C 
BRANCH   7   8
ATOM      8  C   UNL     1      -3.415  -8.455   7.870  1.00  0.00    -0.000 C 
BRANCH   8   9
ATOM      9  C   UNL     1      -4.541  -7.490   7.473  1.00  0.00    -0.000 C 
BRANCH   9  10
ATOM     10  C   UNL     1      -5.616  -7.357   8.563  1.00  0.00    -0.003 C 
ATOM     11  C   UNL     1      -5.845  -5.910   8.995  1.00  0.00     0.004 C 
ENDBRANCH   9  10
ENDBRANCH   8   9
ENDBRANCH   7   8
ENDBRANCH   1   7
TORSDOF 7
ENDMDL
