MODEL 1
REMARK VINA RESULT:    -4.801      0.000      0.000
REMARK INTER + INTRA:          -5.082
REMARK INTER:                  -5.082
REMARK INTRA:                   0.000
REMARK UNBOUND:                 0.000
REMARK SMILES O=c1ccc2cc(O)c(O)cc2o1
REMARK SMILES IDX 4 1 3 2 2 3 1 4 13 5 12 6 11 7 9 8 7 9 6 10 5 11 8 12 10 14
REMARK H PARENT 8 13 10 15
REMARK Flexibility Score: inf
ROOT
ATOM      1  C   UNL     1       5.780  -4.426  24.337  1.00  0.00     0.019 A 
ATOM      2  C   UNL     1       5.105  -3.568  25.205  1.00  0.00     0.094 A 
ATOM      3  C   UNL     1       5.613  -3.369  26.493  1.00  0.00     0.336 A 
ATOM      4  O   UNL     1       5.018  -2.597  27.290  1.00  0.00    -0.246 OA
ATOM      5  O   UNL     1       6.722  -3.991  26.883  1.00  0.00    -0.423 OA
ATOM      6  C   UNL     1       7.397  -4.818  26.088  1.00  0.00     0.142 A 
ATOM      7  C   UNL     1       8.558  -5.444  26.553  1.00  0.00     0.098 A 
ATOM      8  C   UNL     1       9.272  -6.316  25.718  1.00  0.00     0.161 A 
ATOM      9  C   UNL     1       8.822  -6.563  24.413  1.00  0.00     0.158 A 
ATOM     10  C   UNL     1       7.658  -5.938  23.941  1.00  0.00     0.062 A 
ATOM     11  C   UNL     1       6.944  -5.066  24.774  1.00  0.00     0.022 A 
ENDROOT
BRANCH   9  12
ATOM     12  O   UNL     1       9.538  -7.432  23.591  1.00  0.00    -0.504 OA
ATOM     13  H   UNL     1      10.521  -7.621  23.747  1.00  0.00     0.293 HD
ENDBRANCH   9  12
BRANCH   8  14
ATOM     14  O   UNL     1      10.429  -6.941  26.179  1.00  0.00    -0.504 OA
ATOM     15  H   UNL     1      10.957  -7.578  25.593  1.00  0.00     0.293 HD
ENDBRANCH   8  14
TORSDOF 2
ENDMDL
MODEL 2
REMARK VINA RESULT:    -4.608      1.118      2.260
REMARK INTER + INTRA:          -4.878
REMARK INTER:                  -4.878
REMARK INTRA:                   0.000
REMARK UNBOUND:                 0.000
REMARK SMILES O=c1ccc2cc(O)c(O)cc2o1
REMARK SMILES IDX 4 1 3 2 2 3 1 4 13 5 12 6 11 7 9 8 7 9 6 10 5 11 8 12 10 14
REMARK H PARENT 8 13 10 15
REMARK Flexibility Score: inf
ROOT
ATOM      1  C   UNL     1       6.525  -3.801  27.099  1.00  0.00     0.019 A 
ATOM      2  C   UNL     1       5.334  -3.210  26.681  1.00  0.00     0.094 A 
ATOM      3  C   UNL     1       4.846  -3.498  25.403  1.00  0.00     0.336 A 
ATOM      4  O   UNL     1       3.771  -2.973  25.008  1.00  0.00    -0.246 OA
ATOM      5  O   UNL     1       5.509  -4.324  24.599  1.00  0.00    -0.423 OA
ATOM      6  C   UNL     1       6.649  -4.910  24.957  1.00  0.00     0.142 A 
ATOM      7  C   UNL     1       7.303  -5.770  24.069  1.00  0.00     0.098 A 
ATOM      8  C   UNL     1       8.505  -6.389  24.443  1.00  0.00     0.161 A 
ATOM      9  C   UNL     1       9.055  -6.148  25.710  1.00  0.00     0.158 A 
ATOM     10  C   UNL     1       8.403  -5.286  26.605  1.00  0.00     0.062 A 
ATOM     11  C   UNL     1       7.202  -4.666  26.233  1.00  0.00     0.022 A 
ENDROOT
BRANCH   9  12
ATOM     12  O   UNL     1      10.249  -6.767  26.073  1.00  0.00    -0.504 OA
ATOM     13  H   UNL     1      10.902  -7.109  25.377  1.00  0.00     0.293 HD
ENDBRANCH   9  12
BRANCH   8  14
ATOM     14  O   UNL     1       9.159  -7.247  23.560  1.00  0.00    -0.504 OA
ATOM     15  H   UNL     1       8.674  -7.675  22.780  1.00  0.00     0.293 HD
ENDBRANCH   8  14
TORSDOF 2
ENDMDL
MODEL 3
REMARK VINA RESULT:    -4.538      1.101      4.537
REMARK INTER + INTRA:          -4.803
REMARK INTER:                  -4.803
REMARK INTRA:                   0.000
REMARK UNBOUND:                 0.000
REMARK SMILES O=c1ccc2cc(O)c(O)cc2o1
REMARK SMILES IDX 4 1 3 2 2 3 1 4 13 5 12 6 11 7 9 8 7 9 6 10 5 11 8 12 10 14
REMARK H PARENT 8 13 10 15
REMARK Flexibility Score: inf
ROOT
ATOM      1  C   UNL     1       7.650  -5.928  24.014  1.00  0.00     0.019 A 
ATOM      2  C   UNL     1       8.731  -6.643  24.529  1.00  0.00     0.094 A 
ATOM      3  C   UNL     1       9.104  -6.441  25.862  1.00  0.00     0.336 A 
ATOM      4  O   UNL     1      10.077  -7.078  26.345  1.00  0.00    -0.246 OA
ATOM      5  O   UNL     1       8.437  -5.580  26.625  1.00  0.00    -0.423 OA
ATOM      6  C   UNL     1       7.400  -4.877  26.175  1.00  0.00     0.142 A 
ATOM      7  C   UNL     1       6.737  -3.986  27.024  1.00  0.00     0.098 A 
ATOM      8  C   UNL     1       5.645  -3.243  26.553  1.00  0.00     0.161 A 
ATOM      9  C   UNL     1       5.213  -3.393  25.227  1.00  0.00     0.158 A 
ATOM     10  C   UNL     1       5.875  -4.286  24.370  1.00  0.00     0.062 A 
ATOM     11  C   UNL     1       6.967  -5.029  24.840  1.00  0.00     0.022 A 
ENDROOT
BRANCH   9  12
ATOM     12  O   UNL     1       4.127  -2.651  24.767  1.00  0.00    -0.504 OA
ATOM     13  H   UNL     1       3.173  -2.956  24.923  1.00  0.00     0.293 HD
ENDBRANCH   9  12
BRANCH   8  14
ATOM     14  O   UNL     1       4.982  -2.354  27.397  1.00  0.00    -0.504 OA
ATOM     15  H   UNL     1       3.995  -2.455  27.604  1.00  0.00     0.293 HD
ENDBRANCH   8  14
TORSDOF 2
ENDMDL
MODEL 4
REMARK VINA RESULT:    -4.340      1.185      5.040
REMARK INTER + INTRA:          -4.594
REMARK INTER:                  -4.594
REMARK INTRA:                   0.000
REMARK UNBOUND:                 0.000
REMARK SMILES O=c1ccc2cc(O)c(O)cc2o1
REMARK SMILES IDX 4 1 3 2 2 3 1 4 13 5 12 6 11 7 9 8 7 9 6 10 5 11 8 12 10 14
REMARK H PARENT 8 13 10 15
REMARK Flexibility Score: inf
ROOT
ATOM      1  C   UNL     1       8.432  -5.960  26.521  1.00  0.00     0.019 A 
ATOM      2  C   UNL     1       8.985  -6.878  25.630  1.00  0.00     0.094 A 
ATOM      3  C   UNL     1       8.503  -6.925  24.317  1.00  0.00     0.336 A 
ATOM      4  O   UNL     1       8.990  -7.748  23.498  1.00  0.00    -0.246 OA
ATOM      5  O   UNL     1       7.531  -6.105  23.927  1.00  0.00    -0.423 OA
ATOM      6  C   UNL     1       6.975  -5.213  24.744  1.00  0.00     0.142 A 
ATOM      7  C   UNL     1       5.956  -4.377  24.278  1.00  0.00     0.098 A 
ATOM      8  C   UNL     1       5.368  -3.436  25.136  1.00  0.00     0.161 A 
ATOM      9  C   UNL     1       5.800  -3.332  26.466  1.00  0.00     0.158 A 
ATOM     10  C   UNL     1       6.822  -4.169  26.939  1.00  0.00     0.062 A 
ATOM     11  C   UNL     1       7.411  -5.109  26.083  1.00  0.00     0.022 A 
ENDROOT
BRANCH   9  12
ATOM     12  O   UNL     1       5.209  -2.395  27.311  1.00  0.00    -0.504 OA
ATOM     13  H   UNL     1       5.726  -1.964  28.069  1.00  0.00     0.293 HD
ENDBRANCH   9  12
BRANCH   8  14
ATOM     14  O   UNL     1       4.352  -2.601  24.674  1.00  0.00    -0.504 OA
ATOM     15  H   UNL     1       4.055  -1.787  25.199  1.00  0.00     0.293 HD
ENDBRANCH   8  14
TORSDOF 2
ENDMDL
MODEL 5
REMARK VINA RESULT:    -4.074      1.534      2.614
REMARK INTER + INTRA:          -4.312
REMARK INTER:                  -4.312
REMARK INTRA:                   0.000
REMARK UNBOUND:                 0.000
REMARK SMILES O=c1ccc2cc(O)c(O)cc2o1
REMARK SMILES IDX 4 1 3 2 2 3 1 4 13 5 12 6 11 7 9 8 7 9 6 10 5 11 8 12 10 14
REMARK H PARENT 8 13 10 15
REMARK Flexibility Score: inf
ROOT
ATOM      1  C   UNL     1       5.520  -3.421  27.255  1.00  0.00     0.019 A 
ATOM      2  C   UNL     1       4.278  -2.969  26.810  1.00  0.00     0.094 A 
ATOM      3  C   UNL     1       3.846  -3.324  25.528  1.00  0.00     0.336 A 
ATOM      4  O   UNL     1       2.728  -2.925  25.110  1.00  0.00    -0.246 OA
ATOM      5  O   UNL     1       4.610  -4.081  24.746  1.00  0.00    -0.423 OA
ATOM      6  C   UNL     1       5.801  -4.535  25.130  1.00  0.00     0.142 A 
ATOM      7  C   UNL     1       6.561  -5.328  24.264  1.00  0.00     0.098 A 
ATOM      8  C   UNL     1       7.816  -5.807  24.665  1.00  0.00     0.161 A 
ATOM      9  C   UNL     1       8.315  -5.491  25.938  1.00  0.00     0.158 A 
ATOM     10  C   UNL     1       7.557  -4.696  26.811  1.00  0.00     0.062 A 
ATOM     11  C   UNL     1       6.302  -4.217  26.411  1.00  0.00     0.022 A 
ENDROOT
BRANCH   9  12
ATOM     12  O   UNL     1       9.564  -5.972  26.327  1.00  0.00    -0.504 OA
ATOM     13  H   UNL     1       9.842  -5.997  27.301  1.00  0.00     0.293 HD
ENDBRANCH   9  12
BRANCH   8  14
ATOM     14  O   UNL     1       8.576  -6.598  23.804  1.00  0.00    -0.504 OA
ATOM     15  H   UNL     1       8.926  -6.238  22.924  1.00  0.00     0.293 HD
ENDBRANCH   8  14
TORSDOF 2
ENDMDL
MODEL 6
REMARK VINA RESULT:    -4.032      1.481      5.372
REMARK INTER + INTRA:          -4.268
REMARK INTER:                  -4.268
REMARK INTRA:                   0.000
REMARK UNBOUND:                 0.000
REMARK SMILES O=c1ccc2cc(O)c(O)cc2o1
REMARK SMILES IDX 4 1 3 2 2 3 1 4 13 5 12 6 11 7 9 8 7 9 6 10 5 11 8 12 10 14
REMARK H PARENT 8 13 10 15
REMARK Flexibility Score: inf
ROOT
ATOM      1  C   UNL     1      10.367  -7.323  26.309  1.00  0.00     0.019 A 
ATOM      2  C   UNL     1      10.939  -8.251  25.440  1.00  0.00     0.094 A 
ATOM      3  C   UNL     1      10.398  -8.404  24.159  1.00  0.00     0.336 A 
ATOM      4  O   UNL     1      10.902  -9.236  23.360  1.00  0.00    -0.246 OA
ATOM      5  O   UNL     1       9.353  -7.675  23.778  1.00  0.00    -0.423 OA
ATOM      6  C   UNL     1       8.776  -6.778  24.575  1.00  0.00     0.142 A 
ATOM      7  C   UNL     1       7.679  -6.040  24.119  1.00  0.00     0.098 A 
ATOM      8  C   UNL     1       7.069  -5.095  24.956  1.00  0.00     0.161 A 
ATOM      9  C   UNL     1       7.557  -4.887  26.254  1.00  0.00     0.158 A 
ATOM     10  C   UNL     1       8.657  -5.624  26.717  1.00  0.00     0.062 A 
ATOM     11  C   UNL     1       9.269  -6.569  25.882  1.00  0.00     0.022 A 
ENDROOT
BRANCH   9  12
ATOM     12  O   UNL     1       6.943  -3.946  27.079  1.00  0.00    -0.504 OA
ATOM     13  H   UNL     1       7.090  -2.951  26.950  1.00  0.00     0.293 HD
ENDBRANCH   9  12
BRANCH   8  14
ATOM     14  O   UNL     1       5.975  -4.358  24.505  1.00  0.00    -0.504 OA
ATOM     15  H   UNL     1       5.105  -4.329  25.023  1.00  0.00     0.293 HD
ENDBRANCH   8  14
TORSDOF 2
ENDMDL
MODEL 7
REMARK VINA RESULT:    -4.012      2.171      3.655
REMARK INTER + INTRA:          -4.246
REMARK INTER:                  -4.246
REMARK INTRA:                   0.000
REMARK UNBOUND:                 0.000
REMARK SMILES O=c1ccc2cc(O)c(O)cc2o1
REMARK SMILES IDX 4 1 3 2 2 3 1 4 13 5 12 6 11 7 9 8 7 9 6 10 5 11 8 12 10 14
REMARK H PARENT 8 13 10 15
REMARK Flexibility Score: inf
ROOT
ATOM      1  C   UNL     1       5.409  -3.645  28.227  1.00  0.00     0.019 A 
ATOM      2  C   UNL     1       4.606  -2.608  28.701  1.00  0.00     0.094 A 
ATOM      3  C   UNL     1       4.032  -1.722  27.783  1.00  0.00     0.336 A 
ATOM      4  O   UNL     1       3.303  -0.780  28.192  1.00  0.00    -0.246 OA
ATOM      5  O   UNL     1       4.251  -1.866  26.479  1.00  0.00    -0.423 OA
ATOM      6  C   UNL     1       5.011  -2.841  25.985  1.00  0.00     0.142 A 
ATOM      7  C   UNL     1       5.206  -2.943  24.604  1.00  0.00     0.098 A 
ATOM      8  C   UNL     1       6.006  -3.968  24.079  1.00  0.00     0.161 A 
ATOM      9  C   UNL     1       6.614  -4.895  24.938  1.00  0.00     0.158 A 
ATOM     10  C   UNL     1       6.422  -4.797  26.325  1.00  0.00     0.062 A 
ATOM     11  C   UNL     1       5.623  -3.773  26.851  1.00  0.00     0.022 A 
ENDROOT
BRANCH   9  12
ATOM     12  O   UNL     1       7.408  -5.910  24.408  1.00  0.00    -0.504 OA
ATOM     13  H   UNL     1       7.002  -6.700  23.920  1.00  0.00     0.293 HD
ENDBRANCH   9  12
BRANCH   8  14
ATOM     14  O   UNL     1       6.203  -4.073  22.703  1.00  0.00    -0.504 OA
ATOM     15  H   UNL     1       5.625  -4.676  22.129  1.00  0.00     0.293 HD
ENDBRANCH   8  14
TORSDOF 2
ENDMDL
MODEL 8
REMARK VINA RESULT:    -3.993      2.110      2.997
REMARK INTER + INTRA:          -4.226
REMARK INTER:                  -4.226
REMARK INTRA:                   0.000
REMARK UNBOUND:                 0.000
REMARK SMILES O=c1ccc2cc(O)c(O)cc2o1
REMARK SMILES IDX 4 1 3 2 2 3 1 4 13 5 12 6 11 7 9 8 7 9 6 10 5 11 8 12 10 14
REMARK H PARENT 8 13 10 15
REMARK Flexibility Score: inf
ROOT
ATOM      1  C   UNL     1       6.728  -5.017  26.309  1.00  0.00     0.019 A 
ATOM      2  C   UNL     1       6.143  -4.517  25.146  1.00  0.00     0.094 A 
ATOM      3  C   UNL     1       6.727  -4.815  23.911  1.00  0.00     0.336 A 
ATOM      4  O   UNL     1       6.213  -4.373  22.850  1.00  0.00    -0.246 OA
ATOM      5  O   UNL     1       7.824  -5.564  23.848  1.00  0.00    -0.423 OA
ATOM      6  C   UNL     1       8.415  -6.062  24.932  1.00  0.00     0.142 A 
ATOM      7  C   UNL     1       9.568  -6.843  24.804  1.00  0.00     0.098 A 
ATOM      8  C   UNL     1      10.193  -7.369  25.944  1.00  0.00     0.161 A 
ATOM      9  C   UNL     1       9.664  -7.112  27.217  1.00  0.00     0.158 A 
ATOM     10  C   UNL     1       8.508  -6.328  27.351  1.00  0.00     0.062 A 
ATOM     11  C   UNL     1       7.882  -5.802  26.213  1.00  0.00     0.022 A 
ENDROOT
BRANCH   9  12
ATOM     12  O   UNL     1      10.292  -7.638  28.344  1.00  0.00    -0.504 OA
ATOM     13  H   UNL     1       9.878  -8.392  28.879  1.00  0.00     0.293 HD
ENDBRANCH   9  12
BRANCH   8  14
ATOM     14  O   UNL     1      11.342  -8.149  25.820  1.00  0.00    -0.504 OA
ATOM     15  H   UNL     1      11.816  -8.257  24.931  1.00  0.00     0.293 HD
ENDBRANCH   8  14
TORSDOF 2
ENDMDL
MODEL 9
REMARK VINA RESULT:    -3.972      1.877      4.210
REMARK INTER + INTRA:          -4.204
REMARK INTER:                  -4.204
REMARK INTRA:                   0.000
REMARK UNBOUND:                 0.000
REMARK SMILES O=c1ccc2cc(O)c(O)cc2o1
REMARK SMILES IDX 4 1 3 2 2 3 1 4 13 5 12 6 11 7 9 8 7 9 6 10 5 11 8 12 10 14
REMARK H PARENT 8 13 10 15
REMARK Flexibility Score: inf
ROOT
ATOM      1  C   UNL     1       9.281  -6.592  25.018  1.00  0.00     0.019 A 
ATOM      2  C   UNL     1       9.766  -7.022  26.252  1.00  0.00     0.094 A 
ATOM      3  C   UNL     1       9.103  -6.626  27.418  1.00  0.00     0.336 A 
ATOM      4  O   UNL     1       9.526  -7.004  28.542  1.00  0.00    -0.246 OA
ATOM      5  O   UNL     1       8.024  -5.850  27.348  1.00  0.00    -0.423 OA
ATOM      6  C   UNL     1       7.527  -5.417  26.192  1.00  0.00     0.142 A 
ATOM      7  C   UNL     1       6.390  -4.602  26.180  1.00  0.00     0.098 A 
ATOM      8  C   UNL     1       5.864  -4.144  24.964  1.00  0.00     0.161 A 
ATOM      9  C   UNL     1       6.477  -4.501  23.754  1.00  0.00     0.158 A 
ATOM     10  C   UNL     1       7.617  -5.318  23.760  1.00  0.00     0.062 A 
ATOM     11  C   UNL     1       8.145  -5.777  24.974  1.00  0.00     0.022 A 
ENDROOT
BRANCH   9  12
ATOM     12  O   UNL     1       5.946  -4.041  22.550  1.00  0.00    -0.504 OA
ATOM     13  H   UNL     1       5.529  -3.121  22.472  1.00  0.00     0.293 HD
ENDBRANCH   9  12
BRANCH   8  14
ATOM     14  O   UNL     1       4.731  -3.332  24.949  1.00  0.00    -0.504 OA
ATOM     15  H   UNL     1       3.841  -3.671  24.603  1.00  0.00     0.293 HD
ENDBRANCH   8  14
TORSDOF 2
ENDMDL
