MODEL 1
REMARK VINA RESULT:    -5.545      0.000      0.000
REMARK INTER + INTRA:          -9.520
REMARK INTER:                  -8.463
REMARK INTRA:                  -1.057
REMARK UNBOUND:                -1.057
REMARK SMILES CC(=O)CCC=C(C)CCC=C(C)CCC=C(C)C
REMARK SMILES IDX 10 1 11 2 12 3 13 4 14 5 15 6 16 7 18 8 17 9 19 10 9 11 7 12
REMARK SMILES IDX 6 13 8 14 5 15 4 16 2 17 3 18 1 19
REMARK H PARENT
REMARK Flexibility Score: inf
ROOT
ATOM      1  C   UNL     1      76.282  36.029  52.201  1.00  0.00     0.032 C 
ENDROOT
BRANCH   1   2
ATOM      2  C   UNL     1      75.360  34.845  52.359  1.00  0.00    -0.028 C 
ATOM      3  C   UNL     1      74.276  34.856  53.167  1.00  0.00    -0.077 C 
ATOM      4  C   UNL     1      73.912  36.083  53.968  1.00  0.00     0.039 C 
BRANCH   3   5
ATOM      5  C   UNL     1      73.396  33.627  53.247  1.00  0.00     0.034 C 
BRANCH   5   6
ATOM      6  C   UNL     1      72.269  33.814  54.272  1.00  0.00     0.032 C 
BRANCH   6   7
ATOM      7  C   UNL     1      72.598  33.129  55.578  1.00  0.00    -0.028 C 
ATOM      8  C   UNL     1      72.277  32.559  57.951  1.00  0.00     0.039 C 
ATOM      9  C   UNL     1      71.874  33.303  56.705  1.00  0.00    -0.080 C 
ATOM     10  C   UNL     1      70.670  34.217  56.739  1.00  0.00     0.039 C 
ENDBRANCH   6   7
ENDBRANCH   5   6
ENDBRANCH   3   5
ENDBRANCH   1   2
BRANCH   1  11
ATOM     11  C   UNL     1      76.838  36.116  50.776  1.00  0.00     0.034 C 
BRANCH  11  12
ATOM     12  C   UNL     1      78.343  35.964  50.780  1.00  0.00    -0.077 C 
ATOM     13  C   UNL     1      78.974  35.717  51.951  1.00  0.00    -0.028 C 
ATOM     14  C   UNL     1      79.096  36.060  49.471  1.00  0.00     0.039 C 
BRANCH  13  15
ATOM     15  C   UNL     1      80.467  35.567  52.104  1.00  0.00     0.035 C 
BRANCH  15  16
ATOM     16  C   UNL     1      80.822  34.199  52.692  1.00  0.00     0.079 C 
BRANCH  16  17
ATOM     17  C   UNL     1      80.403  33.097  51.756  1.00  0.00     0.130 C 
ATOM     18  O   UNL     1      80.796  33.110  50.598  1.00  0.00    -0.300 OA
ATOM     19  C   UNL     1      79.506  31.982  52.210  1.00  0.00     0.087 C 
ENDBRANCH  16  17
ENDBRANCH  15  16
ENDBRANCH  13  15
ENDBRANCH  11  12
ENDBRANCH   1  11
TORSDOF 9
ENDMDL
MODEL 2
REMARK VINA RESULT:    -4.999      2.756      7.930
REMARK INTER + INTRA:          -8.686
REMARK INTER:                  -7.799
REMARK INTRA:                  -0.887
REMARK UNBOUND:                -1.057
REMARK SMILES CC(=O)CCC=C(C)CCC=C(C)CCC=C(C)C
REMARK SMILES IDX 10 1 11 2 12 3 13 4 14 5 15 6 16 7 18 8 17 9 19 10 9 11 7 12
REMARK SMILES IDX 6 13 8 14 5 15 4 16 2 17 3 18 1 19
REMARK H PARENT
REMARK Flexibility Score: inf
ROOT
ATOM      1  C   UNL     1      75.861  35.775  52.328  1.00  0.00     0.032 C 
ENDROOT
BRANCH   1   2
ATOM      2  C   UNL     1      76.832  35.776  51.173  1.00  0.00    -0.028 C 
ATOM      3  C   UNL     1      78.165  35.940  51.331  1.00  0.00    -0.077 C 
ATOM      4  C   UNL     1      78.773  36.124  52.700  1.00  0.00     0.039 C 
BRANCH   3   5
ATOM      5  C   UNL     1      79.066  35.907  50.115  1.00  0.00     0.034 C 
BRANCH   5   6
ATOM      6  C   UNL     1      80.168  34.850  50.266  1.00  0.00     0.032 C 
BRANCH   6   7
ATOM      7  C   UNL     1      79.612  33.553  50.808  1.00  0.00    -0.028 C 
ATOM      8  C   UNL     1      79.520  31.616  52.323  1.00  0.00     0.039 C 
ATOM      9  C   UNL     1      80.163  32.893  51.850  1.00  0.00    -0.080 C 
ATOM     10  C   UNL     1      81.398  33.409  52.551  1.00  0.00     0.039 C 
ENDBRANCH   6   7
ENDBRANCH   5   6
ENDBRANCH   3   5
ENDBRANCH   1   2
BRANCH   1  11
ATOM     11  C   UNL     1      74.991  34.513  52.323  1.00  0.00     0.034 C 
BRANCH  11  12
ATOM     12  C   UNL     1      73.973  34.562  53.442  1.00  0.00    -0.077 C 
ATOM     13  C   UNL     1      73.122  33.522  53.599  1.00  0.00    -0.028 C 
ATOM     14  C   UNL     1      73.957  35.756  54.370  1.00  0.00     0.039 C 
BRANCH  13  15
ATOM     15  C   UNL     1      72.046  33.449  54.654  1.00  0.00     0.035 C 
BRANCH  15  16
ATOM     16  C   UNL     1      72.575  32.791  55.931  1.00  0.00     0.079 C 
BRANCH  16  17
ATOM     17  C   UNL     1      71.777  33.240  57.126  1.00  0.00     0.130 C 
ATOM     18  O   UNL     1      72.091  32.846  58.240  1.00  0.00    -0.300 OA
ATOM     19  C   UNL     1      70.596  34.155  56.981  1.00  0.00     0.087 C 
ENDBRANCH  16  17
ENDBRANCH  15  16
ENDBRANCH  13  15
ENDBRANCH  11  12
ENDBRANCH   1  11
TORSDOF 9
ENDMDL
MODEL 3
REMARK VINA RESULT:    -4.731      2.621      7.814
REMARK INTER + INTRA:          -8.277
REMARK INTER:                  -7.206
REMARK INTRA:                  -1.071
REMARK UNBOUND:                -1.057
REMARK SMILES CC(=O)CCC=C(C)CCC=C(C)CCC=C(C)C
REMARK SMILES IDX 10 1 11 2 12 3 13 4 14 5 15 6 16 7 18 8 17 9 19 10 9 11 7 12
REMARK SMILES IDX 6 13 8 14 5 15 4 16 2 17 3 18 1 19
REMARK H PARENT
REMARK Flexibility Score: inf
ROOT
ATOM      1  C   UNL     1      75.783  34.705  51.921  1.00  0.00     0.032 C 
ENDROOT
BRANCH   1   2
ATOM      2  C   UNL     1      77.080  35.232  52.485  1.00  0.00    -0.028 C 
ATOM      3  C   UNL     1      78.131  35.586  51.712  1.00  0.00    -0.077 C 
ATOM      4  C   UNL     1      78.065  35.482  50.207  1.00  0.00     0.039 C 
BRANCH   3   5
ATOM      5  C   UNL     1      79.386  36.124  52.365  1.00  0.00     0.034 C 
BRANCH   5   6
ATOM      6  C   UNL     1      80.569  35.164  52.177  1.00  0.00     0.032 C 
BRANCH   6   7
ATOM      7  C   UNL     1      80.208  33.761  52.607  1.00  0.00    -0.028 C 
ATOM      8  C   UNL     1      79.917  31.335  52.315  1.00  0.00     0.039 C 
ATOM      9  C   UNL     1      80.284  32.695  51.782  1.00  0.00    -0.080 C 
ATOM     10  C   UNL     1      80.734  32.835  50.346  1.00  0.00     0.039 C 
ENDBRANCH   6   7
ENDBRANCH   5   6
ENDBRANCH   3   5
ENDBRANCH   1   2
BRANCH   1  11
ATOM     11  C   UNL     1      74.634  35.691  52.153  1.00  0.00     0.034 C 
BRANCH  11  12
ATOM     12  C   UNL     1      73.783  35.252  53.325  1.00  0.00    -0.077 C 
ATOM     13  C   UNL     1      72.972  34.179  53.181  1.00  0.00    -0.028 C 
ATOM     14  C   UNL     1      73.886  36.006  54.632  1.00  0.00     0.039 C 
BRANCH  13  15
ATOM     15  C   UNL     1      72.055  33.648  54.255  1.00  0.00     0.035 C 
BRANCH  15  16
ATOM     16  C   UNL     1      72.854  32.966  55.368  1.00  0.00     0.079 C 
BRANCH  16  17
ATOM     17  C   UNL     1      72.137  33.091  56.686  1.00  0.00     0.130 C 
ATOM     18  O   UNL     1      72.550  32.471  57.656  1.00  0.00    -0.300 OA
ATOM     19  C   UNL     1      70.918  33.954  56.836  1.00  0.00     0.087 C 
ENDBRANCH  16  17
ENDBRANCH  15  16
ENDBRANCH  13  15
ENDBRANCH  11  12
ENDBRANCH   1  11
TORSDOF 9
ENDMDL
MODEL 4
REMARK VINA RESULT:    -3.480      2.543      8.120
REMARK INTER + INTRA:          -6.368
REMARK INTER:                  -5.894
REMARK INTRA:                  -0.474
REMARK UNBOUND:                -1.057
REMARK SMILES CC(=O)CCC=C(C)CCC=C(C)CCC=C(C)C
REMARK SMILES IDX 10 1 11 2 12 3 13 4 14 5 15 6 16 7 18 8 17 9 19 10 9 11 7 12
REMARK SMILES IDX 6 13 8 14 5 15 4 16 2 17 3 18 1 19
REMARK H PARENT
REMARK Flexibility Score: inf
ROOT
ATOM      1  C   UNL     1      74.505  33.519  52.926  1.00  0.00     0.032 C 
ENDROOT
BRANCH   1   2
ATOM      2  C   UNL     1      75.311  34.611  52.268  1.00  0.00    -0.028 C 
ATOM      3  C   UNL     1      76.575  34.429  51.824  1.00  0.00    -0.077 C 
ATOM      4  C   UNL     1      77.264  33.092  51.953  1.00  0.00     0.039 C 
BRANCH   3   5
ATOM      5  C   UNL     1      77.301  35.578  51.157  1.00  0.00     0.034 C 
BRANCH   5   6
ATOM      6  C   UNL     1      78.741  35.192  50.793  1.00  0.00     0.032 C 
BRANCH   6   7
ATOM      7  C   UNL     1      79.698  35.532  51.913  1.00  0.00    -0.028 C 
ATOM      8  C   UNL     1      81.509  35.094  53.521  1.00  0.00     0.039 C 
ATOM      9  C   UNL     1      80.588  34.649  52.415  1.00  0.00    -0.080 C 
ATOM     10  C   UNL     1      80.684  33.235  51.890  1.00  0.00     0.039 C 
ENDBRANCH   6   7
ENDBRANCH   5   6
ENDBRANCH   3   5
ENDBRANCH   1   2
BRANCH   1  11
ATOM     11  C   UNL     1      73.024  33.900  53.021  1.00  0.00     0.034 C 
BRANCH  11  12
ATOM     12  C   UNL     1      72.692  34.413  54.406  1.00  0.00    -0.077 C 
ATOM     13  C   UNL     1      71.679  33.835  55.093  1.00  0.00    -0.028 C 
ATOM     14  C   UNL     1      73.521  35.532  54.994  1.00  0.00     0.039 C 
BRANCH  13  15
ATOM     15  C   UNL     1      71.226  34.260  56.468  1.00  0.00     0.035 C 
BRANCH  15  16
ATOM     16  C   UNL     1      71.064  33.048  57.389  1.00  0.00     0.079 C 
BRANCH  16  17
ATOM     17  C   UNL     1      72.391  32.654  57.983  1.00  0.00     0.130 C 
ATOM     18  O   UNL     1      73.281  32.249  57.249  1.00  0.00    -0.300 OA
ATOM     19  C   UNL     1      72.643  32.739  59.460  1.00  0.00     0.087 C 
ENDBRANCH  16  17
ENDBRANCH  15  16
ENDBRANCH  13  15
ENDBRANCH  11  12
ENDBRANCH   1  11
TORSDOF 9
ENDMDL
