MODEL 1
REMARK VINA RESULT:    -3.890      0.000      0.000
REMARK INTER + INTRA:          -6.714
REMARK INTER:                  -5.709
REMARK INTRA:                  -1.006
REMARK UNBOUND:                -1.006
REMARK SMILES CC(C)COC(=O)c1ccccc1C(=O)OCC(C)C
REMARK SMILES IDX 8 1 9 2 10 3 11 4 12 5 13 6 6 7 7 8 5 9 4 10 2 11 1 12 3 13
REMARK SMILES IDX 14 14 15 15 16 16 17 17 18 18 19 19 20 20
REMARK H PARENT
REMARK Flexibility Score: inf
ROOT
ATOM      1  C   UNL     1       9.537 -35.305  13.579  1.00  0.00     0.074 A 
ATOM      2  C   UNL     1      10.670 -36.103  13.338  1.00  0.00     0.016 A 
ATOM      3  C   UNL     1      11.889 -35.522  12.990  1.00  0.00     0.001 A 
ATOM      4  C   UNL     1      11.997 -34.138  12.875  1.00  0.00     0.001 A 
ATOM      5  C   UNL     1      10.891 -33.326  13.132  1.00  0.00     0.016 A 
ATOM      6  C   UNL     1       9.658 -33.890  13.508  1.00  0.00     0.074 A 
ENDROOT
BRANCH   1   7
ATOM      7  C   UNL     1       8.251 -35.990  13.837  1.00  0.00     0.339 C 
ATOM      8  O   UNL     1       7.514 -36.342  12.875  1.00  0.00    -0.246 OA
BRANCH   7   9
ATOM      9  O   UNL     1       7.885 -36.294  15.154  1.00  0.00    -0.462 OA
BRANCH   9  10
ATOM     10  C   UNL     1       6.864 -35.598  15.868  1.00  0.00     0.236 C 
BRANCH  10  11
ATOM     11  C   UNL     1       6.506 -36.329  17.177  1.00  0.00     0.021 C 
ATOM     12  C   UNL     1       6.233 -37.811  16.901  1.00  0.00     0.011 C 
ATOM     13  C   UNL     1       7.623 -36.177  18.217  1.00  0.00     0.011 C 
ENDBRANCH  10  11
ENDBRANCH   9  10
ENDBRANCH   7   9
ENDBRANCH   1   7
BRANCH   6  14
ATOM     14  C   UNL     1       8.559 -32.968  13.878  1.00  0.00     0.339 C 
ATOM     15  O   UNL     1       7.891 -32.378  12.984  1.00  0.00    -0.246 OA
BRANCH  14  16
ATOM     16  O   UNL     1       8.227 -32.800  15.226  1.00  0.00    -0.462 OA
BRANCH  16  17
ATOM     17  C   UNL     1       9.082 -32.141  16.155  1.00  0.00     0.236 C 
BRANCH  17  18
ATOM     18  C   UNL     1       8.712 -32.550  17.589  1.00  0.00     0.021 C 
ATOM     19  C   UNL     1       9.468 -31.684  18.604  1.00  0.00     0.011 C 
ATOM     20  C   UNL     1       7.199 -32.444  17.820  1.00  0.00     0.011 C 
ENDBRANCH  17  18
ENDBRANCH  16  17
ENDBRANCH  14  16
ENDBRANCH   6  14
TORSDOF 8
ENDMDL
MODEL 2
REMARK VINA RESULT:    -3.682      1.574      5.006
REMARK INTER + INTRA:          -6.409
REMARK INTER:                  -5.513
REMARK INTRA:                  -0.896
REMARK UNBOUND:                -1.006
REMARK SMILES CC(C)COC(=O)c1ccccc1C(=O)OCC(C)C
REMARK SMILES IDX 8 1 9 2 10 3 11 4 12 5 13 6 6 7 7 8 5 9 4 10 2 11 1 12 3 13
REMARK SMILES IDX 14 14 15 15 16 16 17 17 18 18 19 19 20 20
REMARK H PARENT
REMARK Flexibility Score: inf
ROOT
ATOM      1  C   UNL     1       6.750 -34.789  15.978  1.00  0.00     0.074 A 
ATOM      2  C   UNL     1       6.593 -35.820  16.922  1.00  0.00     0.016 A 
ATOM      3  C   UNL     1       6.303 -37.122  16.513  1.00  0.00     0.001 A 
ATOM      4  C   UNL     1       6.166 -37.415  15.159  1.00  0.00     0.001 A 
ATOM      5  C   UNL     1       6.341 -36.412  14.204  1.00  0.00     0.016 A 
ATOM      6  C   UNL     1       6.656 -35.097  14.593  1.00  0.00     0.074 A 
ENDROOT
BRANCH   1   7
ATOM      7  C   UNL     1       6.947 -33.413  16.483  1.00  0.00     0.339 C 
ATOM      8  O   UNL     1       6.036 -32.550  16.350  1.00  0.00    -0.246 OA
BRANCH   7   9
ATOM      9  O   UNL     1       8.130 -33.091  17.161  1.00  0.00    -0.462 OA
BRANCH   9  10
ATOM     10  C   UNL     1       8.157 -32.549  18.481  1.00  0.00     0.236 C 
BRANCH  10  11
ATOM     11  C   UNL     1       9.097 -31.331  18.562  1.00  0.00     0.021 C 
ATOM     12  C   UNL     1       9.909 -31.371  19.862  1.00  0.00     0.011 C 
ATOM     13  C   UNL     1      10.036 -31.277  17.349  1.00  0.00     0.011 C 
ENDBRANCH  10  11
ENDBRANCH   9  10
ENDBRANCH   7   9
ENDBRANCH   1   7
BRANCH   6  14
ATOM     14  C   UNL     1       6.942 -34.110  13.526  1.00  0.00     0.339 C 
ATOM     15  O   UNL     1       6.010 -33.419  13.029  1.00  0.00    -0.246 OA
BRANCH  14  16
ATOM     16  O   UNL     1       8.262 -33.904  13.116  1.00  0.00    -0.462 OA
BRANCH  16  17
ATOM     17  C   UNL     1       9.038 -32.788  13.542  1.00  0.00     0.236 C 
BRANCH  17  18
ATOM     18  C   UNL     1      10.462 -32.892  12.975  1.00  0.00     0.021 C 
ATOM     19  C   UNL     1      11.434 -32.053  13.812  1.00  0.00     0.011 C 
ATOM     20  C   UNL     1      10.929 -34.352  12.920  1.00  0.00     0.011 C 
ENDBRANCH  17  18
ENDBRANCH  16  17
ENDBRANCH  14  16
ENDBRANCH   6  14
TORSDOF 8
ENDMDL
MODEL 3
REMARK VINA RESULT:    -3.480      1.612      4.635
REMARK INTER + INTRA:          -6.113
REMARK INTER:                  -5.362
REMARK INTRA:                  -0.751
REMARK UNBOUND:                -1.006
REMARK SMILES CC(C)COC(=O)c1ccccc1C(=O)OCC(C)C
REMARK SMILES IDX 8 1 9 2 10 3 11 4 12 5 13 6 6 7 7 8 5 9 4 10 2 11 1 12 3 13
REMARK SMILES IDX 14 14 15 15 16 16 17 17 18 18 19 19 20 20
REMARK H PARENT
REMARK Flexibility Score: inf
ROOT
ATOM      1  C   UNL     1       6.814 -35.005  14.627  1.00  0.00     0.074 A 
ATOM      2  C   UNL     1       6.506 -36.313  14.216  1.00  0.00     0.016 A 
ATOM      3  C   UNL     1       6.291 -37.323  15.155  1.00  0.00     0.001 A 
ATOM      4  C   UNL     1       6.383 -37.043  16.516  1.00  0.00     0.001 A 
ATOM      5  C   UNL     1       6.665 -35.745  16.946  1.00  0.00     0.016 A 
ATOM      6  C   UNL     1       6.861 -34.707  16.017  1.00  0.00     0.074 A 
ENDROOT
BRANCH   1   7
ATOM      7  C   UNL     1       7.136 -34.009  13.582  1.00  0.00     0.339 C 
ATOM      8  O   UNL     1       6.226 -33.288  13.089  1.00  0.00    -0.246 OA
BRANCH   7   9
ATOM      9  O   UNL     1       8.468 -33.833  13.185  1.00  0.00    -0.462 OA
BRANCH   9  10
ATOM     10  C   UNL     1       9.463 -33.233  14.014  1.00  0.00     0.236 C 
BRANCH  10  11
ATOM     11  C   UNL     1      10.731 -32.899  13.206  1.00  0.00     0.021 C 
ATOM     12  C   UNL     1      11.609 -31.907  13.979  1.00  0.00     0.011 C 
ATOM     13  C   UNL     1      11.526 -34.169  12.876  1.00  0.00     0.011 C 
ENDBRANCH  10  11
ENDBRANCH   9  10
ENDBRANCH   7   9
ENDBRANCH   1   7
BRANCH   6  14
ATOM     14  C   UNL     1       7.042 -33.334  16.542  1.00  0.00     0.339 C 
ATOM     15  O   UNL     1       6.178 -32.443  16.312  1.00  0.00    -0.246 OA
BRANCH  14  16
ATOM     16  O   UNL     1       8.149 -33.046  17.346  1.00  0.00    -0.462 OA
BRANCH  16  17
ATOM     17  C   UNL     1       8.047 -32.317  18.567  1.00  0.00     0.236 C 
BRANCH  17  18
ATOM     18  C   UNL     1       9.137 -31.237  18.625  1.00  0.00     0.021 C 
ATOM     19  C   UNL     1      10.006 -31.420  19.875  1.00  0.00     0.011 C 
ATOM     20  C   UNL     1      10.009 -31.265  17.362  1.00  0.00     0.011 C 
ENDBRANCH  17  18
ENDBRANCH  16  17
ENDBRANCH  14  16
ENDBRANCH   6  14
TORSDOF 8
ENDMDL
MODEL 4
REMARK VINA RESULT:    -3.475      1.511      4.616
REMARK INTER + INTRA:          -6.105
REMARK INTER:                  -5.406
REMARK INTRA:                  -0.700
REMARK UNBOUND:                -1.006
REMARK SMILES CC(C)COC(=O)c1ccccc1C(=O)OCC(C)C
REMARK SMILES IDX 8 1 9 2 10 3 11 4 12 5 13 6 6 7 7 8 5 9 4 10 2 11 1 12 3 13
REMARK SMILES IDX 14 14 15 15 16 16 17 17 18 18 19 19 20 20
REMARK H PARENT
REMARK Flexibility Score: inf
ROOT
ATOM      1  C   UNL     1       8.194 -32.552  17.219  1.00  0.00     0.074 A 
ATOM      2  C   UNL     1       8.308 -31.998  18.506  1.00  0.00     0.016 A 
ATOM      3  C   UNL     1       9.378 -31.163  18.831  1.00  0.00     0.001 A 
ATOM      4  C   UNL     1      10.350 -30.870  17.877  1.00  0.00     0.001 A 
ATOM      5  C   UNL     1      10.244 -31.390  16.586  1.00  0.00     0.016 A 
ATOM      6  C   UNL     1       9.161 -32.215  16.231  1.00  0.00     0.074 A 
ENDROOT
BRANCH   1   7
ATOM      7  C   UNL     1       7.097 -33.513  16.974  1.00  0.00     0.339 C 
ATOM      8  O   UNL     1       5.972 -33.105  16.576  1.00  0.00    -0.246 OA
BRANCH   7   9
ATOM      9  O   UNL     1       7.335 -34.884  17.132  1.00  0.00    -0.462 OA
BRANCH   9  10
ATOM     10  C   UNL     1       7.435 -35.796  16.038  1.00  0.00     0.236 C 
BRANCH  10  11
ATOM     11  C   UNL     1       6.055 -36.376  15.672  1.00  0.00     0.021 C 
ATOM     12  C   UNL     1       5.876 -36.402  14.150  1.00  0.00     0.011 C 
ATOM     13  C   UNL     1       5.876 -37.785  16.253  1.00  0.00     0.011 C 
ENDBRANCH  10  11
ENDBRANCH   9  10
ENDBRANCH   7   9
ENDBRANCH   1   7
BRANCH   6  14
ATOM     14  C   UNL     1       9.048 -32.638  14.816  1.00  0.00     0.339 C 
ATOM     15  O   UNL     1       7.953 -32.520  14.199  1.00  0.00    -0.246 OA
BRANCH  14  16
ATOM     16  O   UNL     1      10.181 -33.113  14.148  1.00  0.00    -0.462 OA
BRANCH  16  17
ATOM     17  C   UNL     1      10.108 -34.042  13.071  1.00  0.00     0.236 C 
BRANCH  17  18
ATOM     18  C   UNL     1      10.397 -35.461  13.583  1.00  0.00     0.021 C 
ATOM     19  C   UNL     1       9.393 -36.458  12.991  1.00  0.00     0.011 C 
ATOM     20  C   UNL     1      11.832 -35.888  13.247  1.00  0.00     0.011 C 
ENDBRANCH  17  18
ENDBRANCH  16  17
ENDBRANCH  14  16
ENDBRANCH   6  14
TORSDOF 8
ENDMDL
MODEL 5
REMARK VINA RESULT:    -3.419      1.502      4.979
REMARK INTER + INTRA:          -6.024
REMARK INTER:                  -5.437
REMARK INTRA:                  -0.587
REMARK UNBOUND:                -1.006
REMARK SMILES CC(C)COC(=O)c1ccccc1C(=O)OCC(C)C
REMARK SMILES IDX 8 1 9 2 10 3 11 4 12 5 13 6 6 7 7 8 5 9 4 10 2 11 1 12 3 13
REMARK SMILES IDX 14 14 15 15 16 16 17 17 18 18 19 19 20 20
REMARK H PARENT
REMARK Flexibility Score: inf
ROOT
ATOM      1  C   UNL     1       8.740 -32.781  15.701  1.00  0.00     0.074 A 
ATOM      2  C   UNL     1       9.291 -32.408  16.940  1.00  0.00     0.016 A 
ATOM      3  C   UNL     1       8.472 -32.188  18.047  1.00  0.00     0.001 A 
ATOM      4  C   UNL     1       7.092 -32.337  17.936  1.00  0.00     0.001 A 
ATOM      5  C   UNL     1       6.526 -32.730  16.722  1.00  0.00     0.016 A 
ATOM      6  C   UNL     1       7.335 -32.979  15.599  1.00  0.00     0.074 A 
ENDROOT
BRANCH   1   7
ATOM      7  C   UNL     1       9.653 -32.891  14.542  1.00  0.00     0.339 C 
ATOM      8  O   UNL     1      10.519 -31.998  14.328  1.00  0.00    -0.246 OA
BRANCH   7   9
ATOM      9  O   UNL     1       9.588 -34.021  13.719  1.00  0.00    -0.462 OA
BRANCH   9  10
ATOM     10  C   UNL     1       9.868 -35.344  14.175  1.00  0.00     0.236 C 
BRANCH  10  11
ATOM     11  C   UNL     1      10.356 -36.238  13.018  1.00  0.00     0.021 C 
ATOM     12  C   UNL     1      11.875 -36.429  13.098  1.00  0.00     0.011 C 
ATOM     13  C   UNL     1       9.646 -37.599  13.035  1.00  0.00     0.011 C 
ENDBRANCH  10  11
ENDBRANCH   9  10
ENDBRANCH   7   9
ENDBRANCH   1   7
BRANCH   6  14
ATOM     14  C   UNL     1       6.682 -33.502  14.377  1.00  0.00     0.339 C 
ATOM     15  O   UNL     1       6.792 -32.888  13.280  1.00  0.00    -0.246 OA
BRANCH  14  16
ATOM     16  O   UNL     1       5.992 -34.717  14.434  1.00  0.00    -0.462 OA
BRANCH  16  17
ATOM     17  C   UNL     1       6.629 -35.953  14.746  1.00  0.00     0.236 C 
BRANCH  17  18
ATOM     18  C   UNL     1       6.157 -36.454  16.118  1.00  0.00     0.021 C 
ATOM     19  C   UNL     1       5.876 -37.961  16.070  1.00  0.00     0.011 C 
ATOM     20  C   UNL     1       7.192 -36.140  17.206  1.00  0.00     0.011 C 
ENDBRANCH  17  18
ENDBRANCH  16  17
ENDBRANCH  14  16
ENDBRANCH   6  14
TORSDOF 8
ENDMDL
MODEL 6
REMARK VINA RESULT:    -3.367      0.782      4.126
REMARK INTER + INTRA:          -5.947
REMARK INTER:                  -5.760
REMARK INTRA:                  -0.187
REMARK UNBOUND:                -1.006
REMARK SMILES CC(C)COC(=O)c1ccccc1C(=O)OCC(C)C
REMARK SMILES IDX 8 1 9 2 10 3 11 4 12 5 13 6 6 7 7 8 5 9 4 10 2 11 1 12 3 13
REMARK SMILES IDX 14 14 15 15 16 16 17 17 18 18 19 19 20 20
REMARK H PARENT
REMARK Flexibility Score: inf
ROOT
ATOM      1  C   UNL     1       9.382 -33.892  13.524  1.00  0.00     0.074 A 
ATOM      2  C   UNL     1      10.696 -33.439  13.309  1.00  0.00     0.016 A 
ATOM      3  C   UNL     1      11.730 -34.343  13.065  1.00  0.00     0.001 A 
ATOM      4  C   UNL     1      11.470 -35.711  13.033  1.00  0.00     0.001 A 
ATOM      5  C   UNL     1      10.170 -36.181  13.221  1.00  0.00     0.016 A 
ATOM      6  C   UNL     1       9.108 -35.286  13.445  1.00  0.00     0.074 A 
ENDROOT
BRANCH   1   7
ATOM      7  C   UNL     1       8.355 -32.891  13.885  1.00  0.00     0.339 C 
ATOM      8  O   UNL     1       7.611 -32.395  12.995  1.00  0.00    -0.246 OA
BRANCH   7   9
ATOM      9  O   UNL     1       8.176 -32.541  15.229  1.00  0.00    -0.462 OA
BRANCH   9  10
ATOM     10  C   UNL     1       9.233 -32.538  16.188  1.00  0.00     0.236 C 
BRANCH  10  11
ATOM     11  C   UNL     1       8.678 -32.545  17.626  1.00  0.00     0.021 C 
ATOM     12  C   UNL     1       9.441 -31.539  18.496  1.00  0.00     0.011 C 
ATOM     13  C   UNL     1       7.176 -32.229  17.639  1.00  0.00     0.011 C 
ENDBRANCH  10  11
ENDBRANCH   9  10
ENDBRANCH   7   9
ENDBRANCH   1   7
BRANCH   6  14
ATOM     14  C   UNL     1       7.737 -35.843  13.521  1.00  0.00     0.339 C 
ATOM     15  O   UNL     1       6.792 -35.306  12.879  1.00  0.00    -0.246 OA
BRANCH  14  16
ATOM     16  O   UNL     1       7.508 -37.006  14.262  1.00  0.00    -0.462 OA
BRANCH  16  17
ATOM     17  C   UNL     1       6.202 -37.453  14.614  1.00  0.00     0.236 C 
BRANCH  17  18
ATOM     18  C   UNL     1       5.875 -37.036  16.055  1.00  0.00     0.021 C 
ATOM     19  C   UNL     1       6.317 -38.125  17.040  1.00  0.00     0.011 C 
ATOM     20  C   UNL     1       6.540 -35.698  16.407  1.00  0.00     0.011 C 
ENDBRANCH  17  18
ENDBRANCH  16  17
ENDBRANCH  14  16
ENDBRANCH   6  14
TORSDOF 8
ENDMDL
MODEL 7
REMARK VINA RESULT:    -3.100      1.728      4.577
REMARK INTER + INTRA:          -5.555
REMARK INTER:                  -4.864
REMARK INTRA:                  -0.691
REMARK UNBOUND:                -1.006
REMARK SMILES CC(C)COC(=O)c1ccccc1C(=O)OCC(C)C
REMARK SMILES IDX 8 1 9 2 10 3 11 4 12 5 13 6 6 7 7 8 5 9 4 10 2 11 1 12 3 13
REMARK SMILES IDX 14 14 15 15 16 16 17 17 18 18 19 19 20 20
REMARK H PARENT
REMARK Flexibility Score: inf
ROOT
ATOM      1  C   UNL     1       6.935 -36.547  16.051  1.00  0.00     0.074 A 
ATOM      2  C   UNL     1       6.078 -37.626  15.770  1.00  0.00     0.016 A 
ATOM      3  C   UNL     1       5.875 -38.052  14.457  1.00  0.00     0.001 A 
ATOM      4  C   UNL     1       6.523 -37.408  13.405  1.00  0.00     0.001 A 
ATOM      5  C   UNL     1       7.396 -36.351  13.664  1.00  0.00     0.016 A 
ATOM      6  C   UNL     1       7.633 -35.920  14.982  1.00  0.00     0.074 A 
ENDROOT
BRANCH   1   7
ATOM      7  C   UNL     1       7.020 -36.078  17.451  1.00  0.00     0.339 C 
ATOM      8  O   UNL     1       7.459 -36.844  18.353  1.00  0.00    -0.246 OA
BRANCH   7   9
ATOM      9  O   UNL     1       6.665 -34.758  17.758  1.00  0.00    -0.462 OA
BRANCH   9  10
ATOM     10  C   UNL     1       7.346 -33.966  18.730  1.00  0.00     0.236 C 
BRANCH  10  11
ATOM     11  C   UNL     1       7.433 -32.493  18.284  1.00  0.00     0.021 C 
ATOM     12  C   UNL     1       8.898 -32.062  18.155  1.00  0.00     0.011 C 
ATOM     13  C   UNL     1       6.694 -32.274  16.957  1.00  0.00     0.011 C 
ENDBRANCH  10  11
ENDBRANCH   9  10
ENDBRANCH   7   9
ENDBRANCH   1   7
BRANCH   6  14
ATOM     14  C   UNL     1       8.657 -34.871  15.194  1.00  0.00     0.339 C 
ATOM     15  O   UNL     1       9.588 -35.045  16.028  1.00  0.00    -0.246 OA
BRANCH  14  16
ATOM     16  O   UNL     1       8.619 -33.708  14.419  1.00  0.00    -0.462 OA
BRANCH  16  17
ATOM     17  C   UNL     1       9.490 -32.602  14.644  1.00  0.00     0.236 C 
BRANCH  17  18
ATOM     18  C   UNL     1      10.513 -32.500  13.503  1.00  0.00     0.021 C 
ATOM     19  C   UNL     1      11.778 -31.778  13.981  1.00  0.00     0.011 C 
ATOM     20  C   UNL     1      10.868 -33.889  12.954  1.00  0.00     0.011 C 
ENDBRANCH  17  18
ENDBRANCH  16  17
ENDBRANCH  14  16
ENDBRANCH   6  14
TORSDOF 8
ENDMDL
MODEL 8
REMARK VINA RESULT:    -2.932      1.744      4.362
REMARK INTER + INTRA:          -5.308
REMARK INTER:                  -4.649
REMARK INTRA:                  -0.660
REMARK UNBOUND:                -1.006
REMARK SMILES CC(C)COC(=O)c1ccccc1C(=O)OCC(C)C
REMARK SMILES IDX 8 1 9 2 10 3 11 4 12 5 13 6 6 7 7 8 5 9 4 10 2 11 1 12 3 13
REMARK SMILES IDX 14 14 15 15 16 16 17 17 18 18 19 19 20 20
REMARK H PARENT
REMARK Flexibility Score: inf
ROOT
ATOM      1  C   UNL     1       7.679 -33.050  16.791  1.00  0.00     0.074 A 
ATOM      2  C   UNL     1       7.561 -32.596  18.116  1.00  0.00     0.016 A 
ATOM      3  C   UNL     1       8.534 -31.766  18.674  1.00  0.00     0.001 A 
ATOM      4  C   UNL     1       9.639 -31.379  17.920  1.00  0.00     0.001 A 
ATOM      5  C   UNL     1       9.764 -31.800  16.595  1.00  0.00     0.016 A 
ATOM      6  C   UNL     1       8.783 -32.617  16.005  1.00  0.00     0.074 A 
ENDROOT
BRANCH   1   7
ATOM      7  C   UNL     1       6.671 -34.014  16.297  1.00  0.00     0.339 C 
ATOM      8  O   UNL     1       5.875 -33.684  15.375  1.00  0.00    -0.246 OA
BRANCH   7   9
ATOM      9  O   UNL     1       6.644 -35.312  16.821  1.00  0.00    -0.462 OA
BRANCH   9  10
ATOM     10  C   UNL     1       7.639 -35.824  17.707  1.00  0.00     0.236 C 
BRANCH  10  11
ATOM     11  C   UNL     1       7.078 -36.972  18.568  1.00  0.00     0.021 C 
ATOM     12  C   UNL     1       6.605 -38.125  17.674  1.00  0.00     0.011 C 
ATOM     13  C   UNL     1       8.126 -37.472  19.571  1.00  0.00     0.011 C 
ENDBRANCH  10  11
ENDBRANCH   9  10
ENDBRANCH   7   9
ENDBRANCH   1   7
BRANCH   6  14
ATOM     14  C   UNL     1       8.919 -32.932  14.564  1.00  0.00     0.339 C 
ATOM     15  O   UNL     1       8.287 -32.261  13.701  1.00  0.00    -0.246 OA
BRANCH  14  16
ATOM     16  O   UNL     1       9.801 -33.939  14.161  1.00  0.00    -0.462 OA
BRANCH  16  17
ATOM     17  C   UNL     1       9.516 -35.325  14.326  1.00  0.00     0.236 C 
BRANCH  17  18
ATOM     18  C   UNL     1       8.942 -35.901  13.023  1.00  0.00     0.021 C 
ATOM     19  C   UNL     1       9.250 -37.400  12.919  1.00  0.00     0.011 C 
ATOM     20  C   UNL     1       7.430 -35.661  12.932  1.00  0.00     0.011 C 
ENDBRANCH  17  18
ENDBRANCH  16  17
ENDBRANCH  14  16
ENDBRANCH   6  14
TORSDOF 8
ENDMDL
MODEL 9
REMARK VINA RESULT:    -2.883      1.813      4.663
REMARK INTER + INTRA:          -5.236
REMARK INTER:                  -4.257
REMARK INTRA:                  -0.979
REMARK UNBOUND:                -1.006
REMARK SMILES CC(C)COC(=O)c1ccccc1C(=O)OCC(C)C
REMARK SMILES IDX 8 1 9 2 10 3 11 4 12 5 13 6 6 7 7 8 5 9 4 10 2 11 1 12 3 13
REMARK SMILES IDX 14 14 15 15 16 16 17 17 18 18 19 19 20 20
REMARK H PARENT
REMARK Flexibility Score: inf
ROOT
ATOM      1  C   UNL     1       8.843 -32.720  15.816  1.00  0.00     0.074 A 
ATOM      2  C   UNL     1       9.884 -31.956  16.372  1.00  0.00     0.016 A 
ATOM      3  C   UNL     1       9.779 -31.442  17.665  1.00  0.00     0.001 A 
ATOM      4  C   UNL     1       8.635 -31.683  18.421  1.00  0.00     0.001 A 
ATOM      5  C   UNL     1       7.600 -32.459  17.898  1.00  0.00     0.016 A 
ATOM      6  C   UNL     1       7.695 -33.006  16.605  1.00  0.00     0.074 A 
ENDROOT
BRANCH   1   7
ATOM      7  C   UNL     1       8.973 -33.142  14.403  1.00  0.00     0.339 C 
ATOM      8  O   UNL     1       8.878 -32.292  13.476  1.00  0.00    -0.246 OA
BRANCH   7   9
ATOM      9  O   UNL     1       9.258 -34.480  14.107  1.00  0.00    -0.462 OA
BRANCH   9  10
ATOM     10  C   UNL     1       8.481 -35.270  13.207  1.00  0.00     0.236 C 
BRANCH  10  11
ATOM     11  C   UNL     1       8.068 -36.605  13.855  1.00  0.00     0.021 C 
ATOM     12  C   UNL     1       6.561 -36.834  13.688  1.00  0.00     0.011 C 
ATOM     13  C   UNL     1       8.854 -37.778  13.253  1.00  0.00     0.011 C 
ENDBRANCH  10  11
ENDBRANCH   9  10
ENDBRANCH   7   9
ENDBRANCH   1   7
BRANCH   6  14
ATOM     14  C   UNL     1       6.614 -33.914  16.156  1.00  0.00     0.339 C 
ATOM     15  O   UNL     1       5.973 -33.669  15.096  1.00  0.00    -0.246 OA
BRANCH  14  16
ATOM     16  O   UNL     1       6.348 -35.078  16.882  1.00  0.00    -0.462 OA
BRANCH  16  17
ATOM     17  C   UNL     1       7.376 -35.883  17.452  1.00  0.00     0.236 C 
BRANCH  17  18
ATOM     18  C   UNL     1       6.759 -37.106  18.148  1.00  0.00     0.021 C 
ATOM     19  C   UNL     1       6.273 -38.124  17.110  1.00  0.00     0.011 C 
ATOM     20  C   UNL     1       7.763 -37.760  19.106  1.00  0.00     0.011 C 
ENDBRANCH  17  18
ENDBRANCH  16  17
ENDBRANCH  14  16
ENDBRANCH   6  14
TORSDOF 8
ENDMDL
