MODEL 1
REMARK VINA RESULT:    -2.533      0.000      0.000
REMARK INTER + INTRA:          -7.859
REMARK INTER:                  -4.607
REMARK INTRA:                  -3.252
REMARK UNBOUND:                -3.252
REMARK SMILES CCCCCC=CCC=CCCCCCCCC(=O)[O-]
REMARK SMILES IDX 11 1 12 2 13 3 14 4 15 5 16 6 17 7 18 8 19 9 20 10 10 11
REMARK SMILES IDX 9 12 8 13 7 14 6 15 5 16 4 17 3 18 2 19 1 20
REMARK H PARENT
REMARK Flexibility Score: inf
ROOT
ATOM      1  C   UNL     1     127.784 -37.735  83.467  1.00  0.00     0.027 C 
ENDROOT
BRANCH   1   2
ATOM      2  C   UNL     1     128.436 -36.406  83.879  1.00  0.00     0.004 C 
BRANCH   2   3
ATOM      3  C   UNL     1     127.412 -35.388  84.403  1.00  0.00     0.000 C 
BRANCH   3   4
ATOM      4  C   UNL     1     126.860 -34.482  83.288  1.00  0.00     0.000 C 
BRANCH   4   5
ATOM      5  C   UNL     1     127.959 -33.669  82.587  1.00  0.00     0.000 C 
BRANCH   5   6
ATOM      6  C   UNL     1     127.405 -32.431  81.861  1.00  0.00     0.006 C 
BRANCH   6   7
ATOM      7  C   UNL     1     125.877 -32.473  81.729  1.00  0.00     0.053 C 
BRANCH   7   8
ATOM      8  C   UNL     1     125.443 -32.500  80.294  1.00  0.00     0.041 C 
ATOM      9  O   UNL     1     124.336 -33.005  79.976  1.00  0.00    -0.550 OA
ATOM     10  O   UNL     1     126.277 -31.989  79.307  1.00  0.00    -0.550 OA
ENDBRANCH   7   8
ENDBRANCH   6   7
ENDBRANCH   5   6
ENDBRANCH   4   5
ENDBRANCH   3   4
ENDBRANCH   2   3
ENDBRANCH   1   2
BRANCH   1  11
ATOM     11  C   UNL     1     126.658 -38.103  84.399  1.00  0.00    -0.031 C 
ATOM     12  C   UNL     1     125.395 -38.376  84.017  1.00  0.00    -0.027 C 
BRANCH  12  13
ATOM     13  C   UNL     1     124.889 -38.360  82.595  1.00  0.00     0.054 C 
BRANCH  13  14
ATOM     14  C   UNL     1     124.348 -36.995  82.258  1.00  0.00    -0.027 C 
ATOM     15  C   UNL     1     124.593 -36.335  81.111  1.00  0.00    -0.031 C 
BRANCH  15  16
ATOM     16  C   UNL     1     125.522 -36.815  80.024  1.00  0.00     0.027 C 
BRANCH  16  17
ATOM     17  C   UNL     1     126.743 -35.895  79.853  1.00  0.00     0.004 C 
BRANCH  17  18
ATOM     18  C   UNL     1     128.096 -36.591  80.090  1.00  0.00     0.000 C 
BRANCH  18  19
ATOM     19  C   UNL     1     129.296 -35.672  79.814  1.00  0.00    -0.003 C 
ATOM     20  C   UNL     1     128.871 -34.437  79.024  1.00  0.00     0.004 C 
ENDBRANCH  18  19
ENDBRANCH  17  18
ENDBRANCH  16  17
ENDBRANCH  15  16
ENDBRANCH  13  14
ENDBRANCH  12  13
ENDBRANCH   1  11
TORSDOF 14
ENDMDL
MODEL 2
REMARK VINA RESULT:    -2.531      1.465      3.453
REMARK INTER + INTRA:          -7.855
REMARK INTER:                  -5.125
REMARK INTRA:                  -2.730
REMARK UNBOUND:                -3.252
REMARK SMILES CCCCCC=CCC=CCCCCCCCC(=O)[O-]
REMARK SMILES IDX 11 1 12 2 13 3 14 4 15 5 16 6 17 7 18 8 19 9 20 10 10 11
REMARK SMILES IDX 9 12 8 13 7 14 6 15 5 16 4 17 3 18 2 19 1 20
REMARK H PARENT
REMARK Flexibility Score: inf
ROOT
ATOM      1  C   UNL     1     127.477 -35.320  84.356  1.00  0.00     0.027 C 
ENDROOT
BRANCH   1   2
ATOM      2  C   UNL     1     126.897 -34.311  83.354  1.00  0.00     0.004 C 
BRANCH   2   3
ATOM      3  C   UNL     1     127.960 -33.759  82.392  1.00  0.00     0.000 C 
BRANCH   3   4
ATOM      4  C   UNL     1     127.518 -32.449  81.717  1.00  0.00     0.000 C 
BRANCH   4   5
ATOM      5  C   UNL     1     126.049 -32.102  82.003  1.00  0.00     0.000 C 
BRANCH   5   6
ATOM      6  C   UNL     1     125.195 -32.051  80.724  1.00  0.00     0.006 C 
BRANCH   6   7
ATOM      7  C   UNL     1     124.926 -33.449  80.151  1.00  0.00     0.053 C 
BRANCH   7   8
ATOM      8  C   UNL     1     125.559 -33.629  78.804  1.00  0.00     0.041 C 
ATOM      9  O   UNL     1     125.319 -34.660  78.124  1.00  0.00    -0.550 OA
ATOM     10  O   UNL     1     126.434 -32.668  78.315  1.00  0.00    -0.550 OA
ENDBRANCH   7   8
ENDBRANCH   6   7
ENDBRANCH   5   6
ENDBRANCH   4   5
ENDBRANCH   3   4
ENDBRANCH   2   3
ENDBRANCH   1   2
BRANCH   1  11
ATOM     11  C   UNL     1     128.788 -35.882  83.868  1.00  0.00    -0.031 C 
ATOM     12  C   UNL     1     129.263 -37.108  84.162  1.00  0.00    -0.027 C 
BRANCH  12  13
ATOM     13  C   UNL     1     128.569 -38.128  85.032  1.00  0.00     0.054 C 
BRANCH  13  14
ATOM     14  C   UNL     1     128.106 -39.289  84.191  1.00  0.00    -0.027 C 
ATOM     15  C   UNL     1     126.842 -39.474  83.769  1.00  0.00    -0.031 C 
BRANCH  15  16
ATOM     16  C   UNL     1     125.672 -38.600  84.149  1.00  0.00     0.027 C 
BRANCH  16  17
ATOM     17  C   UNL     1     124.712 -38.366  82.970  1.00  0.00     0.004 C 
BRANCH  17  18
ATOM     18  C   UNL     1     124.765 -36.942  82.385  1.00  0.00     0.000 C 
BRANCH  18  19
ATOM     19  C   UNL     1     125.298 -36.908  80.946  1.00  0.00    -0.003 C 
ATOM     20  C   UNL     1     126.807 -37.135  80.913  1.00  0.00     0.004 C 
ENDBRANCH  18  19
ENDBRANCH  17  18
ENDBRANCH  16  17
ENDBRANCH  15  16
ENDBRANCH  13  14
ENDBRANCH  12  13
ENDBRANCH   1  11
TORSDOF 14
ENDMDL
MODEL 3
REMARK VINA RESULT:    -2.470     21.198     23.703
REMARK INTER + INTRA:          -7.744
REMARK INTER:                  -4.902
REMARK INTRA:                  -2.842
REMARK UNBOUND:                -3.252
REMARK SMILES CCCCCC=CCC=CCCCCCCCC(=O)[O-]
REMARK SMILES IDX 11 1 12 2 13 3 14 4 15 5 16 6 17 7 18 8 19 9 20 10 10 11
REMARK SMILES IDX 9 12 8 13 7 14 6 15 5 16 4 17 3 18 2 19 1 20
REMARK H PARENT
REMARK Flexibility Score: inf
ROOT
ATOM      1  C   UNL     1     138.162 -47.958  66.404  1.00  0.00     0.027 C 
ENDROOT
BRANCH   1   2
ATOM      2  C   UNL     1     139.624 -47.753  65.978  1.00  0.00     0.004 C 
BRANCH   2   3
ATOM      3  C   UNL     1     140.270 -46.538  66.661  1.00  0.00     0.000 C 
BRANCH   3   4
ATOM      4  C   UNL     1     141.627 -46.877  67.303  1.00  0.00     0.000 C 
BRANCH   4   5
ATOM      5  C   UNL     1     141.791 -48.380  67.580  1.00  0.00     0.000 C 
BRANCH   5   6
ATOM      6  C   UNL     1     142.078 -48.678  69.062  1.00  0.00     0.006 C 
BRANCH   6   7
ATOM      7  C   UNL     1     142.184 -47.397  69.901  1.00  0.00     0.053 C 
BRANCH   7   8
ATOM      8  C   UNL     1     142.213 -47.694  71.369  1.00  0.00     0.041 C 
ATOM      9  O   UNL     1     142.474 -46.782  72.196  1.00  0.00    -0.550 OA
ATOM     10  O   UNL     1     141.978 -48.987  71.821  1.00  0.00    -0.550 OA
ENDBRANCH   7   8
ENDBRANCH   6   7
ENDBRANCH   5   6
ENDBRANCH   4   5
ENDBRANCH   3   4
ENDBRANCH   2   3
ENDBRANCH   1   2
BRANCH   1  11
ATOM     11  C   UNL     1     137.360 -48.608  65.307  1.00  0.00    -0.031 C 
ATOM     12  C   UNL     1     136.799 -49.832  65.379  1.00  0.00    -0.027 C 
BRANCH  12  13
ATOM     13  C   UNL     1     136.877 -50.760  66.566  1.00  0.00     0.054 C 
BRANCH  13  14
ATOM     14  C   UNL     1     137.814 -51.900  66.265  1.00  0.00    -0.027 C 
ATOM     15  C   UNL     1     139.004 -52.093  66.863  1.00  0.00    -0.031 C 
BRANCH  15  16
ATOM     16  C   UNL     1     139.629 -51.148  67.859  1.00  0.00     0.027 C 
BRANCH  16  17
ATOM     17  C   UNL     1     139.278 -51.515  69.311  1.00  0.00     0.004 C 
BRANCH  17  18
ATOM     18  C   UNL     1     139.103 -50.303  70.245  1.00  0.00     0.000 C 
BRANCH  18  19
ATOM     19  C   UNL     1     138.194 -49.218  69.650  1.00  0.00    -0.003 C 
ATOM     20  C   UNL     1     138.586 -47.833  70.158  1.00  0.00     0.004 C 
ENDBRANCH  18  19
ENDBRANCH  17  18
ENDBRANCH  16  17
ENDBRANCH  15  16
ENDBRANCH  13  14
ENDBRANCH  12  13
ENDBRANCH   1  11
TORSDOF 14
ENDMDL
MODEL 4
REMARK VINA RESULT:    -2.468     20.936     23.559
REMARK INTER + INTRA:          -7.740
REMARK INTER:                  -4.520
REMARK INTRA:                  -3.220
REMARK UNBOUND:                -3.252
REMARK SMILES CCCCCC=CCC=CCCCCCCCC(=O)[O-]
REMARK SMILES IDX 11 1 12 2 13 3 14 4 15 5 16 6 17 7 18 8 19 9 20 10 10 11
REMARK SMILES IDX 9 12 8 13 7 14 6 15 5 16 4 17 3 18 2 19 1 20
REMARK H PARENT
REMARK Flexibility Score: inf
ROOT
ATOM      1  C   UNL     1     141.285 -46.958  69.301  1.00  0.00     0.027 C 
ENDROOT
BRANCH   1   2
ATOM      2  C   UNL     1     141.505 -48.424  69.702  1.00  0.00     0.004 C 
BRANCH   2   3
ATOM      3  C   UNL     1     141.890 -49.309  68.506  1.00  0.00     0.000 C 
BRANCH   3   4
ATOM      4  C   UNL     1     140.698 -50.117  67.965  1.00  0.00     0.000 C 
BRANCH   4   5
ATOM      5  C   UNL     1     139.824 -50.705  69.084  1.00  0.00     0.000 C 
BRANCH   5   6
ATOM      6  C   UNL     1     138.881 -51.811  68.577  1.00  0.00     0.006 C 
BRANCH   6   7
ATOM      7  C   UNL     1     138.706 -51.768  67.054  1.00  0.00     0.053 C 
BRANCH   7   8
ATOM      8  C   UNL     1     137.322 -51.343  66.665  1.00  0.00     0.041 C 
ATOM      9  O   UNL     1     136.411 -51.282  67.531  1.00  0.00    -0.550 OA
ATOM     10  O   UNL     1     137.035 -51.041  65.340  1.00  0.00    -0.550 OA
ENDBRANCH   7   8
ENDBRANCH   6   7
ENDBRANCH   5   6
ENDBRANCH   4   5
ENDBRANCH   3   4
ENDBRANCH   2   3
ENDBRANCH   1   2
BRANCH   1  11
ATOM     11  C   UNL     1     142.214 -46.551  68.186  1.00  0.00    -0.031 C 
ATOM     12  C   UNL     1     141.824 -46.128  66.968  1.00  0.00    -0.027 C 
BRANCH  12  13
ATOM     13  C   UNL     1     140.393 -45.990  66.508  1.00  0.00     0.054 C 
BRANCH  13  14
ATOM     14  C   UNL     1     139.964 -47.237  65.780  1.00  0.00    -0.027 C 
ATOM     15  C   UNL     1     138.734 -47.777  65.846  1.00  0.00    -0.031 C 
BRANCH  15  16
ATOM     16  C   UNL     1     137.619 -47.276  66.730  1.00  0.00     0.027 C 
BRANCH  16  17
ATOM     17  C   UNL     1     137.577 -48.004  68.084  1.00  0.00     0.004 C 
BRANCH  17  18
ATOM     18  C   UNL     1     137.791 -47.087  69.302  1.00  0.00     0.000 C 
BRANCH  18  19
ATOM     19  C   UNL     1     137.784 -47.853  70.633  1.00  0.00    -0.003 C 
ATOM     20  C   UNL     1     136.893 -49.089  70.552  1.00  0.00     0.004 C 
ENDBRANCH  18  19
ENDBRANCH  17  18
ENDBRANCH  16  17
ENDBRANCH  15  16
ENDBRANCH  13  14
ENDBRANCH  12  13
ENDBRANCH   1  11
TORSDOF 14
ENDMDL
MODEL 5
REMARK VINA RESULT:    -2.442      3.030      4.985
REMARK INTER + INTRA:          -7.692
REMARK INTER:                  -4.343
REMARK INTRA:                  -3.349
REMARK UNBOUND:                -3.252
REMARK SMILES CCCCCC=CCC=CCCCCCCCC(=O)[O-]
REMARK SMILES IDX 11 1 12 2 13 3 14 4 15 5 16 6 17 7 18 8 19 9 20 10 10 11
REMARK SMILES IDX 9 12 8 13 7 14 6 15 5 16 4 17 3 18 2 19 1 20
REMARK H PARENT
REMARK Flexibility Score: inf
ROOT
ATOM      1  C   UNL     1     128.403 -35.307  82.279  1.00  0.00     0.027 C 
ENDROOT
BRANCH   1   2
ATOM      2  C   UNL     1     128.704 -35.699  83.733  1.00  0.00     0.004 C 
BRANCH   2   3
ATOM      3  C   UNL     1     127.487 -35.525  84.654  1.00  0.00     0.000 C 
BRANCH   3   4
ATOM      4  C   UNL     1     126.195 -36.083  84.031  1.00  0.00     0.000 C 
BRANCH   4   5
ATOM      5  C   UNL     1     126.015 -37.587  84.289  1.00  0.00     0.000 C 
BRANCH   5   6
ATOM      6  C   UNL     1     125.702 -38.373  83.004  1.00  0.00     0.006 C 
BRANCH   6   7
ATOM      7  C   UNL     1     126.975 -38.783  82.251  1.00  0.00     0.053 C 
BRANCH   7   8
ATOM      8  C   UNL     1     127.855 -39.663  83.086  1.00  0.00     0.041 C 
ATOM      9  O   UNL     1     129.012 -39.284  83.404  1.00  0.00    -0.550 OA
ATOM     10  O   UNL     1     127.405 -40.915  83.487  1.00  0.00    -0.550 OA
ENDBRANCH   7   8
ENDBRANCH   6   7
ENDBRANCH   5   6
ENDBRANCH   4   5
ENDBRANCH   3   4
ENDBRANCH   2   3
ENDBRANCH   1   2
BRANCH   1  11
ATOM     11  C   UNL     1     128.779 -33.872  82.012  1.00  0.00    -0.031 C 
ATOM     12  C   UNL     1     127.916 -32.836  81.990  1.00  0.00    -0.027 C 
BRANCH  12  13
ATOM     13  C   UNL     1     126.428 -32.934  82.226  1.00  0.00     0.054 C 
BRANCH  13  14
ATOM     14  C   UNL     1     125.691 -32.791  80.920  1.00  0.00    -0.027 C 
ATOM     15  C   UNL     1     125.010 -33.779  80.312  1.00  0.00    -0.031 C 
BRANCH  15  16
ATOM     16  C   UNL     1     124.957 -35.209  80.791  1.00  0.00     0.027 C 
BRANCH  16  17
ATOM     17  C   UNL     1     125.787 -36.152  79.905  1.00  0.00     0.004 C 
BRANCH  17  18
ATOM     18  C   UNL     1     126.302 -35.507  78.605  1.00  0.00     0.000 C 
BRANCH  18  19
ATOM     19  C   UNL     1     127.829 -35.343  78.584  1.00  0.00    -0.003 C 
ATOM     20  C   UNL     1     128.222 -33.894  78.311  1.00  0.00     0.004 C 
ENDBRANCH  18  19
ENDBRANCH  17  18
ENDBRANCH  16  17
ENDBRANCH  15  16
ENDBRANCH  13  14
ENDBRANCH  12  13
ENDBRANCH   1  11
TORSDOF 14
ENDMDL
MODEL 6
REMARK VINA RESULT:    -2.442     20.867     23.301
REMARK INTER + INTRA:          -7.692
REMARK INTER:                  -4.389
REMARK INTRA:                  -3.303
REMARK UNBOUND:                -3.252
REMARK SMILES CCCCCC=CCC=CCCCCCCCC(=O)[O-]
REMARK SMILES IDX 11 1 12 2 13 3 14 4 15 5 16 6 17 7 18 8 19 9 20 10 10 11
REMARK SMILES IDX 9 12 8 13 7 14 6 15 5 16 4 17 3 18 2 19 1 20
REMARK H PARENT
REMARK Flexibility Score: inf
ROOT
ATOM      1  C   UNL     1     137.183 -50.034  66.629  1.00  0.00     0.027 C 
ENDROOT
BRANCH   1   2
ATOM      2  C   UNL     1     138.027 -48.951  65.942  1.00  0.00     0.004 C 
BRANCH   2   3
ATOM      3  C   UNL     1     137.449 -47.541  66.140  1.00  0.00     0.000 C 
BRANCH   3   4
ATOM      4  C   UNL     1     138.532 -46.449  66.086  1.00  0.00     0.000 C 
BRANCH   4   5
ATOM      5  C   UNL     1     139.956 -47.025  66.128  1.00  0.00     0.000 C 
BRANCH   5   6
ATOM      6  C   UNL     1     141.008 -45.970  66.512  1.00  0.00     0.006 C 
BRANCH   6   7
ATOM      7  C   UNL     1     142.156 -46.571  67.335  1.00  0.00     0.053 C 
BRANCH   7   8
ATOM      8  C   UNL     1     142.058 -46.196  68.783  1.00  0.00     0.041 C 
ATOM      9  O   UNL     1     142.669 -46.867  69.655  1.00  0.00    -0.550 OA
ATOM     10  O   UNL     1     141.269 -45.119  69.169  1.00  0.00    -0.550 OA
ENDBRANCH   7   8
ENDBRANCH   6   7
ENDBRANCH   5   6
ENDBRANCH   4   5
ENDBRANCH   3   4
ENDBRANCH   2   3
ENDBRANCH   1   2
BRANCH   1  11
ATOM     11  C   UNL     1     137.687 -51.414  66.293  1.00  0.00    -0.031 C 
ATOM     12  C   UNL     1     138.564 -52.121  67.033  1.00  0.00    -0.027 C 
BRANCH  12  13
ATOM     13  C   UNL     1     139.193 -51.654  68.323  1.00  0.00     0.054 C 
BRANCH  13  14
ATOM     14  C   UNL     1     140.339 -50.722  68.027  1.00  0.00    -0.027 C 
ATOM     15  C   UNL     1     140.652 -49.636  68.758  1.00  0.00    -0.031 C 
BRANCH  15  16
ATOM     16  C   UNL     1     139.850 -49.127  69.930  1.00  0.00     0.027 C 
BRANCH  16  17
ATOM     17  C   UNL     1     138.891 -47.993  69.532  1.00  0.00     0.004 C 
BRANCH  17  18
ATOM     18  C   UNL     1     137.415 -48.263  69.876  1.00  0.00     0.000 C 
BRANCH  18  19
ATOM     19  C   UNL     1     137.213 -49.568  70.659  1.00  0.00    -0.003 C 
ATOM     20  C   UNL     1     136.053 -50.378  70.086  1.00  0.00     0.004 C 
ENDBRANCH  18  19
ENDBRANCH  17  18
ENDBRANCH  16  17
ENDBRANCH  15  16
ENDBRANCH  13  14
ENDBRANCH  12  13
ENDBRANCH   1  11
TORSDOF 14
ENDMDL
MODEL 7
REMARK VINA RESULT:    -2.430      2.408      4.680
REMARK INTER + INTRA:          -7.672
REMARK INTER:                  -4.661
REMARK INTRA:                  -3.011
REMARK UNBOUND:                -3.252
REMARK SMILES CCCCCC=CCC=CCCCCCCCC(=O)[O-]
REMARK SMILES IDX 11 1 12 2 13 3 14 4 15 5 16 6 17 7 18 8 19 9 20 10 10 11
REMARK SMILES IDX 9 12 8 13 7 14 6 15 5 16 4 17 3 18 2 19 1 20
REMARK H PARENT
REMARK Flexibility Score: inf
ROOT
ATOM      1  C   UNL     1     127.853 -32.973  81.759  1.00  0.00     0.027 C 
ENDROOT
BRANCH   1   2
ATOM      2  C   UNL     1     128.147 -34.046  82.818  1.00  0.00     0.004 C 
BRANCH   2   3
ATOM      3  C   UNL     1     126.884 -34.490  83.572  1.00  0.00     0.000 C 
BRANCH   3   4
ATOM      4  C   UNL     1     127.157 -35.653  84.542  1.00  0.00     0.000 C 
BRANCH   4   5
ATOM      5  C   UNL     1     127.842 -36.846  83.858  1.00  0.00     0.000 C 
BRANCH   5   6
ATOM      6  C   UNL     1     127.364 -38.199  84.413  1.00  0.00     0.006 C 
BRANCH   6   7
ATOM      7  C   UNL     1     125.834 -38.304  84.443  1.00  0.00     0.053 C 
BRANCH   7   8
ATOM      8  C   UNL     1     125.286 -38.814  83.145  1.00  0.00     0.041 C 
ATOM      9  O   UNL     1     124.085 -38.600  82.835  1.00  0.00    -0.550 OA
ATOM     10  O   UNL     1     126.098 -39.550  82.290  1.00  0.00    -0.550 OA
ENDBRANCH   7   8
ENDBRANCH   6   7
ENDBRANCH   5   6
ENDBRANCH   4   5
ENDBRANCH   3   4
ENDBRANCH   2   3
ENDBRANCH   1   2
BRANCH   1  11
ATOM     11  C   UNL     1     126.504 -32.338  81.985  1.00  0.00    -0.031 C 
ATOM     12  C   UNL     1     125.486 -32.347  81.102  1.00  0.00    -0.027 C 
BRANCH  12  13
ATOM     13  C   UNL     1     125.520 -32.991  79.737  1.00  0.00     0.054 C 
BRANCH  13  14
ATOM     14  C   UNL     1     124.266 -33.797  79.519  1.00  0.00    -0.027 C 
ATOM     15  C   UNL     1     124.028 -35.005  80.062  1.00  0.00    -0.031 C 
BRANCH  15  16
ATOM     16  C   UNL     1     125.014 -35.783  80.897  1.00  0.00     0.027 C 
BRANCH  16  17
ATOM     17  C   UNL     1     125.854 -36.755  80.052  1.00  0.00     0.004 C 
BRANCH  17  18
ATOM     18  C   UNL     1     127.375 -36.596  80.231  1.00  0.00     0.000 C 
BRANCH  18  19
ATOM     19  C   UNL     1     128.010 -35.690  79.166  1.00  0.00    -0.003 C 
ATOM     20  C   UNL     1     127.235 -35.758  77.854  1.00  0.00     0.004 C 
ENDBRANCH  18  19
ENDBRANCH  17  18
ENDBRANCH  16  17
ENDBRANCH  15  16
ENDBRANCH  13  14
ENDBRANCH  12  13
ENDBRANCH   1  11
TORSDOF 14
ENDMDL
MODEL 8
REMARK VINA RESULT:    -2.417     15.927     18.842
REMARK INTER + INTRA:          -7.647
REMARK INTER:                  -4.825
REMARK INTRA:                  -2.822
REMARK UNBOUND:                -3.252
REMARK SMILES CCCCCC=CCC=CCCCCCCCC(=O)[O-]
REMARK SMILES IDX 11 1 12 2 13 3 14 4 15 5 16 6 17 7 18 8 19 9 20 10 10 11
REMARK SMILES IDX 9 12 8 13 7 14 6 15 5 16 4 17 3 18 2 19 1 20
REMARK H PARENT
REMARK Flexibility Score: inf
ROOT
ATOM      1  C   UNL     1     137.883 -35.337  71.088  1.00  0.00     0.027 C 
ENDROOT
BRANCH   1   2
ATOM      2  C   UNL     1     137.393 -33.882  71.129  1.00  0.00     0.004 C 
BRANCH   2   3
ATOM      3  C   UNL     1     137.948 -33.041  69.969  1.00  0.00     0.000 C 
BRANCH   3   4
ATOM      4  C   UNL     1     138.943 -31.968  70.444  1.00  0.00     0.000 C 
BRANCH   4   5
ATOM      5  C   UNL     1     140.187 -31.875  69.547  1.00  0.00     0.000 C 
BRANCH   5   6
ATOM      6  C   UNL     1     141.494 -32.110  70.325  1.00  0.00     0.006 C 
BRANCH   6   7
ATOM      7  C   UNL     1     141.253 -32.245  71.834  1.00  0.00     0.053 C 
BRANCH   7   8
ATOM      8  C   UNL     1     142.480 -32.718  72.553  1.00  0.00     0.041 C 
ATOM      9  O   UNL     1     143.118 -31.933  73.302  1.00  0.00    -0.550 OA
ATOM     10  O   UNL     1     142.931 -34.019  72.374  1.00  0.00    -0.550 OA
ENDBRANCH   7   8
ENDBRANCH   6   7
ENDBRANCH   5   6
ENDBRANCH   4   5
ENDBRANCH   3   4
ENDBRANCH   2   3
ENDBRANCH   1   2
BRANCH   1  11
ATOM     11  C   UNL     1     139.274 -35.461  71.654  1.00  0.00    -0.031 C 
ATOM     12  C   UNL     1     140.340 -35.949  70.990  1.00  0.00    -0.027 C 
BRANCH  12  13
ATOM     13  C   UNL     1     140.326 -36.457  69.569  1.00  0.00     0.054 C 
BRANCH  13  14
ATOM     14  C   UNL     1     141.210 -35.595  68.707  1.00  0.00    -0.027 C 
ATOM     15  C   UNL     1     140.786 -34.881  67.648  1.00  0.00    -0.031 C 
BRANCH  15  16
ATOM     16  C   UNL     1     139.380 -34.905  67.101  1.00  0.00     0.027 C 
BRANCH  16  17
ATOM     17  C   UNL     1     139.354 -34.937  65.564  1.00  0.00     0.004 C 
BRANCH  17  18
ATOM     18  C   UNL     1     140.579 -35.616  64.924  1.00  0.00     0.000 C 
BRANCH  18  19
ATOM     19  C   UNL     1     140.455 -37.146  64.875  1.00  0.00    -0.003 C 
ATOM     20  C   UNL     1     141.730 -37.817  65.379  1.00  0.00     0.004 C 
ENDBRANCH  18  19
ENDBRANCH  17  18
ENDBRANCH  16  17
ENDBRANCH  15  16
ENDBRANCH  13  14
ENDBRANCH  12  13
ENDBRANCH   1  11
TORSDOF 14
ENDMDL
