MODEL 1
REMARK VINA RESULT:    -3.554      0.000      0.000
REMARK INTER + INTRA:          -4.392
REMARK INTER:                  -4.281
REMARK INTRA:                  -0.110
REMARK UNBOUND:                -0.110
REMARK SMILES CC[C@@H](C)[C@H]([NH3+])C(=O)[O-]
REMARK SMILES IDX 3 1 4 2 5 3 6 4 7 8 8 9 9 10 2 11 1 12
REMARK H PARENT 6 5 6 6 6 7
REMARK Flexibility Score: inf
ROOT
ATOM      1  C   UNL     1      29.252  26.381  21.732  1.00  0.00     0.050 C 
ATOM      2  C   UNL     1      29.309  26.536  20.200  1.00  0.00     0.014 C 
ENDROOT
BRANCH   1   3
ATOM      3  C   UNL     1      27.777  26.436  22.250  1.00  0.00     0.230 C 
BRANCH   3   4
ATOM      4  N   UNL     1      26.832  26.809  21.185  1.00  0.00    -0.350 N 
ATOM      5  H   UNL     1      27.337  26.933  20.279  1.00  0.00     0.345 HD
ATOM      6  H   UNL     1      26.327  27.692  21.430  1.00  0.00     0.345 HD
ATOM      7  H   UNL     1      26.130  26.045  21.041  1.00  0.00     0.345 HD
ENDBRANCH   3   4
BRANCH   3   8
ATOM      8  C   UNL     1      27.641  27.399  23.401  1.00  0.00     0.099 C 
ATOM      9  O   UNL     1      26.720  28.258  23.407  1.00  0.00    -0.544 OA
ATOM     10  O   UNL     1      28.544  27.354  24.456  1.00  0.00    -0.544 OA
ENDBRANCH   3   8
ENDBRANCH   1   3
BRANCH   1  11
ATOM     11  C   UNL     1      29.963  25.056  22.143  1.00  0.00     0.006 C 
ATOM     12  C   UNL     1      31.170  25.288  23.054  1.00  0.00     0.004 C 
ENDBRANCH   1  11
TORSDOF 4
ENDMDL
MODEL 2
REMARK VINA RESULT:    -3.512      1.458      1.818
REMARK INTER + INTRA:          -4.341
REMARK INTER:                  -4.339
REMARK INTRA:                  -0.002
REMARK UNBOUND:                -0.110
REMARK SMILES CC[C@@H](C)[C@H]([NH3+])C(=O)[O-]
REMARK SMILES IDX 3 1 4 2 5 3 6 4 7 8 8 9 9 10 2 11 1 12
REMARK H PARENT 6 5 6 6 6 7
REMARK Flexibility Score: inf
ROOT
ATOM      1  C   UNL     1      28.805  26.191  22.947  1.00  0.00     0.050 C 
ATOM      2  C   UNL     1      29.308  27.642  23.064  1.00  0.00     0.014 C 
ENDROOT
BRANCH   1   3
ATOM      3  C   UNL     1      27.390  26.137  22.283  1.00  0.00     0.230 C 
BRANCH   3   4
ATOM      4  N   UNL     1      27.336  26.916  21.035  1.00  0.00    -0.350 N 
ATOM      5  H   UNL     1      26.760  27.777  21.170  1.00  0.00     0.345 HD
ATOM      6  H   UNL     1      26.936  26.342  20.257  1.00  0.00     0.345 HD
ATOM      7  H   UNL     1      28.297  27.232  20.765  1.00  0.00     0.345 HD
ENDBRANCH   3   4
BRANCH   3   8
ATOM      8  C   UNL     1      26.327  26.631  23.228  1.00  0.00     0.099 C 
ATOM      9  O   UNL     1      25.722  25.825  23.986  1.00  0.00    -0.544 OA
ATOM     10  O   UNL     1      25.993  27.980  23.258  1.00  0.00    -0.544 OA
ENDBRANCH   3   8
ENDBRANCH   1   3
BRANCH   1  11
ATOM     11  C   UNL     1      29.850  25.345  22.158  1.00  0.00     0.006 C 
ATOM     12  C   UNL     1      31.221  25.311  22.837  1.00  0.00     0.004 C 
ENDBRANCH   1  11
TORSDOF 4
ENDMDL
MODEL 3
REMARK VINA RESULT:    -3.368      1.234      2.048
REMARK INTER + INTRA:          -4.167
REMARK INTER:                  -4.318
REMARK INTRA:                   0.151
REMARK UNBOUND:                -0.110
REMARK SMILES CC[C@@H](C)[C@H]([NH3+])C(=O)[O-]
REMARK SMILES IDX 3 1 4 2 5 3 6 4 7 8 8 9 9 10 2 11 1 12
REMARK H PARENT 6 5 6 6 6 7
REMARK Flexibility Score: inf
ROOT
ATOM      1  C   UNL     1      29.585  26.543  21.958  1.00  0.00     0.050 C 
ATOM      2  C   UNL     1      30.329  25.285  22.442  1.00  0.00     0.014 C 
ENDROOT
BRANCH   1   3
ATOM      3  C   UNL     1      28.045  26.414  22.194  1.00  0.00     0.230 C 
BRANCH   3   4
ATOM      4  N   UNL     1      27.268  26.856  21.024  1.00  0.00    -0.350 N 
ATOM      5  H   UNL     1      26.502  26.175  20.819  1.00  0.00     0.345 HD
ATOM      6  H   UNL     1      27.885  26.955  20.185  1.00  0.00     0.345 HD
ATOM      7  H   UNL     1      26.811  27.777  21.221  1.00  0.00     0.345 HD
ENDBRANCH   3   4
BRANCH   3   8
ATOM      8  C   UNL     1      27.613  27.197  23.406  1.00  0.00     0.099 C 
ATOM      9  O   UNL     1      27.975  26.838  24.559  1.00  0.00    -0.544 OA
ATOM     10  O   UNL     1      26.797  28.312  23.261  1.00  0.00    -0.544 OA
ENDBRANCH   3   8
ENDBRANCH   1   3
BRANCH   1  11
ATOM     11  C   UNL     1      30.178  27.798  22.668  1.00  0.00     0.006 C 
ATOM     12  C   UNL     1      31.310  28.451  21.873  1.00  0.00     0.004 C 
ENDBRANCH   1  11
TORSDOF 4
ENDMDL
MODEL 4
REMARK VINA RESULT:    -3.265      2.040      4.019
REMARK INTER + INTRA:          -4.043
REMARK INTER:                  -3.959
REMARK INTRA:                  -0.085
REMARK UNBOUND:                -0.110
REMARK SMILES CC[C@@H](C)[C@H]([NH3+])C(=O)[O-]
REMARK SMILES IDX 3 1 4 2 5 3 6 4 7 8 8 9 9 10 2 11 1 12
REMARK H PARENT 6 5 6 6 6 7
REMARK Flexibility Score: inf
ROOT
ATOM      1  C   UNL     1      26.928  27.192  23.567  1.00  0.00     0.050 C 
ATOM      2  C   UNL     1      25.735  26.224  23.457  1.00  0.00     0.014 C 
ENDROOT
BRANCH   1   3
ATOM      3  C   UNL     1      27.863  27.080  22.319  1.00  0.00     0.230 C 
BRANCH   3   4
ATOM      4  N   UNL     1      27.112  26.769  21.093  1.00  0.00    -0.350 N 
ATOM      5  H   UNL     1      26.578  25.879  21.210  1.00  0.00     0.345 HD
ATOM      6  H   UNL     1      27.757  26.687  20.273  1.00  0.00     0.345 HD
ATOM      7  H   UNL     1      26.411  27.523  20.898  1.00  0.00     0.345 HD
ENDBRANCH   3   4
BRANCH   3   8
ATOM      8  C   UNL     1      28.929  26.036  22.531  1.00  0.00     0.099 C 
ATOM      9  O   UNL     1      29.764  26.159  23.467  1.00  0.00    -0.544 OA
ATOM     10  O   UNL     1      29.008  24.939  21.682  1.00  0.00    -0.544 OA
ENDBRANCH   3   8
ENDBRANCH   1   3
BRANCH   1  11
ATOM     11  C   UNL     1      26.397  28.644  23.767  1.00  0.00     0.006 C 
ATOM     12  C   UNL     1      24.877  28.704  23.931  1.00  0.00     0.004 C 
ENDBRANCH   1  11
TORSDOF 4
ENDMDL
MODEL 5
REMARK VINA RESULT:    -3.033      2.516      3.260
REMARK INTER + INTRA:          -3.764
REMARK INTER:                  -3.690
REMARK INTRA:                  -0.074
REMARK UNBOUND:                -0.110
REMARK SMILES CC[C@@H](C)[C@H]([NH3+])C(=O)[O-]
REMARK SMILES IDX 3 1 4 2 5 3 6 4 7 8 8 9 9 10 2 11 1 12
REMARK H PARENT 6 5 6 6 6 7
REMARK Flexibility Score: inf
ROOT
ATOM      1  C   UNL     1      30.300  26.042  23.691  1.00  0.00     0.050 C 
ATOM      2  C   UNL     1      30.284  27.030  24.872  1.00  0.00     0.014 C 
ENDROOT
BRANCH   1   3
ATOM      3  C   UNL     1      30.112  26.787  22.329  1.00  0.00     0.230 C 
BRANCH   3   4
ATOM      4  N   UNL     1      29.841  28.222  22.518  1.00  0.00    -0.350 N 
ATOM      5  H   UNL     1      29.034  28.519  21.926  1.00  0.00     0.345 HD
ATOM      6  H   UNL     1      30.684  28.793  22.278  1.00  0.00     0.345 HD
ATOM      7  H   UNL     1      29.574  28.411  23.513  1.00  0.00     0.345 HD
ENDBRANCH   3   4
BRANCH   3   8
ATOM      8  C   UNL     1      29.000  26.170  21.521  1.00  0.00     0.099 C 
ATOM      9  O   UNL     1      28.219  25.332  22.046  1.00  0.00    -0.544 OA
ATOM     10  O   UNL     1      28.842  26.509  20.183  1.00  0.00    -0.544 OA
ENDBRANCH   3   8
ENDBRANCH   1   3
BRANCH   1  11
ATOM     11  C   UNL     1      31.625  25.220  23.725  1.00  0.00     0.006 C 
ATOM     12  C   UNL     1      31.969  24.706  25.124  1.00  0.00     0.004 C 
ENDBRANCH   1  11
TORSDOF 4
ENDMDL
MODEL 6
REMARK VINA RESULT:    -3.010      2.580      2.933
REMARK INTER + INTRA:          -3.737
REMARK INTER:                  -3.636
REMARK INTRA:                  -0.101
REMARK UNBOUND:                -0.110
REMARK SMILES CC[C@@H](C)[C@H]([NH3+])C(=O)[O-]
REMARK SMILES IDX 3 1 4 2 5 3 6 4 7 8 8 9 9 10 2 11 1 12
REMARK H PARENT 6 5 6 6 6 7
REMARK Flexibility Score: inf
ROOT
ATOM      1  C   UNL     1      29.793  26.518  22.095  1.00  0.00     0.050 C 
ATOM      2  C   UNL     1      28.306  26.156  21.916  1.00  0.00     0.014 C 
ENDROOT
BRANCH   1   3
ATOM      3  C   UNL     1      29.970  27.684  23.121  1.00  0.00     0.230 C 
BRANCH   3   4
ATOM      4  N   UNL     1      28.690  28.333  23.446  1.00  0.00    -0.350 N 
ATOM      5  H   UNL     1      27.955  28.050  22.758  1.00  0.00     0.345 HD
ATOM      6  H   UNL     1      28.791  29.375  23.444  1.00  0.00     0.345 HD
ATOM      7  H   UNL     1      28.358  28.025  24.390  1.00  0.00     0.345 HD
ENDBRANCH   3   4
BRANCH   3   8
ATOM      8  C   UNL     1      30.939  28.717  22.607  1.00  0.00     0.099 C 
ATOM      9  O   UNL     1      31.357  28.665  21.420  1.00  0.00    -0.544 OA
ATOM     10  O   UNL     1      31.391  29.727  23.449  1.00  0.00    -0.544 OA
ENDBRANCH   3   8
ENDBRANCH   1   3
BRANCH   1  11
ATOM     11  C   UNL     1      30.586  25.245  22.520  1.00  0.00     0.006 C 
ATOM     12  C   UNL     1      31.240  25.384  23.896  1.00  0.00     0.004 C 
ENDBRANCH   1  11
TORSDOF 4
ENDMDL
MODEL 7
REMARK VINA RESULT:    -2.999      2.420      3.226
REMARK INTER + INTRA:          -3.723
REMARK INTER:                  -3.585
REMARK INTRA:                  -0.138
REMARK UNBOUND:                -0.110
REMARK SMILES CC[C@@H](C)[C@H]([NH3+])C(=O)[O-]
REMARK SMILES IDX 3 1 4 2 5 3 6 4 7 8 8 9 9 10 2 11 1 12
REMARK H PARENT 6 5 6 6 6 7
REMARK Flexibility Score: inf
ROOT
ATOM      1  C   UNL     1      30.165  25.959  23.004  1.00  0.00     0.050 C 
ATOM      2  C   UNL     1      31.367  25.209  23.610  1.00  0.00     0.014 C 
ENDROOT
BRANCH   1   3
ATOM      3  C   UNL     1      30.570  27.400  22.553  1.00  0.00     0.230 C 
BRANCH   3   4
ATOM      4  N   UNL     1      32.028  27.598  22.581  1.00  0.00    -0.350 N 
ATOM      5  H   UNL     1      32.368  27.650  23.567  1.00  0.00     0.345 HD
ATOM      6  H   UNL     1      32.293  28.473  22.070  1.00  0.00     0.345 HD
ATOM      7  H   UNL     1      32.512  26.784  22.134  1.00  0.00     0.345 HD
ENDBRANCH   3   4
BRANCH   3   8
ATOM      8  C   UNL     1      29.906  28.445  23.412  1.00  0.00     0.099 C 
ATOM      9  O   UNL     1      30.522  29.498  23.726  1.00  0.00    -0.544 OA
ATOM     10  O   UNL     1      28.612  28.243  23.878  1.00  0.00    -0.544 OA
ENDBRANCH   3   8
ENDBRANCH   1   3
BRANCH   1  11
ATOM     11  C   UNL     1      29.578  25.124  21.826  1.00  0.00     0.006 C 
ATOM     12  C   UNL     1      28.647  25.940  20.927  1.00  0.00     0.004 C 
ENDBRANCH   1  11
TORSDOF 4
ENDMDL
MODEL 8
REMARK VINA RESULT:    -2.935      3.063      3.713
REMARK INTER + INTRA:          -3.646
REMARK INTER:                  -3.573
REMARK INTRA:                  -0.073
REMARK UNBOUND:                -0.110
REMARK SMILES CC[C@@H](C)[C@H]([NH3+])C(=O)[O-]
REMARK SMILES IDX 3 1 4 2 5 3 6 4 7 8 8 9 9 10 2 11 1 12
REMARK H PARENT 6 5 6 6 6 7
REMARK Flexibility Score: inf
ROOT
ATOM      1  C   UNL     1      30.955  27.970  22.960  1.00  0.00     0.050 C 
ATOM      2  C   UNL     1      30.270  29.168  23.645  1.00  0.00     0.014 C 
ENDROOT
BRANCH   1   3
ATOM      3  C   UNL     1      29.919  27.102  22.174  1.00  0.00     0.230 C 
BRANCH   3   4
ATOM      4  N   UNL     1      28.534  27.400  22.571  1.00  0.00    -0.350 N 
ATOM      5  H   UNL     1      28.467  27.494  23.610  1.00  0.00     0.345 HD
ATOM      6  H   UNL     1      27.883  26.649  22.244  1.00  0.00     0.345 HD
ATOM      7  H   UNL     1      28.229  28.315  22.162  1.00  0.00     0.345 HD
ENDBRANCH   3   4
BRANCH   3   8
ATOM      8  C   UNL     1      30.188  25.631  22.362  1.00  0.00     0.099 C 
ATOM      9  O   UNL     1      29.523  24.774  21.721  1.00  0.00    -0.544 OA
ATOM     10  O   UNL     1      31.163  25.211  23.259  1.00  0.00    -0.544 OA
ENDBRANCH   3   8
ENDBRANCH   1   3
BRANCH   1  11
ATOM     11  C   UNL     1      32.098  28.489  22.035  1.00  0.00     0.006 C 
ATOM     12  C   UNL     1      31.992  29.987  21.744  1.00  0.00     0.004 C 
ENDBRANCH   1  11
TORSDOF 4
ENDMDL
MODEL 9
REMARK VINA RESULT:    -2.863      2.421      3.375
REMARK INTER + INTRA:          -3.560
REMARK INTER:                  -3.440
REMARK INTRA:                  -0.120
REMARK UNBOUND:                -0.110
REMARK SMILES CC[C@@H](C)[C@H]([NH3+])C(=O)[O-]
REMARK SMILES IDX 3 1 4 2 5 3 6 4 7 8 8 9 9 10 2 11 1 12
REMARK H PARENT 6 5 6 6 6 7
REMARK Flexibility Score: inf
ROOT
ATOM      1  C   UNL     1      28.493  26.087  22.270  1.00  0.00     0.050 C 
ATOM      2  C   UNL     1      28.699  26.072  20.744  1.00  0.00     0.014 C 
ENDROOT
BRANCH   1   3
ATOM      3  C   UNL     1      29.621  26.901  22.983  1.00  0.00     0.230 C 
BRANCH   3   4
ATOM      4  N   UNL     1      30.315  27.811  22.058  1.00  0.00    -0.350 N 
ATOM      5  H   UNL     1      29.942  27.696  21.089  1.00  0.00     0.345 HD
ATOM      6  H   UNL     1      31.345  27.630  22.062  1.00  0.00     0.345 HD
ATOM      7  H   UNL     1      30.144  28.807  22.335  1.00  0.00     0.345 HD
ENDBRANCH   3   4
BRANCH   3   8
ATOM      8  C   UNL     1      30.626  25.984  23.631  1.00  0.00     0.099 C 
ATOM      9  O   UNL     1      31.304  25.184  22.931  1.00  0.00    -0.544 OA
ATOM     10  O   UNL     1      30.799  26.003  25.009  1.00  0.00    -0.544 OA
ENDBRANCH   3   8
ENDBRANCH   1   3
BRANCH   1  11
ATOM     11  C   UNL     1      27.076  26.652  22.594  1.00  0.00     0.006 C 
ATOM     12  C   UNL     1      27.073  27.591  23.801  1.00  0.00     0.004 C 
ENDBRANCH   1  11
TORSDOF 4
ENDMDL
