MODEL 1
REMARK VINA RESULT:    -4.750      0.000      0.000
REMARK INTER + INTRA:          -7.278
REMARK INTER:                  -6.971
REMARK INTRA:                  -0.307
REMARK UNBOUND:                -0.307
REMARK SMILES O=C([O-])CCCCCCCC(=O)[O-]
REMARK SMILES IDX 7 1 6 2 5 3 4 4 2 5 1 6 3 7 8 8 9 9 10 10 11 11 12 12 13 13
REMARK H PARENT
REMARK Flexibility Score: inf
ROOT
ATOM      1  C   UNL     1     -30.279  -8.946  34.013  1.00  0.00     0.000 C 
ENDROOT
BRANCH   1   2
ATOM      2  C   UNL     1     -28.744  -9.011  33.977  1.00  0.00     0.000 C 
BRANCH   2   3
ATOM      3  C   UNL     1     -28.197  -9.748  35.208  1.00  0.00     0.006 C 
BRANCH   3   4
ATOM      4  C   UNL     1     -28.016 -11.250  34.954  1.00  0.00     0.053 C 
BRANCH   4   5
ATOM      5  C   UNL     1     -27.088 -11.514  33.808  1.00  0.00     0.041 C 
ATOM      6  O   UNL     1     -25.844 -11.395  33.961  1.00  0.00    -0.550 OA
ATOM      7  O   UNL     1     -27.600 -11.856  32.563  1.00  0.00    -0.550 OA
ENDBRANCH   4   5
ENDBRANCH   3   4
ENDBRANCH   2   3
ENDBRANCH   1   2
BRANCH   1   8
ATOM      8  C   UNL     1     -30.847  -7.825  33.128  1.00  0.00     0.000 C 
BRANCH   8   9
ATOM      9  C   UNL     1     -31.902  -6.973  33.855  1.00  0.00     0.006 C 
BRANCH   9  10
ATOM     10  C   UNL     1     -33.241  -7.709  33.998  1.00  0.00     0.053 C 
BRANCH  10  11
ATOM     11  C   UNL     1     -33.819  -8.076  32.666  1.00  0.00     0.041 C 
ATOM     12  O   UNL     1     -33.786  -9.270  32.267  1.00  0.00    -0.550 OA
ATOM     13  O   UNL     1     -34.419  -7.102  31.876  1.00  0.00    -0.550 OA
ENDBRANCH  10  11
ENDBRANCH   9  10
ENDBRANCH   8   9
ENDBRANCH   1   8
TORSDOF 8
ENDMDL
MODEL 2
REMARK VINA RESULT:    -4.608      0.604      6.685
REMARK INTER + INTRA:          -7.069
REMARK INTER:                  -7.041
REMARK INTRA:                  -0.028
REMARK UNBOUND:                -0.307
REMARK SMILES O=C([O-])CCCCCCCC(=O)[O-]
REMARK SMILES IDX 7 1 6 2 5 3 4 4 2 5 1 6 3 7 8 8 9 9 10 10 11 11 12 12 13 13
REMARK H PARENT
REMARK Flexibility Score: inf
ROOT
ATOM      1  C   UNL     1     -30.288  -8.728  34.079  1.00  0.00     0.000 C 
ENDROOT
BRANCH   1   2
ATOM      2  C   UNL     1     -30.841  -7.937  32.884  1.00  0.00     0.000 C 
BRANCH   2   3
ATOM      3  C   UNL     1     -32.003  -7.030  33.316  1.00  0.00     0.006 C 
BRANCH   3   4
ATOM      4  C   UNL     1     -32.969  -6.733  32.162  1.00  0.00     0.053 C 
BRANCH   4   5
ATOM      5  C   UNL     1     -34.087  -7.729  32.100  1.00  0.00     0.041 C 
ATOM      6  O   UNL     1     -35.279  -7.336  31.999  1.00  0.00    -0.550 OA
ATOM      7  O   UNL     1     -33.814  -9.088  32.188  1.00  0.00    -0.550 OA
ENDBRANCH   4   5
ENDBRANCH   3   4
ENDBRANCH   2   3
ENDBRANCH   1   2
BRANCH   1   8
ATOM      8  C   UNL     1     -28.832  -9.175  33.873  1.00  0.00     0.000 C 
BRANCH   8   9
ATOM      9  C   UNL     1     -28.227  -9.822  35.132  1.00  0.00     0.006 C 
BRANCH   9  10
ATOM     10  C   UNL     1     -27.889 -11.303  34.915  1.00  0.00     0.053 C 
BRANCH  10  11
ATOM     11  C   UNL     1     -27.043 -11.508  33.696  1.00  0.00     0.041 C 
ATOM     12  O   UNL     1     -27.574 -11.829  32.601  1.00  0.00    -0.550 OA
ATOM     13  O   UNL     1     -25.668 -11.317  33.764  1.00  0.00    -0.550 OA
ENDBRANCH  10  11
ENDBRANCH   9  10
ENDBRANCH   8   9
ENDBRANCH   1   8
TORSDOF 8
ENDMDL
MODEL 3
REMARK VINA RESULT:    -4.049      3.715      8.277
REMARK INTER + INTRA:          -6.249
REMARK INTER:                  -5.853
REMARK INTRA:                  -0.396
REMARK UNBOUND:                -0.307
REMARK SMILES O=C([O-])CCCCCCCC(=O)[O-]
REMARK SMILES IDX 7 1 6 2 5 3 4 4 2 5 1 6 3 7 8 8 9 9 10 10 11 11 12 12 13 13
REMARK H PARENT
REMARK Flexibility Score: inf
ROOT
ATOM      1  C   UNL     1     -35.508  -7.332  32.785  1.00  0.00     0.000 C 
ENDROOT
BRANCH   1   2
ATOM      2  C   UNL     1     -36.772  -6.955  31.997  1.00  0.00     0.000 C 
BRANCH   2   3
ATOM      3  C   UNL     1     -38.024  -7.082  32.877  1.00  0.00     0.006 C 
BRANCH   3   4
ATOM      4  C   UNL     1     -38.389  -5.759  33.563  1.00  0.00     0.053 C 
BRANCH   4   5
ATOM      5  C   UNL     1     -37.961  -5.740  34.999  1.00  0.00     0.041 C 
ATOM      6  O   UNL     1     -37.720  -6.818  35.602  1.00  0.00    -0.550 OA
ATOM      7  O   UNL     1     -37.863  -4.533  35.680  1.00  0.00    -0.550 OA
ENDBRANCH   4   5
ENDBRANCH   3   4
ENDBRANCH   2   3
ENDBRANCH   1   2
BRANCH   1   8
ATOM      8  C   UNL     1     -34.350  -7.771  31.875  1.00  0.00     0.000 C 
BRANCH   8   9
ATOM      9  C   UNL     1     -33.097  -6.893  32.045  1.00  0.00     0.006 C 
BRANCH   9  10
ATOM     10  C   UNL     1     -32.626  -6.833  33.504  1.00  0.00     0.053 C 
BRANCH  10  11
ATOM     11  C   UNL     1     -31.978  -8.113  33.933  1.00  0.00     0.041 C 
ATOM     12  O   UNL     1     -30.769  -8.335  33.659  1.00  0.00    -0.550 OA
ATOM     13  O   UNL     1     -32.701  -9.049  34.661  1.00  0.00    -0.550 OA
ENDBRANCH  10  11
ENDBRANCH   9  10
ENDBRANCH   8   9
ENDBRANCH   1   8
TORSDOF 8
ENDMDL
MODEL 4
REMARK VINA RESULT:    -3.722      2.602      7.698
REMARK INTER + INTRA:          -5.769
REMARK INTER:                  -5.477
REMARK INTRA:                  -0.292
REMARK UNBOUND:                -0.307
REMARK SMILES O=C([O-])CCCCCCCC(=O)[O-]
REMARK SMILES IDX 7 1 6 2 5 3 4 4 2 5 1 6 3 7 8 8 9 9 10 10 11 11 12 12 13 13
REMARK H PARENT
REMARK Flexibility Score: inf
ROOT
ATOM      1  C   UNL     1     -33.481  -7.207  33.328  1.00  0.00     0.000 C 
ENDROOT
BRANCH   1   2
ATOM      2  C   UNL     1     -34.004  -7.448  31.904  1.00  0.00     0.000 C 
BRANCH   2   3
ATOM      3  C   UNL     1     -35.539  -7.450  31.876  1.00  0.00     0.006 C 
BRANCH   3   4
ATOM      4  C   UNL     1     -36.146  -7.195  33.261  1.00  0.00     0.053 C 
BRANCH   4   5
ATOM      5  C   UNL     1     -37.590  -6.805  33.174  1.00  0.00     0.041 C 
ATOM      6  O   UNL     1     -38.083  -6.443  32.073  1.00  0.00    -0.550 OA
ATOM      7  O   UNL     1     -38.382  -6.807  34.315  1.00  0.00    -0.550 OA
ENDBRANCH   4   5
ENDBRANCH   3   4
ENDBRANCH   2   3
ENDBRANCH   1   2
BRANCH   1   8
ATOM      8  C   UNL     1     -32.022  -6.725  33.351  1.00  0.00     0.000 C 
BRANCH   8   9
ATOM      9  C   UNL     1     -31.026  -7.829  32.953  1.00  0.00     0.006 C 
BRANCH   9  10
ATOM     10  C   UNL     1     -30.635  -8.712  34.146  1.00  0.00     0.053 C 
BRANCH  10  11
ATOM     11  C   UNL     1     -29.178  -9.060  34.125  1.00  0.00     0.041 C 
ATOM     12  O   UNL     1     -28.751 -10.041  34.789  1.00  0.00    -0.550 OA
ATOM     13  O   UNL     1     -28.296  -8.317  33.350  1.00  0.00    -0.550 OA
ENDBRANCH  10  11
ENDBRANCH   9  10
ENDBRANCH   8   9
ENDBRANCH   1   8
TORSDOF 8
ENDMDL
MODEL 5
REMARK VINA RESULT:    -3.702     19.105     20.782
REMARK INTER + INTRA:          -5.740
REMARK INTER:                  -5.029
REMARK INTRA:                  -0.711
REMARK UNBOUND:                -0.307
REMARK SMILES O=C([O-])CCCCCCCC(=O)[O-]
REMARK SMILES IDX 7 1 6 2 5 3 4 4 2 5 1 6 3 7 8 8 9 9 10 10 11 11 12 12 13 13
REMARK H PARENT
REMARK Flexibility Score: inf
ROOT
ATOM      1  C   UNL     1     -34.993  -0.624  50.472  1.00  0.00     0.000 C 
ENDROOT
BRANCH   1   2
ATOM      2  C   UNL     1     -36.232  -0.099  49.730  1.00  0.00     0.000 C 
BRANCH   2   3
ATOM      3  C   UNL     1     -37.260   0.475  50.716  1.00  0.00     0.006 C 
BRANCH   3   4
ATOM      4  C   UNL     1     -36.635   1.489  51.683  1.00  0.00     0.053 C 
BRANCH   4   5
ATOM      5  C   UNL     1     -36.377   2.807  51.018  1.00  0.00     0.041 C 
ATOM      6  O   UNL     1     -35.198   3.166  50.762  1.00  0.00    -0.550 OA
ATOM      7  O   UNL     1     -37.436   3.653  50.715  1.00  0.00    -0.550 OA
ENDBRANCH   4   5
ENDBRANCH   3   4
ENDBRANCH   2   3
ENDBRANCH   1   2
BRANCH   1   8
ATOM      8  C   UNL     1     -34.786  -2.136  50.286  1.00  0.00     0.000 C 
BRANCH   8   9
ATOM      9  C   UNL     1     -35.081  -2.936  51.567  1.00  0.00     0.006 C 
BRANCH   9  10
ATOM     10  C   UNL     1     -36.584  -3.174  51.768  1.00  0.00     0.053 C 
BRANCH  10  11
ATOM     11  C   UNL     1     -37.235  -3.700  50.526  1.00  0.00     0.041 C 
ATOM     12  O   UNL     1     -38.178  -3.064  49.985  1.00  0.00    -0.550 OA
ATOM     13  O   UNL     1     -36.780  -4.879  49.949  1.00  0.00    -0.550 OA
ENDBRANCH  10  11
ENDBRANCH   9  10
ENDBRANCH   8   9
ENDBRANCH   1   8
TORSDOF 8
ENDMDL
MODEL 6
REMARK VINA RESULT:    -3.657      9.076     11.646
REMARK INTER + INTRA:          -5.674
REMARK INTER:                  -4.961
REMARK INTRA:                  -0.713
REMARK UNBOUND:                -0.307
REMARK SMILES O=C([O-])CCCCCCCC(=O)[O-]
REMARK SMILES IDX 7 1 6 2 5 3 4 4 2 5 1 6 3 7 8 8 9 9 10 10 11 11 12 12 13 13
REMARK H PARENT
REMARK Flexibility Score: inf
ROOT
ATOM      1  C   UNL     1     -20.765 -12.431  41.176  1.00  0.00     0.000 C 
ENDROOT
BRANCH   1   2
ATOM      2  C   UNL     1     -20.687 -13.794  40.471  1.00  0.00     0.000 C 
BRANCH   2   3
ATOM      3  C   UNL     1     -21.871 -14.687  40.870  1.00  0.00     0.006 C 
BRANCH   3   4
ATOM      4  C   UNL     1     -22.938 -13.918  41.660  1.00  0.00     0.053 C 
BRANCH   4   5
ATOM      5  C   UNL     1     -23.359 -14.658  42.893  1.00  0.00     0.041 C 
ATOM      6  O   UNL     1     -24.342 -14.253  43.569  1.00  0.00    -0.550 OA
ATOM      7  O   UNL     1     -22.645 -15.772  43.315  1.00  0.00    -0.550 OA
ENDBRANCH   4   5
ENDBRANCH   3   4
ENDBRANCH   2   3
ENDBRANCH   1   2
BRANCH   1   8
ATOM      8  C   UNL     1     -20.712 -11.250  40.193  1.00  0.00     0.000 C 
BRANCH   8   9
ATOM      9  C   UNL     1     -21.343 -11.586  38.830  1.00  0.00     0.006 C 
BRANCH   9  10
ATOM     10  C   UNL     1     -22.866 -11.402  38.836  1.00  0.00     0.053 C 
BRANCH  10  11
ATOM     11  C   UNL     1     -23.548 -12.380  37.929  1.00  0.00     0.041 C 
ATOM     12  O   UNL     1     -23.464 -12.252  36.679  1.00  0.00    -0.550 OA
ATOM     13  O   UNL     1     -24.254 -13.449  38.465  1.00  0.00    -0.550 OA
ENDBRANCH  10  11
ENDBRANCH   9  10
ENDBRANCH   8   9
ENDBRANCH   1   8
TORSDOF 8
ENDMDL
MODEL 7
REMARK VINA RESULT:    -3.642      9.282     11.948
REMARK INTER + INTRA:          -5.653
REMARK INTER:                  -4.926
REMARK INTRA:                  -0.727
REMARK UNBOUND:                -0.307
REMARK SMILES O=C([O-])CCCCCCCC(=O)[O-]
REMARK SMILES IDX 7 1 6 2 5 3 4 4 2 5 1 6 3 7 8 8 9 9 10 10 11 11 12 12 13 13
REMARK H PARENT
REMARK Flexibility Score: inf
ROOT
ATOM      1  C   UNL     1     -21.213 -12.146  40.864  1.00  0.00     0.000 C 
ENDROOT
BRANCH   1   2
ATOM      2  C   UNL     1     -21.272 -11.252  39.616  1.00  0.00     0.000 C 
BRANCH   2   3
ATOM      3  C   UNL     1     -22.723 -10.887  39.271  1.00  0.00     0.006 C 
BRANCH   3   4
ATOM      4  C   UNL     1     -23.470 -12.045  38.597  1.00  0.00     0.053 C 
BRANCH   4   5
ATOM      5  C   UNL     1     -22.810 -12.465  37.319  1.00  0.00     0.041 C 
ATOM      6  O   UNL     1     -22.895 -11.739  36.294  1.00  0.00    -0.550 OA
ATOM      7  O   UNL     1     -22.131 -13.675  37.252  1.00  0.00    -0.550 OA
ENDBRANCH   4   5
ENDBRANCH   3   4
ENDBRANCH   2   3
ENDBRANCH   1   2
BRANCH   1   8
ATOM      8  C   UNL     1     -20.728 -13.571  40.550  1.00  0.00     0.000 C 
BRANCH   8   9
ATOM      9  C   UNL     1     -21.692 -14.652  41.070  1.00  0.00     0.006 C 
BRANCH   9  10
ATOM     10  C   UNL     1     -22.991 -14.052  41.624  1.00  0.00     0.053 C 
BRANCH  10  11
ATOM     11  C   UNL     1     -23.395 -14.695  42.915  1.00  0.00     0.041 C 
ATOM     12  O   UNL     1     -22.773 -15.703  43.344  1.00  0.00    -0.550 OA
ATOM     13  O   UNL     1     -24.440 -14.163  43.659  1.00  0.00    -0.550 OA
ENDBRANCH  10  11
ENDBRANCH   9  10
ENDBRANCH   8   9
ENDBRANCH   1   8
TORSDOF 8
ENDMDL
MODEL 8
REMARK VINA RESULT:    -3.639     10.330     12.065
REMARK INTER + INTRA:          -5.647
REMARK INTER:                  -4.675
REMARK INTRA:                  -0.972
REMARK UNBOUND:                -0.307
REMARK SMILES O=C([O-])CCCCCCCC(=O)[O-]
REMARK SMILES IDX 7 1 6 2 5 3 4 4 2 5 1 6 3 7 8 8 9 9 10 10 11 11 12 12 13 13
REMARK H PARENT
REMARK Flexibility Score: inf
ROOT
ATOM      1  C   UNL     1     -23.607 -13.843  39.098  1.00  0.00     0.000 C 
ENDROOT
BRANCH   1   2
ATOM      2  C   UNL     1     -22.499 -14.699  38.467  1.00  0.00     0.000 C 
BRANCH   2   3
ATOM      3  C   UNL     1     -21.455 -15.107  39.517  1.00  0.00     0.006 C 
BRANCH   3   4
ATOM      4  C   UNL     1     -21.860 -14.682  40.934  1.00  0.00     0.053 C 
BRANCH   4   5
ATOM      5  C   UNL     1     -20.671 -14.297  41.762  1.00  0.00     0.041 C 
ATOM      6  O   UNL     1     -20.821 -13.966  42.967  1.00  0.00    -0.550 OA
ATOM      7  O   UNL     1     -19.405 -14.270  41.191  1.00  0.00    -0.550 OA
ENDBRANCH   4   5
ENDBRANCH   3   4
ENDBRANCH   2   3
ENDBRANCH   1   2
BRANCH   1   8
ATOM      8  C   UNL     1     -23.905 -12.568  38.292  1.00  0.00     0.000 C 
BRANCH   8   9
ATOM      9  C   UNL     1     -22.694 -11.622  38.211  1.00  0.00     0.006 C 
BRANCH   9  10
ATOM     10  C   UNL     1     -22.229 -11.158  39.598  1.00  0.00     0.053 C 
BRANCH  10  11
ATOM     11  C   UNL     1     -20.743 -11.272  39.753  1.00  0.00     0.041 C 
ATOM     12  O   UNL     1     -20.057 -11.866  38.880  1.00  0.00    -0.550 OA
ATOM     13  O   UNL     1     -20.113 -10.698  40.850  1.00  0.00    -0.550 OA
ENDBRANCH  10  11
ENDBRANCH   9  10
ENDBRANCH   8   9
ENDBRANCH   1   8
TORSDOF 8
ENDMDL
MODEL 9
REMARK VINA RESULT:    -3.583      9.546     11.936
REMARK INTER + INTRA:          -5.565
REMARK INTER:                  -4.864
REMARK INTRA:                  -0.701
REMARK UNBOUND:                -0.307
REMARK SMILES O=C([O-])CCCCCCCC(=O)[O-]
REMARK SMILES IDX 7 1 6 2 5 3 4 4 2 5 1 6 3 7 8 8 9 9 10 10 11 11 12 12 13 13
REMARK H PARENT
REMARK Flexibility Score: inf
ROOT
ATOM      1  C   UNL     1     -22.390 -14.580  38.624  1.00  0.00     0.000 C 
ENDROOT
BRANCH   1   2
ATOM      2  C   UNL     1     -21.688 -14.970  39.933  1.00  0.00     0.000 C 
BRANCH   2   3
ATOM      3  C   UNL     1     -22.467 -14.450  41.150  1.00  0.00     0.006 C 
BRANCH   3   4
ATOM      4  C   UNL     1     -21.540 -14.007  42.288  1.00  0.00     0.053 C 
BRANCH   4   5
ATOM      5  C   UNL     1     -21.704 -14.864  43.507  1.00  0.00     0.041 C 
ATOM      6  O   UNL     1     -21.225 -14.493  44.610  1.00  0.00    -0.550 OA
ATOM      7  O   UNL     1     -22.354 -16.088  43.414  1.00  0.00    -0.550 OA
ENDBRANCH   4   5
ENDBRANCH   3   4
ENDBRANCH   2   3
ENDBRANCH   1   2
BRANCH   1   8
ATOM      8  C   UNL     1     -23.778 -13.961  38.856  1.00  0.00     0.000 C 
BRANCH   8   9
ATOM      9  C   UNL     1     -23.908 -12.553  38.247  1.00  0.00     0.006 C 
BRANCH   9  10
ATOM     10  C   UNL     1     -22.574 -11.797  38.248  1.00  0.00     0.053 C 
BRANCH  10  11
ATOM     11  C   UNL     1     -22.415 -10.950  39.474  1.00  0.00     0.041 C 
ATOM     12  O   UNL     1     -21.404 -11.085  40.212  1.00  0.00    -0.550 OA
ATOM     13  O   UNL     1     -23.372  -9.992  39.785  1.00  0.00    -0.550 OA
ENDBRANCH  10  11
ENDBRANCH   9  10
ENDBRANCH   8   9
ENDBRANCH   1   8
TORSDOF 8
ENDMDL
