MODEL 1
REMARK VINA RESULT:    -4.238      0.000      0.000
REMARK INTER + INTRA:          -6.589
REMARK INTER:                  -6.468
REMARK INTRA:                  -0.122
REMARK UNBOUND:                -0.122
REMARK SMILES CC1=CCC[C@@H](C)C(=O)C[C@@H](C(C)C)C(=O)C1
REMARK SMILES IDX 8 1 9 2 6 3 7 4 5 5 4 6 3 7 2 8 1 9 10 11 11 12 15 13 16 14
REMARK SMILES IDX 17 15 12 17 13 18 14 19
REMARK H PARENT
REMARK Flexibility Score: 70.00
ROOT
ATOM      1  C   UNL     1      49.758  33.509  30.713  1.00  0.00     0.136 C 
ATOM      2  O   UNL     1      49.027  32.881  29.961  1.00  0.00    -0.299 OA
ENDROOT
BRANCH   1   3
ATOM      3  C   UNL     1      49.121  34.329  31.823  1.00  0.00     0.053 C 
ATOM      4  C   UNL     1      47.600  34.122  31.857  1.00  0.00     0.016 C 
BRANCH   3   5
ATOM      5  C   UNL     1      49.480  35.823  31.647  1.00  0.00     0.015 C 
BRANCH   5   6
ATOM      6  C   UNL     1      50.290  36.387  32.836  1.00  0.00     0.028 C 
BRANCH   6   7
ATOM      7  C   UNL     1      51.576  37.037  32.385  1.00  0.00    -0.028 C 
ATOM      8  C   UNL     1      52.801  36.463  32.442  1.00  0.00    -0.070 CG0
ATOM      9  C   UNL     1      53.978  37.246  31.917  1.00  0.00     0.039 C 
ATOM     10  G   UNL     1      53.045  35.069  32.999  1.00  0.00     0.000 G0
ENDBRANCH   6   7
ENDBRANCH   5   6
ENDBRANCH   3   5
ENDBRANCH   1   3
BRANCH   1  11
ATOM     11  C   UNL     1      51.253  33.454  30.445  1.00  0.00     0.087 C 
BRANCH  11  12
ATOM     12  C   UNL     1      52.174  32.993  31.609  1.00  0.00     0.066 C 
BRANCH  12  13
ATOM     13  C   UNL     1      53.263  34.016  31.909  1.00  0.00     0.140 C 
ATOM     14  O   UNL     1      54.325  33.963  31.306  1.00  0.00    -0.299 OA
BRANCH  13  15
ATOM     15  C   UNL     1      53.068  35.054  32.992  1.00  0.00     0.106 CG0
ATOM     16  G   UNL     1      52.794  36.440  32.432  1.00  0.00     0.000 G0
ENDBRANCH  13  15
ENDBRANCH  12  13
BRANCH  12  17
ATOM     17  C   UNL     1      52.755  31.566  31.350  1.00  0.00    -0.006 C 
ATOM     18  C   UNL     1      51.681  30.609  30.810  1.00  0.00     0.008 C 
ATOM     19  C   UNL     1      53.452  30.931  32.567  1.00  0.00     0.008 C 
ENDBRANCH  12  17
ENDBRANCH  11  12
ENDBRANCH   1  11
TORSDOF 1
ENDMDL
MODEL 2
REMARK VINA RESULT:    -4.150      2.118      3.417
REMARK INTER + INTRA:          -6.455
REMARK INTER:                  -6.560
REMARK INTRA:                   0.105
REMARK UNBOUND:                -0.122
REMARK SMILES CC1=CCC[C@@H](C)C(=O)C[C@@H](C(C)C)C(=O)C1
REMARK SMILES IDX 8 1 9 2 6 3 7 4 5 5 4 6 3 7 2 8 1 9 10 11 11 12 15 13 16 14
REMARK SMILES IDX 17 15 12 17 13 18 14 19
REMARK H PARENT
REMARK Flexibility Score: 70.00
ROOT
ATOM      1  C   UNL     1      53.173  32.054  31.876  1.00  0.00     0.136 C 
ATOM      2  O   UNL     1      53.532  31.276  32.747  1.00  0.00    -0.299 OA
ENDROOT
BRANCH   1   3
ATOM      3  C   UNL     1      51.771  31.907  31.308  1.00  0.00     0.053 C 
ATOM      4  C   UNL     1      51.627  30.589  30.532  1.00  0.00     0.016 C 
BRANCH   3   5
ATOM      5  C   UNL     1      51.435  33.123  30.413  1.00  0.00     0.015 C 
BRANCH   5   6
ATOM      6  C   UNL     1      50.935  34.340  31.224  1.00  0.00     0.028 C 
BRANCH   6   7
ATOM      7  C   UNL     1      51.595  35.623  30.781  1.00  0.00    -0.028 C 
ATOM      8  C   UNL     1      52.612  36.241  31.428  1.00  0.00    -0.070 CG0
ATOM      9  C   UNL     1      53.175  37.504  30.826  1.00  0.00     0.039 C 
ATOM     10  G   UNL     1      53.216  35.720  32.722  1.00  0.00     0.000 G0
ENDBRANCH   6   7
ENDBRANCH   5   6
ENDBRANCH   3   5
ENDBRANCH   1   3
BRANCH   1  11
ATOM     11  C   UNL     1      54.183  33.085  31.398  1.00  0.00     0.087 C 
BRANCH  11  12
ATOM     12  C   UNL     1      55.023  33.822  32.478  1.00  0.00     0.066 C 
BRANCH  12  13
ATOM     13  C   UNL     1      54.667  35.300  32.561  1.00  0.00     0.140 C 
ATOM     14  O   UNL     1      55.557  36.138  32.556  1.00  0.00    -0.299 OA
BRANCH  13  15
ATOM     15  C   UNL     1      53.227  35.739  32.718  1.00  0.00     0.106 CG0
ATOM     16  G   UNL     1      52.628  36.257  31.420  1.00  0.00     0.000 G0
ENDBRANCH  13  15
ENDBRANCH  12  13
BRANCH  12  17
ATOM     17  C   UNL     1      56.554  33.590  32.271  1.00  0.00    -0.006 C 
ATOM     18  C   UNL     1      56.824  32.384  31.357  1.00  0.00     0.008 C 
ATOM     19  C   UNL     1      57.359  33.444  33.575  1.00  0.00     0.008 C 
ENDBRANCH  12  17
ENDBRANCH  11  12
ENDBRANCH   1  11
TORSDOF 1
ENDMDL
MODEL 3
REMARK VINA RESULT:    -3.982      2.260      4.650
REMARK INTER + INTRA:          -6.199
REMARK INTER:                  -5.901
REMARK INTRA:                  -0.298
REMARK UNBOUND:                -0.122
REMARK SMILES CC1=CCC[C@@H](C)C(=O)C[C@@H](C(C)C)C(=O)C1
REMARK SMILES IDX 8 1 9 2 6 3 7 4 5 5 4 6 3 7 2 8 1 9 10 11 11 12 15 13 16 14
REMARK SMILES IDX 17 15 12 17 13 18 14 19
REMARK H PARENT
REMARK Flexibility Score: 70.00
ROOT
ATOM      1  C   UNL     1      49.869  33.378  32.049  1.00  0.00     0.136 C 
ATOM      2  O   UNL     1      50.291  33.324  33.194  1.00  0.00    -0.299 OA
ENDROOT
BRANCH   1   3
ATOM      3  C   UNL     1      50.827  33.073  30.910  1.00  0.00     0.053 C 
ATOM      4  C   UNL     1      51.108  31.566  30.815  1.00  0.00     0.016 C 
BRANCH   3   5
ATOM      5  C   UNL     1      52.137  33.876  31.093  1.00  0.00     0.015 C 
BRANCH   5   6
ATOM      6  C   UNL     1      52.061  35.290  30.474  1.00  0.00     0.028 C 
BRANCH   6   7
ATOM      7  C   UNL     1      51.640  36.327  31.487  1.00  0.00    -0.028 C 
ATOM      8  C   UNL     1      50.481  37.028  31.450  1.00  0.00    -0.070 CG0
ATOM      9  C   UNL     1      50.206  38.006  32.565  1.00  0.00     0.039 C 
ATOM     10  G   UNL     1      49.445  36.870  30.349  1.00  0.00     0.000 G0
ENDBRANCH   6   7
ENDBRANCH   5   6
ENDBRANCH   3   5
ENDBRANCH   1   3
BRANCH   1  11
ATOM     11  C   UNL     1      48.420  33.796  31.855  1.00  0.00     0.087 C 
BRANCH  11  12
ATOM     12  C   UNL     1      48.074  34.619  30.584  1.00  0.00     0.066 C 
BRANCH  12  13
ATOM     13  C   UNL     1      48.200  36.117  30.827  1.00  0.00     0.140 C 
ATOM     14  O   UNL     1      47.282  36.723  31.360  1.00  0.00    -0.299 OA
BRANCH  13  15
ATOM     15  C   UNL     1      49.423  36.875  30.356  1.00  0.00     0.106 CG0
ATOM     16  G   UNL     1      50.474  37.024  31.444  1.00  0.00     0.000 G0
ENDBRANCH  13  15
ENDBRANCH  12  13
BRANCH  12  17
ATOM     17  C   UNL     1      46.675  34.227  30.009  1.00  0.00    -0.006 C 
ATOM     18  C   UNL     1      45.891  33.340  30.990  1.00  0.00     0.008 C 
ATOM     19  C   UNL     1      46.720  33.557  28.623  1.00  0.00     0.008 C 
ENDBRANCH  12  17
ENDBRANCH  11  12
ENDBRANCH   1  11
TORSDOF 1
ENDMDL
MODEL 4
REMARK VINA RESULT:    -3.949      1.874      4.308
REMARK INTER + INTRA:          -6.148
REMARK INTER:                  -6.209
REMARK INTRA:                   0.061
REMARK UNBOUND:                -0.122
REMARK SMILES CC1=CCC[C@@H](C)C(=O)C[C@@H](C(C)C)C(=O)C1
REMARK SMILES IDX 8 1 9 2 6 3 7 4 5 5 4 6 3 7 2 8 1 9 10 11 11 12 15 13 16 14
REMARK SMILES IDX 17 15 12 17 13 18 14 19
REMARK H PARENT
REMARK Flexibility Score: 70.00
ROOT
ATOM      1  C   UNL     1      52.477  31.683  31.402  1.00  0.00     0.136 C 
ATOM      2  O   UNL     1      51.692  31.352  30.525  1.00  0.00    -0.299 OA
ENDROOT
BRANCH   1   3
ATOM      3  C   UNL     1      53.685  30.798  31.662  1.00  0.00     0.053 C 
ATOM      4  C   UNL     1      53.638  30.204  33.077  1.00  0.00     0.016 C 
BRANCH   3   5
ATOM      5  C   UNL     1      54.987  31.604  31.435  1.00  0.00     0.015 C 
BRANCH   5   6
ATOM      6  C   UNL     1      55.568  32.180  32.746  1.00  0.00     0.028 C 
BRANCH   6   7
ATOM      7  C   UNL     1      56.207  33.531  32.534  1.00  0.00    -0.028 C 
ATOM      8  C   UNL     1      55.576  34.722  32.667  1.00  0.00    -0.070 CG0
ATOM      9  C   UNL     1      56.378  35.980  32.447  1.00  0.00     0.039 C 
ATOM     10  G   UNL     1      54.107  34.852  33.035  1.00  0.00     0.000 G0
ENDBRANCH   6   7
ENDBRANCH   5   6
ENDBRANCH   3   5
ENDBRANCH   1   3
BRANCH   1  11
ATOM     11  C   UNL     1      52.153  32.938  32.195  1.00  0.00     0.087 C 
BRANCH  11  12
ATOM     12  C   UNL     1      52.114  34.286  31.422  1.00  0.00     0.066 C 
BRANCH  12  13
ATOM     13  C   UNL     1      53.224  35.228  31.870  1.00  0.00     0.140 C 
ATOM     14  O   UNL     1      53.444  36.249  31.235  1.00  0.00    -0.299 OA
BRANCH  13  15
ATOM     15  C   UNL     1      54.100  34.880  33.054  1.00  0.00     0.106 CG0
ATOM     16  G   UNL     1      55.564  34.728  32.673  1.00  0.00     0.000 G0
ENDBRANCH  13  15
ENDBRANCH  12  13
BRANCH  12  17
ATOM     17  C   UNL     1      50.703  34.951  31.500  1.00  0.00    -0.006 C 
ATOM     18  C   UNL     1      50.417  35.507  32.904  1.00  0.00     0.008 C 
ATOM     19  C   UNL     1      49.543  34.041  31.055  1.00  0.00     0.008 C 
ENDBRANCH  12  17
ENDBRANCH  11  12
ENDBRANCH   1  11
TORSDOF 1
ENDMDL
MODEL 5
REMARK VINA RESULT:    -3.918      1.943      2.759
REMARK INTER + INTRA:          -6.102
REMARK INTER:                  -6.016
REMARK INTRA:                  -0.086
REMARK UNBOUND:                -0.122
REMARK SMILES CC1=CCC[C@@H](C)C(=O)C[C@@H](C(C)C)C(=O)C1
REMARK SMILES IDX 8 1 9 2 6 3 7 4 5 5 4 6 3 7 2 8 1 9 10 11 11 12 15 13 16 14
REMARK SMILES IDX 17 15 12 17 13 18 14 19
REMARK H PARENT
REMARK Flexibility Score: 70.00
ROOT
ATOM      1  C   UNL     1      51.357  35.177  31.385  1.00  0.00     0.136 C 
ATOM      2  O   UNL     1      50.244  35.182  30.881  1.00  0.00    -0.299 OA
ENDROOT
BRANCH   1   3
ATOM      3  C   UNL     1      51.652  36.167  32.500  1.00  0.00     0.053 C 
ATOM      4  C   UNL     1      50.514  37.188  32.644  1.00  0.00     0.016 C 
BRANCH   3   5
ATOM      5  C   UNL     1      53.005  36.870  32.236  1.00  0.00     0.015 C 
BRANCH   5   6
ATOM      6  C   UNL     1      53.982  36.748  33.426  1.00  0.00     0.028 C 
BRANCH   6   7
ATOM      7  C   UNL     1      55.397  36.485  32.970  1.00  0.00    -0.028 C 
ATOM      8  C   UNL     1      55.948  35.259  32.805  1.00  0.00    -0.070 CG0
ATOM      9  C   UNL     1      57.370  35.178  32.311  1.00  0.00     0.039 C 
ATOM     10  G   UNL     1      55.201  33.964  33.085  1.00  0.00     0.000 G0
ENDBRANCH   6   7
ENDBRANCH   5   6
ENDBRANCH   3   5
ENDBRANCH   1   3
BRANCH   1  11
ATOM     11  C   UNL     1      52.377  34.201  30.820  1.00  0.00     0.087 C 
BRANCH  11  12
ATOM     12  C   UNL     1      53.032  33.196  31.808  1.00  0.00     0.066 C 
BRANCH  12  13
ATOM     13  C   UNL     1      54.545  33.365  31.868  1.00  0.00     0.140 C 
ATOM     14  O   UNL     1      55.235  32.979  30.935  1.00  0.00    -0.299 OA
BRANCH  13  15
ATOM     15  C   UNL     1      55.208  33.945  33.099  1.00  0.00     0.106 CG0
ATOM     16  G   UNL     1      55.936  35.248  32.812  1.00  0.00     0.000 G0
ENDBRANCH  13  15
ENDBRANCH  12  13
BRANCH  12  17
ATOM     17  C   UNL     1      52.611  31.725  31.492  1.00  0.00    -0.006 C 
ATOM     18  C   UNL     1      51.087  31.593  31.348  1.00  0.00     0.008 C 
ATOM     19  C   UNL     1      53.131  30.683  32.499  1.00  0.00     0.008 C 
ENDBRANCH  12  17
ENDBRANCH  11  12
ENDBRANCH   1  11
TORSDOF 1
ENDMDL
MODEL 6
REMARK VINA RESULT:    -3.908      1.913      4.114
REMARK INTER + INTRA:          -6.086
REMARK INTER:                  -6.155
REMARK INTRA:                   0.069
REMARK UNBOUND:                -0.122
REMARK SMILES CC1=CCC[C@@H](C)C(=O)C[C@@H](C(C)C)C(=O)C1
REMARK SMILES IDX 8 1 9 2 6 3 7 4 5 5 4 6 3 7 2 8 1 9 10 11 11 12 15 13 16 14
REMARK SMILES IDX 17 15 12 17 13 18 14 19
REMARK H PARENT
REMARK Flexibility Score: 70.00
ROOT
ATOM      1  C   UNL     1      53.803  32.468  32.378  1.00  0.00     0.136 C 
ATOM      2  O   UNL     1      53.759  31.285  32.682  1.00  0.00    -0.299 OA
ENDROOT
BRANCH   1   3
ATOM      3  C   UNL     1      55.120  33.037  31.876  1.00  0.00     0.053 C 
ATOM      4  C   UNL     1      55.957  31.956  31.177  1.00  0.00     0.016 C 
BRANCH   3   5
ATOM      5  C   UNL     1      55.899  33.677  33.050  1.00  0.00     0.015 C 
BRANCH   5   6
ATOM      6  C   UNL     1      55.147  34.867  33.687  1.00  0.00     0.028 C 
BRANCH   6   7
ATOM      7  C   UNL     1      55.079  36.054  32.757  1.00  0.00    -0.028 C 
ATOM      8  C   UNL     1      53.938  36.653  32.340  1.00  0.00    -0.070 CG0
ATOM      9  C   UNL     1      54.056  37.852  31.433  1.00  0.00     0.039 C 
ATOM     10  G   UNL     1      52.551  36.184  32.749  1.00  0.00     0.000 G0
ENDBRANCH   6   7
ENDBRANCH   5   6
ENDBRANCH   3   5
ENDBRANCH   1   3
BRANCH   1  11
ATOM     11  C   UNL     1      52.539  33.289  32.574  1.00  0.00     0.087 C 
BRANCH  11  12
ATOM     12  C   UNL     1      51.968  34.033  31.335  1.00  0.00     0.066 C 
BRANCH  12  13
ATOM     13  C   UNL     1      51.809  35.525  31.594  1.00  0.00     0.140 C 
ATOM     14  O   UNL     1      51.122  36.200  30.841  1.00  0.00    -0.299 OA
BRANCH  13  15
ATOM     15  C   UNL     1      52.545  36.193  32.735  1.00  0.00     0.106 CG0
ATOM     16  G   UNL     1      53.940  36.651  32.343  1.00  0.00     0.000 G0
ENDBRANCH  13  15
ENDBRANCH  12  13
BRANCH  12  17
ATOM     17  C   UNL     1      50.645  33.374  30.829  1.00  0.00    -0.006 C 
ATOM     18  C   UNL     1      49.540  33.436  31.895  1.00  0.00     0.008 C 
ATOM     19  C   UNL     1      50.805  31.926  30.329  1.00  0.00     0.008 C 
ENDBRANCH  12  17
ENDBRANCH  11  12
ENDBRANCH   1  11
TORSDOF 1
ENDMDL
MODEL 7
REMARK VINA RESULT:    -3.843      2.039      2.930
REMARK INTER + INTRA:          -5.987
REMARK INTER:                  -5.937
REMARK INTRA:                  -0.050
REMARK UNBOUND:                -0.122
REMARK SMILES CC1=CCC[C@@H](C)C(=O)C[C@@H](C(C)C)C(=O)C1
REMARK SMILES IDX 8 1 9 2 6 3 7 4 5 5 4 6 3 7 2 8 1 9 10 11 11 12 15 13 16 14
REMARK SMILES IDX 17 15 12 17 13 18 14 19
REMARK H PARENT
REMARK Flexibility Score: 70.00
ROOT
ATOM      1  C   UNL     1      52.270  34.847  31.347  1.00  0.00     0.136 C 
ATOM      2  O   UNL     1      51.456  34.516  30.498  1.00  0.00    -0.299 OA
ENDROOT
BRANCH   1   3
ATOM      3  C   UNL     1      51.893  35.952  32.319  1.00  0.00     0.053 C 
ATOM      4  C   UNL     1      50.428  35.821  32.761  1.00  0.00     0.016 C 
BRANCH   3   5
ATOM      5  C   UNL     1      52.164  37.334  31.678  1.00  0.00     0.015 C 
BRANCH   5   6
ATOM      6  C   UNL     1      53.669  37.678  31.615  1.00  0.00     0.028 C 
BRANCH   6   7
ATOM      7  C   UNL     1      54.299  37.708  32.987  1.00  0.00    -0.028 C 
ATOM      8  C   UNL     1      55.218  36.824  33.442  1.00  0.00    -0.070 CG0
ATOM      9  C   UNL     1      55.766  37.021  34.833  1.00  0.00     0.039 C 
ATOM     10  G   UNL     1      55.728  35.652  32.619  1.00  0.00     0.000 G0
ENDBRANCH   6   7
ENDBRANCH   5   6
ENDBRANCH   3   5
ENDBRANCH   1   3
BRANCH   1  11
ATOM     11  C   UNL     1      53.621  34.150  31.330  1.00  0.00     0.087 C 
BRANCH  11  12
ATOM     12  C   UNL     1      54.132  33.542  32.666  1.00  0.00     0.066 C 
BRANCH  12  13
ATOM     13  C   UNL     1      55.327  34.308  33.217  1.00  0.00     0.140 C 
ATOM     14  O   UNL     1      55.930  33.872  34.187  1.00  0.00    -0.299 OA
BRANCH  13  15
ATOM     15  C   UNL     1      55.734  35.638  32.619  1.00  0.00     0.106 CG0
ATOM     16  G   UNL     1      55.231  36.822  33.428  1.00  0.00     0.000 G0
ENDBRANCH  13  15
ENDBRANCH  12  13
BRANCH  12  17
ATOM     17  C   UNL     1      54.420  32.013  32.526  1.00  0.00    -0.006 C 
ATOM     18  C   UNL     1      55.515  31.738  31.484  1.00  0.00     0.008 C 
ATOM     19  C   UNL     1      53.179  31.156  32.215  1.00  0.00     0.008 C 
ENDBRANCH  12  17
ENDBRANCH  11  12
ENDBRANCH   1  11
TORSDOF 1
ENDMDL
MODEL 8
REMARK VINA RESULT:    -3.806      3.287      4.763
REMARK INTER + INTRA:          -5.930
REMARK INTER:                  -5.856
REMARK INTRA:                  -0.074
REMARK UNBOUND:                -0.122
REMARK SMILES CC1=CCC[C@@H](C)C(=O)C[C@@H](C(C)C)C(=O)C1
REMARK SMILES IDX 8 1 9 2 6 3 7 4 5 5 4 6 3 7 2 8 1 9 10 11 11 12 15 13 16 14
REMARK SMILES IDX 17 15 12 17 13 18 14 19
REMARK H PARENT
REMARK Flexibility Score: 70.00
ROOT
ATOM      1  C   UNL     1      55.251  31.685  31.763  1.00  0.00     0.136 C 
ATOM      2  O   UNL     1      55.592  30.519  31.634  1.00  0.00    -0.299 OA
ENDROOT
BRANCH   1   3
ATOM      3  C   UNL     1      53.837  31.977  32.235  1.00  0.00     0.053 C 
ATOM      4  C   UNL     1      52.902  30.795  31.941  1.00  0.00     0.016 C 
BRANCH   3   5
ATOM      5  C   UNL     1      53.319  33.277  31.574  1.00  0.00     0.015 C 
BRANCH   5   6
ATOM      6  C   UNL     1      53.129  34.427  32.589  1.00  0.00     0.028 C 
BRANCH   6   7
ATOM      7  C   UNL     1      53.716  35.725  32.088  1.00  0.00    -0.028 C 
ATOM      8  C   UNL     1      54.940  36.203  32.412  1.00  0.00    -0.070 CG0
ATOM      9  C   UNL     1      55.382  37.506  31.794  1.00  0.00     0.039 C 
ATOM     10  G   UNL     1      55.891  35.489  33.360  1.00  0.00     0.000 G0
ENDBRANCH   6   7
ENDBRANCH   5   6
ENDBRANCH   3   5
ENDBRANCH   1   3
BRANCH   1  11
ATOM     11  C   UNL     1      56.265  32.756  31.392  1.00  0.00     0.087 C 
BRANCH  11  12
ATOM     12  C   UNL     1      57.159  33.321  32.531  1.00  0.00     0.066 C 
BRANCH  12  13
ATOM     13  C   UNL     1      57.057  34.837  32.632  1.00  0.00     0.140 C 
ATOM     14  O   UNL     1      57.946  35.536  32.168  1.00  0.00    -0.299 OA
BRANCH  13  15
ATOM     15  C   UNL     1      55.898  35.486  33.359  1.00  0.00     0.106 CG0
ATOM     16  G   UNL     1      54.950  36.212  32.418  1.00  0.00     0.000 G0
ENDBRANCH  13  15
ENDBRANCH  12  13
BRANCH  12  17
ATOM     17  C   UNL     1      58.637  32.834  32.395  1.00  0.00    -0.006 C 
ATOM     18  C   UNL     1      58.818  31.913  31.177  1.00  0.00     0.008 C 
ATOM     19  C   UNL     1      59.201  32.148  33.653  1.00  0.00     0.008 C 
ENDBRANCH  12  17
ENDBRANCH  11  12
ENDBRANCH   1  11
TORSDOF 1
ENDMDL
MODEL 9
REMARK VINA RESULT:    -3.636      5.626      8.607
REMARK INTER + INTRA:          -5.671
REMARK INTER:                  -5.467
REMARK INTRA:                  -0.204
REMARK UNBOUND:                -0.122
REMARK SMILES CC1=CCC[C@@H](C)C(=O)C[C@@H](C(C)C)C(=O)C1
REMARK SMILES IDX 8 1 9 2 6 3 7 4 5 5 4 6 3 7 2 8 1 9 10 11 11 12 15 13 16 14
REMARK SMILES IDX 17 15 12 17 13 18 14 19
REMARK H PARENT
REMARK Flexibility Score: 70.00
ROOT
ATOM      1  C   UNL     1      47.178  33.509  29.779  1.00  0.00     0.136 C 
ATOM      2  O   UNL     1      48.198  32.905  30.076  1.00  0.00    -0.299 OA
ENDROOT
BRANCH   1   3
ATOM      3  C   UNL     1      46.748  34.676  30.651  1.00  0.00     0.053 C 
ATOM      4  C   UNL     1      47.946  35.272  31.405  1.00  0.00     0.016 C 
BRANCH   3   5
ATOM      5  C   UNL     1      45.640  34.221  31.631  1.00  0.00     0.015 C 
BRANCH   5   6
ATOM      6  C   UNL     1      44.290  34.930  31.376  1.00  0.00     0.028 C 
BRANCH   6   7
ATOM      7  C   UNL     1      43.138  33.954  31.346  1.00  0.00    -0.028 C 
ATOM      8  C   UNL     1      42.474  33.567  30.231  1.00  0.00    -0.070 CG0
ATOM      9  C   UNL     1      41.364  32.557  30.380  1.00  0.00     0.039 C 
ATOM     10  G   UNL     1      42.798  34.092  28.841  1.00  0.00     0.000 G0
ENDBRANCH   6   7
ENDBRANCH   5   6
ENDBRANCH   3   5
ENDBRANCH   1   3
BRANCH   1  11
ATOM     11  C   UNL     1      46.394  33.010  28.576  1.00  0.00     0.087 C 
BRANCH  11  12
ATOM     12  C   UNL     1      45.292  33.942  28.000  1.00  0.00     0.066 C 
BRANCH  12  13
ATOM     13  C   UNL     1      43.903  33.335  28.145  1.00  0.00     0.140 C 
ATOM     14  O   UNL     1      43.669  32.237  27.659  1.00  0.00    -0.299 OA
BRANCH  13  15
ATOM     15  C   UNL     1      42.792  34.104  28.826  1.00  0.00     0.106 CG0
ATOM     16  G   UNL     1      42.478  33.572  30.215  1.00  0.00     0.000 G0
ENDBRANCH  13  15
ENDBRANCH  12  13
BRANCH  12  17
ATOM     17  C   UNL     1      45.607  34.360  26.528  1.00  0.00    -0.006 C 
ATOM     18  C   UNL     1      46.850  33.635  25.989  1.00  0.00     0.008 C 
ATOM     19  C   UNL     1      45.755  35.878  26.313  1.00  0.00     0.008 C 
ENDBRANCH  12  17
ENDBRANCH  11  12
ENDBRANCH   1  11
TORSDOF 1
ENDMDL
