MODEL 1
REMARK VINA RESULT:    -3.431      0.000      0.000
REMARK INTER + INTRA:          -3.483
REMARK INTER:                  -4.233
REMARK INTRA:                   0.751
REMARK UNBOUND:                 0.751
REMARK SMILES CC1=CC=CC(C)(C)CC1=O
REMARK SMILES IDX 1 1 2 2 3 3 10 4 11 5 9 6 4 8 5 9 6 10 7 11 8 12
REMARK H PARENT
REMARK Flexibility Score: 80.00
ROOT
ATOM      1  C   UNL     1       8.794  -8.435  44.053  1.00  0.00     0.048 C 
ATOM      2  C   UNL     1       7.795  -9.308  43.333  1.00  0.00    -0.008 C 
ATOM      3  C   UNL     1       7.087 -10.190  44.073  1.00  0.00     0.007 C 
ENDROOT
BRANCH   2   4
ATOM      4  C   UNL     1       7.724  -9.181  41.855  1.00  0.00     0.159 C 
ATOM      5  O   UNL     1       8.622  -8.526  41.259  1.00  0.00    -0.295 OA
BRANCH   4   6
ATOM      6  C   UNL     1       6.630  -9.778  41.025  1.00  0.00     0.091 CG0
ATOM      7  G   UNL     1       6.537 -11.315  41.157  1.00  0.00     0.000 G0
ENDBRANCH   4   6
ENDBRANCH   2   4
BRANCH   3   8
ATOM      8  C   UNL     1       6.070 -11.183  43.655  1.00  0.00    -0.003 C 
ATOM      9  C   UNL     1       5.831 -11.684  42.436  1.00  0.00    -0.020 C 
BRANCH   9  10
ATOM     10  C   UNL     1       6.550 -11.320  41.159  1.00  0.00    -0.010 CG0
ATOM     11  C   UNL     1       5.720 -11.851  39.967  1.00  0.00     0.016 C 
ATOM     12  C   UNL     1       7.935 -12.005  41.118  1.00  0.00     0.016 C 
ATOM     13  G   UNL     1       6.641  -9.783  41.033  1.00  0.00     0.000 G0
ENDBRANCH   9  10
ENDBRANCH   3   8
TORSDOF 0
ENDMDL
MODEL 2
REMARK VINA RESULT:    -3.298     15.107     16.563
REMARK INTER + INTRA:          -3.319
REMARK INTER:                  -4.069
REMARK INTRA:                   0.750
REMARK UNBOUND:                 0.751
REMARK SMILES CC1=CC=CC(C)(C)CC1=O
REMARK SMILES IDX 1 1 2 2 3 3 10 4 11 5 9 6 4 8 5 9 6 10 7 11 8 12
REMARK H PARENT
REMARK Flexibility Score: 80.00
ROOT
ATOM      1  C   UNL     1      20.127 -14.610  45.487  1.00  0.00     0.048 C 
ATOM      2  C   UNL     1      21.005 -13.425  45.816  1.00  0.00    -0.008 C 
ATOM      3  C   UNL     1      20.676 -12.233  45.271  1.00  0.00     0.007 C 
ENDROOT
BRANCH   2   4
ATOM      4  C   UNL     1      22.204 -13.682  46.652  1.00  0.00     0.159 C 
ATOM      5  O   UNL     1      22.538 -14.876  46.884  1.00  0.00    -0.295 OA
BRANCH   4   6
ATOM      6  C   UNL     1      23.040 -12.595  47.254  1.00  0.00     0.091 CG0
ATOM      7  G   UNL     1      23.649 -11.643  46.202  1.00  0.00     0.000 G0
ENDBRANCH   4   6
ENDBRANCH   2   4
BRANCH   3   8
ATOM      8  C   UNL     1      21.348 -10.918  45.384  1.00  0.00    -0.003 C 
ATOM      9  C   UNL     1      22.604 -10.641  45.760  1.00  0.00    -0.020 C 
BRANCH   9  10
ATOM     10  C   UNL     1      23.650 -11.638  46.196  1.00  0.00    -0.010 CG0
ATOM     11  C   UNL     1      24.804 -10.864  46.875  1.00  0.00     0.016 C 
ATOM     12  C   UNL     1      24.229 -12.371  44.964  1.00  0.00     0.016 C 
ATOM     13  G   UNL     1      23.045 -12.608  47.236  1.00  0.00     0.000 G0
ENDBRANCH   9  10
ENDBRANCH   3   8
TORSDOF 0
ENDMDL
MODEL 3
REMARK VINA RESULT:    -3.136      5.134      7.019
REMARK INTER + INTRA:          -3.118
REMARK INTER:                  -3.883
REMARK INTRA:                   0.764
REMARK UNBOUND:                 0.751
REMARK SMILES CC1=CC=CC(C)(C)CC1=O
REMARK SMILES IDX 1 1 2 2 3 3 10 4 11 5 9 6 4 8 5 9 6 10 7 11 8 12
REMARK H PARENT
REMARK Flexibility Score: 80.00
ROOT
ATOM      1  C   UNL     1       7.873  -7.564  41.675  1.00  0.00     0.048 C 
ATOM      2  C   UNL     1       8.340  -6.161  41.981  1.00  0.00    -0.008 C 
ATOM      3  C   UNL     1       7.512  -5.368  42.695  1.00  0.00     0.007 C 
ENDROOT
BRANCH   2   4
ATOM      4  C   UNL     1       9.644  -5.741  41.407  1.00  0.00     0.159 C 
ATOM      5  O   UNL     1      10.200  -6.486  40.555  1.00  0.00    -0.295 OA
BRANCH   4   6
ATOM      6  C   UNL     1      10.349  -4.477  41.795  1.00  0.00     0.091 CG0
ATOM      7  G   UNL     1       9.515  -3.206  41.518  1.00  0.00     0.000 G0
ENDBRANCH   4   6
ENDBRANCH   2   4
BRANCH   3   8
ATOM      8  C   UNL     1       7.677  -3.959  43.122  1.00  0.00    -0.003 C 
ATOM      9  C   UNL     1       8.503  -3.021  42.639  1.00  0.00    -0.020 C 
BRANCH   9  10
ATOM     10  C   UNL     1       9.509  -3.200  41.526  1.00  0.00    -0.010 CG0
ATOM     11  C   UNL     1      10.464  -1.983  41.538  1.00  0.00     0.016 C 
ATOM     12  C   UNL     1       8.787  -3.226  40.160  1.00  0.00     0.016 C 
ATOM     13  G   UNL     1      10.349  -4.471  41.782  1.00  0.00     0.000 G0
ENDBRANCH   9  10
ENDBRANCH   3   8
TORSDOF 0
ENDMDL
MODEL 4
REMARK VINA RESULT:    -3.109     14.401     15.668
REMARK INTER + INTRA:          -3.085
REMARK INTER:                  -3.844
REMARK INTRA:                   0.759
REMARK UNBOUND:                 0.751
REMARK SMILES CC1=CC=CC(C)(C)CC1=O
REMARK SMILES IDX 1 1 2 2 3 3 10 4 11 5 9 6 4 8 5 9 6 10 7 11 8 12
REMARK H PARENT
REMARK Flexibility Score: 80.00
ROOT
ATOM      1  C   UNL     1      19.221 -11.165  44.341  1.00  0.00     0.048 C 
ATOM      2  C   UNL     1      20.287 -12.126  44.812  1.00  0.00    -0.008 C 
ATOM      3  C   UNL     1      19.889 -13.206  45.519  1.00  0.00     0.007 C 
ENDROOT
BRANCH   2   4
ATOM      4  C   UNL     1      21.699 -11.765  44.523  1.00  0.00     0.159 C 
ATOM      5  O   UNL     1      21.952 -10.609  44.085  1.00  0.00    -0.295 OA
BRANCH   4   6
ATOM      6  C   UNL     1      22.848 -12.707  44.709  1.00  0.00     0.091 CG0
ATOM      7  G   UNL     1      22.997 -13.204  46.164  1.00  0.00     0.000 G0
ENDBRANCH   4   6
ENDBRANCH   2   4
BRANCH   3   8
ATOM      8  C   UNL     1      20.691 -14.292  46.128  1.00  0.00    -0.003 C 
ATOM      9  C   UNL     1      21.997 -14.315  46.423  1.00  0.00    -0.020 C 
BRANCH   9  10
ATOM     10  C   UNL     1      22.993 -13.207  46.171  1.00  0.00    -0.010 CG0
ATOM     11  C   UNL     1      24.416 -13.789  46.333  1.00  0.00     0.016 C 
ATOM     12  C   UNL     1      22.814 -12.086  47.220  1.00  0.00     0.016 C 
ATOM     13  G   UNL     1      22.846 -12.696  44.721  1.00  0.00     0.000 G0
ENDBRANCH   9  10
ENDBRANCH   3   8
TORSDOF 0
ENDMDL
MODEL 5
REMARK VINA RESULT:    -3.011     15.139     16.448
REMARK INTER + INTRA:          -2.964
REMARK INTER:                  -3.730
REMARK INTRA:                   0.766
REMARK UNBOUND:                 0.751
REMARK SMILES CC1=CC=CC(C)(C)CC1=O
REMARK SMILES IDX 1 1 2 2 3 3 10 4 11 5 9 6 4 8 5 9 6 10 7 11 8 12
REMARK H PARENT
REMARK Flexibility Score: 80.00
ROOT
ATOM      1  C   UNL     1      19.802 -11.962  44.565  1.00  0.00     0.048 C 
ATOM      2  C   UNL     1      20.976 -12.435  45.389  1.00  0.00    -0.008 C 
ATOM      3  C   UNL     1      21.782 -11.494  45.928  1.00  0.00     0.007 C 
ENDROOT
BRANCH   2   4
ATOM      4  C   UNL     1      21.193 -13.901  45.478  1.00  0.00     0.159 C 
ATOM      5  O   UNL     1      20.517 -14.662  44.733  1.00  0.00    -0.295 OA
BRANCH   4   6
ATOM      6  C   UNL     1      22.169 -14.537  46.420  1.00  0.00     0.091 CG0
ATOM      7  G   UNL     1      23.621 -14.054  46.209  1.00  0.00     0.000 G0
ENDBRANCH   4   6
ENDBRANCH   2   4
BRANCH   3   8
ATOM      8  C   UNL     1      23.006 -11.647  46.748  1.00  0.00    -0.003 C 
ATOM      9  C   UNL     1      23.808 -12.712  46.878  1.00  0.00    -0.020 C 
BRANCH   9  10
ATOM     10  C   UNL     1      23.627 -14.057  46.216  1.00  0.00    -0.010 CG0
ATOM     11  C   UNL     1      24.576 -15.066  46.903  1.00  0.00     0.016 C 
ATOM     12  C   UNL     1      24.023 -13.970  44.724  1.00  0.00     0.016 C 
ATOM     13  G   UNL     1      22.177 -14.547  46.420  1.00  0.00     0.000 G0
ENDBRANCH   9  10
ENDBRANCH   3   8
TORSDOF 0
ENDMDL
MODEL 6
REMARK VINA RESULT:    -2.978      5.983      7.426
REMARK INTER + INTRA:          -2.923
REMARK INTER:                  -3.661
REMARK INTRA:                   0.738
REMARK UNBOUND:                 0.751
REMARK SMILES CC1=CC=CC(C)(C)CC1=O
REMARK SMILES IDX 1 1 2 2 3 3 10 4 11 5 9 6 4 8 5 9 6 10 7 11 8 12
REMARK H PARENT
REMARK Flexibility Score: 80.00
ROOT
ATOM      1  C   UNL     1       7.885  -0.530  40.115  1.00  0.00     0.048 C 
ATOM      2  C   UNL     1       8.252  -1.860  40.728  1.00  0.00    -0.008 C 
ATOM      3  C   UNL     1       8.983  -1.845  41.864  1.00  0.00     0.007 C 
ENDROOT
BRANCH   2   4
ATOM      4  C   UNL     1       7.844  -3.082  39.990  1.00  0.00     0.159 C 
ATOM      5  O   UNL     1       7.388  -2.961  38.820  1.00  0.00    -0.295 OA
BRANCH   4   6
ATOM      6  C   UNL     1       7.928  -4.462  40.564  1.00  0.00     0.091 CG0
ATOM      7  G   UNL     1       9.363  -4.863  40.975  1.00  0.00     0.000 G0
ENDBRANCH   4   6
ENDBRANCH   2   4
BRANCH   3   8
ATOM      8  C   UNL     1       9.510  -2.970  42.671  1.00  0.00    -0.003 C 
ATOM      9  C   UNL     1       9.687  -4.251  42.321  1.00  0.00    -0.020 C 
BRANCH   9  10
ATOM     10  C   UNL     1       9.353  -4.869  40.984  1.00  0.00    -0.010 CG0
ATOM     11  C   UNL     1       9.357  -6.407  41.148  1.00  0.00     0.016 C 
ATOM     12  C   UNL     1      10.435  -4.497  39.945  1.00  0.00     0.016 C 
ATOM     13  G   UNL     1       7.935  -4.437  40.550  1.00  0.00     0.000 G0
ENDBRANCH   9  10
ENDBRANCH   3   8
TORSDOF 0
ENDMDL
MODEL 7
REMARK VINA RESULT:    -2.922      1.674      2.659
REMARK INTER + INTRA:          -2.855
REMARK INTER:                  -3.884
REMARK INTRA:                   1.030
REMARK UNBOUND:                 0.751
REMARK SMILES CC1=CC=CC(C)(C)CC1=O
REMARK SMILES IDX 1 1 2 2 3 3 10 4 11 5 9 6 4 8 5 9 6 10 7 11 8 12
REMARK H PARENT
REMARK Flexibility Score: 80.00
ROOT
ATOM      1  C   UNL     1       8.264  -8.402  42.428  1.00  0.00     0.048 C 
ATOM      2  C   UNL     1       7.335  -9.563  42.163  1.00  0.00    -0.008 C 
ATOM      3  C   UNL     1       6.942  -9.771  40.887  1.00  0.00     0.007 C 
ENDROOT
BRANCH   2   4
ATOM      4  C   UNL     1       6.867 -10.338  43.340  1.00  0.00     0.159 C 
ATOM      5  O   UNL     1       7.470 -10.197  44.438  1.00  0.00    -0.295 OA
BRANCH   4   6
ATOM      6  C   UNL     1       5.717 -11.296  43.295  1.00  0.00     0.091 CG0
ATOM      7  G   UNL     1       5.910 -12.429  42.262  1.00  0.00     0.000 G0
ENDBRANCH   4   6
ENDBRANCH   2   4
BRANCH   3   8
ATOM      8  C   UNL     1       6.029 -10.795  40.329  1.00  0.00    -0.003 C 
ATOM      9  C   UNL     1       5.571 -11.919  40.896  1.00  0.00    -0.020 C 
BRANCH   9  10
ATOM     10  C   UNL     1       5.913 -12.430  42.275  1.00  0.00    -0.010 CG0
ATOM     11  C   UNL     1       7.399 -12.858  42.278  1.00  0.00     0.016 C 
ATOM     12  C   UNL     1       5.057 -13.675  42.605  1.00  0.00     0.016 C 
ATOM     13  G   UNL     1       5.738 -11.297  43.310  1.00  0.00     0.000 G0
ENDBRANCH   9  10
ENDBRANCH   3   8
TORSDOF 0
ENDMDL
MODEL 8
REMARK VINA RESULT:    -2.890     14.991     16.321
REMARK INTER + INTRA:          -2.815
REMARK INTER:                  -3.582
REMARK INTRA:                   0.767
REMARK UNBOUND:                 0.751
REMARK SMILES CC1=CC=CC(C)(C)CC1=O
REMARK SMILES IDX 1 1 2 2 3 3 10 4 11 5 9 6 4 8 5 9 6 10 7 11 8 12
REMARK H PARENT
REMARK Flexibility Score: 80.00
ROOT
ATOM      1  C   UNL     1      19.537 -14.583  46.154  1.00  0.00     0.048 C 
ATOM      2  C   UNL     1      20.959 -14.134  45.911  1.00  0.00    -0.008 C 
ATOM      3  C   UNL     1      21.952 -14.911  46.396  1.00  0.00     0.007 C 
ENDROOT
BRANCH   2   4
ATOM      4  C   UNL     1      21.149 -12.832  45.222  1.00  0.00     0.159 C 
ATOM      5  O   UNL     1      20.150 -12.080  45.059  1.00  0.00    -0.295 OA
BRANCH   4   6
ATOM      6  C   UNL     1      22.469 -12.363  44.692  1.00  0.00     0.091 CG0
ATOM      7  G   UNL     1      23.556 -12.245  45.783  1.00  0.00     0.000 G0
ENDBRANCH   4   6
ENDBRANCH   2   4
BRANCH   3   8
ATOM      8  C   UNL     1      23.420 -14.722  46.341  1.00  0.00    -0.003 C 
ATOM      9  C   UNL     1      24.120 -13.605  46.099  1.00  0.00    -0.020 C 
BRANCH   9  10
ATOM     10  C   UNL     1      23.552 -12.240  45.790  1.00  0.00    -0.010 CG0
ATOM     11  C   UNL     1      24.695 -11.352  45.247  1.00  0.00     0.016 C 
ATOM     12  C   UNL     1      23.014 -11.587  47.084  1.00  0.00     0.016 C 
ATOM     13  G   UNL     1      22.474 -12.361  44.691  1.00  0.00     0.000 G0
ENDBRANCH   9  10
ENDBRANCH   3   8
TORSDOF 0
ENDMDL
MODEL 9
REMARK VINA RESULT:    -2.873      5.580      7.357
REMARK INTER + INTRA:          -2.794
REMARK INTER:                  -3.541
REMARK INTRA:                   0.746
REMARK UNBOUND:                 0.751
REMARK SMILES CC1=CC=CC(C)(C)CC1=O
REMARK SMILES IDX 1 1 2 2 3 3 10 4 11 5 9 6 4 8 5 9 6 10 7 11 8 12
REMARK H PARENT
REMARK Flexibility Score: 80.00
ROOT
ATOM      1  C   UNL     1       9.349  -7.471  41.573  1.00  0.00     0.048 C 
ATOM      2  C   UNL     1       9.361  -6.069  41.012  1.00  0.00    -0.008 C 
ATOM      3  C   UNL     1      10.529  -5.603  40.517  1.00  0.00     0.007 C 
ENDROOT
BRANCH   2   4
ATOM      4  C   UNL     1       8.105  -5.285  41.119  1.00  0.00     0.159 C 
ATOM      5  O   UNL     1       7.172  -5.730  41.842  1.00  0.00    -0.295 OA
BRANCH   4   6
ATOM      6  C   UNL     1       7.873  -3.992  40.401  1.00  0.00     0.091 CG0
ATOM      7  G   UNL     1       8.896  -2.896  40.775  1.00  0.00     0.000 G0
ENDBRANCH   4   6
ENDBRANCH   2   4
BRANCH   3   8
ATOM      8  C   UNL     1      10.855  -4.281  39.935  1.00  0.00    -0.003 C 
ATOM      9  C   UNL     1      10.187  -3.124  40.037  1.00  0.00    -0.020 C 
BRANCH   9  10
ATOM     10  C   UNL     1       8.888  -2.902  40.774  1.00  0.00    -0.010 CG0
ATOM     11  C   UNL     1       8.296  -1.549  40.315  1.00  0.00     0.016 C 
ATOM     12  C   UNL     1       9.151  -2.815  42.295  1.00  0.00     0.016 C 
ATOM     13  G   UNL     1       7.882  -4.015  40.406  1.00  0.00     0.000 G0
ENDBRANCH   9  10
ENDBRANCH   3   8
TORSDOF 0
ENDMDL
