MODEL 1
REMARK VINA RESULT:    -5.637      0.000      0.000
REMARK INTER + INTRA:          -9.866
REMARK INTER:                  -8.603
REMARK INTRA:                  -1.262
REMARK UNBOUND:                -1.262
REMARK SMILES OC[C@H]1O[C@@](CO)(O[C@H]2O[C@H](CO)[C@@H](O)[C@H](O)[C@@H]2O)[C@@H](O)[C@@H]1O
REMARK SMILES IDX 8 1 9 2 11 3 14 4 10 5 16 6 18 7 12 8 13 9 15 11 17 13 19 15
REMARK SMILES IDX 5 17 20 18 4 19 22 20 3 21 6 22 7 23 21 25 23 27 2 29 1 30
REMARK H PARENT 13 10 15 12 17 14 19 16 7 24 21 26 23 28 1 31
REMARK Flexibility Score: inf
ROOT
ATOM      1  O   UNL     1      13.765  17.253  10.142  1.00  0.00    -0.313 OA
ENDROOT
BRANCH   1   2
ATOM      2  C   UNL     1      14.681  16.230  10.527  1.00  0.00     0.285 C 
ATOM      3  C   UNL     1      16.051  16.440   8.615  1.00  0.00     0.178 C 
ATOM      4  C   UNL     1      17.239  17.020   9.422  1.00  0.00     0.177 C 
ATOM      5  O   UNL     1      15.266  15.566   9.415  1.00  0.00    -0.341 OA
ATOM      6  C   UNL     1      16.725  17.739  10.681  1.00  0.00     0.179 C 
ATOM      7  C   UNL     1      15.760  16.828  11.459  1.00  0.00     0.202 C 
BRANCH   3   8
ATOM      8  C   UNL     1      16.573  15.648   7.405  1.00  0.00     0.191 C 
BRANCH   8   9
ATOM      9  O   UNL     1      17.959  15.446   7.505  1.00  0.00    -0.394 OA
ATOM     10  H   UNL     1      18.148  14.548   7.129  1.00  0.00     0.210 HD
ENDBRANCH   8   9
ENDBRANCH   3   8
BRANCH   4  11
ATOM     11  O   UNL     1      18.010  17.896   8.633  1.00  0.00    -0.387 OA
ATOM     12  H   UNL     1      18.931  17.903   9.007  1.00  0.00     0.211 HD
ENDBRANCH   4  11
BRANCH   6  13
ATOM     13  O   UNL     1      17.803  18.099  11.507  1.00  0.00    -0.387 OA
ATOM     14  H   UNL     1      17.431  18.651  12.243  1.00  0.00     0.211 HD
ENDBRANCH   6  13
BRANCH   7  15
ATOM     15  O   UNL     1      16.458  15.820  12.153  1.00  0.00    -0.385 OA
ATOM     16  H   UNL     1      15.894  15.005  12.169  1.00  0.00     0.211 HD
ENDBRANCH   7  15
ENDBRANCH   1   2
BRANCH   1  17
ATOM     17  C   UNL     1      12.383  16.882  10.163  1.00  0.00     0.224 C 
ATOM     18  C   UNL     1      11.823  17.052   8.724  1.00  0.00     0.208 C 
ATOM     19  O   UNL     1      12.258  15.511  10.518  1.00  0.00    -0.337 OA
ATOM     20  C   UNL     1      11.722  15.639   8.222  1.00  0.00     0.180 C 
ATOM     21  C   UNL     1      11.494  14.881   9.514  1.00  0.00     0.179 C 
BRANCH  17  22
ATOM     22  C   UNL     1      11.524  17.739  11.134  1.00  0.00     0.225 C 
BRANCH  22  23
ATOM     23  O   UNL     1      11.529  17.203  12.431  1.00  0.00    -0.391 OA
ATOM     24  H   UNL     1      10.819  16.508  12.463  1.00  0.00     0.210 HD
ENDBRANCH  22  23
ENDBRANCH  17  22
BRANCH  18  25
ATOM     25  O   UNL     1      12.676  17.805   7.897  1.00  0.00    -0.385 OA
ATOM     26  H   UNL     1      12.466  17.549   6.963  1.00  0.00     0.211 HD
ENDBRANCH  18  25
BRANCH  20  27
ATOM     27  O   UNL     1      10.637  15.475   7.348  1.00  0.00    -0.387 OA
ATOM     28  H   UNL     1      10.503  14.497   7.248  1.00  0.00     0.211 HD
ENDBRANCH  20  27
BRANCH  21  29
ATOM     29  C   UNL     1      11.836  13.387   9.395  1.00  0.00     0.191 C 
BRANCH  29  30
ATOM     30  O   UNL     1      11.059  12.759   8.408  1.00  0.00    -0.394 OA
ATOM     31  H   UNL     1      10.253  12.396   8.858  1.00  0.00     0.210 HD
ENDBRANCH  29  30
ENDBRANCH  21  29
ENDBRANCH   1  17
TORSDOF 13
ENDMDL
MODEL 2
REMARK VINA RESULT:    -5.570      1.960      5.938
REMARK INTER + INTRA:          -9.763
REMARK INTER:                  -8.600
REMARK INTRA:                  -1.163
REMARK UNBOUND:                -1.262
REMARK SMILES OC[C@H]1O[C@@](CO)(O[C@H]2O[C@H](CO)[C@@H](O)[C@H](O)[C@@H]2O)[C@@H](O)[C@@H]1O
REMARK SMILES IDX 8 1 9 2 11 3 14 4 10 5 16 6 18 7 12 8 13 9 15 11 17 13 19 15
REMARK SMILES IDX 5 17 20 18 4 19 22 20 3 21 6 22 7 23 21 25 23 27 2 29 1 30
REMARK H PARENT 13 10 15 12 17 14 19 16 7 24 21 26 23 28 1 31
REMARK Flexibility Score: inf
ROOT
ATOM      1  O   UNL     1      15.139  16.380  10.441  1.00  0.00    -0.313 OA
ENDROOT
BRANCH   1   2
ATOM      2  C   UNL     1      13.905  16.575   9.753  1.00  0.00     0.285 C 
ATOM      3  C   UNL     1      12.969  14.507  10.406  1.00  0.00     0.178 C 
ATOM      4  C   UNL     1      11.913  15.174  11.321  1.00  0.00     0.177 C 
ATOM      5  O   UNL     1      13.316  15.356   9.320  1.00  0.00    -0.341 OA
ATOM      6  C   UNL     1      12.429  16.532  11.827  1.00  0.00     0.179 C 
ATOM      7  C   UNL     1      12.937  17.382  10.651  1.00  0.00     0.202 C 
BRANCH   3   8
ATOM      8  C   UNL     1      12.415  13.193   9.833  1.00  0.00     0.191 C 
BRANCH   8   9
ATOM      9  O   UNL     1      12.648  12.129  10.718  1.00  0.00    -0.394 OA
ATOM     10  H   UNL     1      11.776  11.679  10.866  1.00  0.00     0.210 HD
ENDBRANCH   8   9
ENDBRANCH   3   8
BRANCH   4  11
ATOM     11  O   UNL     1      11.578  14.337  12.404  1.00  0.00    -0.387 OA
ATOM     12  H   UNL     1      10.630  14.064  12.289  1.00  0.00     0.211 HD
ENDBRANCH   4  11
BRANCH   6  13
ATOM     13  O   UNL     1      11.405  17.220  12.498  1.00  0.00    -0.387 OA
ATOM     14  H   UNL     1      10.796  17.581  11.803  1.00  0.00     0.211 HD
ENDBRANCH   6  13
BRANCH   7  15
ATOM     15  O   UNL     1      11.866  17.913   9.905  1.00  0.00    -0.385 OA
ATOM     16  H   UNL     1      12.041  18.876   9.750  1.00  0.00     0.211 HD
ENDBRANCH   7  15
ENDBRANCH   1   2
BRANCH   1  17
ATOM     17  C   UNL     1      16.310  16.387   9.617  1.00  0.00     0.224 C 
ATOM     18  C   UNL     1      17.456  17.057  10.425  1.00  0.00     0.208 C 
ATOM     19  O   UNL     1      16.705  15.051   9.331  1.00  0.00    -0.337 OA
ATOM     20  C   UNL     1      18.312  15.895  10.841  1.00  0.00     0.180 C 
ATOM     21  C   UNL     1      18.056  14.918   9.712  1.00  0.00     0.179 C 
BRANCH  17  22
ATOM     22  C   UNL     1      16.126  17.160   8.281  1.00  0.00     0.225 C 
BRANCH  22  23
ATOM     23  O   UNL     1      17.353  17.635   7.794  1.00  0.00    -0.391 OA
ATOM     24  H   UNL     1      18.069  17.097   8.226  1.00  0.00     0.210 HD
ENDBRANCH  22  23
ENDBRANCH  17  22
BRANCH  18  25
ATOM     25  O   UNL     1      16.986  17.749  11.556  1.00  0.00    -0.385 OA
ATOM     26  H   UNL     1      16.066  17.422  11.728  1.00  0.00     0.211 HD
ENDBRANCH  18  25
BRANCH  20  27
ATOM     27  O   UNL     1      19.670  16.245  10.900  1.00  0.00    -0.387 OA
ATOM     28  H   UNL     1      19.827  16.607  11.810  1.00  0.00     0.211 HD
ENDBRANCH  20  27
BRANCH  21  29
ATOM     29  C   UNL     1      18.398  13.468  10.091  1.00  0.00     0.191 C 
BRANCH  29  30
ATOM     30  O   UNL     1      19.773  13.309  10.327  1.00  0.00    -0.394 OA
ATOM     31  H   UNL     1      20.197  14.195  10.193  1.00  0.00     0.210 HD
ENDBRANCH  29  30
ENDBRANCH  21  29
ENDBRANCH   1  17
TORSDOF 13
ENDMDL
MODEL 3
REMARK VINA RESULT:    -5.479      1.842      5.644
REMARK INTER + INTRA:          -9.625
REMARK INTER:                  -8.225
REMARK INTRA:                  -1.400
REMARK UNBOUND:                -1.262
REMARK SMILES OC[C@H]1O[C@@](CO)(O[C@H]2O[C@H](CO)[C@@H](O)[C@H](O)[C@@H]2O)[C@@H](O)[C@@H]1O
REMARK SMILES IDX 8 1 9 2 11 3 14 4 10 5 16 6 18 7 12 8 13 9 15 11 17 13 19 15
REMARK SMILES IDX 5 17 20 18 4 19 22 20 3 21 6 22 7 23 21 25 23 27 2 29 1 30
REMARK H PARENT 13 10 15 12 17 14 19 16 7 24 21 26 23 28 1 31
REMARK Flexibility Score: inf
ROOT
ATOM      1  O   UNL     1      15.007  17.027   9.553  1.00  0.00    -0.313 OA
ENDROOT
BRANCH   1   2
ATOM      2  C   UNL     1      13.955  16.176   9.103  1.00  0.00     0.285 C 
ATOM      3  C   UNL     1      13.208  15.598  11.268  1.00  0.00     0.178 C 
ATOM      4  C   UNL     1      11.880  16.378  11.114  1.00  0.00     0.177 C 
ATOM      5  O   UNL     1      13.672  15.120  10.012  1.00  0.00    -0.341 OA
ATOM      6  C   UNL     1      12.055  17.536  10.116  1.00  0.00     0.179 C 
ATOM      7  C   UNL     1      12.695  17.025   8.814  1.00  0.00     0.202 C 
BRANCH   3   8
ATOM      8  C   UNL     1      13.006  14.390  12.198  1.00  0.00     0.191 C 
BRANCH   8   9
ATOM      9  O   UNL     1      11.666  13.971  12.181  1.00  0.00    -0.394 OA
ATOM     10  H   UNL     1      11.568  13.348  11.414  1.00  0.00     0.210 HD
ENDBRANCH   8   9
ENDBRANCH   3   8
BRANCH   4  11
ATOM     11  O   UNL     1      11.427  16.862  12.357  1.00  0.00    -0.387 OA
ATOM     12  H   UNL     1      11.315  16.079  12.960  1.00  0.00     0.211 HD
ENDBRANCH   4  11
BRANCH   6  13
ATOM     13  O   UNL     1      10.812  18.124   9.832  1.00  0.00    -0.387 OA
ATOM     14  H   UNL     1      10.950  19.106   9.835  1.00  0.00     0.211 HD
ENDBRANCH   6  13
BRANCH   7  15
ATOM     15  O   UNL     1      11.763  16.313   8.033  1.00  0.00    -0.385 OA
ATOM     16  H   UNL     1      12.236  15.566   7.586  1.00  0.00     0.211 HD
ENDBRANCH   7  15
ENDBRANCH   1   2
BRANCH   1  17
ATOM     17  C   UNL     1      16.326  16.634   9.160  1.00  0.00     0.224 C 
ATOM     18  C   UNL     1      17.144  16.351  10.451  1.00  0.00     0.208 C 
ATOM     19  O   UNL     1      16.267  15.427   8.411  1.00  0.00    -0.337 OA
ATOM     20  C   UNL     1      17.207  14.851  10.500  1.00  0.00     0.180 C 
ATOM     21  C   UNL     1      17.136  14.503   9.027  1.00  0.00     0.179 C 
BRANCH  17  22
ATOM     22  C   UNL     1      17.073  17.713   8.326  1.00  0.00     0.225 C 
BRANCH  22  23
ATOM     23  O   UNL     1      18.455  17.676   8.565  1.00  0.00    -0.391 OA
ATOM     24  H   UNL     1      18.867  18.393   8.013  1.00  0.00     0.210 HD
ENDBRANCH  22  23
ENDBRANCH  17  22
BRANCH  18  25
ATOM     25  O   UNL     1      16.518  16.853  11.607  1.00  0.00    -0.385 OA
ATOM     26  H   UNL     1      15.969  17.627  11.320  1.00  0.00     0.211 HD
ENDBRANCH  18  25
BRANCH  20  27
ATOM     27  O   UNL     1      18.410  14.400  11.062  1.00  0.00    -0.387 OA
ATOM     28  H   UNL     1      18.311  14.488  12.045  1.00  0.00     0.211 HD
ENDBRANCH  20  27
BRANCH  21  29
ATOM     29  C   UNL     1      16.691  13.053   8.778  1.00  0.00     0.191 C 
BRANCH  29  30
ATOM     30  O   UNL     1      15.489  12.764   9.444  1.00  0.00    -0.394 OA
ATOM     31  H   UNL     1      14.749  13.052   8.850  1.00  0.00     0.210 HD
ENDBRANCH  29  30
ENDBRANCH  21  29
ENDBRANCH   1  17
TORSDOF 13
ENDMDL
MODEL 4
REMARK VINA RESULT:    -5.362      1.897      3.137
REMARK INTER + INTRA:          -9.446
REMARK INTER:                  -8.308
REMARK INTRA:                  -1.138
REMARK UNBOUND:                -1.262
REMARK SMILES OC[C@H]1O[C@@](CO)(O[C@H]2O[C@H](CO)[C@@H](O)[C@H](O)[C@@H]2O)[C@@H](O)[C@@H]1O
REMARK SMILES IDX 8 1 9 2 11 3 14 4 10 5 16 6 18 7 12 8 13 9 15 11 17 13 19 15
REMARK SMILES IDX 5 17 20 18 4 19 22 20 3 21 6 22 7 23 21 25 23 27 2 29 1 30
REMARK H PARENT 13 10 15 12 17 14 19 16 7 24 21 26 23 28 1 31
REMARK Flexibility Score: inf
ROOT
ATOM      1  O   UNL     1      14.862  15.525  11.457  1.00  0.00    -0.313 OA
ENDROOT
BRANCH   1   2
ATOM      2  C   UNL     1      15.778  14.866  10.585  1.00  0.00     0.285 C 
ATOM      3  C   UNL     1      17.163  16.753  10.267  1.00  0.00     0.178 C 
ATOM      4  C   UNL     1      18.341  16.131  11.054  1.00  0.00     0.177 C 
ATOM      5  O   UNL     1      16.375  15.749   9.643  1.00  0.00    -0.341 OA
ATOM      6  C   UNL     1      17.816  15.122  12.090  1.00  0.00     0.179 C 
ATOM      7  C   UNL     1      16.848  14.129  11.424  1.00  0.00     0.202 C 
BRANCH   3   8
ATOM      8  C   UNL     1      17.697  17.694   9.175  1.00  0.00     0.191 C 
BRANCH   8   9
ATOM      9  O   UNL     1      19.006  17.340   8.813  1.00  0.00    -0.394 OA
ATOM     10  H   UNL     1      18.937  16.752   8.017  1.00  0.00     0.210 HD
ENDBRANCH   8   9
ENDBRANCH   3   8
BRANCH   4  11
ATOM     11  O   UNL     1      19.115  17.126  11.683  1.00  0.00    -0.387 OA
ATOM     12  H   UNL     1      20.071  16.921  11.502  1.00  0.00     0.211 HD
ENDBRANCH   4  11
BRANCH   6  13
ATOM     13  O   UNL     1      18.885  14.420  12.670  1.00  0.00    -0.387 OA
ATOM     14  H   UNL     1      18.511  13.581  13.044  1.00  0.00     0.211 HD
ENDBRANCH   6  13
BRANCH   7  15
ATOM     15  O   UNL     1      17.544  13.179  10.650  1.00  0.00    -0.385 OA
ATOM     16  H   UNL     1      17.701  12.376  11.209  1.00  0.00     0.211 HD
ENDBRANCH   7  15
ENDBRANCH   1   2
BRANCH   1  17
ATOM     17  C   UNL     1      13.479  15.239  11.225  1.00  0.00     0.224 C 
ATOM     18  C   UNL     1      12.646  16.419  11.799  1.00  0.00     0.208 C 
ATOM     19  O   UNL     1      13.228  15.172   9.827  1.00  0.00    -0.337 OA
ATOM     20  C   UNL     1      12.224  17.176  10.571  1.00  0.00     0.180 C 
ATOM     21  C   UNL     1      12.175  16.066   9.541  1.00  0.00     0.179 C 
BRANCH  17  22
ATOM     22  C   UNL     1      12.995  13.921  11.892  1.00  0.00     0.225 C 
BRANCH  22  23
ATOM     23  O   UNL     1      11.682  14.042  12.371  1.00  0.00    -0.391 OA
ATOM     24  H   UNL     1      11.601  13.441  13.159  1.00  0.00     0.210 HD
ENDBRANCH  22  23
ENDBRANCH  17  22
BRANCH  18  25
ATOM     25  O   UNL     1      13.400  17.248  12.650  1.00  0.00    -0.385 OA
ATOM     26  H   UNL     1      13.658  16.694  13.431  1.00  0.00     0.211 HD
ENDBRANCH  18  25
BRANCH  20  27
ATOM     27  O   UNL     1      10.960  17.763  10.733  1.00  0.00    -0.387 OA
ATOM     28  H   UNL     1      10.526  17.292  11.489  1.00  0.00     0.211 HD
ENDBRANCH  20  27
BRANCH  21  29
ATOM     29  C   UNL     1      12.252  16.590   8.098  1.00  0.00     0.191 C 
BRANCH  29  30
ATOM     30  O   UNL     1      12.654  17.935   8.061  1.00  0.00    -0.394 OA
ATOM     31  H   UNL     1      12.047  18.439   8.661  1.00  0.00     0.210 HD
ENDBRANCH  29  30
ENDBRANCH  21  29
ENDBRANCH   1  17
TORSDOF 13
ENDMDL
MODEL 5
REMARK VINA RESULT:    -5.332      2.085      5.014
REMARK INTER + INTRA:          -9.399
REMARK INTER:                  -8.052
REMARK INTRA:                  -1.347
REMARK UNBOUND:                -1.262
REMARK SMILES OC[C@H]1O[C@@](CO)(O[C@H]2O[C@H](CO)[C@@H](O)[C@H](O)[C@@H]2O)[C@@H](O)[C@@H]1O
REMARK SMILES IDX 8 1 9 2 11 3 14 4 10 5 16 6 18 7 12 8 13 9 15 11 17 13 19 15
REMARK SMILES IDX 5 17 20 18 4 19 22 20 3 21 6 22 7 23 21 25 23 27 2 29 1 30
REMARK H PARENT 13 10 15 12 17 14 19 16 7 24 21 26 23 28 1 31
REMARK Flexibility Score: inf
ROOT
ATOM      1  O   UNL     1      13.984  15.227  10.667  1.00  0.00    -0.313 OA
ENDROOT
BRANCH   1   2
ATOM      2  C   UNL     1      13.653  16.612  10.598  1.00  0.00     0.285 C 
ATOM      3  C   UNL     1      15.327  17.152   9.022  1.00  0.00     0.178 C 
ATOM      4  C   UNL     1      14.301  17.432   7.897  1.00  0.00     0.177 C 
ATOM      5  O   UNL     1      14.776  17.433  10.301  1.00  0.00    -0.341 OA
ATOM      6  C   UNL     1      13.017  16.618   8.133  1.00  0.00     0.179 C 
ATOM      7  C   UNL     1      12.515  16.820   9.573  1.00  0.00     0.202 C 
BRANCH   3   8
ATOM      8  C   UNL     1      16.573  18.032   8.830  1.00  0.00     0.191 C 
BRANCH   8   9
ATOM      9  O   UNL     1      17.451  17.452   7.900  1.00  0.00    -0.394 OA
ATOM     10  H   UNL     1      17.658  18.149   7.225  1.00  0.00     0.210 HD
ENDBRANCH   8   9
ENDBRANCH   3   8
BRANCH   4  11
ATOM     11  O   UNL     1      14.844  17.141   6.630  1.00  0.00    -0.387 OA
ATOM     12  H   UNL     1      15.785  16.850   6.767  1.00  0.00     0.211 HD
ENDBRANCH   4  11
BRANCH   6  13
ATOM     13  O   UNL     1      12.020  17.010   7.226  1.00  0.00    -0.387 OA
ATOM     14  H   UNL     1      11.239  16.419   7.382  1.00  0.00     0.211 HD
ENDBRANCH   6  13
BRANCH   7  15
ATOM     15  O   UNL     1      11.906  18.082   9.728  1.00  0.00    -0.385 OA
ATOM     16  H   UNL     1      12.400  18.737   9.172  1.00  0.00     0.211 HD
ENDBRANCH   7  15
ENDBRANCH   1   2
BRANCH   1  17
ATOM     17  C   UNL     1      14.197  14.710  11.985  1.00  0.00     0.224 C 
ATOM     18  C   UNL     1      15.652  14.168  12.053  1.00  0.00     0.208 C 
ATOM     19  O   UNL     1      14.080  15.758  12.938  1.00  0.00    -0.337 OA
ATOM     20  C   UNL     1      16.378  15.220  12.844  1.00  0.00     0.180 C 
ATOM     21  C   UNL     1      15.260  15.763  13.711  1.00  0.00     0.179 C 
BRANCH  17  22
ATOM     22  C   UNL     1      13.222  13.562  12.369  1.00  0.00     0.225 C 
BRANCH  22  23
ATOM     23  O   UNL     1      11.887  13.991  12.327  1.00  0.00    -0.391 OA
ATOM     24  H   UNL     1      11.642  14.275  13.248  1.00  0.00     0.210 HD
ENDBRANCH  22  23
ENDBRANCH  17  22
BRANCH  18  25
ATOM     25  O   UNL     1      16.235  14.023  10.781  1.00  0.00    -0.385 OA
ATOM     26  H   UNL     1      15.682  13.362  10.289  1.00  0.00     0.211 HD
ENDBRANCH  18  25
BRANCH  20  27
ATOM     27  O   UNL     1      17.397  14.666  13.632  1.00  0.00    -0.387 OA
ATOM     28  H   UNL     1      17.247  14.993  14.556  1.00  0.00     0.211 HD
ENDBRANCH  20  27
BRANCH  21  29
ATOM     29  C   UNL     1      15.566  17.161  14.270  1.00  0.00     0.191 C 
BRANCH  29  30
ATOM     30  O   UNL     1      15.616  18.124  13.248  1.00  0.00    -0.394 OA
ATOM     31  H   UNL     1      14.714  18.531  13.186  1.00  0.00     0.210 HD
ENDBRANCH  29  30
ENDBRANCH  21  29
ENDBRANCH   1  17
TORSDOF 13
ENDMDL
MODEL 6
REMARK VINA RESULT:    -5.260      2.198      6.009
REMARK INTER + INTRA:          -9.290
REMARK INTER:                  -8.138
REMARK INTRA:                  -1.151
REMARK UNBOUND:                -1.262
REMARK SMILES OC[C@H]1O[C@@](CO)(O[C@H]2O[C@H](CO)[C@@H](O)[C@H](O)[C@@H]2O)[C@@H](O)[C@@H]1O
REMARK SMILES IDX 8 1 9 2 11 3 14 4 10 5 16 6 18 7 12 8 13 9 15 11 17 13 19 15
REMARK SMILES IDX 5 17 20 18 4 19 22 20 3 21 6 22 7 23 21 25 23 27 2 29 1 30
REMARK H PARENT 13 10 15 12 17 14 19 16 7 24 21 26 23 28 1 31
REMARK Flexibility Score: inf
ROOT
ATOM      1  O   UNL     1      14.961  15.627  11.746  1.00  0.00    -0.313 OA
ENDROOT
BRANCH   1   2
ATOM      2  C   UNL     1      14.274  16.867  11.594  1.00  0.00     0.285 C 
ATOM      3  C   UNL     1      13.716  16.524   9.325  1.00  0.00     0.178 C 
ATOM      4  C   UNL     1      12.205  16.373   9.629  1.00  0.00     0.177 C 
ATOM      5  O   UNL     1      14.346  17.379  10.270  1.00  0.00    -0.341 OA
ATOM      6  C   UNL     1      12.000  15.854  11.063  1.00  0.00     0.179 C 
ATOM      7  C   UNL     1      12.808  16.704  12.058  1.00  0.00     0.202 C 
BRANCH   3   8
ATOM      8  C   UNL     1      13.913  17.125   7.924  1.00  0.00     0.191 C 
BRANCH   8   9
ATOM      9  O   UNL     1      12.785  17.864   7.538  1.00  0.00    -0.394 OA
ATOM     10  H   UNL     1      12.064  17.210   7.343  1.00  0.00     0.210 HD
ENDBRANCH   8   9
ENDBRANCH   3   8
BRANCH   4  11
ATOM     11  O   UNL     1      11.583  15.515   8.700  1.00  0.00    -0.387 OA
ATOM     12  H   UNL     1      10.663  15.335   9.029  1.00  0.00     0.211 HD
ENDBRANCH   4  11
BRANCH   6  13
ATOM     13  O   UNL     1      10.638  15.896  11.404  1.00  0.00    -0.387 OA
ATOM     14  H   UNL     1      10.508  16.697  11.975  1.00  0.00     0.211 HD
ENDBRANCH   6  13
BRANCH   7  15
ATOM     15  O   UNL     1      12.195  17.954  12.277  1.00  0.00    -0.385 OA
ATOM     16  H   UNL     1      12.207  18.461  11.425  1.00  0.00     0.211 HD
ENDBRANCH   7  15
ENDBRANCH   1   2
BRANCH   1  17
ATOM     17  C   UNL     1      16.033  15.629  12.695  1.00  0.00     0.224 C 
ATOM     18  C   UNL     1      17.045  14.528  12.274  1.00  0.00     0.208 C 
ATOM     19  O   UNL     1      16.710  16.879  12.655  1.00  0.00    -0.337 OA
ATOM     20  C   UNL     1      18.181  15.310  11.678  1.00  0.00     0.180 C 
ATOM     21  C   UNL     1      18.079  16.612  12.446  1.00  0.00     0.179 C 
BRANCH  17  22
ATOM     22  C   UNL     1      15.572  15.348  14.153  1.00  0.00     0.225 C 
BRANCH  22  23
ATOM     23  O   UNL     1      15.220  16.533  14.816  1.00  0.00    -0.391 OA
ATOM     24  H   UNL     1      14.256  16.463  15.049  1.00  0.00     0.210 HD
ENDBRANCH  22  23
ENDBRANCH  17  22
BRANCH  18  25
ATOM     25  O   UNL     1      16.510  13.639  11.323  1.00  0.00    -0.385 OA
ATOM     26  H   UNL     1      17.273  13.307  10.784  1.00  0.00     0.211 HD
ENDBRANCH  18  25
BRANCH  20  27
ATOM     27  O   UNL     1      19.417  14.689  11.909  1.00  0.00    -0.387 OA
ATOM     28  H   UNL     1      19.724  14.341  11.033  1.00  0.00     0.211 HD
ENDBRANCH  20  27
BRANCH  21  29
ATOM     29  C   UNL     1      18.781  17.779  11.734  1.00  0.00     0.191 C 
BRANCH  29  30
ATOM     30  O   UNL     1      20.119  17.471  11.439  1.00  0.00    -0.394 OA
ATOM     31  H   UNL     1      20.110  16.775  10.732  1.00  0.00     0.210 HD
ENDBRANCH  29  30
ENDBRANCH  21  29
ENDBRANCH   1  17
TORSDOF 13
ENDMDL
MODEL 7
REMARK VINA RESULT:    -5.231      1.783      5.632
REMARK INTER + INTRA:          -9.246
REMARK INTER:                  -7.918
REMARK INTRA:                  -1.329
REMARK UNBOUND:                -1.262
REMARK SMILES OC[C@H]1O[C@@](CO)(O[C@H]2O[C@H](CO)[C@@H](O)[C@H](O)[C@@H]2O)[C@@H](O)[C@@H]1O
REMARK SMILES IDX 8 1 9 2 11 3 14 4 10 5 16 6 18 7 12 8 13 9 15 11 17 13 19 15
REMARK SMILES IDX 5 17 20 18 4 19 22 20 3 21 6 22 7 23 21 25 23 27 2 29 1 30
REMARK H PARENT 13 10 15 12 17 14 19 16 7 24 21 26 23 28 1 31
REMARK Flexibility Score: inf
ROOT
ATOM      1  O   UNL     1      15.282  16.579  11.215  1.00  0.00    -0.313 OA
ENDROOT
BRANCH   1   2
ATOM      2  C   UNL     1      14.212  16.640  10.276  1.00  0.00     0.285 C 
ATOM      3  C   UNL     1      13.382  14.482  10.758  1.00  0.00     0.178 C 
ATOM      4  C   UNL     1      12.089  15.029  11.411  1.00  0.00     0.177 C 
ATOM      5  O   UNL     1      13.862  15.364   9.753  1.00  0.00    -0.341 OA
ATOM      6  C   UNL     1      12.337  16.435  11.986  1.00  0.00     0.179 C 
ATOM      7  C   UNL     1      12.994  17.336  10.927  1.00  0.00     0.202 C 
BRANCH   3   8
ATOM      8  C   UNL     1      13.106  13.116  10.109  1.00  0.00     0.191 C 
BRANCH   8   9
ATOM      9  O   UNL     1      11.733  12.951   9.866  1.00  0.00    -0.394 OA
ATOM     10  H   UNL     1      11.618  12.052   9.462  1.00  0.00     0.210 HD
ENDBRANCH   8   9
ENDBRANCH   3   8
BRANCH   4  11
ATOM     11  O   UNL     1      11.619  14.161  12.416  1.00  0.00    -0.387 OA
ATOM     12  H   UNL     1      10.628  14.233  12.434  1.00  0.00     0.211 HD
ENDBRANCH   4  11
BRANCH   6  13
ATOM     13  O   UNL     1      11.126  17.008  12.407  1.00  0.00    -0.387 OA
ATOM     14  H   UNL     1      10.778  17.539  11.645  1.00  0.00     0.211 HD
ENDBRANCH   6  13
BRANCH   7  15
ATOM     15  O   UNL     1      12.058  17.749   9.957  1.00  0.00    -0.385 OA
ATOM     16  H   UNL     1      11.468  18.433  10.365  1.00  0.00     0.211 HD
ENDBRANCH   7  15
ENDBRANCH   1   2
BRANCH   1  17
ATOM     17  C   UNL     1      16.591  16.783  10.672  1.00  0.00     0.224 C 
ATOM     18  C   UNL     1      17.493  15.613  11.152  1.00  0.00     0.208 C 
ATOM     19  O   UNL     1      16.536  16.733   9.252  1.00  0.00    -0.337 OA
ATOM     20  C   UNL     1      17.620  14.748   9.930  1.00  0.00     0.180 C 
ATOM     21  C   UNL     1      17.477  15.774   8.825  1.00  0.00     0.179 C 
BRANCH  17  22
ATOM     22  C   UNL     1      17.243  18.124  11.109  1.00  0.00     0.225 C 
BRANCH  22  23
ATOM     23  O   UNL     1      17.881  18.001  12.353  1.00  0.00    -0.391 OA
ATOM     24  H   UNL     1      18.692  17.445  12.212  1.00  0.00     0.210 HD
ENDBRANCH  22  23
ENDBRANCH  17  22
BRANCH  18  25
ATOM     25  O   UNL     1      16.918  14.886  12.210  1.00  0.00    -0.385 OA
ATOM     26  H   UNL     1      16.210  14.316  11.812  1.00  0.00     0.211 HD
ENDBRANCH  18  25
BRANCH  20  27
ATOM     27  O   UNL     1      18.872  14.117   9.868  1.00  0.00    -0.387 OA
ATOM     28  H   UNL     1      18.700  13.144   9.953  1.00  0.00     0.211 HD
ENDBRANCH  20  27
BRANCH  21  29
ATOM     29  C   UNL     1      17.077  15.147   7.480  1.00  0.00     0.191 C 
BRANCH  29  30
ATOM     30  O   UNL     1      17.094  13.744   7.541  1.00  0.00    -0.394 OA
ATOM     31  H   UNL     1      17.626  13.424   6.767  1.00  0.00     0.210 HD
ENDBRANCH  29  30
ENDBRANCH  21  29
ENDBRANCH   1  17
TORSDOF 13
ENDMDL
MODEL 8
REMARK VINA RESULT:    -5.218      2.366      6.068
REMARK INTER + INTRA:          -9.226
REMARK INTER:                  -8.052
REMARK INTRA:                  -1.174
REMARK UNBOUND:                -1.262
REMARK SMILES OC[C@H]1O[C@@](CO)(O[C@H]2O[C@H](CO)[C@@H](O)[C@H](O)[C@@H]2O)[C@@H](O)[C@@H]1O
REMARK SMILES IDX 8 1 9 2 11 3 14 4 10 5 16 6 18 7 12 8 13 9 15 11 17 13 19 15
REMARK SMILES IDX 5 17 20 18 4 19 22 20 3 21 6 22 7 23 21 25 23 27 2 29 1 30
REMARK H PARENT 13 10 15 12 17 14 19 16 7 24 21 26 23 28 1 31
REMARK Flexibility Score: inf
ROOT
ATOM      1  O   UNL     1      15.597  15.670  11.619  1.00  0.00    -0.313 OA
ENDROOT
BRANCH   1   2
ATOM      2  C   UNL     1      14.717  16.792  11.634  1.00  0.00     0.285 C 
ATOM      3  C   UNL     1      13.862  16.419   9.464  1.00  0.00     0.178 C 
ATOM      4  C   UNL     1      12.458  16.029   9.988  1.00  0.00     0.177 C 
ATOM      5  O   UNL     1      14.499  17.339  10.339  1.00  0.00    -0.341 OA
ATOM      6  C   UNL     1      12.564  15.452  11.411  1.00  0.00     0.179 C 
ATOM      7  C   UNL     1      13.384  16.393  12.309  1.00  0.00     0.202 C 
BRANCH   3   8
ATOM      8  C   UNL     1      13.742  17.076   8.079  1.00  0.00     0.191 C 
BRANCH   8   9
ATOM      9  O   UNL     1      12.530  17.773   7.964  1.00  0.00    -0.394 OA
ATOM     10  H   UNL     1      12.665  18.478   7.278  1.00  0.00     0.210 HD
ENDBRANCH   8   9
ENDBRANCH   3   8
BRANCH   4  11
ATOM     11  O   UNL     1      11.831  15.108   9.127  1.00  0.00    -0.387 OA
ATOM     12  H   UNL     1      12.536  14.505   8.769  1.00  0.00     0.211 HD
ENDBRANCH   4  11
BRANCH   6  13
ATOM     13  O   UNL     1      11.283  15.275  11.958  1.00  0.00    -0.387 OA
ATOM     14  H   UNL     1      10.842  16.164  11.955  1.00  0.00     0.211 HD
ENDBRANCH   6  13
BRANCH   7  15
ATOM     15  O   UNL     1      12.634  17.528  12.678  1.00  0.00    -0.385 OA
ATOM     16  H   UNL     1      12.691  18.192  11.945  1.00  0.00     0.211 HD
ENDBRANCH   7  15
ENDBRANCH   1   2
BRANCH   1  17
ATOM     17  C   UNL     1      16.894  15.898  12.180  1.00  0.00     0.224 C 
ATOM     18  C   UNL     1      17.102  14.872  13.328  1.00  0.00     0.208 C 
ATOM     19  O   UNL     1      17.892  15.657  11.197  1.00  0.00    -0.337 OA
ATOM     20  C   UNL     1      18.042  13.865  12.728  1.00  0.00     0.180 C 
ATOM     21  C   UNL     1      18.801  14.722  11.736  1.00  0.00     0.179 C 
BRANCH  17  22
ATOM     22  C   UNL     1      17.080  17.330  12.754  1.00  0.00     0.225 C 
BRANCH  22  23
ATOM     23  O   UNL     1      17.977  18.079  11.977  1.00  0.00    -0.391 OA
ATOM     24  H   UNL     1      17.872  17.777  11.036  1.00  0.00     0.210 HD
ENDBRANCH  22  23
ENDBRANCH  17  22
BRANCH  18  25
ATOM     25  O   UNL     1      15.903  14.250  13.721  1.00  0.00    -0.385 OA
ATOM     26  H   UNL     1      15.762  14.481  14.675  1.00  0.00     0.211 HD
ENDBRANCH  18  25
BRANCH  20  27
ATOM     27  O   UNL     1      18.910  13.327  13.690  1.00  0.00    -0.387 OA
ATOM     28  H   UNL     1      18.462  13.441  14.567  1.00  0.00     0.211 HD
ENDBRANCH  20  27
BRANCH  21  29
ATOM     29  C   UNL     1      19.483  13.895  10.635  1.00  0.00     0.191 C 
BRANCH  29  30
ATOM     30  O   UNL     1      19.266  12.519  10.816  1.00  0.00    -0.394 OA
ATOM     31  H   UNL     1      20.132  12.119  11.087  1.00  0.00     0.210 HD
ENDBRANCH  29  30
ENDBRANCH  21  29
ENDBRANCH   1  17
TORSDOF 13
ENDMDL
MODEL 9
REMARK VINA RESULT:    -5.172      2.435      6.069
REMARK INTER + INTRA:          -9.155
REMARK INTER:                  -7.966
REMARK INTRA:                  -1.190
REMARK UNBOUND:                -1.262
REMARK SMILES OC[C@H]1O[C@@](CO)(O[C@H]2O[C@H](CO)[C@@H](O)[C@H](O)[C@@H]2O)[C@@H](O)[C@@H]1O
REMARK SMILES IDX 8 1 9 2 11 3 14 4 10 5 16 6 18 7 12 8 13 9 15 11 17 13 19 15
REMARK SMILES IDX 5 17 20 18 4 19 22 20 3 21 6 22 7 23 21 25 23 27 2 29 1 30
REMARK H PARENT 13 10 15 12 17 14 19 16 7 24 21 26 23 28 1 31
REMARK Flexibility Score: inf
ROOT
ATOM      1  O   UNL     1      15.208  17.262  12.126  1.00  0.00    -0.313 OA
ENDROOT
BRANCH   1   2
ATOM      2  C   UNL     1      14.818  16.041  11.501  1.00  0.00     0.285 C 
ATOM      3  C   UNL     1      12.558  16.664  11.209  1.00  0.00     0.178 C 
ATOM      4  C   UNL     1      12.690  16.752   9.669  1.00  0.00     0.177 C 
ATOM      5  O   UNL     1      13.459  15.705  11.747  1.00  0.00    -0.341 OA
ATOM      6  C   UNL     1      14.141  17.079   9.277  1.00  0.00     0.179 C 
ATOM      7  C   UNL     1      15.114  16.121   9.985  1.00  0.00     0.202 C 
BRANCH   3   8
ATOM      8  C   UNL     1      11.128  16.251  11.593  1.00  0.00     0.191 C 
BRANCH   8   9
ATOM      9  O   UNL     1      10.382  17.368  11.999  1.00  0.00    -0.394 OA
ATOM     10  H   UNL     1      11.021  18.012  12.402  1.00  0.00     0.210 HD
ENDBRANCH   8   9
ENDBRANCH   3   8
BRANCH   4  11
ATOM     11  O   UNL     1      11.806  17.712   9.137  1.00  0.00    -0.387 OA
ATOM     12  H   UNL     1      11.161  17.233   8.552  1.00  0.00     0.211 HD
ENDBRANCH   4  11
BRANCH   6  13
ATOM     13  O   UNL     1      14.304  16.973   7.886  1.00  0.00    -0.387 OA
ATOM     14  H   UNL     1      13.415  17.142   7.478  1.00  0.00     0.211 HD
ENDBRANCH   6  13
BRANCH   7  15
ATOM     15  O   UNL     1      15.097  14.844   9.389  1.00  0.00    -0.385 OA
ATOM     16  H   UNL     1      15.477  14.194  10.033  1.00  0.00     0.211 HD
ENDBRANCH   7  15
ENDBRANCH   1   2
BRANCH   1  17
ATOM     17  C   UNL     1      16.289  17.158  13.058  1.00  0.00     0.224 C 
ATOM     18  C   UNL     1      15.737  17.504  14.469  1.00  0.00     0.208 C 
ATOM     19  O   UNL     1      16.765  15.819  13.096  1.00  0.00    -0.337 OA
ATOM     20  C   UNL     1      15.633  16.164  15.140  1.00  0.00     0.180 C 
ATOM     21  C   UNL     1      16.737  15.397  14.441  1.00  0.00     0.179 C 
BRANCH  17  22
ATOM     22  C   UNL     1      17.476  18.111  12.743  1.00  0.00     0.225 C 
BRANCH  22  23
ATOM     23  O   UNL     1      17.842  18.041  11.390  1.00  0.00    -0.391 OA
ATOM     24  H   UNL     1      18.107  18.957  11.110  1.00  0.00     0.210 HD
ENDBRANCH  22  23
ENDBRANCH  17  22
BRANCH  18  25
ATOM     25  O   UNL     1      14.475  18.125  14.417  1.00  0.00    -0.385 OA
ATOM     26  H   UNL     1      14.508  18.889  15.049  1.00  0.00     0.211 HD
ENDBRANCH  18  25
BRANCH  20  27
ATOM     27  O   UNL     1      15.881  16.252  16.518  1.00  0.00    -0.387 OA
ATOM     28  H   UNL     1      15.284  16.964  16.865  1.00  0.00     0.211 HD
ENDBRANCH  20  27
BRANCH  21  29
ATOM     29  C   UNL     1      16.567  13.873  14.554  1.00  0.00     0.191 C 
BRANCH  29  30
ATOM     30  O   UNL     1      15.655  13.532  15.566  1.00  0.00    -0.394 OA
ATOM     31  H   UNL     1      15.849  12.596  15.832  1.00  0.00     0.210 HD
ENDBRANCH  29  30
ENDBRANCH  21  29
ENDBRANCH   1  17
TORSDOF 13
ENDMDL
