MODEL 1
REMARK VINA RESULT:    -3.914      0.000      0.000
REMARK INTER + INTRA:          -4.617
REMARK INTER:                  -4.601
REMARK INTRA:                  -0.016
REMARK UNBOUND:                -0.016
REMARK SMILES CCCCC(=O)[O-]
REMARK SMILES IDX 4 1 5 2 6 3 7 4 3 5 2 6 1 7
REMARK H PARENT
REMARK Flexibility Score: inf
ROOT
ATOM      1  C   UNL     1      45.491  -7.748  24.151  1.00  0.00     0.053 C 
ENDROOT
BRANCH   1   2
ATOM      2  C   UNL     1      45.257  -7.294  25.557  1.00  0.00     0.041 C 
ATOM      3  O   UNL     1      44.707  -6.184  25.783  1.00  0.00    -0.550 OA
ATOM      4  O   UNL     1      45.600  -8.121  26.620  1.00  0.00    -0.550 OA
ENDBRANCH   1   2
BRANCH   1   5
ATOM      5  C   UNL     1      46.913  -7.386  23.702  1.00  0.00     0.006 C 
BRANCH   5   6
ATOM      6  C   UNL     1      47.182  -7.764  22.237  1.00  0.00    -0.003 C 
ATOM      7  C   UNL     1      48.672  -7.777  21.895  1.00  0.00     0.004 C 
ENDBRANCH   5   6
ENDBRANCH   1   5
TORSDOF 3
ENDMDL
MODEL 2
REMARK VINA RESULT:    -3.862      2.893      3.238
REMARK INTER + INTRA:          -4.555
REMARK INTER:                  -4.476
REMARK INTRA:                  -0.078
REMARK UNBOUND:                -0.016
REMARK SMILES CCCCC(=O)[O-]
REMARK SMILES IDX 4 1 5 2 6 3 7 4 3 5 2 6 1 7
REMARK H PARENT
REMARK Flexibility Score: inf
ROOT
ATOM      1  C   UNL     1      48.837  -7.472  24.597  1.00  0.00     0.053 C 
ENDROOT
BRANCH   1   2
ATOM      2  C   UNL     1      49.261  -6.214  25.287  1.00  0.00     0.041 C 
ATOM      3  O   UNL     1      48.455  -5.254  25.411  1.00  0.00    -0.550 OA
ATOM      4  O   UNL     1      50.533  -6.119  25.839  1.00  0.00    -0.550 OA
ENDBRANCH   1   2
BRANCH   1   5
ATOM      5  C   UNL     1      47.398  -7.341  24.083  1.00  0.00     0.006 C 
BRANCH   5   6
ATOM      6  C   UNL     1      47.314  -7.386  22.549  1.00  0.00    -0.003 C 
ATOM      7  C   UNL     1      48.599  -7.902  21.902  1.00  0.00     0.004 C 
ENDBRANCH   5   6
ENDBRANCH   1   5
TORSDOF 3
ENDMDL
MODEL 3
REMARK VINA RESULT:    -3.840      1.943      2.343
REMARK INTER + INTRA:          -4.530
REMARK INTER:                  -4.452
REMARK INTRA:                  -0.077
REMARK UNBOUND:                -0.016
REMARK SMILES CCCCC(=O)[O-]
REMARK SMILES IDX 4 1 5 2 6 3 7 4 3 5 2 6 1 7
REMARK H PARENT
REMARK Flexibility Score: inf
ROOT
ATOM      1  C   UNL     1      47.218  -7.239  25.070  1.00  0.00     0.053 C 
ENDROOT
BRANCH   1   2
ATOM      2  C   UNL     1      47.085  -5.862  25.640  1.00  0.00     0.041 C 
ATOM      3  O   UNL     1      48.098  -5.123  25.760  1.00  0.00    -0.550 OA
ATOM      4  O   UNL     1      45.833  -5.374  25.994  1.00  0.00    -0.550 OA
ENDBRANCH   1   2
BRANCH   1   5
ATOM      5  C   UNL     1      48.585  -7.408  24.395  1.00  0.00     0.006 C 
BRANCH   5   6
ATOM      6  C   UNL     1      48.491  -7.395  22.862  1.00  0.00    -0.003 C 
ATOM      7  C   UNL     1      47.069  -7.632  22.355  1.00  0.00     0.004 C 
ENDBRANCH   5   6
ENDBRANCH   1   5
TORSDOF 3
ENDMDL
MODEL 4
REMARK VINA RESULT:    -3.811      2.665      3.727
REMARK INTER + INTRA:          -4.495
REMARK INTER:                  -4.392
REMARK INTRA:                  -0.103
REMARK UNBOUND:                -0.016
REMARK SMILES CCCCC(=O)[O-]
REMARK SMILES IDX 4 1 5 2 6 3 7 4 3 5 2 6 1 7
REMARK H PARENT
REMARK Flexibility Score: inf
ROOT
ATOM      1  C   UNL     1      47.894  -7.261  25.145  1.00  0.00     0.053 C 
ENDROOT
BRANCH   1   2
ATOM      2  C   UNL     1      48.462  -5.882  25.275  1.00  0.00     0.041 C 
ATOM      3  O   UNL     1      47.751  -4.942  25.717  1.00  0.00    -0.550 OA
ATOM      4  O   UNL     1      49.794  -5.646  24.956  1.00  0.00    -0.550 OA
ENDBRANCH   1   2
BRANCH   1   5
ATOM      5  C   UNL     1      46.677  -7.252  24.213  1.00  0.00     0.006 C 
BRANCH   5   6
ATOM      6  C   UNL     1      45.383  -7.671  24.928  1.00  0.00    -0.003 C 
ATOM      7  C   UNL     1      45.605  -8.003  26.403  1.00  0.00     0.004 C 
ENDBRANCH   5   6
ENDBRANCH   1   5
TORSDOF 3
ENDMDL
MODEL 5
REMARK VINA RESULT:    -3.706      3.114      4.266
REMARK INTER + INTRA:          -4.372
REMARK INTER:                  -4.316
REMARK INTRA:                  -0.056
REMARK UNBOUND:                -0.016
REMARK SMILES CCCCC(=O)[O-]
REMARK SMILES IDX 4 1 5 2 6 3 7 4 3 5 2 6 1 7
REMARK H PARENT
REMARK Flexibility Score: inf
ROOT
ATOM      1  C   UNL     1      48.410  -6.673  23.632  1.00  0.00     0.053 C 
ENDROOT
BRANCH   1   2
ATOM      2  C   UNL     1      48.046  -7.492  22.433  1.00  0.00     0.041 C 
ATOM      3  O   UNL     1      46.843  -7.785  22.206  1.00  0.00    -0.550 OA
ATOM      4  O   UNL     1      49.032  -7.890  21.539  1.00  0.00    -0.550 OA
ENDBRANCH   1   2
BRANCH   1   5
ATOM      5  C   UNL     1      48.037  -7.416  24.921  1.00  0.00     0.006 C 
BRANCH   5   6
ATOM      6  C   UNL     1      46.805  -6.813  25.614  1.00  0.00    -0.003 C 
ATOM      7  C   UNL     1      45.962  -7.862  26.339  1.00  0.00     0.004 C 
ENDBRANCH   5   6
ENDBRANCH   1   5
TORSDOF 3
ENDMDL
MODEL 6
REMARK VINA RESULT:    -3.671      2.354      2.711
REMARK INTER + INTRA:          -4.330
REMARK INTER:                  -4.236
REMARK INTRA:                  -0.094
REMARK UNBOUND:                -0.016
REMARK SMILES CCCCC(=O)[O-]
REMARK SMILES IDX 4 1 5 2 6 3 7 4 3 5 2 6 1 7
REMARK H PARENT
REMARK Flexibility Score: inf
ROOT
ATOM      1  C   UNL     1      46.748  -7.227  25.437  1.00  0.00     0.053 C 
ENDROOT
BRANCH   1   2
ATOM      2  C   UNL     1      46.255  -5.894  25.906  1.00  0.00     0.041 C 
ATOM      3  O   UNL     1      45.019  -5.667  25.988  1.00  0.00    -0.550 OA
ATOM      4  O   UNL     1      47.162  -4.918  26.300  1.00  0.00    -0.550 OA
ENDBRANCH   1   2
BRANCH   1   5
ATOM      5  C   UNL     1      47.986  -7.058  24.548  1.00  0.00     0.006 C 
BRANCH   5   6
ATOM      6  C   UNL     1      49.275  -7.530  25.236  1.00  0.00    -0.003 C 
ATOM      7  C   UNL     1      50.338  -6.434  25.315  1.00  0.00     0.004 C 
ENDBRANCH   5   6
ENDBRANCH   1   5
TORSDOF 3
ENDMDL
MODEL 7
REMARK VINA RESULT:    -3.663      2.313      3.912
REMARK INTER + INTRA:          -4.322
REMARK INTER:                  -4.215
REMARK INTRA:                  -0.107
REMARK UNBOUND:                -0.016
REMARK SMILES CCCCC(=O)[O-]
REMARK SMILES IDX 4 1 5 2 6 3 7 4 3 5 2 6 1 7
REMARK H PARENT
REMARK Flexibility Score: inf
ROOT
ATOM      1  C   UNL     1      47.075  -7.438  24.008  1.00  0.00     0.053 C 
ENDROOT
BRANCH   1   2
ATOM      2  C   UNL     1      48.111  -6.870  24.926  1.00  0.00     0.041 C 
ATOM      3  O   UNL     1      49.042  -7.598  25.361  1.00  0.00    -0.550 OA
ATOM      4  O   UNL     1      48.077  -5.523  25.263  1.00  0.00    -0.550 OA
ENDBRANCH   1   2
BRANCH   1   5
ATOM      5  C   UNL     1      45.682  -7.327  24.639  1.00  0.00     0.006 C 
BRANCH   5   6
ATOM      6  C   UNL     1      45.643  -7.854  26.081  1.00  0.00    -0.003 C 
ATOM      7  C   UNL     1      45.094  -6.827  27.071  1.00  0.00     0.004 C 
ENDBRANCH   5   6
ENDBRANCH   1   5
TORSDOF 3
ENDMDL
MODEL 8
REMARK VINA RESULT:    -3.651      3.386      4.106
REMARK INTER + INTRA:          -4.307
REMARK INTER:                  -4.201
REMARK INTRA:                  -0.106
REMARK UNBOUND:                -0.016
REMARK SMILES CCCCC(=O)[O-]
REMARK SMILES IDX 4 1 5 2 6 3 7 4 3 5 2 6 1 7
REMARK H PARENT
REMARK Flexibility Score: inf
ROOT
ATOM      1  C   UNL     1      45.911  -5.240  27.175  1.00  0.00     0.053 C 
ENDROOT
BRANCH   1   2
ATOM      2  C   UNL     1      46.938  -4.363  26.531  1.00  0.00     0.041 C 
ATOM      3  O   UNL     1      46.916  -3.118  26.716  1.00  0.00    -0.550 OA
ATOM      4  O   UNL     1      47.950  -4.927  25.764  1.00  0.00    -0.550 OA
ENDBRANCH   1   2
BRANCH   1   5
ATOM      5  C   UNL     1      44.826  -5.627  26.162  1.00  0.00     0.006 C 
BRANCH   5   6
ATOM      6  C   UNL     1      45.087  -6.994  25.511  1.00  0.00    -0.003 C 
ATOM      7  C   UNL     1      45.779  -7.976  26.457  1.00  0.00     0.004 C 
ENDBRANCH   5   6
ENDBRANCH   1   5
TORSDOF 3
ENDMDL
MODEL 9
REMARK VINA RESULT:    -3.646      1.412      1.699
REMARK INTER + INTRA:          -4.301
REMARK INTER:                  -4.245
REMARK INTRA:                  -0.056
REMARK UNBOUND:                -0.016
REMARK SMILES CCCCC(=O)[O-]
REMARK SMILES IDX 4 1 5 2 6 3 7 4 3 5 2 6 1 7
REMARK H PARENT
REMARK Flexibility Score: inf
ROOT
ATOM      1  C   UNL     1      46.035  -7.381  25.756  1.00  0.00     0.053 C 
ENDROOT
BRANCH   1   2
ATOM      2  C   UNL     1      45.467  -6.016  25.982  1.00  0.00     0.041 C 
ATOM      3  O   UNL     1      46.230  -5.020  26.086  1.00  0.00    -0.550 OA
ATOM      4  O   UNL     1      44.090  -5.835  26.027  1.00  0.00    -0.550 OA
ENDBRANCH   1   2
BRANCH   1   5
ATOM      5  C   UNL     1      47.276  -7.303  24.857  1.00  0.00     0.006 C 
BRANCH   5   6
ATOM      6  C   UNL     1      46.927  -7.386  23.363  1.00  0.00    -0.003 C 
ATOM      7  C   UNL     1      48.164  -7.353  22.465  1.00  0.00     0.004 C 
ENDBRANCH   5   6
ENDBRANCH   1   5
TORSDOF 3
ENDMDL
