MODEL 1
REMARK VINA RESULT:    -3.813      0.000      0.000
REMARK INTER + INTRA:          -4.504
REMARK INTER:                  -4.482
REMARK INTRA:                  -0.023
REMARK UNBOUND:                -0.023
REMARK SMILES CCCCC(=O)[O-]
REMARK SMILES IDX 4 1 5 2 6 3 7 4 3 5 2 6 1 7
REMARK H PARENT
REMARK Flexibility Score: inf
ROOT
ATOM      1  C   UNL     1      36.621  42.802  46.758  1.00  0.00     0.053 C 
ENDROOT
BRANCH   1   2
ATOM      2  C   UNL     1      35.746  43.982  46.463  1.00  0.00     0.041 C 
ATOM      3  O   UNL     1      35.196  44.616  47.401  1.00  0.00    -0.550 OA
ATOM      4  O   UNL     1      35.513  44.363  45.148  1.00  0.00    -0.550 OA
ENDBRANCH   1   2
BRANCH   1   5
ATOM      5  C   UNL     1      36.797  42.556  48.267  1.00  0.00     0.006 C 
BRANCH   5   6
ATOM      6  C   UNL     1      38.128  41.878  48.636  1.00  0.00    -0.003 C 
ATOM      7  C   UNL     1      38.459  41.972  50.125  1.00  0.00     0.004 C 
ENDBRANCH   5   6
ENDBRANCH   1   5
TORSDOF 3
ENDMDL
MODEL 2
REMARK VINA RESULT:    -3.793      2.527      4.842
REMARK INTER + INTRA:          -4.481
REMARK INTER:                  -4.452
REMARK INTRA:                  -0.029
REMARK UNBOUND:                -0.023
REMARK SMILES CCCCC(=O)[O-]
REMARK SMILES IDX 4 1 5 2 6 3 7 4 3 5 2 6 1 7
REMARK H PARENT
REMARK Flexibility Score: inf
ROOT
ATOM      1  C   UNL     1      35.883  44.185  45.949  1.00  0.00     0.053 C 
ENDROOT
BRANCH   1   2
ATOM      2  C   UNL     1      36.046  42.949  46.780  1.00  0.00     0.041 C 
ATOM      3  O   UNL     1      35.047  42.239  47.067  1.00  0.00    -0.550 OA
ATOM      4  O   UNL     1      37.300  42.596  47.263  1.00  0.00    -0.550 OA
ENDBRANCH   1   2
BRANCH   1   5
ATOM      5  C   UNL     1      34.415  44.465  45.583  1.00  0.00     0.006 C 
BRANCH   5   6
ATOM      6  C   UNL     1      34.207  44.879  44.115  1.00  0.00    -0.003 C 
ATOM      7  C   UNL     1      32.772  44.676  43.630  1.00  0.00     0.004 C 
ENDBRANCH   5   6
ENDBRANCH   1   5
TORSDOF 3
ENDMDL
MODEL 3
REMARK VINA RESULT:    -3.756      1.359      2.051
REMARK INTER + INTRA:          -4.437
REMARK INTER:                  -4.421
REMARK INTRA:                  -0.016
REMARK UNBOUND:                -0.023
REMARK SMILES CCCCC(=O)[O-]
REMARK SMILES IDX 4 1 5 2 6 3 7 4 3 5 2 6 1 7
REMARK H PARENT
REMARK Flexibility Score: inf
ROOT
ATOM      1  C   UNL     1      37.406  42.252  48.247  1.00  0.00     0.053 C 
ENDROOT
BRANCH   1   2
ATOM      2  C   UNL     1      36.279  42.728  47.381  1.00  0.00     0.041 C 
ATOM      3  O   UNL     1      36.515  43.222  46.247  1.00  0.00    -0.550 OA
ATOM      4  O   UNL     1      34.970  42.651  47.838  1.00  0.00    -0.550 OA
ENDBRANCH   1   2
BRANCH   1   5
ATOM      5  C   UNL     1      37.223  42.640  49.725  1.00  0.00     0.006 C 
BRANCH   5   6
ATOM      6  C   UNL     1      38.545  42.794  50.497  1.00  0.00    -0.003 C 
ATOM      7  C   UNL     1      39.189  41.457  50.861  1.00  0.00     0.004 C 
ENDBRANCH   5   6
ENDBRANCH   1   5
TORSDOF 3
ENDMDL
MODEL 4
REMARK VINA RESULT:    -3.712      3.033      4.185
REMARK INTER + INTRA:          -4.385
REMARK INTER:                  -4.366
REMARK INTRA:                  -0.020
REMARK UNBOUND:                -0.023
REMARK SMILES CCCCC(=O)[O-]
REMARK SMILES IDX 4 1 5 2 6 3 7 4 3 5 2 6 1 7
REMARK H PARENT
REMARK Flexibility Score: inf
ROOT
ATOM      1  C   UNL     1      34.260  44.822  44.147  1.00  0.00     0.053 C 
ENDROOT
BRANCH   1   2
ATOM      2  C   UNL     1      32.833  44.759  43.692  1.00  0.00     0.041 C 
ATOM      3  O   UNL     1      32.063  43.869  44.137  1.00  0.00    -0.550 OA
ATOM      4  O   UNL     1      32.362  45.668  42.753  1.00  0.00    -0.550 OA
ENDBRANCH   1   2
BRANCH   1   5
ATOM      5  C   UNL     1      34.432  44.412  45.620  1.00  0.00     0.006 C 
BRANCH   5   6
ATOM      6  C   UNL     1      35.892  44.143  46.025  1.00  0.00    -0.003 C 
ATOM      7  C   UNL     1      36.088  42.791  46.710  1.00  0.00     0.004 C 
ENDBRANCH   5   6
ENDBRANCH   1   5
TORSDOF 3
ENDMDL
MODEL 5
REMARK VINA RESULT:    -3.709      1.190      2.028
REMARK INTER + INTRA:          -4.382
REMARK INTER:                  -4.336
REMARK INTRA:                  -0.046
REMARK UNBOUND:                -0.023
REMARK SMILES CCCCC(=O)[O-]
REMARK SMILES IDX 4 1 5 2 6 3 7 4 3 5 2 6 1 7
REMARK H PARENT
REMARK Flexibility Score: inf
ROOT
ATOM      1  C   UNL     1      36.026  44.000  46.050  1.00  0.00     0.053 C 
ENDROOT
BRANCH   1   2
ATOM      2  C   UNL     1      34.660  44.370  45.558  1.00  0.00     0.041 C 
ATOM      3  O   UNL     1      34.518  44.935  44.441  1.00  0.00    -0.550 OA
ATOM      4  O   UNL     1      33.544  44.116  46.346  1.00  0.00    -0.550 OA
ENDBRANCH   1   2
BRANCH   1   5
ATOM      5  C   UNL     1      36.059  42.620  46.729  1.00  0.00     0.006 C 
BRANCH   5   6
ATOM      6  C   UNL     1      36.433  42.668  48.221  1.00  0.00    -0.003 C 
ATOM      7  C   UNL     1      37.863  42.206  48.498  1.00  0.00     0.004 C 
ENDBRANCH   5   6
ENDBRANCH   1   5
TORSDOF 3
ENDMDL
MODEL 6
REMARK VINA RESULT:    -3.677      2.921      4.420
REMARK INTER + INTRA:          -4.345
REMARK INTER:                  -4.325
REMARK INTRA:                  -0.020
REMARK UNBOUND:                -0.023
REMARK SMILES CCCCC(=O)[O-]
REMARK SMILES IDX 4 1 5 2 6 3 7 4 3 5 2 6 1 7
REMARK H PARENT
REMARK Flexibility Score: inf
ROOT
ATOM      1  C   UNL     1      38.050  42.106  48.676  1.00  0.00     0.053 C 
ENDROOT
BRANCH   1   2
ATOM      2  C   UNL     1      38.365  42.257  50.134  1.00  0.00     0.041 C 
ATOM      3  O   UNL     1      37.850  43.192  50.802  1.00  0.00    -0.550 OA
ATOM      4  O   UNL     1      39.250  41.380  50.748  1.00  0.00    -0.550 OA
ENDBRANCH   1   2
BRANCH   1   5
ATOM      5  C   UNL     1      36.654  42.639  48.312  1.00  0.00     0.006 C 
BRANCH   5   6
ATOM      6  C   UNL     1      36.405  42.750  46.797  1.00  0.00    -0.003 C 
ATOM      7  C   UNL     1      35.925  44.136  46.366  1.00  0.00     0.004 C 
ENDBRANCH   5   6
ENDBRANCH   1   5
TORSDOF 3
ENDMDL
MODEL 7
REMARK VINA RESULT:    -3.605      2.226      4.113
REMARK INTER + INTRA:          -4.259
REMARK INTER:                  -4.177
REMARK INTRA:                  -0.082
REMARK UNBOUND:                -0.023
REMARK SMILES CCCCC(=O)[O-]
REMARK SMILES IDX 4 1 5 2 6 3 7 4 3 5 2 6 1 7
REMARK H PARENT
REMARK Flexibility Score: inf
ROOT
ATOM      1  C   UNL     1      36.111  42.739  46.622  1.00  0.00     0.053 C 
ENDROOT
BRANCH   1   2
ATOM      2  C   UNL     1      36.580  42.632  48.042  1.00  0.00     0.041 C 
ATOM      3  O   UNL     1      37.684  42.088  48.307  1.00  0.00    -0.550 OA
ATOM      4  O   UNL     1      35.782  43.107  49.075  1.00  0.00    -0.550 OA
ENDBRANCH   1   2
BRANCH   1   5
ATOM      5  C   UNL     1      35.950  44.198  46.159  1.00  0.00     0.006 C 
BRANCH   5   6
ATOM      6  C   UNL     1      34.635  44.470  45.407  1.00  0.00    -0.003 C 
ATOM      7  C   UNL     1      33.393  44.065  46.200  1.00  0.00     0.004 C 
ENDBRANCH   5   6
ENDBRANCH   1   5
TORSDOF 3
ENDMDL
MODEL 8
REMARK VINA RESULT:    -3.452      2.324      2.827
REMARK INTER + INTRA:          -4.080
REMARK INTER:                  -4.061
REMARK INTRA:                  -0.019
REMARK UNBOUND:                -0.023
REMARK SMILES CCCCC(=O)[O-]
REMARK SMILES IDX 4 1 5 2 6 3 7 4 3 5 2 6 1 7
REMARK H PARENT
REMARK Flexibility Score: inf
ROOT
ATOM      1  C   UNL     1      36.795  42.656  50.330  1.00  0.00     0.053 C 
ENDROOT
BRANCH   1   2
ATOM      2  C   UNL     1      35.478  42.945  49.675  1.00  0.00     0.041 C 
ATOM      3  O   UNL     1      34.417  42.443  50.131  1.00  0.00    -0.550 OA
ATOM      4  O   UNL     1      35.426  43.747  48.542  1.00  0.00    -0.550 OA
ENDBRANCH   1   2
BRANCH   1   5
ATOM      5  C   UNL     1      37.906  42.337  49.315  1.00  0.00     0.006 C 
BRANCH   5   6
ATOM      6  C   UNL     1      38.881  41.242  49.781  1.00  0.00    -0.003 C 
ATOM      7  C   UNL     1      39.503  41.531  51.147  1.00  0.00     0.004 C 
ENDBRANCH   5   6
ENDBRANCH   1   5
TORSDOF 3
ENDMDL
MODEL 9
REMARK VINA RESULT:    -3.320      2.449      4.481
REMARK INTER + INTRA:          -3.925
REMARK INTER:                  -3.821
REMARK INTRA:                  -0.104
REMARK UNBOUND:                -0.023
REMARK SMILES CCCCC(=O)[O-]
REMARK SMILES IDX 4 1 5 2 6 3 7 4 3 5 2 6 1 7
REMARK H PARENT
REMARK Flexibility Score: inf
ROOT
ATOM      1  C   UNL     1      34.513  42.902  47.125  1.00  0.00     0.053 C 
ENDROOT
BRANCH   1   2
ATOM      2  C   UNL     1      35.891  43.230  46.633  1.00  0.00     0.041 C 
ATOM      3  O   UNL     1      36.055  44.105  45.743  1.00  0.00    -0.550 OA
ATOM      4  O   UNL     1      36.990  42.548  47.138  1.00  0.00    -0.550 OA
ENDBRANCH   1   2
BRANCH   1   5
ATOM      5  C   UNL     1      33.663  44.156  47.390  1.00  0.00     0.006 C 
BRANCH   5   6
ATOM      6  C   UNL     1      32.301  44.149  46.673  1.00  0.00    -0.003 C 
ATOM      7  C   UNL     1      32.423  44.177  45.150  1.00  0.00     0.004 C 
ENDBRANCH   5   6
ENDBRANCH   1   5
TORSDOF 3
ENDMDL
