MODEL 1
REMARK VINA RESULT:    -4.870      0.000      0.000
REMARK INTER + INTRA:          -5.338
REMARK INTER:                  -5.155
REMARK INTRA:                  -0.183
REMARK UNBOUND:                -0.183
REMARK SMILES C=C1CC=C(C(C)C)CC1
REMARK SMILES IDX 5 1 4 2 3 3 2 4 1 5 10 6 9 7 6 8 7 9 8 10
REMARK H PARENT
REMARK Flexibility Score: inf
ROOT
ATOM      1  C   UNL     1     -54.545 -47.394  21.266  1.00  0.00    -0.071 C 
ATOM      2  C   UNL     1     -54.276 -46.595  22.320  1.00  0.00    -0.023 C 
ATOM      3  C   UNL     1     -52.994 -46.737  23.100  1.00  0.00     0.057 C 
ATOM      4  C   UNL     1     -52.585 -48.193  23.203  1.00  0.00    -0.073 C 
ATOM      5  C   UNL     1     -51.844 -48.611  24.239  1.00  0.00     0.008 C 
ATOM      6  C   UNL     1     -52.984 -49.171  22.117  1.00  0.00     0.035 C 
ATOM      7  C   UNL     1     -53.524 -48.445  20.877  1.00  0.00     0.035 C 
ENDROOT
BRANCH   1   8
ATOM      8  C   UNL     1     -55.876 -47.281  20.540  1.00  0.00     0.008 C 
ATOM      9  C   UNL     1     -56.860 -48.356  21.015  1.00  0.00     0.012 C 
ATOM     10  C   UNL     1     -56.469 -45.877  20.703  1.00  0.00     0.012 C 
ENDBRANCH   1   8
TORSDOF 1
ENDMDL
MODEL 2
REMARK VINA RESULT:    -4.750     13.981     16.193
REMARK INTER + INTRA:          -5.211
REMARK INTER:                  -5.057
REMARK INTRA:                  -0.153
REMARK UNBOUND:                -0.183
REMARK SMILES C=C1CC=C(C(C)C)CC1
REMARK SMILES IDX 5 1 4 2 3 3 2 4 1 5 10 6 9 7 6 8 7 9 8 10
REMARK H PARENT
REMARK Flexibility Score: inf
ROOT
ATOM      1  C   UNL     1     -39.660 -48.470  28.990  1.00  0.00    -0.071 C 
ATOM      2  C   UNL     1     -39.845 -48.776  30.291  1.00  0.00    -0.023 C 
ATOM      3  C   UNL     1     -40.969 -49.682  30.727  1.00  0.00     0.057 C 
ATOM      4  C   UNL     1     -42.204 -49.455  29.879  1.00  0.00    -0.073 C 
ATOM      5  C   UNL     1     -43.420 -49.710  30.380  1.00  0.00     0.008 C 
ATOM      6  C   UNL     1     -42.064 -48.971  28.450  1.00  0.00     0.035 C 
ATOM      7  C   UNL     1     -40.610 -49.061  27.966  1.00  0.00     0.035 C 
ENDROOT
BRANCH   1   8
ATOM      8  C   UNL     1     -38.565 -47.498  28.580  1.00  0.00     0.008 C 
ATOM      9  C   UNL     1     -38.680 -46.178  29.352  1.00  0.00     0.012 C 
ATOM     10  C   UNL     1     -37.180 -48.127  28.763  1.00  0.00     0.012 C 
ENDBRANCH   1   8
TORSDOF 1
ENDMDL
MODEL 3
REMARK VINA RESULT:    -4.741      1.322      2.404
REMARK INTER + INTRA:          -5.201
REMARK INTER:                  -5.022
REMARK INTRA:                  -0.179
REMARK UNBOUND:                -0.183
REMARK SMILES C=C1CC=C(C(C)C)CC1
REMARK SMILES IDX 5 1 4 2 3 3 2 4 1 5 10 6 9 7 6 8 7 9 8 10
REMARK H PARENT
REMARK Flexibility Score: inf
ROOT
ATOM      1  C   UNL     1     -54.484 -47.540  21.815  1.00  0.00    -0.071 C 
ATOM      2  C   UNL     1     -53.921 -48.481  21.029  1.00  0.00    -0.023 C 
ATOM      3  C   UNL     1     -52.481 -48.889  21.209  1.00  0.00     0.057 C 
ATOM      4  C   UNL     1     -51.628 -47.696  21.593  1.00  0.00    -0.073 C 
ATOM      5  C   UNL     1     -50.323 -47.676  21.288  1.00  0.00     0.008 C 
ATOM      6  C   UNL     1     -52.242 -46.538  22.353  1.00  0.00     0.035 C 
ATOM      7  C   UNL     1     -53.635 -46.895  22.893  1.00  0.00     0.035 C 
ENDROOT
BRANCH   1   8
ATOM      8  C   UNL     1     -55.917 -47.094  21.569  1.00  0.00     0.008 C 
ATOM      9  C   UNL     1     -55.965 -45.876  20.639  1.00  0.00     0.012 C 
ATOM     10  C   UNL     1     -56.760 -48.247  21.015  1.00  0.00     0.012 C 
ENDBRANCH   1   8
TORSDOF 1
ENDMDL
MODEL 4
REMARK VINA RESULT:    -4.694     12.433     15.720
REMARK INTER + INTRA:          -5.152
REMARK INTER:                  -4.967
REMARK INTRA:                  -0.185
REMARK UNBOUND:                -0.183
REMARK SMILES C=C1CC=C(C(C)C)CC1
REMARK SMILES IDX 5 1 4 2 3 3 2 4 1 5 10 6 9 7 6 8 7 9 8 10
REMARK H PARENT
REMARK Flexibility Score: inf
ROOT
ATOM      1  C   UNL     1     -39.916 -47.570  28.675  1.00  0.00    -0.071 C 
ATOM      2  C   UNL     1     -40.308 -46.637  27.782  1.00  0.00    -0.023 C 
ATOM      3  C   UNL     1     -41.591 -46.792  27.004  1.00  0.00     0.057 C 
ATOM      4  C   UNL     1     -41.834 -48.245  26.650  1.00  0.00    -0.073 C 
ATOM      5  C   UNL     1     -42.555 -48.561  25.566  1.00  0.00     0.008 C 
ATOM      6  C   UNL     1     -41.292 -49.344  27.542  1.00  0.00     0.035 C 
ATOM      7  C   UNL     1     -40.798 -48.786  28.885  1.00  0.00     0.035 C 
ENDROOT
BRANCH   1   8
ATOM      8  C   UNL     1     -38.585 -47.429  29.395  1.00  0.00     0.008 C 
ATOM      9  C   UNL     1     -37.521 -48.344  28.777  1.00  0.00     0.012 C 
ATOM     10  C   UNL     1     -38.120 -45.968  29.402  1.00  0.00     0.012 C 
ENDBRANCH   1   8
TORSDOF 1
ENDMDL
MODEL 5
REMARK VINA RESULT:    -4.654     12.751     13.787
REMARK INTER + INTRA:          -5.109
REMARK INTER:                  -4.917
REMARK INTRA:                  -0.192
REMARK UNBOUND:                -0.183
REMARK SMILES C=C1CC=C(C(C)C)CC1
REMARK SMILES IDX 5 1 4 2 3 3 2 4 1 5 10 6 9 7 6 8 7 9 8 10
REMARK H PARENT
REMARK Flexibility Score: inf
ROOT
ATOM      1  C   UNL     1     -45.786 -50.271  31.798  1.00  0.00    -0.071 C 
ATOM      2  C   UNL     1     -45.632 -49.009  31.346  1.00  0.00    -0.023 C 
ATOM      3  C   UNL     1     -44.764 -48.710  30.150  1.00  0.00     0.057 C 
ATOM      4  C   UNL     1     -43.548 -49.616  30.126  1.00  0.00    -0.073 C 
ATOM      5  C   UNL     1     -42.420 -49.211  29.528  1.00  0.00     0.008 C 
ATOM      6  C   UNL     1     -43.619 -50.995  30.750  1.00  0.00     0.035 C 
ATOM      7  C   UNL     1     -45.066 -51.392  31.075  1.00  0.00     0.035 C 
ENDROOT
BRANCH   1   8
ATOM      8  C   UNL     1     -46.608 -50.541  33.049  1.00  0.00     0.008 C 
ATOM      9  C   UNL     1     -45.851 -51.449  34.025  1.00  0.00     0.012 C 
ATOM     10  C   UNL     1     -47.023 -49.228  33.723  1.00  0.00     0.012 C 
ENDBRANCH   1   8
TORSDOF 1
ENDMDL
MODEL 6
REMARK VINA RESULT:    -4.641      5.880      7.487
REMARK INTER + INTRA:          -5.095
REMARK INTER:                  -4.908
REMARK INTRA:                  -0.188
REMARK UNBOUND:                -0.183
REMARK SMILES C=C1CC=C(C(C)C)CC1
REMARK SMILES IDX 5 1 4 2 3 3 2 4 1 5 10 6 9 7 6 8 7 9 8 10
REMARK H PARENT
REMARK Flexibility Score: inf
ROOT
ATOM      1  C   UNL     1     -49.387 -50.298  18.455  1.00  0.00    -0.071 C 
ATOM      2  C   UNL     1     -49.157 -50.784  17.218  1.00  0.00    -0.023 C 
ATOM      3  C   UNL     1     -47.964 -50.336  16.412  1.00  0.00     0.057 C 
ATOM      4  C   UNL     1     -47.671 -48.869  16.653  1.00  0.00    -0.073 C 
ATOM      5  C   UNL     1     -47.059 -48.142  15.709  1.00  0.00     0.008 C 
ATOM      6  C   UNL     1     -48.040 -48.230  17.977  1.00  0.00     0.035 C 
ATOM      7  C   UNL     1     -48.413 -49.286  19.027  1.00  0.00     0.035 C 
ENDROOT
BRANCH   1   8
ATOM      8  C   UNL     1     -50.635 -50.709  19.220  1.00  0.00     0.008 C 
ATOM      9  C   UNL     1     -50.704 -50.012  20.584  1.00  0.00     0.012 C 
ATOM     10  C   UNL     1     -51.896 -50.434  18.394  1.00  0.00     0.012 C 
ENDBRANCH   1   8
TORSDOF 1
ENDMDL
MODEL 7
REMARK VINA RESULT:    -4.633      6.003      7.438
REMARK INTER + INTRA:          -5.087
REMARK INTER:                  -4.894
REMARK INTRA:                  -0.193
REMARK UNBOUND:                -0.183
REMARK SMILES C=C1CC=C(C(C)C)CC1
REMARK SMILES IDX 5 1 4 2 3 3 2 4 1 5 10 6 9 7 6 8 7 9 8 10
REMARK H PARENT
REMARK Flexibility Score: inf
ROOT
ATOM      1  C   UNL     1     -48.048 -49.495  17.763  1.00  0.00    -0.071 C 
ATOM      2  C   UNL     1     -47.951 -48.374  18.507  1.00  0.00    -0.023 C 
ATOM      3  C   UNL     1     -48.650 -48.257  19.838  1.00  0.00     0.057 C 
ATOM      4  C   UNL     1     -49.993 -48.960  19.804  1.00  0.00    -0.073 C 
ATOM      5  C   UNL     1     -50.982 -48.559  20.614  1.00  0.00     0.008 C 
ATOM      6  C   UNL     1     -50.207 -50.140  18.878  1.00  0.00     0.035 C 
ATOM      7  C   UNL     1     -48.880 -50.646  18.294  1.00  0.00     0.035 C 
ENDROOT
BRANCH   1   8
ATOM      8  C   UNL     1     -47.394 -49.563  16.392  1.00  0.00     0.008 C 
ATOM      9  C   UNL     1     -48.195 -50.459  15.440  1.00  0.00     0.012 C 
ATOM     10  C   UNL     1     -47.208 -48.160  15.806  1.00  0.00     0.012 C 
ENDBRANCH   1   8
TORSDOF 1
ENDMDL
MODEL 8
REMARK VINA RESULT:    -4.602     12.988     14.624
REMARK INTER + INTRA:          -5.054
REMARK INTER:                  -4.882
REMARK INTRA:                  -0.172
REMARK UNBOUND:                -0.183
REMARK SMILES C=C1CC=C(C(C)C)CC1
REMARK SMILES IDX 5 1 4 2 3 3 2 4 1 5 10 6 9 7 6 8 7 9 8 10
REMARK H PARENT
REMARK Flexibility Score: inf
ROOT
ATOM      1  C   UNL     1     -43.706 -51.071  31.288  1.00  0.00    -0.071 C 
ATOM      2  C   UNL     1     -44.117 -51.492  32.503  1.00  0.00    -0.023 C 
ATOM      3  C   UNL     1     -45.532 -51.265  32.970  1.00  0.00     0.057 C 
ATOM      4  C   UNL     1     -46.054 -49.929  32.478  1.00  0.00    -0.073 C 
ATOM      5  C   UNL     1     -47.008 -49.286  33.166  1.00  0.00     0.008 C 
ATOM      6  C   UNL     1     -45.523 -49.336  31.189  1.00  0.00     0.035 C 
ATOM      7  C   UNL     1     -44.704 -50.362  30.393  1.00  0.00     0.035 C 
ENDROOT
BRANCH   1   8
ATOM      8  C   UNL     1     -42.256 -51.246  30.867  1.00  0.00     0.008 C 
ATOM      9  C   UNL     1     -42.151 -51.610  29.381  1.00  0.00     0.012 C 
ATOM     10  C   UNL     1     -41.439 -49.990  31.188  1.00  0.00     0.012 C 
ENDBRANCH   1   8
TORSDOF 1
ENDMDL
MODEL 9
REMARK VINA RESULT:    -4.530      0.989      4.424
REMARK INTER + INTRA:          -4.978
REMARK INTER:                  -4.785
REMARK INTRA:                  -0.193
REMARK UNBOUND:                -0.183
REMARK SMILES C=C1CC=C(C(C)C)CC1
REMARK SMILES IDX 5 1 4 2 3 3 2 4 1 5 10 6 9 7 6 8 7 9 8 10
REMARK H PARENT
REMARK Flexibility Score: inf
ROOT
ATOM      1  C   UNL     1     -52.980 -47.563  22.630  1.00  0.00    -0.071 C 
ATOM      2  C   UNL     1     -53.300 -48.741  22.055  1.00  0.00    -0.023 C 
ATOM      3  C   UNL     1     -54.383 -48.830  21.009  1.00  0.00     0.057 C 
ATOM      4  C   UNL     1     -55.516 -47.874  21.322  1.00  0.00    -0.073 C 
ATOM      5  C   UNL     1     -56.757 -48.138  20.892  1.00  0.00     0.008 C 
ATOM      6  C   UNL     1     -55.240 -46.599  22.094  1.00  0.00     0.035 C 
ATOM      7  C   UNL     1     -53.733 -46.320  22.199  1.00  0.00     0.035 C 
ENDROOT
BRANCH   1   8
ATOM      8  C   UNL     1     -51.936 -47.509  23.734  1.00  0.00     0.008 C 
ATOM      9  C   UNL     1     -52.301 -46.458  24.789  1.00  0.00     0.012 C 
ATOM     10  C   UNL     1     -51.743 -48.889  24.371  1.00  0.00     0.012 C 
ENDBRANCH   1   8
TORSDOF 1
ENDMDL
