MODEL 1
REMARK VINA RESULT:    -1.019      0.000      0.000
REMARK INTER + INTRA:          -1.490
REMARK INTER:                  -1.496
REMARK INTRA:                   0.006
REMARK UNBOUND:                 0.006
REMARK SMILES O=C([O-])CCCCCCCC(=O)[O-]
REMARK SMILES IDX 7 1 6 2 5 3 4 4 2 5 1 6 3 7 8 8 9 9 10 10 11 11 12 12 13 13
REMARK H PARENT
REMARK Flexibility Score: inf
ROOT
ATOM      1  C   UNL     1      10.960  16.326   0.768  1.00  0.00     0.000 C 
ENDROOT
BRANCH   1   2
ATOM      2  C   UNL     1      11.260  15.670   2.124  1.00  0.00     0.000 C 
BRANCH   2   3
ATOM      3  C   UNL     1      12.364  14.600   2.040  1.00  0.00     0.006 C 
BRANCH   3   4
ATOM      4  C   UNL     1      11.886  13.237   1.514  1.00  0.00     0.053 C 
BRANCH   4   5
ATOM      5  C   UNL     1      12.033  13.126   0.028  1.00  0.00     0.041 C 
ATOM      6  O   UNL     1      13.160  12.889  -0.482  1.00  0.00    -0.550 OA
ATOM      7  O   UNL     1      10.931  13.319  -0.797  1.00  0.00    -0.550 OA
ENDBRANCH   4   5
ENDBRANCH   3   4
ENDBRANCH   2   3
ENDBRANCH   1   2
BRANCH   1   8
ATOM      8  C   UNL     1       9.533  16.894   0.738  1.00  0.00     0.000 C 
BRANCH   8   9
ATOM      9  C   UNL     1       8.865  16.891   2.122  1.00  0.00     0.006 C 
BRANCH   9  10
ATOM     10  C   UNL     1       7.443  16.314   2.090  1.00  0.00     0.053 C 
BRANCH  10  11
ATOM     11  C   UNL     1       7.488  14.820   2.058  1.00  0.00     0.041 C 
ATOM     12  O   UNL     1       8.594  14.217   2.082  1.00  0.00    -0.550 OA
ATOM     13  O   UNL     1       6.306  14.089   2.052  1.00  0.00    -0.550 OA
ENDBRANCH  10  11
ENDBRANCH   9  10
ENDBRANCH   8   9
ENDBRANCH   1   8
TORSDOF 8
ENDMDL
MODEL 2
REMARK VINA RESULT:     0.251      2.125      5.075
REMARK INTER + INTRA:           0.375
REMARK INTER:                  -0.651
REMARK INTRA:                   1.026
REMARK UNBOUND:                 0.006
REMARK SMILES O=C([O-])CCCCCCCC(=O)[O-]
REMARK SMILES IDX 7 1 6 2 5 3 4 4 2 5 1 6 3 7 8 8 9 9 10 10 11 11 12 12 13 13
REMARK H PARENT
REMARK Flexibility Score: inf
ROOT
ATOM      1  C   UNL     1      10.808  14.055  -0.582  1.00  0.00     0.000 C 
ENDROOT
BRANCH   1   2
ATOM      2  C   UNL     1       9.348  14.060  -0.103  1.00  0.00     0.000 C 
BRANCH   2   3
ATOM      3  C   UNL     1       9.093  15.072   1.028  1.00  0.00     0.006 C 
BRANCH   3   4
ATOM      4  C   UNL     1       8.115  14.582   2.108  1.00  0.00     0.053 C 
BRANCH   4   5
ATOM      5  C   UNL     1       6.752  15.182   1.946  1.00  0.00     0.041 C 
ATOM      6  O   UNL     1       5.762  14.447   1.691  1.00  0.00    -0.550 OA
ATOM      7  O   UNL     1       6.581  16.557   2.042  1.00  0.00    -0.550 OA
ENDBRANCH   4   5
ENDBRANCH   3   4
ENDBRANCH   2   3
ENDBRANCH   1   2
BRANCH   1   8
ATOM      8  C   UNL     1      11.616  12.962   0.135  1.00  0.00     0.000 C 
BRANCH   8   9
ATOM      9  C   UNL     1      12.498  13.521   1.262  1.00  0.00     0.006 C 
BRANCH   9  10
ATOM     10  C   UNL     1      11.768  14.559   2.125  1.00  0.00     0.053 C 
BRANCH  10  11
ATOM     11  C   UNL     1      12.246  15.937   1.799  1.00  0.00     0.041 C 
ATOM     12  O   UNL     1      13.419  16.288   2.093  1.00  0.00    -0.550 OA
ATOM     13  O   UNL     1      11.412  16.821   1.125  1.00  0.00    -0.550 OA
ENDBRANCH  10  11
ENDBRANCH   9  10
ENDBRANCH   8   9
ENDBRANCH   1   8
TORSDOF 8
ENDMDL
MODEL 3
REMARK VINA RESULT:     1.163      2.076      2.985
REMARK INTER + INTRA:           1.713
REMARK INTER:                   0.922
REMARK INTRA:                   0.790
REMARK UNBOUND:                 0.006
REMARK SMILES O=C([O-])CCCCCCCC(=O)[O-]
REMARK SMILES IDX 7 1 6 2 5 3 4 4 2 5 1 6 3 7 8 8 9 9 10 10 11 11 12 12 13 13
REMARK H PARENT
REMARK Flexibility Score: inf
ROOT
ATOM      1  C   UNL     1       9.232  14.915  -0.979  1.00  0.00     0.000 C 
ENDROOT
BRANCH   1   2
ATOM      2  C   UNL     1      10.616  14.311  -1.260  1.00  0.00     0.000 C 
BRANCH   2   3
ATOM      3  C   UNL     1      10.843  12.973  -0.534  1.00  0.00     0.006 C 
BRANCH   3   4
ATOM      4  C   UNL     1      12.186  12.875   0.209  1.00  0.00     0.053 C 
BRANCH   4   5
ATOM      5  C   UNL     1      12.152  13.586   1.526  1.00  0.00     0.041 C 
ATOM      6  O   UNL     1      11.050  13.835   2.084  1.00  0.00    -0.550 OA
ATOM      7  O   UNL     1      13.335  14.005   2.122  1.00  0.00    -0.550 OA
ENDBRANCH   4   5
ENDBRANCH   3   4
ENDBRANCH   2   3
ENDBRANCH   1   2
BRANCH   1   8
ATOM      8  C   UNL     1       8.429  14.022  -0.022  1.00  0.00     0.000 C 
BRANCH   8   9
ATOM      9  C   UNL     1       8.700  14.344   1.456  1.00  0.00     0.006 C 
BRANCH   9  10
ATOM     10  C   UNL     1       7.543  15.107   2.117  1.00  0.00     0.053 C 
BRANCH  10  11
ATOM     11  C   UNL     1       7.760  16.582   2.004  1.00  0.00     0.041 C 
ATOM     12  O   UNL     1       6.789  17.376   2.116  1.00  0.00    -0.550 OA
ATOM     13  O   UNL     1       9.042  17.085   1.823  1.00  0.00    -0.550 OA
ENDBRANCH  10  11
ENDBRANCH   9  10
ENDBRANCH   8   9
ENDBRANCH   1   8
TORSDOF 8
ENDMDL
