MODEL 1
REMARK VINA RESULT:    -4.486      0.000      0.000
REMARK INTER + INTRA:          -6.257
REMARK INTER:                  -6.059
REMARK INTRA:                  -0.197
REMARK UNBOUND:                -0.197
REMARK SMILES CCCCCCC=CC(=O)[O-]
REMARK SMILES IDX 5 1 6 2 7 3 8 4 9 5 10 6 11 7 4 8 3 9 2 10 1 11
REMARK H PARENT
REMARK Flexibility Score: inf
ROOT
ATOM      1  C   UNL     1      34.830  43.219  41.156  1.00  0.00     0.004 C 
ENDROOT
BRANCH   1   2
ATOM      2  C   UNL     1      34.249  44.527  41.715  1.00  0.00     0.027 C 
BRANCH   2   3
ATOM      3  C   UNL     1      33.167  44.251  42.724  1.00  0.00    -0.025 C 
ATOM      4  C   UNL     1      31.971  43.697  42.464  1.00  0.00     0.020 C 
BRANCH   4   5
ATOM      5  C   UNL     1      31.458  43.283  41.141  1.00  0.00     0.064 C 
ATOM      6  O   UNL     1      30.847  44.078  40.381  1.00  0.00    -0.545 OA
ATOM      7  O   UNL     1      31.639  41.967  40.735  1.00  0.00    -0.545 OA
ENDBRANCH   4   5
ENDBRANCH   2   3
ENDBRANCH   1   2
BRANCH   1   8
ATOM      8  C   UNL     1      35.376  43.379  39.728  1.00  0.00     0.000 C 
BRANCH   8   9
ATOM      9  C   UNL     1      35.568  42.032  39.016  1.00  0.00    -0.000 C 
BRANCH   9  10
ATOM     10  C   UNL     1      36.255  42.221  37.660  1.00  0.00    -0.003 C 
ATOM     11  C   UNL     1      36.510  43.698  37.372  1.00  0.00     0.004 C 
ENDBRANCH   9  10
ENDBRANCH   8   9
ENDBRANCH   1   8
TORSDOF 6
ENDMDL
MODEL 2
REMARK VINA RESULT:    -4.333      2.619      4.824
REMARK INTER + INTRA:          -6.051
REMARK INTER:                  -5.809
REMARK INTRA:                  -0.242
REMARK UNBOUND:                -0.197
REMARK SMILES CCCCCCC=CC(=O)[O-]
REMARK SMILES IDX 5 1 6 2 7 3 8 4 9 5 10 6 11 7 4 8 3 9 2 10 1 11
REMARK H PARENT
REMARK Flexibility Score: inf
ROOT
ATOM      1  C   UNL     1      34.055  44.940  41.928  1.00  0.00     0.004 C 
ENDROOT
BRANCH   1   2
ATOM      2  C   UNL     1      34.959  44.546  40.750  1.00  0.00     0.027 C 
BRANCH   2   3
ATOM      3  C   UNL     1      35.010  43.052  40.581  1.00  0.00    -0.025 C 
ATOM      4  C   UNL     1      35.525  42.396  39.528  1.00  0.00     0.020 C 
BRANCH   4   5
ATOM      5  C   UNL     1      36.108  42.998  38.311  1.00  0.00     0.064 C 
ATOM      6  O   UNL     1      36.633  44.142  38.316  1.00  0.00    -0.545 OA
ATOM      7  O   UNL     1      36.055  42.287  37.119  1.00  0.00    -0.545 OA
ENDBRANCH   4   5
ENDBRANCH   2   3
ENDBRANCH   1   2
BRANCH   1   8
ATOM      8  C   UNL     1      33.299  43.739  42.517  1.00  0.00     0.000 C 
BRANCH   8   9
ATOM      9  C   UNL     1      31.774  43.897  42.417  1.00  0.00    -0.000 C 
BRANCH   9  10
ATOM     10  C   UNL     1      31.253  43.357  41.081  1.00  0.00    -0.003 C 
ATOM     11  C   UNL     1      31.715  41.921  40.848  1.00  0.00     0.004 C 
ENDBRANCH   9  10
ENDBRANCH   8   9
ENDBRANCH   1   8
TORSDOF 6
ENDMDL
MODEL 3
REMARK VINA RESULT:    -4.219     11.841     12.690
REMARK INTER + INTRA:          -5.897
REMARK INTER:                  -6.050
REMARK INTRA:                   0.153
REMARK UNBOUND:                -0.197
REMARK SMILES CCCCCCC=CC(=O)[O-]
REMARK SMILES IDX 5 1 6 2 7 3 8 4 9 5 10 6 11 7 4 8 3 9 2 10 1 11
REMARK H PARENT
REMARK Flexibility Score: inf
ROOT
ATOM      1  C   UNL     1      25.173  52.320  37.966  1.00  0.00     0.004 C 
ENDROOT
BRANCH   1   2
ATOM      2  C   UNL     1      24.469  51.342  37.013  1.00  0.00     0.027 C 
BRANCH   2   3
ATOM      3  C   UNL     1      25.280  50.089  36.826  1.00  0.00    -0.025 C 
ATOM      4  C   UNL     1      24.852  48.951  36.253  1.00  0.00     0.020 C 
BRANCH   4   5
ATOM      5  C   UNL     1      23.497  48.683  35.728  1.00  0.00     0.064 C 
ATOM      6  O   UNL     1      22.486  49.315  36.131  1.00  0.00    -0.545 OA
ATOM      7  O   UNL     1      23.332  47.687  34.775  1.00  0.00    -0.545 OA
ENDBRANCH   4   5
ENDBRANCH   2   3
ENDBRANCH   1   2
BRANCH   1   8
ATOM      8  C   UNL     1      26.177  53.229  37.241  1.00  0.00     0.000 C 
BRANCH   8   9
ATOM      9  C   UNL     1      26.862  54.225  38.189  1.00  0.00    -0.000 C 
BRANCH   9  10
ATOM     10  C   UNL     1      28.349  53.895  38.352  1.00  0.00    -0.003 C 
ATOM     11  C   UNL     1      29.097  55.036  39.034  1.00  0.00     0.004 C 
ENDBRANCH   9  10
ENDBRANCH   8   9
ENDBRANCH   1   8
TORSDOF 6
ENDMDL
MODEL 4
REMARK VINA RESULT:    -4.203      1.076      1.401
REMARK INTER + INTRA:          -5.874
REMARK INTER:                  -5.585
REMARK INTRA:                  -0.289
REMARK UNBOUND:                -0.197
REMARK SMILES CCCCCCC=CC(=O)[O-]
REMARK SMILES IDX 5 1 6 2 7 3 8 4 9 5 10 6 11 7 4 8 3 9 2 10 1 11
REMARK H PARENT
REMARK Flexibility Score: inf
ROOT
ATOM      1  C   UNL     1      34.902  42.383  40.876  1.00  0.00     0.004 C 
ENDROOT
BRANCH   1   2
ATOM      2  C   UNL     1      34.475  43.834  40.607  1.00  0.00     0.027 C 
BRANCH   2   3
ATOM      3  C   UNL     1      34.220  44.571  41.894  1.00  0.00    -0.025 C 
ATOM      4  C   UNL     1      33.148  44.417  42.690  1.00  0.00     0.020 C 
BRANCH   4   5
ATOM      5  C   UNL     1      31.991  43.530  42.452  1.00  0.00     0.064 C 
ATOM      6  O   UNL     1      31.109  43.795  41.594  1.00  0.00    -0.545 OA
ATOM      7  O   UNL     1      31.862  42.377  43.215  1.00  0.00    -0.545 OA
ENDBRANCH   4   5
ENDBRANCH   2   3
ENDBRANCH   1   2
BRANCH   1   8
ATOM      8  C   UNL     1      35.938  41.875  39.861  1.00  0.00     0.000 C 
BRANCH   8   9
ATOM      9  C   UNL     1      35.671  42.390  38.439  1.00  0.00    -0.000 C 
BRANCH   9  10
ATOM     10  C   UNL     1      36.835  43.253  37.940  1.00  0.00    -0.003 C 
ATOM     11  C   UNL     1      36.448  44.030  36.686  1.00  0.00     0.004 C 
ENDBRANCH   9  10
ENDBRANCH   8   9
ENDBRANCH   1   8
TORSDOF 6
ENDMDL
MODEL 5
REMARK VINA RESULT:    -4.181     12.312     13.195
REMARK INTER + INTRA:          -5.845
REMARK INTER:                  -6.025
REMARK INTRA:                   0.180
REMARK UNBOUND:                -0.197
REMARK SMILES CCCCCCC=CC(=O)[O-]
REMARK SMILES IDX 5 1 6 2 7 3 8 4 9 5 10 6 11 7 4 8 3 9 2 10 1 11
REMARK H PARENT
REMARK Flexibility Score: inf
ROOT
ATOM      1  C   UNL     1      26.577  53.867  37.425  1.00  0.00     0.004 C 
ENDROOT
BRANCH   1   2
ATOM      2  C   UNL     1      27.485  54.674  38.367  1.00  0.00     0.027 C 
BRANCH   2   3
ATOM      3  C   UNL     1      28.799  53.976  38.584  1.00  0.00    -0.025 C 
ATOM      4  C   UNL     1      29.879  54.500  39.188  1.00  0.00     0.020 C 
BRANCH   4   5
ATOM      5  C   UNL     1      30.012  55.869  39.727  1.00  0.00     0.064 C 
ATOM      6  O   UNL     1      29.236  56.800  39.387  1.00  0.00    -0.545 OA
ATOM      7  O   UNL     1      31.040  56.142  40.619  1.00  0.00    -0.545 OA
ENDBRANCH   4   5
ENDBRANCH   2   3
ENDBRANCH   1   2
BRANCH   1   8
ATOM      8  C   UNL     1      25.789  52.773  38.160  1.00  0.00     0.000 C 
BRANCH   8   9
ATOM      9  C   UNL     1      24.880  51.969  37.219  1.00  0.00    -0.000 C 
BRANCH   9  10
ATOM     10  C   UNL     1      25.475  50.587  36.928  1.00  0.00    -0.003 C 
ATOM     11  C   UNL     1      24.394  49.600  36.498  1.00  0.00     0.004 C 
ENDBRANCH   9  10
ENDBRANCH   8   9
ENDBRANCH   1   8
TORSDOF 6
ENDMDL
MODEL 6
REMARK VINA RESULT:    -4.094      5.411      7.829
REMARK INTER + INTRA:          -5.728
REMARK INTER:                  -5.508
REMARK INTRA:                  -0.220
REMARK UNBOUND:                -0.197
REMARK SMILES CCCCCCC=CC(=O)[O-]
REMARK SMILES IDX 5 1 6 2 7 3 8 4 9 5 10 6 11 7 4 8 3 9 2 10 1 11
REMARK H PARENT
REMARK Flexibility Score: inf
ROOT
ATOM      1  C   UNL     1      36.004  44.955  35.804  1.00  0.00     0.004 C 
ENDROOT
BRANCH   1   2
ATOM      2  C   UNL     1      36.570  45.273  34.412  1.00  0.00     0.027 C 
BRANCH   2   3
ATOM      3  C   UNL     1      35.470  45.618  33.445  1.00  0.00    -0.025 C 
ATOM      4  C   UNL     1      35.323  46.790  32.806  1.00  0.00     0.020 C 
BRANCH   4   5
ATOM      5  C   UNL     1      36.179  47.986  32.946  1.00  0.00     0.064 C 
ATOM      6  O   UNL     1      37.125  48.229  32.151  1.00  0.00    -0.545 OA
ATOM      7  O   UNL     1      35.946  48.858  34.001  1.00  0.00    -0.545 OA
ENDBRANCH   4   5
ENDBRANCH   2   3
ENDBRANCH   1   2
BRANCH   1   8
ATOM      8  C   UNL     1      36.732  43.785  36.484  1.00  0.00     0.000 C 
BRANCH   8   9
ATOM      9  C   UNL     1      36.557  43.789  38.010  1.00  0.00    -0.000 C 
BRANCH   9  10
ATOM     10  C   UNL     1      35.985  42.455  38.501  1.00  0.00    -0.003 C 
ATOM     11  C   UNL     1      35.254  42.624  39.829  1.00  0.00     0.004 C 
ENDBRANCH   9  10
ENDBRANCH   8   9
ENDBRANCH   1   8
TORSDOF 6
ENDMDL
MODEL 7
REMARK VINA RESULT:    -4.065     11.496     12.640
REMARK INTER + INTRA:          -5.688
REMARK INTER:                  -5.867
REMARK INTRA:                   0.179
REMARK UNBOUND:                -0.197
REMARK SMILES CCCCCCC=CC(=O)[O-]
REMARK SMILES IDX 5 1 6 2 7 3 8 4 9 5 10 6 11 7 4 8 3 9 2 10 1 11
REMARK H PARENT
REMARK Flexibility Score: inf
ROOT
ATOM      1  C   UNL     1      24.983  52.567  37.066  1.00  0.00     0.004 C 
ENDROOT
BRANCH   1   2
ATOM      2  C   UNL     1      26.252  52.769  37.907  1.00  0.00     0.027 C 
BRANCH   2   3
ATOM      3  C   UNL     1      26.642  54.221  37.960  1.00  0.00    -0.025 C 
ATOM      4  C   UNL     1      27.841  54.702  38.331  1.00  0.00     0.020 C 
BRANCH   4   5
ATOM      5  C   UNL     1      29.002  53.915  38.796  1.00  0.00     0.064 C 
ATOM      6  O   UNL     1      28.981  52.658  38.848  1.00  0.00    -0.545 OA
ATOM      7  O   UNL     1      30.144  54.587  39.211  1.00  0.00    -0.545 OA
ENDBRANCH   4   5
ENDBRANCH   2   3
ENDBRANCH   1   2
BRANCH   1   8
ATOM      8  C   UNL     1      24.492  51.111  37.079  1.00  0.00     0.000 C 
BRANCH   8   9
ATOM      9  C   UNL     1      25.614  50.109  36.768  1.00  0.00    -0.000 C 
BRANCH   9  10
ATOM     10  C   UNL     1      25.039  48.777  36.274  1.00  0.00    -0.003 C 
ATOM     11  C   UNL     1      23.590  48.935  35.824  1.00  0.00     0.004 C 
ENDBRANCH   9  10
ENDBRANCH   8   9
ENDBRANCH   1   8
TORSDOF 6
ENDMDL
MODEL 8
REMARK VINA RESULT:    -4.011     11.453     12.348
REMARK INTER + INTRA:          -5.615
REMARK INTER:                  -5.794
REMARK INTRA:                   0.179
REMARK UNBOUND:                -0.197
REMARK SMILES CCCCCCC=CC(=O)[O-]
REMARK SMILES IDX 5 1 6 2 7 3 8 4 9 5 10 6 11 7 4 8 3 9 2 10 1 11
REMARK H PARENT
REMARK Flexibility Score: inf
ROOT
ATOM      1  C   UNL     1      26.196  53.833  38.094  1.00  0.00     0.004 C 
ENDROOT
BRANCH   1   2
ATOM      2  C   UNL     1      26.110  52.502  37.331  1.00  0.00     0.027 C 
BRANCH   2   3
ATOM      3  C   UNL     1      24.716  51.937  37.382  1.00  0.00    -0.025 C 
ATOM      4  C   UNL     1      24.357  50.692  37.024  1.00  0.00     0.020 C 
BRANCH   4   5
ATOM      5  C   UNL     1      25.240  49.642  36.476  1.00  0.00     0.064 C 
ATOM      6  O   UNL     1      26.495  49.740  36.504  1.00  0.00    -0.545 OA
ATOM      7  O   UNL     1      24.666  48.521  35.891  1.00  0.00    -0.545 OA
ENDBRANCH   4   5
ENDBRANCH   2   3
ENDBRANCH   1   2
BRANCH   1   8
ATOM      8  C   UNL     1      27.597  54.460  38.029  1.00  0.00     0.000 C 
BRANCH   8   9
ATOM      9  C   UNL     1      28.675  53.557  38.646  1.00  0.00    -0.000 C 
BRANCH   9  10
ATOM     10  C   UNL     1      29.930  54.363  39.000  1.00  0.00    -0.003 C 
ATOM     11  C   UNL     1      29.566  55.758  39.500  1.00  0.00     0.004 C 
ENDBRANCH   9  10
ENDBRANCH   8   9
ENDBRANCH   1   8
TORSDOF 6
ENDMDL
MODEL 9
REMARK VINA RESULT:    -4.003      2.727      4.247
REMARK INTER + INTRA:          -5.604
REMARK INTER:                  -5.471
REMARK INTRA:                  -0.133
REMARK UNBOUND:                -0.197
REMARK SMILES CCCCCCC=CC(=O)[O-]
REMARK SMILES IDX 5 1 6 2 7 3 8 4 9 5 10 6 11 7 4 8 3 9 2 10 1 11
REMARK H PARENT
REMARK Flexibility Score: inf
ROOT
ATOM      1  C   UNL     1      36.041  43.427  36.932  1.00  0.00     0.004 C 
ENDROOT
BRANCH   1   2
ATOM      2  C   UNL     1      36.143  43.709  38.439  1.00  0.00     0.027 C 
BRANCH   2   3
ATOM      3  C   UNL     1      35.661  42.533  39.244  1.00  0.00    -0.025 C 
ATOM      4  C   UNL     1      34.805  42.585  40.278  1.00  0.00     0.020 C 
BRANCH   4   5
ATOM      5  C   UNL     1      34.194  43.800  40.859  1.00  0.00     0.064 C 
ATOM      6  O   UNL     1      34.885  44.707  41.391  1.00  0.00    -0.545 OA
ATOM      7  O   UNL     1      32.812  43.932  40.836  1.00  0.00    -0.545 OA
ENDBRANCH   4   5
ENDBRANCH   2   3
ENDBRANCH   1   2
BRANCH   1   8
ATOM      8  C   UNL     1      36.530  44.605  36.076  1.00  0.00     0.000 C 
BRANCH   8   9
ATOM      9  C   UNL     1      35.557  44.953  34.940  1.00  0.00    -0.000 C 
BRANCH   9  10
ATOM     10  C   UNL     1      35.831  46.358  34.393  1.00  0.00    -0.003 C 
ATOM     11  C   UNL     1      35.419  46.470  32.928  1.00  0.00     0.004 C 
ENDBRANCH   9  10
ENDBRANCH   8   9
ENDBRANCH   1   8
TORSDOF 6
ENDMDL
