MODEL 1
REMARK VINA RESULT:    -2.542      0.000      0.000
REMARK INTER + INTRA:          -4.233
REMARK INTER:                  -3.879
REMARK INTRA:                  -0.354
REMARK UNBOUND:                -0.354
REMARK SMILES CC1=CCC[C@H](C)C(=O)C[C@@H](C(C)C)C(=O)C1
REMARK SMILES IDX 8 1 9 2 6 3 7 4 5 5 4 6 3 7 2 8 1 9 10 11 11 12 15 13 16 14
REMARK SMILES IDX 17 15 12 17 13 18 14 19
REMARK H PARENT
REMARK Flexibility Score: 70.00
ROOT
ATOM      1  C   UNL     1      22.894  37.032  87.713  1.00  0.00     0.136 C 
ATOM      2  O   UNL     1      24.055  37.337  87.942  1.00  0.00    -0.299 OA
ENDROOT
BRANCH   1   3
ATOM      3  C   UNL     1      22.386  37.025  86.288  1.00  0.00     0.053 C 
ATOM      4  C   UNL     1      22.656  38.367  85.596  1.00  0.00     0.016 C 
BRANCH   3   5
ATOM      5  C   UNL     1      23.044  35.849  85.524  1.00  0.00     0.015 C 
BRANCH   5   6
ATOM      6  C   UNL     1      22.147  34.620  85.278  1.00  0.00     0.028 C 
BRANCH   6   7
ATOM      7  C   UNL     1      20.661  34.792  85.515  1.00  0.00    -0.028 C 
ATOM      8  C   UNL     1      19.922  34.234  86.504  1.00  0.00    -0.070 CG0
ATOM      9  C   UNL     1      18.430  34.454  86.471  1.00  0.00     0.039 C 
ATOM     10  G   UNL     1      20.508  33.475  87.682  1.00  0.00     0.000 G0
ENDBRANCH   6   7
ENDBRANCH   5   6
ENDBRANCH   3   5
ENDBRANCH   1   3
BRANCH   1  11
ATOM     11  C   UNL     1      22.007  36.594  88.857  1.00  0.00     0.087 C 
BRANCH  11  12
ATOM     12  C   UNL     1      22.089  35.062  89.122  1.00  0.00     0.066 C 
BRANCH  12  13
ATOM     13  C   UNL     1      20.743  34.389  88.885  1.00  0.00     0.140 C 
ATOM     14  O   UNL     1      19.833  34.578  89.680  1.00  0.00    -0.299 OA
BRANCH  13  15
ATOM     15  C   UNL     1      20.500  33.472  87.703  1.00  0.00     0.106 CG0
ATOM     16  G   UNL     1      19.927  34.246  86.528  1.00  0.00     0.000 G0
ENDBRANCH  13  15
ENDBRANCH  12  13
BRANCH  12  17
ATOM     17  C   UNL     1      22.665  34.745  90.536  1.00  0.00    -0.006 C 
ATOM     18  C   UNL     1      23.821  35.691  90.898  1.00  0.00     0.008 C 
ATOM     19  C   UNL     1      23.099  33.282  90.726  1.00  0.00     0.008 C 
ENDBRANCH  12  17
ENDBRANCH  11  12
ENDBRANCH   1  11
TORSDOF 1
ENDMDL
MODEL 2
REMARK VINA RESULT:    -2.480      1.821      2.513
REMARK INTER + INTRA:          -4.139
REMARK INTER:                  -3.773
REMARK INTRA:                  -0.365
REMARK UNBOUND:                -0.354
REMARK SMILES CC1=CCC[C@H](C)C(=O)C[C@@H](C(C)C)C(=O)C1
REMARK SMILES IDX 8 1 9 2 6 3 7 4 5 5 4 6 3 7 2 8 1 9 10 11 11 12 15 13 16 14
REMARK SMILES IDX 17 15 12 17 13 18 14 19
REMARK H PARENT
REMARK Flexibility Score: 70.00
ROOT
ATOM      1  C   UNL     1      22.235  36.968  88.555  1.00  0.00     0.136 C 
ATOM      2  O   UNL     1      23.267  36.854  89.201  1.00  0.00    -0.299 OA
ENDROOT
BRANCH   1   3
ATOM      3  C   UNL     1      22.020  38.196  87.697  1.00  0.00     0.053 C 
ATOM      4  C   UNL     1      22.105  39.479  88.532  1.00  0.00     0.016 C 
BRANCH   3   5
ATOM      5  C   UNL     1      23.057  38.196  86.547  1.00  0.00     0.015 C 
BRANCH   5   6
ATOM      6  C   UNL     1      22.555  37.670  85.187  1.00  0.00     0.028 C 
BRANCH   6   7
ATOM      7  C   UNL     1      21.064  37.453  85.040  1.00  0.00    -0.028 C 
ATOM      8  C   UNL     1      20.418  36.265  84.947  1.00  0.00    -0.070 CG0
ATOM      9  C   UNL     1      18.932  36.297  84.686  1.00  0.00     0.039 C 
ATOM     10  G   UNL     1      21.076  34.915  85.173  1.00  0.00     0.000 G0
ENDBRANCH   6   7
ENDBRANCH   5   6
ENDBRANCH   3   5
ENDBRANCH   1   3
BRANCH   1  11
ATOM     11  C   UNL     1      21.227  35.842  88.569  1.00  0.00     0.087 C 
BRANCH  11  12
ATOM     12  C   UNL     1      21.698  34.610  87.744  1.00  0.00     0.066 C 
BRANCH  12  13
ATOM     13  C   UNL     1      20.778  34.356  86.556  1.00  0.00     0.140 C 
ATOM     14  O   UNL     1      19.773  33.677  86.715  1.00  0.00    -0.299 OA
BRANCH  13  15
ATOM     15  C   UNL     1      21.079  34.901  85.174  1.00  0.00     0.106 CG0
ATOM     16  G   UNL     1      20.421  36.255  84.974  1.00  0.00     0.000 G0
ENDBRANCH  13  15
ENDBRANCH  12  13
BRANCH  12  17
ATOM     17  C   UNL     1      21.871  33.342  88.636  1.00  0.00    -0.006 C 
ATOM     18  C   UNL     1      21.073  33.463  89.945  1.00  0.00     0.008 C 
ATOM     19  C   UNL     1      23.335  32.981  88.940  1.00  0.00     0.008 C 
ENDBRANCH  12  17
ENDBRANCH  11  12
ENDBRANCH   1  11
TORSDOF 1
ENDMDL
MODEL 3
REMARK VINA RESULT:    -2.457      2.401      4.159
REMARK INTER + INTRA:          -4.103
REMARK INTER:                  -3.808
REMARK INTRA:                  -0.296
REMARK UNBOUND:                -0.354
REMARK SMILES CC1=CCC[C@H](C)C(=O)C[C@@H](C(C)C)C(=O)C1
REMARK SMILES IDX 8 1 9 2 6 3 7 4 5 5 4 6 3 7 2 8 1 9 10 11 11 12 15 13 16 14
REMARK SMILES IDX 17 15 12 17 13 18 14 19
REMARK H PARENT
REMARK Flexibility Score: 70.00
ROOT
ATOM      1  C   UNL     1      20.305  36.335  85.695  1.00  0.00     0.136 C 
ATOM      2  O   UNL     1      19.839  37.017  84.793  1.00  0.00    -0.299 OA
ENDROOT
BRANCH   1   3
ATOM      3  C   UNL     1      21.105  35.095  85.362  1.00  0.00     0.053 C 
ATOM      4  C   UNL     1      20.521  34.368  84.144  1.00  0.00     0.016 C 
BRANCH   3   5
ATOM      5  C   UNL     1      22.583  35.495  85.131  1.00  0.00     0.015 C 
BRANCH   5   6
ATOM      6  C   UNL     1      23.588  35.002  86.191  1.00  0.00     0.028 C 
BRANCH   6   7
ATOM      7  C   UNL     1      23.026  34.236  87.370  1.00  0.00    -0.028 C 
ATOM      8  C   UNL     1      22.906  34.676  88.646  1.00  0.00    -0.070 CG0
ATOM      9  C   UNL     1      22.424  33.691  89.682  1.00  0.00     0.039 C 
ATOM     10  G   UNL     1      23.144  36.112  89.080  1.00  0.00     0.000 G0
ENDBRANCH   6   7
ENDBRANCH   5   6
ENDBRANCH   3   5
ENDBRANCH   1   3
BRANCH   1  11
ATOM     11  C   UNL     1      20.133  36.789  87.128  1.00  0.00     0.087 C 
BRANCH  11  12
ATOM     12  C   UNL     1      21.388  37.531  87.672  1.00  0.00     0.066 C 
BRANCH  12  13
ATOM     13  C   UNL     1      21.862  36.922  88.986  1.00  0.00     0.140 C 
ATOM     14  O   UNL     1      21.203  37.103  89.999  1.00  0.00    -0.299 OA
BRANCH  13  15
ATOM     15  C   UNL     1      23.141  36.113  89.083  1.00  0.00     0.106 CG0
ATOM     16  G   UNL     1      22.903  34.675  88.654  1.00  0.00     0.000 G0
ENDBRANCH  13  15
ENDBRANCH  12  13
BRANCH  12  17
ATOM     17  C   UNL     1      21.153  39.068  87.787  1.00  0.00    -0.006 C 
ATOM     18  C   UNL     1      19.696  39.439  87.467  1.00  0.00     0.008 C 
ATOM     19  C   UNL     1      22.114  39.918  86.938  1.00  0.00     0.008 C 
ENDBRANCH  12  17
ENDBRANCH  11  12
ENDBRANCH   1  11
TORSDOF 1
ENDMDL
MODEL 4
REMARK VINA RESULT:    -2.428      2.243      3.695
REMARK INTER + INTRA:          -4.059
REMARK INTER:                  -3.999
REMARK INTRA:                  -0.060
REMARK UNBOUND:                -0.354
REMARK SMILES CC1=CCC[C@H](C)C(=O)C[C@@H](C(C)C)C(=O)C1
REMARK SMILES IDX 8 1 9 2 6 3 7 4 5 5 4 6 3 7 2 8 1 9 10 11 11 12 15 13 16 14
REMARK SMILES IDX 17 15 12 17 13 18 14 19
REMARK H PARENT
REMARK Flexibility Score: 70.00
ROOT
ATOM      1  C   UNL     1      21.291  34.603  86.250  1.00  0.00     0.136 C 
ATOM      2  O   UNL     1      20.142  34.449  86.639  1.00  0.00    -0.299 OA
ENDROOT
BRANCH   1   3
ATOM      3  C   UNL     1      21.549  35.043  84.826  1.00  0.00     0.053 C 
ATOM      4  C   UNL     1      20.571  34.373  83.852  1.00  0.00     0.016 C 
BRANCH   3   5
ATOM      5  C   UNL     1      21.458  36.587  84.750  1.00  0.00     0.015 C 
BRANCH   5   6
ATOM      6  C   UNL     1      22.611  37.364  85.416  1.00  0.00     0.028 C 
BRANCH   6   7
ATOM      7  C   UNL     1      22.255  38.259  86.584  1.00  0.00    -0.028 C 
ATOM      8  C   UNL     1      22.503  38.026  87.896  1.00  0.00    -0.070 CG0
ATOM      9  C   UNL     1      21.948  39.009  88.897  1.00  0.00     0.039 C 
ATOM     10  G   UNL     1      23.370  36.892  88.412  1.00  0.00     0.000 G0
ENDBRANCH   6   7
ENDBRANCH   5   6
ENDBRANCH   3   5
ENDBRANCH   1   3
BRANCH   1  11
ATOM     11  C   UNL     1      22.431  34.422  87.227  1.00  0.00     0.087 C 
BRANCH  11  12
ATOM     12  C   UNL     1      21.990  34.637  88.704  1.00  0.00     0.066 C 
BRANCH  12  13
ATOM     13  C   UNL     1      22.575  35.924  89.272  1.00  0.00     0.140 C 
ATOM     14  O   UNL     1      22.384  36.197  90.449  1.00  0.00    -0.299 OA
BRANCH  13  15
ATOM     15  C   UNL     1      23.371  36.892  88.419  1.00  0.00     0.106 CG0
ATOM     16  G   UNL     1      22.485  38.014  87.908  1.00  0.00     0.000 G0
ENDBRANCH  13  15
ENDBRANCH  12  13
BRANCH  12  17
ATOM     17  C   UNL     1      22.314  33.399  89.595  1.00  0.00    -0.006 C 
ATOM     18  C   UNL     1      23.823  33.108  89.626  1.00  0.00     0.008 C 
ATOM     19  C   UNL     1      21.538  32.127  89.213  1.00  0.00     0.008 C 
ENDBRANCH  12  17
ENDBRANCH  11  12
ENDBRANCH   1  11
TORSDOF 1
ENDMDL
MODEL 5
REMARK VINA RESULT:    -2.394     11.599     13.240
REMARK INTER + INTRA:          -4.008
REMARK INTER:                  -4.320
REMARK INTRA:                   0.312
REMARK UNBOUND:                -0.354
REMARK SMILES CC1=CCC[C@H](C)C(=O)C[C@@H](C(C)C)C(=O)C1
REMARK SMILES IDX 8 1 9 2 6 3 7 4 5 5 4 6 3 7 2 8 1 9 10 11 11 12 15 13 16 14
REMARK SMILES IDX 17 15 12 17 13 18 14 19
REMARK H PARENT
REMARK Flexibility Score: 70.00
ROOT
ATOM      1  C   UNL     1      28.551  44.693  81.013  1.00  0.00     0.136 C 
ATOM      2  O   UNL     1      27.822  43.800  80.606  1.00  0.00    -0.299 OA
ENDROOT
BRANCH   1   3
ATOM      3  C   UNL     1      28.631  46.001  80.256  1.00  0.00     0.053 C 
ATOM      4  C   UNL     1      29.583  45.892  79.059  1.00  0.00     0.016 C 
BRANCH   3   5
ATOM      5  C   UNL     1      27.206  46.416  79.814  1.00  0.00     0.015 C 
BRANCH   5   6
ATOM      6  C   UNL     1      26.326  47.065  80.899  1.00  0.00     0.028 C 
BRANCH   6   7
ATOM      7  C   UNL     1      25.410  46.148  81.683  1.00  0.00    -0.028 C 
ATOM      8  C   UNL     1      25.509  45.823  82.994  1.00  0.00    -0.070 CG0
ATOM      9  C   UNL     1      24.548  44.792  83.533  1.00  0.00     0.039 C 
ATOM     10  G   UNL     1      26.466  46.487  83.969  1.00  0.00     0.000 G0
ENDBRANCH   6   7
ENDBRANCH   5   6
ENDBRANCH   3   5
ENDBRANCH   1   3
BRANCH   1  11
ATOM     11  C   UNL     1      29.303  44.498  82.311  1.00  0.00     0.087 C 
BRANCH  11  12
ATOM     12  C   UNL     1      28.394  44.691  83.560  1.00  0.00     0.066 C 
BRANCH  12  13
ATOM     13  C   UNL     1      27.916  46.133  83.677  1.00  0.00     0.140 C 
ATOM     14  O   UNL     1      28.723  47.042  83.539  1.00  0.00    -0.299 OA
BRANCH  13  15
ATOM     15  C   UNL     1      26.472  46.479  83.982  1.00  0.00     0.106 CG0
ATOM     16  G   UNL     1      25.537  45.820  82.982  1.00  0.00     0.000 G0
ENDBRANCH  13  15
ENDBRANCH  12  13
BRANCH  12  17
ATOM     17  C   UNL     1      29.086  44.192  84.866  1.00  0.00    -0.006 C 
ATOM     18  C   UNL     1      28.738  45.089  86.064  1.00  0.00     0.008 C 
ATOM     19  C   UNL     1      30.612  44.033  84.749  1.00  0.00     0.008 C 
ENDBRANCH  12  17
ENDBRANCH  11  12
ENDBRANCH   1  11
TORSDOF 1
ENDMDL
MODEL 6
REMARK VINA RESULT:    -2.375      2.746      5.224
REMARK INTER + INTRA:          -3.978
REMARK INTER:                  -3.888
REMARK INTRA:                  -0.091
REMARK UNBOUND:                -0.354
REMARK SMILES CC1=CCC[C@H](C)C(=O)C[C@@H](C(C)C)C(=O)C1
REMARK SMILES IDX 8 1 9 2 6 3 7 4 5 5 4 6 3 7 2 8 1 9 10 11 11 12 15 13 16 14
REMARK SMILES IDX 17 15 12 17 13 18 14 19
REMARK H PARENT
REMARK Flexibility Score: 70.00
ROOT
ATOM      1  C   UNL     1      21.544  34.774  87.478  1.00  0.00     0.136 C 
ATOM      2  O   UNL     1      20.960  33.700  87.476  1.00  0.00    -0.299 OA
ENDROOT
BRANCH   1   3
ATOM      3  C   UNL     1      23.056  34.806  87.519  1.00  0.00     0.053 C 
ATOM      4  C   UNL     1      23.641  35.176  86.150  1.00  0.00     0.016 C 
BRANCH   3   5
ATOM      5  C   UNL     1      23.511  35.797  88.618  1.00  0.00     0.015 C 
BRANCH   5   6
ATOM      6  C   UNL     1      24.079  37.141  88.120  1.00  0.00     0.028 C 
BRANCH   6   7
ATOM      7  C   UNL     1      23.306  38.392  88.483  1.00  0.00    -0.028 C 
ATOM      8  C   UNL     1      22.609  39.192  87.641  1.00  0.00    -0.070 CG0
ATOM      9  C   UNL     1      22.014  40.457  88.211  1.00  0.00     0.039 C 
ATOM     10  G   UNL     1      22.319  38.857  86.188  1.00  0.00     0.000 G0
ENDBRANCH   6   7
ENDBRANCH   5   6
ENDBRANCH   3   5
ENDBRANCH   1   3
BRANCH   1  11
ATOM     11  C   UNL     1      20.742  36.051  87.365  1.00  0.00     0.087 C 
BRANCH  11  12
ATOM     12  C   UNL     1      20.824  36.682  85.945  1.00  0.00     0.066 C 
BRANCH  12  13
ATOM     13  C   UNL     1      20.959  38.198  86.021  1.00  0.00     0.140 C 
ATOM     14  O   UNL     1      19.955  38.891  85.940  1.00  0.00    -0.299 OA
BRANCH  13  15
ATOM     15  C   UNL     1      22.305  38.879  86.174  1.00  0.00     0.106 CG0
ATOM     16  G   UNL     1      22.596  39.175  87.635  1.00  0.00     0.000 G0
ENDBRANCH  13  15
ENDBRANCH  12  13
BRANCH  12  17
ATOM     17  C   UNL     1      19.631  36.242  85.042  1.00  0.00    -0.006 C 
ATOM     18  C   UNL     1      18.337  36.086  85.856  1.00  0.00     0.008 C 
ATOM     19  C   UNL     1      19.898  34.967  84.222  1.00  0.00     0.008 C 
ENDBRANCH  12  17
ENDBRANCH  11  12
ENDBRANCH   1  11
TORSDOF 1
ENDMDL
MODEL 7
REMARK VINA RESULT:    -2.367      2.452      4.102
REMARK INTER + INTRA:          -3.966
REMARK INTER:                  -4.233
REMARK INTRA:                   0.267
REMARK UNBOUND:                -0.354
REMARK SMILES CC1=CCC[C@H](C)C(=O)C[C@@H](C(C)C)C(=O)C1
REMARK SMILES IDX 8 1 9 2 6 3 7 4 5 5 4 6 3 7 2 8 1 9 10 11 11 12 15 13 16 14
REMARK SMILES IDX 17 15 12 17 13 18 14 19
REMARK H PARENT
REMARK Flexibility Score: 70.00
ROOT
ATOM      1  C   UNL     1      22.562  35.020  86.172  1.00  0.00     0.136 C 
ATOM      2  O   UNL     1      22.971  35.281  85.050  1.00  0.00    -0.299 OA
ENDROOT
BRANCH   1   3
ATOM      3  C   UNL     1      21.177  34.438  86.350  1.00  0.00     0.053 C 
ATOM      4  C   UNL     1      21.048  33.713  87.695  1.00  0.00     0.016 C 
BRANCH   3   5
ATOM      5  C   UNL     1      20.132  35.572  86.213  1.00  0.00     0.015 C 
BRANCH   5   6
ATOM      6  C   UNL     1      20.660  36.913  85.663  1.00  0.00     0.028 C 
BRANCH   6   7
ATOM      7  C   UNL     1      20.511  38.129  86.554  1.00  0.00    -0.028 C 
ATOM      8  C   UNL     1      21.504  38.817  87.167  1.00  0.00    -0.070 CG0
ATOM      9  C   UNL     1      21.107  39.929  88.105  1.00  0.00     0.039 C 
ATOM     10  G   UNL     1      22.984  38.595  86.906  1.00  0.00     0.000 G0
ENDBRANCH   6   7
ENDBRANCH   5   6
ENDBRANCH   3   5
ENDBRANCH   1   3
BRANCH   1  11
ATOM     11  C   UNL     1      23.482  35.216  87.357  1.00  0.00     0.087 C 
BRANCH  11  12
ATOM     12  C   UNL     1      22.996  36.350  88.306  1.00  0.00     0.066 C 
BRANCH  12  13
ATOM     13  C   UNL     1      23.622  37.688  87.931  1.00  0.00     0.140 C 
ATOM     14  O   UNL     1      24.648  38.045  88.494  1.00  0.00    -0.299 OA
BRANCH  13  15
ATOM     15  C   UNL     1      23.002  38.605  86.896  1.00  0.00     0.106 CG0
ATOM     16  G   UNL     1      21.521  38.805  87.171  1.00  0.00     0.000 G0
ENDBRANCH  13  15
ENDBRANCH  12  13
BRANCH  12  17
ATOM     17  C   UNL     1      23.226  35.992  89.806  1.00  0.00    -0.006 C 
ATOM     18  C   UNL     1      23.836  34.591  89.963  1.00  0.00     0.008 C 
ATOM     19  C   UNL     1      21.969  36.123  90.684  1.00  0.00     0.008 C 
ENDBRANCH  12  17
ENDBRANCH  11  12
ENDBRANCH   1  11
TORSDOF 1
ENDMDL
MODEL 8
REMARK VINA RESULT:    -2.312     10.535     11.974
REMARK INTER + INTRA:          -3.882
REMARK INTER:                  -3.906
REMARK INTRA:                   0.024
REMARK UNBOUND:                -0.354
REMARK SMILES CC1=CCC[C@H](C)C(=O)C[C@@H](C(C)C)C(=O)C1
REMARK SMILES IDX 8 1 9 2 6 3 7 4 5 5 4 6 3 7 2 8 1 9 10 11 11 12 15 13 16 14
REMARK SMILES IDX 17 15 12 17 13 18 14 19
REMARK H PARENT
REMARK Flexibility Score: 70.00
ROOT
ATOM      1  C   UNL     1      27.259  44.723  84.584  1.00  0.00     0.136 C 
ATOM      2  O   UNL     1      27.326  45.368  83.547  1.00  0.00    -0.299 OA
ENDROOT
BRANCH   1   3
ATOM      3  C   UNL     1      28.525  44.388  85.342  1.00  0.00     0.053 C 
ATOM      4  C   UNL     1      29.752  44.440  84.425  1.00  0.00     0.016 C 
BRANCH   3   5
ATOM      5  C   UNL     1      28.668  45.361  86.538  1.00  0.00     0.015 C 
BRANCH   5   6
ATOM      6  C   UNL     1      28.411  44.758  87.933  1.00  0.00     0.028 C 
BRANCH   6   7
ATOM      7  C   UNL     1      27.520  45.546  88.871  1.00  0.00    -0.028 C 
ATOM      8  C   UNL     1      26.168  45.621  88.841  1.00  0.00    -0.070 CG0
ATOM      9  C   UNL     1      25.499  46.567  89.807  1.00  0.00     0.039 C 
ATOM     10  G   UNL     1      25.284  44.757  87.959  1.00  0.00     0.000 G0
ENDBRANCH   6   7
ENDBRANCH   5   6
ENDBRANCH   3   5
ENDBRANCH   1   3
BRANCH   1  11
ATOM     11  C   UNL     1      25.902  44.335  85.125  1.00  0.00     0.087 C 
BRANCH  11  12
ATOM     12  C   UNL     1      25.009  45.572  85.435  1.00  0.00     0.066 C 
BRANCH  12  13
ATOM     13  C   UNL     1      24.570  45.584  86.895  1.00  0.00     0.140 C 
ATOM     14  O   UNL     1      23.636  46.298  87.230  1.00  0.00    -0.299 OA
BRANCH  13  15
ATOM     15  C   UNL     1      25.270  44.753  87.952  1.00  0.00     0.106 CG0
ATOM     16  G   UNL     1      26.162  45.624  88.819  1.00  0.00     0.000 G0
ENDBRANCH  13  15
ENDBRANCH  12  13
BRANCH  12  17
ATOM     17  C   UNL     1      23.800  45.679  84.456  1.00  0.00    -0.006 C 
ATOM     18  C   UNL     1      23.958  44.725  83.262  1.00  0.00     0.008 C 
ATOM     19  C   UNL     1      23.516  47.107  83.958  1.00  0.00     0.008 C 
ENDBRANCH  12  17
ENDBRANCH  11  12
ENDBRANCH   1  11
TORSDOF 1
ENDMDL
MODEL 9
REMARK VINA RESULT:    -2.276     10.706     12.235
REMARK INTER + INTRA:          -3.827
REMARK INTER:                  -3.903
REMARK INTRA:                   0.076
REMARK UNBOUND:                -0.354
REMARK SMILES CC1=CCC[C@H](C)C(=O)C[C@@H](C(C)C)C(=O)C1
REMARK SMILES IDX 8 1 9 2 6 3 7 4 5 5 4 6 3 7 2 8 1 9 10 11 11 12 15 13 16 14
REMARK SMILES IDX 17 15 12 17 13 18 14 19
REMARK H PARENT
REMARK Flexibility Score: 70.00
ROOT
ATOM      1  C   UNL     1      29.285  44.686  85.636  1.00  0.00     0.136 C 
ATOM      2  O   UNL     1      29.399  43.871  86.540  1.00  0.00    -0.299 OA
ENDROOT
BRANCH   1   3
ATOM      3  C   UNL     1      30.242  44.647  84.465  1.00  0.00     0.053 C 
ATOM      4  C   UNL     1      31.359  43.621  84.695  1.00  0.00     0.016 C 
BRANCH   3   5
ATOM      5  C   UNL     1      29.447  44.340  83.173  1.00  0.00     0.015 C 
BRANCH   5   6
ATOM      6  C   UNL     1      28.946  45.566  82.383  1.00  0.00     0.028 C 
BRANCH   6   7
ATOM      7  C   UNL     1      27.607  45.436  81.686  1.00  0.00    -0.028 C 
ATOM      8  C   UNL     1      26.382  45.637  82.229  1.00  0.00    -0.070 CG0
ATOM      9  C   UNL     1      25.179  45.333  81.371  1.00  0.00     0.039 C 
ATOM     10  G   UNL     1      26.146  46.226  83.609  1.00  0.00     0.000 G0
ENDBRANCH   6   7
ENDBRANCH   5   6
ENDBRANCH   3   5
ENDBRANCH   1   3
BRANCH   1  11
ATOM     11  C   UNL     1      28.140  45.673  85.672  1.00  0.00     0.087 C 
BRANCH  11  12
ATOM     12  C   UNL     1      26.761  44.978  85.870  1.00  0.00     0.066 C 
BRANCH  12  13
ATOM     13  C   UNL     1      25.873  45.154  84.644  1.00  0.00     0.140 C 
ATOM     14  O   UNL     1      24.931  44.393  84.476  1.00  0.00    -0.299 OA
BRANCH  13  15
ATOM     15  C   UNL     1      26.132  46.234  83.612  1.00  0.00     0.106 CG0
ATOM     16  G   UNL     1      26.387  45.622  82.245  1.00  0.00     0.000 G0
ENDBRANCH  13  15
ENDBRANCH  12  13
BRANCH  12  17
ATOM     17  C   UNL     1      26.056  45.445  87.180  1.00  0.00    -0.006 C 
ATOM     18  C   UNL     1      26.859  46.548  87.889  1.00  0.00     0.008 C 
ATOM     19  C   UNL     1      25.738  44.306  88.165  1.00  0.00     0.008 C 
ENDBRANCH  12  17
ENDBRANCH  11  12
ENDBRANCH   1  11
TORSDOF 1
ENDMDL
