MODEL 1
REMARK VINA RESULT:    -2.882      0.000      0.000
REMARK INTER + INTRA:          -3.500
REMARK INTER:                  -3.388
REMARK INTRA:                  -0.113
REMARK UNBOUND:                -0.113
REMARK SMILES O=C([O-])CCC(=O)[O-]
REMARK SMILES IDX 4 1 2 2 1 3 3 4 5 5 6 6 7 7 8 8
REMARK H PARENT
REMARK Flexibility Score: inf
ROOT
ATOM      1  C   UNL     1      56.394  23.187  48.412  1.00  0.00     0.059 C 
ENDROOT
BRANCH   1   2
ATOM      2  C   UNL     1      55.288  23.875  47.670  1.00  0.00     0.042 C 
ATOM      3  O   UNL     1      55.553  24.768  46.824  1.00  0.00    -0.550 OA
ATOM      4  O   UNL     1      53.964  23.557  47.944  1.00  0.00    -0.550 OA
ENDBRANCH   1   2
BRANCH   1   5
ATOM      5  C   UNL     1      56.676  21.794  47.839  1.00  0.00     0.059 C 
BRANCH   5   6
ATOM      6  C   UNL     1      56.210  20.711  48.764  1.00  0.00     0.042 C 
ATOM      7  O   UNL     1      56.282  19.504  48.412  1.00  0.00    -0.550 OA
ATOM      8  O   UNL     1      55.657  21.037  49.995  1.00  0.00    -0.550 OA
ENDBRANCH   5   6
ENDBRANCH   1   5
TORSDOF 3
ENDMDL
MODEL 2
REMARK VINA RESULT:    -2.882      0.093      3.820
REMARK INTER + INTRA:          -3.500
REMARK INTER:                  -3.386
REMARK INTRA:                  -0.113
REMARK UNBOUND:                -0.113
REMARK SMILES O=C([O-])CCC(=O)[O-]
REMARK SMILES IDX 4 1 2 2 1 3 3 4 5 5 6 6 7 7 8 8
REMARK H PARENT
REMARK Flexibility Score: inf
ROOT
ATOM      1  C   UNL     1      56.649  21.821  47.867  1.00  0.00     0.059 C 
ENDROOT
BRANCH   1   2
ATOM      2  C   UNL     1      56.207  20.708  48.768  1.00  0.00     0.042 C 
ATOM      3  O   UNL     1      56.331  19.510  48.400  1.00  0.00    -0.550 OA
ATOM      4  O   UNL     1      55.622  20.996  49.993  1.00  0.00    -0.550 OA
ENDBRANCH   1   2
BRANCH   1   5
ATOM      5  C   UNL     1      56.313  23.194  48.459  1.00  0.00     0.059 C 
BRANCH   5   6
ATOM      6  C   UNL     1      55.183  23.851  47.726  1.00  0.00     0.042 C 
ATOM      7  O   UNL     1      55.420  24.732  46.858  1.00  0.00    -0.550 OA
ATOM      8  O   UNL     1      53.870  23.520  48.031  1.00  0.00    -0.550 OA
ENDBRANCH   5   6
ENDBRANCH   1   5
TORSDOF 3
ENDMDL
MODEL 3
REMARK VINA RESULT:    -2.789      1.548      1.964
REMARK INTER + INTRA:          -3.391
REMARK INTER:                  -3.350
REMARK INTRA:                  -0.041
REMARK UNBOUND:                -0.113
REMARK SMILES O=C([O-])CCC(=O)[O-]
REMARK SMILES IDX 4 1 2 2 1 3 3 4 5 5 6 6 7 7 8 8
REMARK H PARENT
REMARK Flexibility Score: inf
ROOT
ATOM      1  C   UNL     1      56.793  22.499  47.687  1.00  0.00     0.059 C 
ENDROOT
BRANCH   1   2
ATOM      2  C   UNL     1      57.128  23.919  47.343  1.00  0.00     0.042 C 
ATOM      3  O   UNL     1      56.659  24.863  48.029  1.00  0.00    -0.550 OA
ATOM      4  O   UNL     1      57.924  24.198  46.240  1.00  0.00    -0.550 OA
ENDBRANCH   1   2
BRANCH   1   5
ATOM      5  C   UNL     1      55.761  22.420  48.816  1.00  0.00     0.059 C 
BRANCH   5   6
ATOM      6  C   UNL     1      55.723  21.057  49.438  1.00  0.00     0.042 C 
ATOM      7  O   UNL     1      56.376  20.110  48.926  1.00  0.00    -0.550 OA
ATOM      8  O   UNL     1      54.934  20.824  50.557  1.00  0.00    -0.550 OA
ENDBRANCH   5   6
ENDBRANCH   1   5
TORSDOF 3
ENDMDL
MODEL 4
REMARK VINA RESULT:    -2.784      1.628      1.779
REMARK INTER + INTRA:          -3.385
REMARK INTER:                  -3.345
REMARK INTRA:                  -0.040
REMARK UNBOUND:                -0.113
REMARK SMILES O=C([O-])CCC(=O)[O-]
REMARK SMILES IDX 4 1 2 2 1 3 3 4 5 5 6 6 7 7 8 8
REMARK H PARENT
REMARK Flexibility Score: inf
ROOT
ATOM      1  C   UNL     1      56.790  22.506  47.639  1.00  0.00     0.059 C 
ENDROOT
BRANCH   1   2
ATOM      2  C   UNL     1      57.199  23.923  47.374  1.00  0.00     0.042 C 
ATOM      3  O   UNL     1      57.906  24.201  46.370  1.00  0.00    -0.550 OA
ATOM      4  O   UNL     1      56.834  24.930  48.259  1.00  0.00    -0.550 OA
ENDBRANCH   1   2
BRANCH   1   5
ATOM      5  C   UNL     1      55.771  22.416  48.780  1.00  0.00     0.059 C 
BRANCH   5   6
ATOM      6  C   UNL     1      55.743  21.048  49.390  1.00  0.00     0.042 C 
ATOM      7  O   UNL     1      56.330  20.089  48.822  1.00  0.00    -0.550 OA
ATOM      8  O   UNL     1      55.033  20.823  50.562  1.00  0.00    -0.550 OA
ENDBRANCH   5   6
ENDBRANCH   1   5
TORSDOF 3
ENDMDL
MODEL 5
REMARK VINA RESULT:    -2.782      1.565      3.806
REMARK INTER + INTRA:          -3.382
REMARK INTER:                  -3.343
REMARK INTRA:                  -0.039
REMARK UNBOUND:                -0.113
REMARK SMILES O=C([O-])CCC(=O)[O-]
REMARK SMILES IDX 4 1 2 2 1 3 3 4 5 5 6 6 7 7 8 8
REMARK H PARENT
REMARK Flexibility Score: inf
ROOT
ATOM      1  C   UNL     1      55.746  22.471  48.804  1.00  0.00     0.059 C 
ENDROOT
BRANCH   1   2
ATOM      2  C   UNL     1      55.713  21.139  49.490  1.00  0.00     0.042 C 
ATOM      3  O   UNL     1      56.369  20.171  49.025  1.00  0.00    -0.550 OA
ATOM      4  O   UNL     1      54.923  20.957  50.618  1.00  0.00    -0.550 OA
ENDBRANCH   1   2
BRANCH   1   5
ATOM      5  C   UNL     1      56.772  22.494  47.666  1.00  0.00     0.059 C 
BRANCH   5   6
ATOM      6  C   UNL     1      57.124  23.895  47.267  1.00  0.00     0.042 C 
ATOM      7  O   UNL     1      57.887  24.101  46.286  1.00  0.00    -0.550 OA
ATOM      8  O   UNL     1      56.643  24.970  48.003  1.00  0.00    -0.550 OA
ENDBRANCH   5   6
ENDBRANCH   1   5
TORSDOF 3
ENDMDL
MODEL 6
REMARK VINA RESULT:    -2.742      2.294      3.678
REMARK INTER + INTRA:          -3.335
REMARK INTER:                  -3.277
REMARK INTRA:                  -0.058
REMARK UNBOUND:                -0.113
REMARK SMILES O=C([O-])CCC(=O)[O-]
REMARK SMILES IDX 4 1 2 2 1 3 3 4 5 5 6 6 7 7 8 8
REMARK H PARENT
REMARK Flexibility Score: inf
ROOT
ATOM      1  C   UNL     1      55.614  21.891  49.357  1.00  0.00     0.059 C 
ENDROOT
BRANCH   1   2
ATOM      2  C   UNL     1      56.446  21.110  48.385  1.00  0.00     0.042 C 
ATOM      3  O   UNL     1      56.591  19.868  48.532  1.00  0.00    -0.550 OA
ATOM      4  O   UNL     1      57.092  21.760  47.342  1.00  0.00    -0.550 OA
ENDBRANCH   1   2
BRANCH   1   5
ATOM      5  C   UNL     1      55.059  20.997  50.471  1.00  0.00     0.059 C 
BRANCH   5   6
ATOM      6  C   UNL     1      55.073  21.693  51.798  1.00  0.00     0.042 C 
ATOM      7  O   UNL     1      56.032  22.450  52.105  1.00  0.00    -0.550 OA
ATOM      8  O   UNL     1      54.050  21.472  52.710  1.00  0.00    -0.550 OA
ENDBRANCH   5   6
ENDBRANCH   1   5
TORSDOF 3
ENDMDL
MODEL 7
REMARK VINA RESULT:    -2.714      2.306      3.765
REMARK INTER + INTRA:          -3.302
REMARK INTER:                  -3.254
REMARK INTRA:                  -0.048
REMARK UNBOUND:                -0.113
REMARK SMILES O=C([O-])CCC(=O)[O-]
REMARK SMILES IDX 4 1 2 2 1 3 3 4 5 5 6 6 7 7 8 8
REMARK H PARENT
REMARK Flexibility Score: inf
ROOT
ATOM      1  C   UNL     1      55.097  21.002  50.534  1.00  0.00     0.059 C 
ENDROOT
BRANCH   1   2
ATOM      2  C   UNL     1      55.024  21.790  51.807  1.00  0.00     0.042 C 
ATOM      3  O   UNL     1      54.088  21.588  52.623  1.00  0.00    -0.550 OA
ATOM      4  O   UNL     1      55.968  22.775  52.071  1.00  0.00    -0.550 OA
ENDBRANCH   1   2
BRANCH   1   5
ATOM      5  C   UNL     1      55.584  21.864  49.364  1.00  0.00     0.059 C 
BRANCH   5   6
ATOM      6  C   UNL     1      56.404  21.068  48.395  1.00  0.00     0.042 C 
ATOM      7  O   UNL     1      56.499  19.819  48.522  1.00  0.00    -0.550 OA
ATOM      8  O   UNL     1      57.097  21.712  47.378  1.00  0.00    -0.550 OA
ENDBRANCH   5   6
ENDBRANCH   1   5
TORSDOF 3
ENDMDL
MODEL 8
REMARK VINA RESULT:    -2.697      2.330      3.217
REMARK INTER + INTRA:          -3.283
REMARK INTER:                  -3.187
REMARK INTRA:                  -0.096
REMARK UNBOUND:                -0.113
REMARK SMILES O=C([O-])CCC(=O)[O-]
REMARK SMILES IDX 4 1 2 2 1 3 3 4 5 5 6 6 7 7 8 8
REMARK H PARENT
REMARK Flexibility Score: inf
ROOT
ATOM      1  C   UNL     1      55.950  20.792  49.558  1.00  0.00     0.059 C 
ENDROOT
BRANCH   1   2
ATOM      2  C   UNL     1      55.995  21.899  48.548  1.00  0.00     0.042 C 
ATOM      3  O   UNL     1      55.105  22.789  48.544  1.00  0.00    -0.550 OA
ATOM      4  O   UNL     1      56.998  21.923  47.587  1.00  0.00    -0.550 OA
ENDBRANCH   1   2
BRANCH   1   5
ATOM      5  C   UNL     1      54.914  21.070  50.653  1.00  0.00     0.059 C 
BRANCH   5   6
ATOM      6  C   UNL     1      55.523  21.781  51.822  1.00  0.00     0.042 C 
ATOM      7  O   UNL     1      56.467  21.250  52.465  1.00  0.00    -0.550 OA
ATOM      8  O   UNL     1      55.021  23.011  52.227  1.00  0.00    -0.550 OA
ENDBRANCH   5   6
ENDBRANCH   1   5
TORSDOF 3
ENDMDL
MODEL 9
REMARK VINA RESULT:    -2.635      2.496      3.303
REMARK INTER + INTRA:          -3.209
REMARK INTER:                  -3.078
REMARK INTRA:                  -0.132
REMARK UNBOUND:                -0.113
REMARK SMILES O=C([O-])CCC(=O)[O-]
REMARK SMILES IDX 4 1 2 2 1 3 3 4 5 5 6 6 7 7 8 8
REMARK H PARENT
REMARK Flexibility Score: inf
ROOT
ATOM      1  C   UNL     1      55.718  20.909  49.799  1.00  0.00     0.059 C 
ENDROOT
BRANCH   1   2
ATOM      2  C   UNL     1      55.742  22.035  48.810  1.00  0.00     0.042 C 
ATOM      3  O   UNL     1      56.710  22.159  48.016  1.00  0.00    -0.550 OA
ATOM      4  O   UNL     1      54.714  22.969  48.795  1.00  0.00    -0.550 OA
ENDBRANCH   1   2
BRANCH   1   5
ATOM      5  C   UNL     1      54.977  21.299  51.082  1.00  0.00     0.059 C 
BRANCH   5   6
ATOM      6  C   UNL     1      55.887  21.974  52.062  1.00  0.00     0.042 C 
ATOM      7  O   UNL     1      55.905  23.231  52.148  1.00  0.00    -0.550 OA
ATOM      8  O   UNL     1      56.743  21.218  52.851  1.00  0.00    -0.550 OA
ENDBRANCH   5   6
ENDBRANCH   1   5
TORSDOF 3
ENDMDL
