MODEL 1
REMARK VINA RESULT:    -4.825      0.000      0.000
REMARK INTER + INTRA:          -5.954
REMARK INTER:                  -5.812
REMARK INTRA:                  -0.142
REMARK UNBOUND:                -0.142
REMARK SMILES NC(=O)C[C@@H]([NH3+])C(=O)[O-]
REMARK SMILES IDX 4 1 5 2 6 3 7 7 8 8 9 9 2 10 3 11 1 12
REMARK H PARENT 6 4 6 5 6 6 1 13 1 14
REMARK Flexibility Score: inf
ROOT
ATOM      1  C   UNL     1      19.923  13.651  14.273  1.00  0.00     0.171 C 
ENDROOT
BRANCH   1   2
ATOM      2  C   UNL     1      18.913  12.630  13.711  1.00  0.00     0.237 C 
BRANCH   2   3
ATOM      3  N   UNL     1      17.989  12.190  14.763  1.00  0.00    -0.350 N 
ATOM      4  H   UNL     1      18.124  12.773  15.620  1.00  0.00     0.345 HD
ATOM      5  H   UNL     1      18.183  11.192  15.012  1.00  0.00     0.345 HD
ATOM      6  H   UNL     1      16.996  12.277  14.444  1.00  0.00     0.345 HD
ENDBRANCH   2   3
BRANCH   2   7
ATOM      7  C   UNL     1      18.145  13.210  12.550  1.00  0.00     0.100 C 
ATOM      8  O   UNL     1      18.739  13.531  11.486  1.00  0.00    -0.544 OA
ATOM      9  O   UNL     1      16.770  13.378  12.643  1.00  0.00    -0.544 OA
ENDBRANCH   2   7
ENDBRANCH   1   2
BRANCH   1  10
ATOM     10  C   UNL     1      21.336  13.285  13.917  1.00  0.00     0.223 C 
ATOM     11  O   UNL     1      21.560  12.248  13.238  1.00  0.00    -0.275 OA
ATOM     12  N   UNL     1      22.422  14.124  14.308  1.00  0.00    -0.369 N 
ATOM     13  H   UNL     1      22.252  14.998  14.855  1.00  0.00     0.159 HD
ATOM     14  H   UNL     1      23.401  13.875  14.045  1.00  0.00     0.159 HD
ENDBRANCH   1  10
TORSDOF 4
ENDMDL
MODEL 2
REMARK VINA RESULT:    -4.681     19.932     20.682
REMARK INTER + INTRA:          -5.781
REMARK INTER:                  -5.640
REMARK INTRA:                  -0.141
REMARK UNBOUND:                -0.142
REMARK SMILES NC(=O)C[C@@H]([NH3+])C(=O)[O-]
REMARK SMILES IDX 4 1 5 2 6 3 7 7 8 8 9 9 2 10 3 11 1 12
REMARK H PARENT 6 4 6 5 6 6 1 13 1 14
REMARK Flexibility Score: inf
ROOT
ATOM      1  C   UNL     1      14.675  -5.120  22.097  1.00  0.00     0.171 C 
ENDROOT
BRANCH   1   2
ATOM      2  C   UNL     1      13.836  -3.833  21.963  1.00  0.00     0.237 C 
BRANCH   2   3
ATOM      3  N   UNL     1      13.885  -3.330  20.586  1.00  0.00    -0.350 N 
ATOM      4  H   UNL     1      14.550  -2.524  20.526  1.00  0.00     0.345 HD
ATOM      5  H   UNL     1      12.937  -2.992  20.297  1.00  0.00     0.345 HD
ATOM      6  H   UNL     1      14.198  -4.080  19.927  1.00  0.00     0.345 HD
ENDBRANCH   2   3
BRANCH   2   7
ATOM      7  C   UNL     1      12.407  -4.072  22.381  1.00  0.00     0.100 C 
ATOM      8  O   UNL     1      12.125  -4.316  23.585  1.00  0.00    -0.544 OA
ATOM      9  O   UNL     1      11.389  -4.006  21.439  1.00  0.00    -0.544 OA
ENDBRANCH   2   7
ENDBRANCH   1   2
BRANCH   1  10
ATOM     10  C   UNL     1      15.603  -5.056  23.277  1.00  0.00     0.223 C 
ATOM     11  O   UNL     1      15.553  -4.068  24.058  1.00  0.00    -0.275 OA
ATOM     12  N   UNL     1      16.511  -6.124  23.544  1.00  0.00    -0.369 N 
ATOM     13  H   UNL     1      16.551  -6.960  22.919  1.00  0.00     0.159 HD
ATOM     14  H   UNL     1      17.143  -6.084  24.374  1.00  0.00     0.159 HD
ENDBRANCH   1  10
TORSDOF 4
ENDMDL
MODEL 3
REMARK VINA RESULT:    -4.623     19.431     20.385
REMARK INTER + INTRA:          -5.711
REMARK INTER:                  -5.491
REMARK INTRA:                  -0.220
REMARK UNBOUND:                -0.142
REMARK SMILES NC(=O)C[C@@H]([NH3+])C(=O)[O-]
REMARK SMILES IDX 4 1 5 2 6 3 7 7 8 8 9 9 2 10 3 11 1 12
REMARK H PARENT 6 4 6 5 6 6 1 13 1 14
REMARK Flexibility Score: inf
ROOT
ATOM      1  C   UNL     1      13.689  -4.150  21.682  1.00  0.00     0.171 C 
ENDROOT
BRANCH   1   2
ATOM      2  C   UNL     1      12.906  -3.825  22.971  1.00  0.00     0.237 C 
BRANCH   2   3
ATOM      3  N   UNL     1      11.985  -4.919  23.301  1.00  0.00    -0.350 N 
ATOM      4  H   UNL     1      12.282  -5.376  24.193  1.00  0.00     0.345 HD
ATOM      5  H   UNL     1      12.003  -5.640  22.542  1.00  0.00     0.345 HD
ATOM      6  H   UNL     1      11.008  -4.560  23.410  1.00  0.00     0.345 HD
ENDBRANCH   2   3
BRANCH   2   7
ATOM      7  C   UNL     1      13.843  -3.566  24.123  1.00  0.00     0.100 C 
ATOM      8  O   UNL     1      13.417  -3.045  25.189  1.00  0.00    -0.544 OA
ATOM      9  O   UNL     1      15.182  -3.918  24.022  1.00  0.00    -0.544 OA
ENDBRANCH   2   7
ENDBRANCH   1   2
BRANCH   1  10
ATOM     10  C   UNL     1      13.050  -3.527  20.474  1.00  0.00     0.223 C 
ATOM     11  O   UNL     1      11.797  -3.564  20.341  1.00  0.00    -0.275 OA
ATOM     12  N   UNL     1      13.846  -2.858  19.496  1.00  0.00    -0.369 N 
ATOM     13  H   UNL     1      14.884  -2.801  19.601  1.00  0.00     0.159 HD
ATOM     14  H   UNL     1      13.397  -2.413  18.666  1.00  0.00     0.159 HD
ENDBRANCH   1  10
TORSDOF 4
ENDMDL
MODEL 4
REMARK VINA RESULT:    -4.601      1.989      2.164
REMARK INTER + INTRA:          -5.684
REMARK INTER:                  -5.551
REMARK INTRA:                  -0.133
REMARK UNBOUND:                -0.142
REMARK SMILES NC(=O)C[C@@H]([NH3+])C(=O)[O-]
REMARK SMILES IDX 4 1 5 2 6 3 7 7 8 8 9 9 2 10 3 11 1 12
REMARK H PARENT 6 4 6 5 6 6 1 13 1 14
REMARK Flexibility Score: inf
ROOT
ATOM      1  C   UNL     1      19.795  12.447  12.942  1.00  0.00     0.171 C 
ENDROOT
BRANCH   1   2
ATOM      2  C   UNL     1      18.684  13.435  12.534  1.00  0.00     0.237 C 
BRANCH   2   3
ATOM      3  N   UNL     1      18.541  13.472  11.074  1.00  0.00    -0.350 N 
ATOM      4  H   UNL     1      19.181  14.196  10.674  1.00  0.00     0.345 HD
ATOM      5  H   UNL     1      17.558  13.729  10.820  1.00  0.00     0.345 HD
ATOM      6  H   UNL     1      18.773  12.542  10.654  1.00  0.00     0.345 HD
ENDBRANCH   2   3
BRANCH   2   7
ATOM      7  C   UNL     1      17.371  13.069  13.178  1.00  0.00     0.100 C 
ATOM      8  O   UNL     1      17.344  12.535  14.319  1.00  0.00    -0.544 OA
ATOM      9  O   UNL     1      16.177  13.337  12.520  1.00  0.00    -0.544 OA
ENDBRANCH   2   7
ENDBRANCH   1   2
BRANCH   1  10
ATOM     10  C   UNL     1      20.829  13.104  13.813  1.00  0.00     0.223 C 
ATOM     11  O   UNL     1      20.488  14.031  14.596  1.00  0.00    -0.275 OA
ATOM     12  N   UNL     1      22.185  12.661  13.788  1.00  0.00    -0.369 N 
ATOM     13  H   UNL     1      22.481  11.882  13.159  1.00  0.00     0.159 HD
ATOM     14  H   UNL     1      22.897  13.110  14.406  1.00  0.00     0.159 HD
ENDBRANCH   1  10
TORSDOF 4
ENDMDL
MODEL 5
REMARK VINA RESULT:    -4.601     20.187     20.709
REMARK INTER + INTRA:          -5.684
REMARK INTER:                  -5.551
REMARK INTRA:                  -0.134
REMARK UNBOUND:                -0.142
REMARK SMILES NC(=O)C[C@@H]([NH3+])C(=O)[O-]
REMARK SMILES IDX 4 1 5 2 6 3 7 7 8 8 9 9 2 10 3 11 1 12
REMARK H PARENT 6 4 6 5 6 6 1 13 1 14
REMARK Flexibility Score: inf
ROOT
ATOM      1  C   UNL     1      14.284  -3.957  23.255  1.00  0.00     0.171 C 
ENDROOT
BRANCH   1   2
ATOM      2  C   UNL     1      12.941  -4.622  22.892  1.00  0.00     0.237 C 
BRANCH   2   3
ATOM      3  N   UNL     1      11.983  -4.480  23.995  1.00  0.00    -0.350 N 
ATOM      4  H   UNL     1      11.999  -3.498  24.353  1.00  0.00     0.345 HD
ATOM      5  H   UNL     1      12.248  -5.119  24.780  1.00  0.00     0.345 HD
ATOM      6  H   UNL     1      11.013  -4.711  23.676  1.00  0.00     0.345 HD
ENDBRANCH   2   3
BRANCH   2   7
ATOM      7  C   UNL     1      12.370  -4.036  21.626  1.00  0.00     0.100 C 
ATOM      8  O   UNL     1      13.130  -3.540  20.751  1.00  0.00    -0.544 OA
ATOM      9  O   UNL     1      10.998  -4.056  21.409  1.00  0.00    -0.544 OA
ENDBRANCH   2   7
ENDBRANCH   1   2
BRANCH   1  10
ATOM     10  C   UNL     1      15.428  -4.925  23.147  1.00  0.00     0.223 C 
ATOM     11  O   UNL     1      15.408  -5.820  22.261  1.00  0.00    -0.275 OA
ATOM     12  N   UNL     1      16.556  -4.813  24.015  1.00  0.00    -0.369 N 
ATOM     13  H   UNL     1      16.598  -4.064  24.742  1.00  0.00     0.159 HD
ATOM     14  H   UNL     1      17.356  -5.477  23.926  1.00  0.00     0.159 HD
ENDBRANCH   1  10
TORSDOF 4
ENDMDL
MODEL 6
REMARK VINA RESULT:    -4.503      2.046      4.059
REMARK INTER + INTRA:          -5.566
REMARK INTER:                  -5.360
REMARK INTRA:                  -0.206
REMARK UNBOUND:                -0.142
REMARK SMILES NC(=O)C[C@@H]([NH3+])C(=O)[O-]
REMARK SMILES IDX 4 1 5 2 6 3 7 7 8 8 9 9 2 10 3 11 1 12
REMARK H PARENT 6 4 6 5 6 6 1 13 1 14
REMARK Flexibility Score: inf
ROOT
ATOM      1  C   UNL     1      18.017  13.043  12.897  1.00  0.00     0.171 C 
ENDROOT
BRANCH   1   2
ATOM      2  C   UNL     1      19.270  12.162  13.075  1.00  0.00     0.237 C 
BRANCH   2   3
ATOM      3  N   UNL     1      19.745  11.676  11.774  1.00  0.00    -0.350 N 
ATOM      4  H   UNL     1      19.477  10.673  11.651  1.00  0.00     0.345 HD
ATOM      5  H   UNL     1      20.789  11.743  11.728  1.00  0.00     0.345 HD
ATOM      6  H   UNL     1      19.330  12.238  10.994  1.00  0.00     0.345 HD
ENDBRANCH   2   3
BRANCH   2   7
ATOM      7  C   UNL     1      20.368  12.917  13.781  1.00  0.00     0.100 C 
ATOM      8  O   UNL     1      20.089  13.804  14.632  1.00  0.00    -0.544 OA
ATOM      9  O   UNL     1      21.698  12.624  13.509  1.00  0.00    -0.544 OA
ENDBRANCH   2   7
ENDBRANCH   1   2
BRANCH   1  10
ATOM     10  C   UNL     1      16.919  12.640  13.839  1.00  0.00     0.223 C 
ATOM     11  O   UNL     1      15.728  12.596  13.429  1.00  0.00    -0.275 OA
ATOM     12  N   UNL     1      17.218  12.267  15.184  1.00  0.00    -0.369 N 
ATOM     13  H   UNL     1      18.202  12.278  15.535  1.00  0.00     0.159 HD
ATOM     14  H   UNL     1      16.454  11.972  15.831  1.00  0.00     0.159 HD
ENDBRANCH   1  10
TORSDOF 4
ENDMDL
MODEL 7
REMARK VINA RESULT:    -4.442      2.839      4.169
REMARK INTER + INTRA:          -5.493
REMARK INTER:                  -5.297
REMARK INTRA:                  -0.197
REMARK UNBOUND:                -0.142
REMARK SMILES NC(=O)C[C@@H]([NH3+])C(=O)[O-]
REMARK SMILES IDX 4 1 5 2 6 3 7 7 8 8 9 9 2 10 3 11 1 12
REMARK H PARENT 6 4 6 5 6 6 1 13 1 14
REMARK Flexibility Score: inf
ROOT
ATOM      1  C   UNL     1      16.603  12.957  14.773  1.00  0.00     0.171 C 
ENDROOT
BRANCH   1   2
ATOM      2  C   UNL     1      17.120  12.611  13.361  1.00  0.00     0.237 C 
BRANCH   2   3
ATOM      3  N   UNL     1      16.640  13.595  12.384  1.00  0.00    -0.350 N 
ATOM      4  H   UNL     1      17.017  13.365  11.436  1.00  0.00     0.345 HD
ATOM      5  H   UNL     1      16.979  14.550  12.646  1.00  0.00     0.345 HD
ATOM      6  H   UNL     1      15.595  13.600  12.344  1.00  0.00     0.345 HD
ENDBRANCH   2   3
BRANCH   2   7
ATOM      7  C   UNL     1      18.625  12.542  13.337  1.00  0.00     0.100 C 
ATOM      8  O   UNL     1      19.301  12.981  14.306  1.00  0.00    -0.544 OA
ATOM      9  O   UNL     1      19.277  11.976  12.249  1.00  0.00    -0.544 OA
ENDBRANCH   2   7
ENDBRANCH   1   2
BRANCH   1  10
ATOM     10  C   UNL     1      16.397  11.722  15.604  1.00  0.00     0.223 C 
ATOM     11  O   UNL     1      15.259  11.184  15.653  1.00  0.00    -0.275 OA
ATOM     12  N   UNL     1      17.490  11.131  16.308  1.00  0.00    -0.369 N 
ATOM     13  H   UNL     1      18.445  11.553  16.262  1.00  0.00     0.159 HD
ATOM     14  H   UNL     1      17.347  10.265  16.871  1.00  0.00     0.159 HD
ENDBRANCH   1  10
TORSDOF 4
ENDMDL
MODEL 8
REMARK VINA RESULT:    -4.379     19.414     20.069
REMARK INTER + INTRA:          -5.417
REMARK INTER:                  -5.160
REMARK INTRA:                  -0.257
REMARK UNBOUND:                -0.142
REMARK SMILES NC(=O)C[C@@H]([NH3+])C(=O)[O-]
REMARK SMILES IDX 4 1 5 2 6 3 7 7 8 8 9 9 2 10 3 11 1 12
REMARK H PARENT 6 4 6 5 6 6 1 13 1 14
REMARK Flexibility Score: inf
ROOT
ATOM      1  C   UNL     1      13.022  -3.918  23.067  1.00  0.00     0.171 C 
ENDROOT
BRANCH   1   2
ATOM      2  C   UNL     1      13.651  -3.661  21.683  1.00  0.00     0.237 C 
BRANCH   2   3
ATOM      3  N   UNL     1      14.591  -4.734  21.339  1.00  0.00    -0.350 N 
ATOM      4  H   UNL     1      15.516  -4.323  21.075  1.00  0.00     0.345 HD
ATOM      5  H   UNL     1      14.228  -5.275  20.519  1.00  0.00     0.345 HD
ATOM      6  H   UNL     1      14.724  -5.384  22.147  1.00  0.00     0.345 HD
ENDBRANCH   2   3
BRANCH   2   7
ATOM      7  C   UNL     1      12.589  -3.536  20.620  1.00  0.00     0.100 C 
ATOM      8  O   UNL     1      12.896  -3.193  19.446  1.00  0.00    -0.544 OA
ATOM      9  O   UNL     1      11.264  -3.817  20.926  1.00  0.00    -0.544 OA
ENDBRANCH   2   7
ENDBRANCH   1   2
BRANCH   1  10
ATOM     10  C   UNL     1      13.950  -3.519  24.179  1.00  0.00     0.223 C 
ATOM     11  O   UNL     1      15.156  -3.881  24.147  1.00  0.00    -0.275 OA
ATOM     12  N   UNL     1      13.485  -2.700  25.252  1.00  0.00    -0.369 N 
ATOM     13  H   UNL     1      12.493  -2.375  25.285  1.00  0.00     0.159 HD
ATOM     14  H   UNL     1      14.137  -2.412  26.015  1.00  0.00     0.159 HD
ENDBRANCH   1  10
TORSDOF 4
ENDMDL
MODEL 9
REMARK VINA RESULT:    -4.294      1.784      3.785
REMARK INTER + INTRA:          -5.314
REMARK INTER:                  -5.107
REMARK INTRA:                  -0.208
REMARK UNBOUND:                -0.142
REMARK SMILES NC(=O)C[C@@H]([NH3+])C(=O)[O-]
REMARK SMILES IDX 4 1 5 2 6 3 7 7 8 8 9 9 2 10 3 11 1 12
REMARK H PARENT 6 4 6 5 6 6 1 13 1 14
REMARK Flexibility Score: inf
ROOT
ATOM      1  C   UNL     1      18.087  12.573  14.072  1.00  0.00     0.171 C 
ENDROOT
BRANCH   1   2
ATOM      2  C   UNL     1      19.350  13.260  13.515  1.00  0.00     0.237 C 
BRANCH   2   3
ATOM      3  N   UNL     1      20.207  13.725  14.612  1.00  0.00    -0.350 N 
ATOM      4  H   UNL     1      19.792  13.443  15.530  1.00  0.00     0.345 HD
ATOM      5  H   UNL     1      20.276  14.769  14.592  1.00  0.00     0.345 HD
ATOM      6  H   UNL     1      21.167  13.316  14.532  1.00  0.00     0.345 HD
ENDBRANCH   2   3
BRANCH   2   7
ATOM      7  C   UNL     1      20.118  12.332  12.610  1.00  0.00     0.100 C 
ATOM      8  O   UNL     1      21.292  11.979  12.903  1.00  0.00    -0.544 OA
ATOM      9  O   UNL     1      19.526  11.845  11.451  1.00  0.00    -0.544 OA
ENDBRANCH   2   7
ENDBRANCH   1   2
BRANCH   1  10
ATOM     10  C   UNL     1      16.863  12.937  13.279  1.00  0.00     0.223 C 
ATOM     11  O   UNL     1      15.729  12.547  13.666  1.00  0.00    -0.275 OA
ATOM     12  N   UNL     1      16.972  13.754  12.113  1.00  0.00    -0.369 N 
ATOM     13  H   UNL     1      17.902  14.102  11.790  1.00  0.00     0.159 HD
ATOM     14  H   UNL     1      16.118  14.017  11.574  1.00  0.00     0.159 HD
ENDBRANCH   1  10
TORSDOF 4
ENDMDL
