MODEL 1
REMARK VINA RESULT:    -4.546      0.000      0.000
REMARK INTER + INTRA:          -9.940
REMARK INTER:                  -8.532
REMARK INTRA:                  -1.409
REMARK UNBOUND:                -1.409
REMARK SMILES O=C([O-])CCCCCCCCCCCCCCC(=O)[O-]
REMARK SMILES IDX 10 1 9 2 8 3 7 4 6 5 5 6 4 7 2 8 1 9 3 10 11 11 12 12 13 13
REMARK SMILES IDX 14 14 15 15 16 16 17 17 18 18 19 19 20 20
REMARK H PARENT
REMARK Flexibility Score: inf
ROOT
ATOM      1  C   UNL     1      50.647   7.958  18.355  1.00  0.00     0.000 C 
ENDROOT
BRANCH   1   2
ATOM      2  C   UNL     1      51.786   7.199  19.072  1.00  0.00     0.000 C 
BRANCH   2   3
ATOM      3  C   UNL     1      52.240   5.928  18.335  1.00  0.00     0.000 C 
BRANCH   3   4
ATOM      4  C   UNL     1      51.774   4.638  19.030  1.00  0.00     0.000 C 
BRANCH   4   5
ATOM      5  C   UNL     1      52.918   3.633  19.238  1.00  0.00     0.000 C 
BRANCH   5   6
ATOM      6  C   UNL     1      52.417   2.182  19.351  1.00  0.00     0.006 C 
BRANCH   6   7
ATOM      7  C   UNL     1      51.266   2.044  20.357  1.00  0.00     0.053 C 
BRANCH   7   8
ATOM      8  C   UNL     1      51.718   1.420  21.641  1.00  0.00     0.041 C 
ATOM      9  O   UNL     1      52.126   2.144  22.588  1.00  0.00    -0.550 OA
ATOM     10  O   UNL     1      51.721   0.039  21.782  1.00  0.00    -0.550 OA
ENDBRANCH   7   8
ENDBRANCH   6   7
ENDBRANCH   5   6
ENDBRANCH   4   5
ENDBRANCH   3   4
ENDBRANCH   2   3
ENDBRANCH   1   2
BRANCH   1  11
ATOM     11  C   UNL     1      50.425   9.363  18.943  1.00  0.00     0.000 C 
BRANCH  11  12
ATOM     12  C   UNL     1      48.986   9.557  19.465  1.00  0.00     0.000 C 
BRANCH  12  13
ATOM     13  C   UNL     1      48.120   8.289  19.378  1.00  0.00     0.000 C 
BRANCH  13  14
ATOM     14  C   UNL     1      47.143   8.148  20.556  1.00  0.00     0.000 C 
BRANCH  14  15
ATOM     15  C   UNL     1      47.543   7.005  21.515  1.00  0.00     0.000 C 
BRANCH  15  16
ATOM     16  C   UNL     1      49.055   6.712  21.522  1.00  0.00     0.006 C 
BRANCH  16  17
ATOM     17  C   UNL     1      49.853   7.573  22.513  1.00  0.00     0.053 C 
BRANCH  17  18
ATOM     18  C   UNL     1      50.083   6.862  23.813  1.00  0.00     0.041 C 
ATOM     19  O   UNL     1      50.663   7.452  24.762  1.00  0.00    -0.550 OA
ATOM     20  O   UNL     1      49.644   5.555  23.981  1.00  0.00    -0.550 OA
ENDBRANCH  17  18
ENDBRANCH  16  17
ENDBRANCH  15  16
ENDBRANCH  14  15
ENDBRANCH  13  14
ENDBRANCH  12  13
ENDBRANCH  11  12
ENDBRANCH   1  11
TORSDOF 15
ENDMDL
MODEL 2
REMARK VINA RESULT:    -4.455      4.117      6.908
REMARK INTER + INTRA:          -9.770
REMARK INTER:                  -7.727
REMARK INTRA:                  -2.043
REMARK UNBOUND:                -1.409
REMARK SMILES O=C([O-])CCCCCCCCCCCCCCC(=O)[O-]
REMARK SMILES IDX 10 1 9 2 8 3 7 4 6 5 5 6 4 7 2 8 1 9 3 10 11 11 12 12 13 13
REMARK SMILES IDX 14 14 15 15 16 16 17 17 18 18 19 19 20 20
REMARK H PARENT
REMARK Flexibility Score: inf
ROOT
ATOM      1  C   UNL     1      50.370   6.152  26.903  1.00  0.00     0.000 C 
ENDROOT
BRANCH   1   2
ATOM      2  C   UNL     1      50.064   6.474  25.424  1.00  0.00     0.000 C 
BRANCH   2   3
ATOM      3  C   UNL     1      50.369   7.930  25.034  1.00  0.00     0.000 C 
BRANCH   3   4
ATOM      4  C   UNL     1      50.067   8.226  23.556  1.00  0.00     0.000 C 
BRANCH   4   5
ATOM      5  C   UNL     1      49.286   7.091  22.874  1.00  0.00     0.000 C 
BRANCH   5   6
ATOM      6  C   UNL     1      49.501   7.059  21.350  1.00  0.00     0.006 C 
BRANCH   6   7
ATOM      7  C   UNL     1      49.614   8.467  20.751  1.00  0.00     0.053 C 
BRANCH   7   8
ATOM      8  C   UNL     1      50.682   8.544  19.703  1.00  0.00     0.041 C 
ATOM      9  O   UNL     1      50.773   9.561  18.966  1.00  0.00    -0.550 OA
ATOM     10  O   UNL     1      51.554   7.479  19.517  1.00  0.00    -0.550 OA
ENDBRANCH   7   8
ENDBRANCH   6   7
ENDBRANCH   5   6
ENDBRANCH   4   5
ENDBRANCH   3   4
ENDBRANCH   2   3
ENDBRANCH   1   2
BRANCH   1  11
ATOM     11  C   UNL     1      49.605   7.075  27.869  1.00  0.00     0.000 C 
BRANCH  11  12
ATOM     12  C   UNL     1      48.076   6.892  27.764  1.00  0.00     0.000 C 
BRANCH  12  13
ATOM     13  C   UNL     1      47.316   8.197  27.470  1.00  0.00     0.000 C 
BRANCH  13  14
ATOM     14  C   UNL     1      46.766   8.261  26.037  1.00  0.00     0.000 C 
BRANCH  14  15
ATOM     15  C   UNL     1      47.088   9.605  25.347  1.00  0.00     0.000 C 
BRANCH  15  16
ATOM     16  C   UNL     1      46.627   9.666  23.878  1.00  0.00     0.006 C 
BRANCH  16  17
ATOM     17  C   UNL     1      47.345  10.736  23.042  1.00  0.00     0.053 C 
BRANCH  17  18
ATOM     18  C   UNL     1      46.872  10.745  21.619  1.00  0.00     0.041 C 
ATOM     19  O   UNL     1      46.014   9.907  21.233  1.00  0.00    -0.550 OA
ATOM     20  O   UNL     1      47.365  11.685  20.725  1.00  0.00    -0.550 OA
ENDBRANCH  17  18
ENDBRANCH  16  17
ENDBRANCH  15  16
ENDBRANCH  14  15
ENDBRANCH  13  14
ENDBRANCH  12  13
ENDBRANCH  11  12
ENDBRANCH   1  11
TORSDOF 15
ENDMDL
MODEL 3
REMARK VINA RESULT:    -4.380      2.889      4.869
REMARK INTER + INTRA:          -9.630
REMARK INTER:                  -8.105
REMARK INTRA:                  -1.525
REMARK UNBOUND:                -1.409
REMARK SMILES O=C([O-])CCCCCCCCCCCCCCC(=O)[O-]
REMARK SMILES IDX 10 1 9 2 8 3 7 4 6 5 5 6 4 7 2 8 1 9 3 10 11 11 12 12 13 13
REMARK SMILES IDX 14 14 15 15 16 16 17 17 18 18 19 19 20 20
REMARK H PARENT
REMARK Flexibility Score: inf
ROOT
ATOM      1  C   UNL     1      49.405   5.734  25.409  1.00  0.00     0.000 C 
ENDROOT
BRANCH   1   2
ATOM      2  C   UNL     1      49.875   5.046  24.108  1.00  0.00     0.000 C 
BRANCH   2   3
ATOM      3  C   UNL     1      48.767   4.253  23.395  1.00  0.00     0.000 C 
BRANCH   3   4
ATOM      4  C   UNL     1      48.834   4.380  21.865  1.00  0.00     0.000 C 
BRANCH   4   5
ATOM      5  C   UNL     1      49.382   3.112  21.190  1.00  0.00     0.000 C 
BRANCH   5   6
ATOM      6  C   UNL     1      50.919   3.107  21.101  1.00  0.00     0.006 C 
BRANCH   6   7
ATOM      7  C   UNL     1      51.416   3.319  19.665  1.00  0.00     0.053 C 
BRANCH   7   8
ATOM      8  C   UNL     1      52.738   2.654  19.428  1.00  0.00     0.041 C 
ATOM      9  O   UNL     1      52.783   1.478  18.979  1.00  0.00    -0.550 OA
ATOM     10  O   UNL     1      53.917   3.320  19.734  1.00  0.00    -0.550 OA
ENDBRANCH   7   8
ENDBRANCH   6   7
ENDBRANCH   5   6
ENDBRANCH   4   5
ENDBRANCH   3   4
ENDBRANCH   2   3
ENDBRANCH   1   2
BRANCH   1  11
ATOM     11  C   UNL     1      50.199   7.019  25.705  1.00  0.00     0.000 C 
BRANCH  11  12
ATOM     12  C   UNL     1      50.464   7.849  24.431  1.00  0.00     0.000 C 
BRANCH  12  13
ATOM     13  C   UNL     1      49.337   8.841  24.094  1.00  0.00     0.000 C 
BRANCH  13  14
ATOM     14  C   UNL     1      48.763   8.640  22.684  1.00  0.00     0.000 C 
BRANCH  14  15
ATOM     15  C   UNL     1      49.779   7.977  21.727  1.00  0.00     0.000 C 
BRANCH  15  16
ATOM     16  C   UNL     1      49.158   7.520  20.393  1.00  0.00     0.006 C 
BRANCH  16  17
ATOM     17  C   UNL     1      48.677   8.675  19.501  1.00  0.00     0.053 C 
BRANCH  17  18
ATOM     18  C   UNL     1      49.719   9.080  18.502  1.00  0.00     0.041 C 
ATOM     19  O   UNL     1      50.543   9.990  18.782  1.00  0.00    -0.550 OA
ATOM     20  O   UNL     1      49.791   8.443  17.270  1.00  0.00    -0.550 OA
ENDBRANCH  17  18
ENDBRANCH  16  17
ENDBRANCH  15  16
ENDBRANCH  14  15
ENDBRANCH  13  14
ENDBRANCH  12  13
ENDBRANCH  11  12
ENDBRANCH   1  11
TORSDOF 15
ENDMDL
MODEL 4
REMARK VINA RESULT:    -4.370      4.696      6.777
REMARK INTER + INTRA:          -9.610
REMARK INTER:                  -7.714
REMARK INTRA:                  -1.896
REMARK UNBOUND:                -1.409
REMARK SMILES O=C([O-])CCCCCCCCCCCCCCC(=O)[O-]
REMARK SMILES IDX 10 1 9 2 8 3 7 4 6 5 5 6 4 7 2 8 1 9 3 10 11 11 12 12 13 13
REMARK SMILES IDX 14 14 15 15 16 16 17 17 18 18 19 19 20 20
REMARK H PARENT
REMARK Flexibility Score: inf
ROOT
ATOM      1  C   UNL     1      46.404   2.908  20.671  1.00  0.00     0.000 C 
ENDROOT
BRANCH   1   2
ATOM      2  C   UNL     1      46.975   1.619  20.041  1.00  0.00     0.000 C 
BRANCH   2   3
ATOM      3  C   UNL     1      48.388   1.266  20.534  1.00  0.00     0.000 C 
BRANCH   3   4
ATOM      4  C   UNL     1      48.892   2.217  21.632  1.00  0.00     0.000 C 
BRANCH   4   5
ATOM      5  C   UNL     1      50.388   2.540  21.493  1.00  0.00     0.000 C 
BRANCH   5   6
ATOM      6  C   UNL     1      50.712   3.296  20.191  1.00  0.00     0.006 C 
BRANCH   6   7
ATOM      7  C   UNL     1      51.828   2.615  19.389  1.00  0.00     0.053 C 
BRANCH   7   8
ATOM      8  C   UNL     1      53.129   3.348  19.509  1.00  0.00     0.041 C 
ATOM      9  O   UNL     1      53.245   4.512  19.043  1.00  0.00    -0.550 OA
ATOM     10  O   UNL     1      54.222   2.734  20.106  1.00  0.00    -0.550 OA
ENDBRANCH   7   8
ENDBRANCH   6   7
ENDBRANCH   5   6
ENDBRANCH   4   5
ENDBRANCH   3   4
ENDBRANCH   2   3
ENDBRANCH   1   2
BRANCH   1  11
ATOM     11  C   UNL     1      44.954   3.177  20.230  1.00  0.00     0.000 C 
BRANCH  11  12
ATOM     12  C   UNL     1      43.924   2.646  21.249  1.00  0.00     0.000 C 
BRANCH  12  13
ATOM     13  C   UNL     1      43.564   1.163  21.049  1.00  0.00     0.000 C 
BRANCH  13  14
ATOM     14  C   UNL     1      43.672   0.341  22.343  1.00  0.00     0.000 C 
BRANCH  14  15
ATOM     15  C   UNL     1      44.465   1.081  23.443  1.00  0.00     0.000 C 
BRANCH  15  16
ATOM     16  C   UNL     1      45.945   0.661  23.519  1.00  0.00     0.006 C 
BRANCH  16  17
ATOM     17  C   UNL     1      46.229  -0.737  22.947  1.00  0.00     0.053 C 
BRANCH  17  18
ATOM     18  C   UNL     1      47.599  -1.222  23.311  1.00  0.00     0.041 C 
ATOM     19  O   UNL     1      48.372  -0.489  23.981  1.00  0.00    -0.550 OA
ATOM     20  O   UNL     1      48.018  -2.488  22.922  1.00  0.00    -0.550 OA
ENDBRANCH  17  18
ENDBRANCH  16  17
ENDBRANCH  15  16
ENDBRANCH  14  15
ENDBRANCH  13  14
ENDBRANCH  12  13
ENDBRANCH  11  12
ENDBRANCH   1  11
TORSDOF 15
ENDMDL
MODEL 5
REMARK VINA RESULT:    -4.349      1.995      4.135
REMARK INTER + INTRA:          -9.572
REMARK INTER:                  -7.831
REMARK INTRA:                  -1.741
REMARK UNBOUND:                -1.409
REMARK SMILES O=C([O-])CCCCCCCCCCCCCCC(=O)[O-]
REMARK SMILES IDX 10 1 9 2 8 3 7 4 6 5 5 6 4 7 2 8 1 9 3 10 11 11 12 12 13 13
REMARK SMILES IDX 14 14 15 15 16 16 17 17 18 18 19 19 20 20
REMARK H PARENT
REMARK Flexibility Score: inf
ROOT
ATOM      1  C   UNL     1      52.846   3.851  19.227  1.00  0.00     0.000 C 
ENDROOT
BRANCH   1   2
ATOM      2  C   UNL     1      52.488   2.350  19.158  1.00  0.00     0.000 C 
BRANCH   2   3
ATOM      3  C   UNL     1      52.582   1.630  20.513  1.00  0.00     0.000 C 
BRANCH   3   4
ATOM      4  C   UNL     1      51.681   2.261  21.587  1.00  0.00     0.000 C 
BRANCH   4   5
ATOM      5  C   UNL     1      50.204   1.870  21.423  1.00  0.00     0.000 C 
BRANCH   5   6
ATOM      6  C   UNL     1      49.340   3.029  20.894  1.00  0.00     0.006 C 
BRANCH   6   7
ATOM      7  C   UNL     1      49.797   4.388  21.441  1.00  0.00     0.053 C 
BRANCH   7   8
ATOM      8  C   UNL     1      49.231   4.662  22.800  1.00  0.00     0.041 C 
ATOM      9  O   UNL     1      48.044   4.338  23.068  1.00  0.00    -0.550 OA
ATOM     10  O   UNL     1      50.001   5.305  23.760  1.00  0.00    -0.550 OA
ENDBRANCH   7   8
ENDBRANCH   6   7
ENDBRANCH   5   6
ENDBRANCH   4   5
ENDBRANCH   3   4
ENDBRANCH   2   3
ENDBRANCH   1   2
BRANCH   1  11
ATOM     11  C   UNL     1      51.871   4.719  18.412  1.00  0.00     0.000 C 
BRANCH  11  12
ATOM     12  C   UNL     1      52.326   6.191  18.331  1.00  0.00     0.000 C 
BRANCH  12  13
ATOM     13  C   UNL     1      51.479   7.148  19.187  1.00  0.00     0.000 C 
BRANCH  13  14
ATOM     14  C   UNL     1      50.774   8.231  18.356  1.00  0.00     0.000 C 
BRANCH  14  15
ATOM     15  C   UNL     1      49.261   8.310  18.659  1.00  0.00     0.000 C 
BRANCH  15  16
ATOM     16  C   UNL     1      48.889   9.444  19.633  1.00  0.00     0.006 C 
BRANCH  16  17
ATOM     17  C   UNL     1      47.753   9.087  20.604  1.00  0.00     0.053 C 
BRANCH  17  18
ATOM     18  C   UNL     1      48.247   8.289  21.772  1.00  0.00     0.041 C 
ATOM     19  O   UNL     1      47.443   7.602  22.454  1.00  0.00    -0.550 OA
ATOM     20  O   UNL     1      49.597   8.293  22.099  1.00  0.00    -0.550 OA
ENDBRANCH  17  18
ENDBRANCH  16  17
ENDBRANCH  15  16
ENDBRANCH  14  15
ENDBRANCH  13  14
ENDBRANCH  12  13
ENDBRANCH  11  12
ENDBRANCH   1  11
TORSDOF 15
ENDMDL
MODEL 6
REMARK VINA RESULT:    -4.345      4.936      7.509
REMARK INTER + INTRA:          -9.563
REMARK INTER:                  -7.349
REMARK INTRA:                  -2.214
REMARK UNBOUND:                -1.409
REMARK SMILES O=C([O-])CCCCCCCCCCCCCCC(=O)[O-]
REMARK SMILES IDX 10 1 9 2 8 3 7 4 6 5 5 6 4 7 2 8 1 9 3 10 11 11 12 12 13 13
REMARK SMILES IDX 14 14 15 15 16 16 17 17 18 18 19 19 20 20
REMARK H PARENT
REMARK Flexibility Score: inf
ROOT
ATOM      1  C   UNL     1      47.030   1.890  19.896  1.00  0.00     0.000 C 
ENDROOT
BRANCH   1   2
ATOM      2  C   UNL     1      46.371   3.170  20.455  1.00  0.00     0.000 C 
BRANCH   2   3
ATOM      3  C   UNL     1      45.250   2.894  21.471  1.00  0.00     0.000 C 
BRANCH   3   4
ATOM      4  C   UNL     1      43.891   2.631  20.802  1.00  0.00     0.000 C 
BRANCH   4   5
ATOM      5  C   UNL     1      43.332   1.237  21.130  1.00  0.00     0.000 C 
BRANCH   5   6
ATOM      6  C   UNL     1      43.266   0.967  22.644  1.00  0.00     0.006 C 
BRANCH   6   7
ATOM      7  C   UNL     1      44.036  -0.300  23.040  1.00  0.00     0.053 C 
BRANCH   7   8
ATOM      8  C   UNL     1      45.161   0.002  23.981  1.00  0.00     0.041 C 
ATOM      9  O   UNL     1      45.229   1.124  24.548  1.00  0.00    -0.550 OA
ATOM     10  O   UNL     1      46.153  -0.944  24.207  1.00  0.00    -0.550 OA
ENDBRANCH   7   8
ENDBRANCH   6   7
ENDBRANCH   5   6
ENDBRANCH   4   5
ENDBRANCH   3   4
ENDBRANCH   2   3
ENDBRANCH   1   2
BRANCH   1  11
ATOM     11  C   UNL     1      46.932   0.710  20.880  1.00  0.00     0.000 C 
BRANCH  11  12
ATOM     12  C   UNL     1      48.295   0.366  21.518  1.00  0.00     0.000 C 
BRANCH  12  13
ATOM     13  C   UNL     1      48.637   1.228  22.745  1.00  0.00     0.000 C 
BRANCH  13  14
ATOM     14  C   UNL     1      49.976   1.968  22.603  1.00  0.00     0.000 C 
BRANCH  14  15
ATOM     15  C   UNL     1      49.786   3.477  22.332  1.00  0.00     0.000 C 
BRANCH  15  16
ATOM     16  C   UNL     1      50.189   3.898  20.906  1.00  0.00     0.006 C 
BRANCH  16  17
ATOM     17  C   UNL     1      50.669   2.736  20.023  1.00  0.00     0.053 C 
BRANCH  17  18
ATOM     18  C   UNL     1      51.863   3.115  19.200  1.00  0.00     0.041 C 
ATOM     19  O   UNL     1      52.853   2.340  19.129  1.00  0.00    -0.550 OA
ATOM     20  O   UNL     1      51.877   4.314  18.501  1.00  0.00    -0.550 OA
ENDBRANCH  17  18
ENDBRANCH  16  17
ENDBRANCH  15  16
ENDBRANCH  14  15
ENDBRANCH  13  14
ENDBRANCH  12  13
ENDBRANCH  11  12
ENDBRANCH   1  11
TORSDOF 15
ENDMDL
MODEL 7
REMARK VINA RESULT:    -4.322      3.193      4.932
REMARK INTER + INTRA:          -9.521
REMARK INTER:                  -7.925
REMARK INTRA:                  -1.596
REMARK UNBOUND:                -1.409
REMARK SMILES O=C([O-])CCCCCCCCCCCCCCC(=O)[O-]
REMARK SMILES IDX 10 1 9 2 8 3 7 4 6 5 5 6 4 7 2 8 1 9 3 10 11 11 12 12 13 13
REMARK SMILES IDX 14 14 15 15 16 16 17 17 18 18 19 19 20 20
REMARK H PARENT
REMARK Flexibility Score: inf
ROOT
ATOM      1  C   UNL     1      46.650   4.603  21.232  1.00  0.00     0.000 C 
ENDROOT
BRANCH   1   2
ATOM      2  C   UNL     1      46.617   3.079  21.475  1.00  0.00     0.000 C 
BRANCH   2   3
ATOM      3  C   UNL     1      47.084   2.250  20.266  1.00  0.00     0.000 C 
BRANCH   3   4
ATOM      4  C   UNL     1      48.382   1.475  20.542  1.00  0.00     0.000 C 
BRANCH   4   5
ATOM      5  C   UNL     1      49.629   2.372  20.487  1.00  0.00     0.000 C 
BRANCH   5   6
ATOM      6  C   UNL     1      50.833   1.757  21.223  1.00  0.00     0.006 C 
BRANCH   6   7
ATOM      7  C   UNL     1      52.124   2.553  20.988  1.00  0.00     0.053 C 
BRANCH   7   8
ATOM      8  C   UNL     1      52.489   2.609  19.536  1.00  0.00     0.041 C 
ATOM      9  O   UNL     1      52.815   1.558  18.924  1.00  0.00    -0.550 OA
ATOM     10  O   UNL     1      52.502   3.826  18.868  1.00  0.00    -0.550 OA
ENDBRANCH   7   8
ENDBRANCH   6   7
ENDBRANCH   5   6
ENDBRANCH   4   5
ENDBRANCH   3   4
ENDBRANCH   2   3
ENDBRANCH   1   2
BRANCH   1  11
ATOM     11  C   UNL     1      47.327   5.361  22.388  1.00  0.00     0.000 C 
BRANCH  11  12
ATOM     12  C   UNL     1      48.865   5.234  22.350  1.00  0.00     0.000 C 
BRANCH  12  13
ATOM     13  C   UNL     1      49.543   6.227  21.391  1.00  0.00     0.000 C 
BRANCH  13  14
ATOM     14  C   UNL     1      49.601   7.657  21.950  1.00  0.00     0.000 C 
BRANCH  14  15
ATOM     15  C   UNL     1      48.894   8.676  21.028  1.00  0.00     0.000 C 
BRANCH  15  16
ATOM     16  C   UNL     1      48.670   8.153  19.596  1.00  0.00     0.006 C 
BRANCH  16  17
ATOM     17  C   UNL     1      49.373   8.984  18.511  1.00  0.00     0.053 C 
BRANCH  17  18
ATOM     18  C   UNL     1      50.085   8.117  17.517  1.00  0.00     0.041 C 
ATOM     19  O   UNL     1      49.715   8.099  16.315  1.00  0.00    -0.550 OA
ATOM     20  O   UNL     1      51.166   7.341  17.916  1.00  0.00    -0.550 OA
ENDBRANCH  17  18
ENDBRANCH  16  17
ENDBRANCH  15  16
ENDBRANCH  14  15
ENDBRANCH  13  14
ENDBRANCH  12  13
ENDBRANCH  11  12
ENDBRANCH   1  11
TORSDOF 15
ENDMDL
MODEL 8
REMARK VINA RESULT:    -4.312      2.882      6.553
REMARK INTER + INTRA:          -9.503
REMARK INTER:                  -7.980
REMARK INTRA:                  -1.522
REMARK UNBOUND:                -1.409
REMARK SMILES O=C([O-])CCCCCCCCCCCCCCC(=O)[O-]
REMARK SMILES IDX 10 1 9 2 8 3 7 4 6 5 5 6 4 7 2 8 1 9 3 10 11 11 12 12 13 13
REMARK SMILES IDX 14 14 15 15 16 16 17 17 18 18 19 19 20 20
REMARK H PARENT
REMARK Flexibility Score: inf
ROOT
ATOM      1  C   UNL     1      50.512   7.416  24.516  1.00  0.00     0.000 C 
ENDROOT
BRANCH   1   2
ATOM      2  C   UNL     1      49.362   8.445  24.584  1.00  0.00     0.000 C 
BRANCH   2   3
ATOM      3  C   UNL     1      48.669   8.687  23.233  1.00  0.00     0.000 C 
BRANCH   3   4
ATOM      4  C   UNL     1      48.036   7.413  22.651  1.00  0.00     0.000 C 
BRANCH   4   5
ATOM      5  C   UNL     1      48.410   7.187  21.177  1.00  0.00     0.000 C 
BRANCH   5   6
ATOM      6  C   UNL     1      49.287   8.318  20.610  1.00  0.00     0.006 C 
BRANCH   6   7
ATOM      7  C   UNL     1      50.694   7.828  20.240  1.00  0.00     0.053 C 
BRANCH   7   8
ATOM      8  C   UNL     1      50.938   7.895  18.764  1.00  0.00     0.041 C 
ATOM      9  O   UNL     1      51.568   6.971  18.184  1.00  0.00    -0.550 OA
ATOM     10  O   UNL     1      50.500   8.992  18.034  1.00  0.00    -0.550 OA
ENDBRANCH   7   8
ENDBRANCH   6   7
ENDBRANCH   5   6
ENDBRANCH   4   5
ENDBRANCH   3   4
ENDBRANCH   2   3
ENDBRANCH   1   2
BRANCH   1  11
ATOM     11  C   UNL     1      50.430   6.377  25.648  1.00  0.00     0.000 C 
BRANCH  11  12
ATOM     12  C   UNL     1      49.612   5.133  25.241  1.00  0.00     0.000 C 
BRANCH  12  13
ATOM     13  C   UNL     1      49.918   4.629  23.821  1.00  0.00     0.000 C 
BRANCH  13  14
ATOM     14  C   UNL     1      49.821   3.101  23.692  1.00  0.00     0.000 C 
BRANCH  14  15
ATOM     15  C   UNL     1      49.745   2.641  22.219  1.00  0.00     0.000 C 
BRANCH  15  16
ATOM     16  C   UNL     1      50.735   3.376  21.296  1.00  0.00     0.006 C 
BRANCH  16  17
ATOM     17  C   UNL     1      50.766   2.837  19.857  1.00  0.00     0.053 C 
BRANCH  17  18
ATOM     18  C   UNL     1      52.149   2.864  19.280  1.00  0.00     0.041 C 
ATOM     19  O   UNL     1      52.692   3.962  18.991  1.00  0.00    -0.550 OA
ATOM     20  O   UNL     1      52.843   1.678  19.075  1.00  0.00    -0.550 OA
ENDBRANCH  17  18
ENDBRANCH  16  17
ENDBRANCH  15  16
ENDBRANCH  14  15
ENDBRANCH  13  14
ENDBRANCH  12  13
ENDBRANCH  11  12
ENDBRANCH   1  11
TORSDOF 15
ENDMDL
MODEL 9
REMARK VINA RESULT:    -4.302      4.857      7.633
REMARK INTER + INTRA:          -9.483
REMARK INTER:                  -7.831
REMARK INTRA:                  -1.653
REMARK UNBOUND:                -1.409
REMARK SMILES O=C([O-])CCCCCCCCCCCCCCC(=O)[O-]
REMARK SMILES IDX 10 1 9 2 8 3 7 4 6 5 5 6 4 7 2 8 1 9 3 10 11 11 12 12 13 13
REMARK SMILES IDX 14 14 15 15 16 16 17 17 18 18 19 19 20 20
REMARK H PARENT
REMARK Flexibility Score: inf
ROOT
ATOM      1  C   UNL     1      43.661   2.638  20.573  1.00  0.00     0.000 C 
ENDROOT
BRANCH   1   2
ATOM      2  C   UNL     1      44.983   3.423  20.430  1.00  0.00     0.000 C 
BRANCH   2   3
ATOM      3  C   UNL     1      46.213   2.525  20.215  1.00  0.00     0.000 C 
BRANCH   3   4
ATOM      4  C   UNL     1      47.450   3.015  20.987  1.00  0.00     0.000 C 
BRANCH   4   5
ATOM      5  C   UNL     1      48.749   2.352  20.501  1.00  0.00     0.000 C 
BRANCH   5   6
ATOM      6  C   UNL     1      50.007   3.118  20.950  1.00  0.00     0.006 C 
BRANCH   6   7
ATOM      7  C   UNL     1      51.281   2.277  20.798  1.00  0.00     0.053 C 
BRANCH   7   8
ATOM      8  C   UNL     1      51.980   2.551  19.501  1.00  0.00     0.041 C 
ATOM      9  O   UNL     1      52.877   1.770  19.088  1.00  0.00    -0.550 OA
ATOM     10  O   UNL     1      51.664   3.686  18.766  1.00  0.00    -0.550 OA
ENDBRANCH   7   8
ENDBRANCH   6   7
ENDBRANCH   5   6
ENDBRANCH   4   5
ENDBRANCH   3   4
ENDBRANCH   2   3
ENDBRANCH   1   2
BRANCH   1  11
ATOM     11  C   UNL     1      43.518   1.990  21.962  1.00  0.00     0.000 C 
BRANCH  11  12
ATOM     12  C   UNL     1      43.202   0.481  21.872  1.00  0.00     0.000 C 
BRANCH  12  13
ATOM     13  C   UNL     1      43.849  -0.353  22.991  1.00  0.00     0.000 C 
BRANCH  13  14
ATOM     14  C   UNL     1      45.262   0.128  23.357  1.00  0.00     0.000 C 
BRANCH  14  15
ATOM     15  C   UNL     1      46.335  -0.416  22.388  1.00  0.00     0.000 C 
BRANCH  15  16
ATOM     16  C   UNL     1      47.774  -0.255  22.913  1.00  0.00     0.006 C 
BRANCH  16  17
ATOM     17  C   UNL     1      48.825  -1.030  22.103  1.00  0.00     0.053 C 
BRANCH  17  18
ATOM     18  C   UNL     1      49.235  -2.299  22.789  1.00  0.00     0.041 C 
ATOM     19  O   UNL     1      48.381  -3.192  23.027  1.00  0.00    -0.550 OA
ATOM     20  O   UNL     1      50.560  -2.500  23.151  1.00  0.00    -0.550 OA
ENDBRANCH  17  18
ENDBRANCH  16  17
ENDBRANCH  15  16
ENDBRANCH  14  15
ENDBRANCH  13  14
ENDBRANCH  12  13
ENDBRANCH  11  12
ENDBRANCH   1  11
TORSDOF 15
ENDMDL
