MODEL 1
REMARK VINA RESULT:    -3.663      0.000      0.000
REMARK INTER + INTRA:          -7.919
REMARK INTER:                  -6.019
REMARK INTRA:                  -1.900
REMARK UNBOUND:                -1.900
REMARK SMILES C[C@@H]1O[C@H](OC[C@@H]2O[C@H](Oc3c(-c4ccc(O)c(O)c4)oc4cc(O)cc(O)c4c3=O)[C@@H](O)[C@H](O)[C@@H]2O)[C@@H](O)[C@H](O)[C@@H]1O
REMARK SMILES IDX 7 1 36 2 34 3 32 4 9 5 8 6 6 7 5 8 4 9 1 10 2 11 42 12 3 13
REMARK SMILES IDX 40 14 38 15 43 16 41 18 39 20 37 22 35 24 10 26 11 27 12 28
REMARK SMILES IDX 30 29 21 30 29 31 31 32 22 33 27 34 23 35 26 36 24 37 13 38
REMARK SMILES IDX 20 39 14 40 18 41 15 42 16 43 19 44 17 46 28 48 25 50 33 52
REMARK H PARENT 43 17 41 19 39 21 37 23 35 25 19 45 17 47 28 49 25 51 33 53
REMARK Flexibility Score: inf
ROOT
ATOM      1  C   UNL     1     -19.438  26.522  21.816  1.00  0.00     0.180 C 
ATOM      2  C   UNL     1     -17.879  26.690  21.671  1.00  0.00     0.177 C 
ATOM      3  C   UNL     1     -17.164  25.333  21.844  1.00  0.00     0.180 C 
ATOM      4  C   UNL     1     -18.005  24.192  21.159  1.00  0.00     0.214 C 
ATOM      5  C   UNL     1     -19.104  24.756  20.212  1.00  0.00     0.339 C 
ATOM      6  O   UNL     1     -20.045  25.567  20.918  1.00  0.00    -0.332 OA
ENDROOT
BRANCH   1   7
ATOM      7  C   UNL     1     -19.902  26.182  23.255  1.00  0.00     0.198 C 
BRANCH   7   8
ATOM      8  O   UNL     1     -21.228  26.651  23.449  1.00  0.00    -0.347 OA
BRANCH   8   9
ATOM      9  C   UNL     1     -21.325  28.035  23.788  1.00  0.00     0.281 C 
ATOM     10  C   UNL     1     -18.437  30.319  24.056  1.00  0.00     0.041 C 
ATOM     11  C   UNL     1     -19.907  29.932  23.904  1.00  0.00     0.150 C 
ATOM     12  C   UNL     1     -20.571  30.635  22.719  1.00  0.00     0.174 C 
ATOM     13  O   UNL     1     -19.982  28.527  23.703  1.00  0.00    -0.344 OA
ATOM     14  C   UNL     1     -22.079  30.303  22.841  1.00  0.00     0.179 C 
ATOM     15  C   UNL     1     -22.274  28.789  22.800  1.00  0.00     0.202 C 
BRANCH  12  16
ATOM     16  O   UNL     1     -20.033  30.131  21.518  1.00  0.00    -0.388 OA
ATOM     17  H   UNL     1     -20.713  30.141  20.765  1.00  0.00     0.211 HD
ENDBRANCH  12  16
BRANCH  14  18
ATOM     18  O   UNL     1     -22.817  30.925  21.829  1.00  0.00    -0.387 OA
ATOM     19  H   UNL     1     -23.689  31.229  22.204  1.00  0.00     0.211 HD
ENDBRANCH  14  18
BRANCH  15  20
ATOM     20  O   UNL     1     -23.610  28.500  23.141  1.00  0.00    -0.385 OA
ATOM     21  H   UNL     1     -23.732  27.533  22.997  1.00  0.00     0.211 HD
ENDBRANCH  15  20
ENDBRANCH   8   9
ENDBRANCH   7   8
ENDBRANCH   1   7
BRANCH   2  22
ATOM     22  O   UNL     1     -17.323  27.729  22.445  1.00  0.00    -0.387 OA
ATOM     23  H   UNL     1     -16.497  28.049  22.003  1.00  0.00     0.211 HD
ENDBRANCH   2  22
BRANCH   3  24
ATOM     24  O   UNL     1     -16.987  25.026  23.209  1.00  0.00    -0.387 OA
ATOM     25  H   UNL     1     -16.083  25.358  23.462  1.00  0.00     0.211 HD
ENDBRANCH   3  24
BRANCH   5  26
ATOM     26  O   UNL     1     -19.760  23.649  19.596  1.00  0.00    -0.454 OA
BRANCH  26  27
ATOM     27  C   UNL     1     -20.653  23.682  18.519  1.00  0.00     0.214 A 
ATOM     28  C   UNL     1     -22.059  23.766  18.677  1.00  0.00     0.180 A 
ATOM     29  C   UNL     1     -20.110  23.621  17.237  1.00  0.00     0.239 A 
ATOM     30  O   UNL     1     -22.843  23.601  17.615  1.00  0.00    -0.452 OA
ATOM     31  C   UNL     1     -20.976  23.568  16.134  1.00  0.00     0.111 A 
ATOM     32  O   UNL     1     -18.857  23.551  17.104  1.00  0.00    -0.285 OA
ATOM     33  C   UNL     1     -22.370  23.463  16.385  1.00  0.00     0.146 A 
ATOM     34  C   UNL     1     -20.529  23.568  14.773  1.00  0.00     0.134 A 
ATOM     35  C   UNL     1     -23.270  23.225  15.355  1.00  0.00     0.094 A 
ATOM     36  C   UNL     1     -21.462  23.330  13.750  1.00  0.00     0.093 A 
ATOM     37  C   UNL     1     -22.815  23.164  14.020  1.00  0.00     0.123 A 
BRANCH  28  38
ATOM     38  C   UNL     1     -22.699  24.104  19.946  1.00  0.00     0.025 A 
ATOM     39  C   UNL     1     -22.472  23.308  21.089  1.00  0.00     0.062 A 
ATOM     40  C   UNL     1     -23.377  25.331  20.092  1.00  0.00     0.016 A 
ATOM     41  C   UNL     1     -22.977  23.706  22.329  1.00  0.00     0.158 A 
ATOM     42  C   UNL     1     -23.830  25.736  21.343  1.00  0.00     0.051 A 
ATOM     43  C   UNL     1     -23.637  24.935  22.463  1.00  0.00     0.157 A 
BRANCH  41  44
ATOM     44  O   UNL     1     -22.799  22.897  23.445  1.00  0.00    -0.504 OA
ATOM     45  H   UNL     1     -22.534  23.278  24.354  1.00  0.00     0.293 HD
ENDBRANCH  41  44
BRANCH  43  46
ATOM     46  O   UNL     1     -24.125  25.368  23.691  1.00  0.00    -0.504 OA
ATOM     47  H   UNL     1     -24.423  26.325  23.829  1.00  0.00     0.293 HD
ENDBRANCH  43  46
ENDBRANCH  28  38
BRANCH  34  48
ATOM     48  O   UNL     1     -19.204  23.813  14.399  1.00  0.00    -0.507 OA
ATOM     49  H   UNL     1     -18.401  23.635  14.987  1.00  0.00     0.293 HD
ENDBRANCH  34  48
BRANCH  37  50
ATOM     50  O   UNL     1     -23.710  22.957  12.982  1.00  0.00    -0.508 OA
ATOM     51  H   UNL     1     -23.423  22.689  12.036  1.00  0.00     0.293 HD
ENDBRANCH  37  50
ENDBRANCH  26  27
ENDBRANCH   5  26
BRANCH   4  52
ATOM     52  O   UNL     1     -17.163  23.326  20.421  1.00  0.00    -0.384 OA
ATOM     53  H   UNL     1     -16.547  23.889  19.881  1.00  0.00     0.211 HD
ENDBRANCH   4  52
TORSDOF 16
ENDMDL
MODEL 2
REMARK VINA RESULT:    -2.315      3.539      9.496
REMARK INTER + INTRA:          -5.705
REMARK INTER:                  -4.726
REMARK INTRA:                  -0.978
REMARK UNBOUND:                -1.900
REMARK SMILES C[C@@H]1O[C@H](OC[C@@H]2O[C@H](Oc3c(-c4ccc(O)c(O)c4)oc4cc(O)cc(O)c4c3=O)[C@@H](O)[C@H](O)[C@@H]2O)[C@@H](O)[C@H](O)[C@@H]1O
REMARK SMILES IDX 7 1 36 2 34 3 32 4 9 5 8 6 6 7 5 8 4 9 1 10 2 11 42 12 3 13
REMARK SMILES IDX 40 14 38 15 43 16 41 18 39 20 37 22 35 24 10 26 11 27 12 28
REMARK SMILES IDX 30 29 21 30 29 31 31 32 22 33 27 34 23 35 26 36 24 37 13 38
REMARK SMILES IDX 20 39 14 40 18 41 15 42 16 43 19 44 17 46 28 48 25 50 33 52
REMARK H PARENT 43 17 41 19 39 21 37 23 35 25 19 45 17 47 28 49 25 51 33 53
REMARK Flexibility Score: inf
ROOT
ATOM      1  C   UNL     1     -20.109  28.584  20.348  1.00  0.00     0.180 C 
ATOM      2  C   UNL     1     -20.661  28.749  18.882  1.00  0.00     0.177 C 
ATOM      3  C   UNL     1     -22.204  28.749  18.875  1.00  0.00     0.180 C 
ATOM      4  C   UNL     1     -22.747  29.537  20.125  1.00  0.00     0.214 C 
ATOM      5  C   UNL     1     -21.639  30.385  20.815  1.00  0.00     0.339 C 
ATOM      6  O   UNL     1     -20.572  29.568  21.299  1.00  0.00    -0.332 OA
ENDROOT
BRANCH   1   7
ATOM      7  C   UNL     1     -20.357  27.182  20.959  1.00  0.00     0.198 C 
BRANCH   7   8
ATOM      8  O   UNL     1     -19.979  26.184  20.022  1.00  0.00    -0.347 OA
BRANCH   8   9
ATOM      9  C   UNL     1     -19.595  24.938  20.604  1.00  0.00     0.281 C 
ATOM     10  C   UNL     1     -16.209  24.186  21.869  1.00  0.00     0.041 C 
ATOM     11  C   UNL     1     -17.718  24.006  21.715  1.00  0.00     0.150 C 
ATOM     12  C   UNL     1     -18.430  23.910  23.066  1.00  0.00     0.174 C 
ATOM     13  O   UNL     1     -18.233  25.126  21.007  1.00  0.00    -0.344 OA
ATOM     14  C   UNL     1     -19.891  23.520  22.729  1.00  0.00     0.179 C 
ATOM     15  C   UNL     1     -20.508  24.585  21.824  1.00  0.00     0.202 C 
BRANCH  12  16
ATOM     16  O   UNL     1     -18.371  25.159  23.714  1.00  0.00    -0.388 OA
ATOM     17  H   UNL     1     -17.952  25.089  24.635  1.00  0.00     0.211 HD
ENDBRANCH  12  16
BRANCH  14  18
ATOM     18  O   UNL     1     -20.651  23.358  23.891  1.00  0.00    -0.387 OA
ATOM     19  H   UNL     1     -20.469  22.455  24.273  1.00  0.00     0.211 HD
ENDBRANCH  14  18
BRANCH  15  20
ATOM     20  O   UNL     1     -21.743  24.105  21.346  1.00  0.00    -0.385 OA
ATOM     21  H   UNL     1     -21.569  23.725  20.454  1.00  0.00     0.211 HD
ENDBRANCH  15  20
ENDBRANCH   8   9
ENDBRANCH   7   8
ENDBRANCH   1   7
BRANCH   2  22
ATOM     22  O   UNL     1     -20.087  27.878  17.935  1.00  0.00    -0.387 OA
ATOM     23  H   UNL     1     -20.733  27.154  17.733  1.00  0.00     0.211 HD
ENDBRANCH   2  22
BRANCH   3  24
ATOM     24  O   UNL     1     -22.709  27.433  18.898  1.00  0.00    -0.387 OA
ATOM     25  H   UNL     1     -23.023  27.230  17.976  1.00  0.00     0.211 HD
ENDBRANCH   3  24
BRANCH   5  26
ATOM     26  O   UNL     1     -22.244  31.106  21.887  1.00  0.00    -0.454 OA
BRANCH  26  27
ATOM     27  C   UNL     1     -21.961  32.413  22.300  1.00  0.00     0.214 A 
ATOM     28  C   UNL     1     -20.915  32.733  23.201  1.00  0.00     0.180 A 
ATOM     29  C   UNL     1     -22.764  33.431  21.793  1.00  0.00     0.239 A 
ATOM     30  O   UNL     1     -20.834  33.968  23.689  1.00  0.00    -0.452 OA
ATOM     31  C   UNL     1     -22.565  34.744  22.247  1.00  0.00     0.111 A 
ATOM     32  O   UNL     1     -23.690  33.139  20.987  1.00  0.00    -0.285 OA
ATOM     33  C   UNL     1     -21.626  34.953  23.291  1.00  0.00     0.146 A 
ATOM     34  C   UNL     1     -23.288  35.876  21.747  1.00  0.00     0.134 A 
ATOM     35  C   UNL     1     -21.506  36.188  23.914  1.00  0.00     0.094 A 
ATOM     36  C   UNL     1     -23.144  37.115  22.393  1.00  0.00     0.093 A 
ATOM     37  C   UNL     1     -22.267  37.285  23.458  1.00  0.00     0.123 A 
BRANCH  28  38
ATOM     38  C   UNL     1     -19.864  31.788  23.570  1.00  0.00     0.025 A 
ATOM     39  C   UNL     1     -20.160  30.415  23.710  1.00  0.00     0.062 A 
ATOM     40  C   UNL     1     -18.516  32.201  23.589  1.00  0.00     0.016 A 
ATOM     41  C   UNL     1     -19.131  29.498  23.932  1.00  0.00     0.158 A 
ATOM     42  C   UNL     1     -17.500  31.268  23.762  1.00  0.00     0.051 A 
ATOM     43  C   UNL     1     -17.794  29.920  23.933  1.00  0.00     0.157 A 
BRANCH  41  44
ATOM     44  O   UNL     1     -19.427  28.153  24.120  1.00  0.00    -0.504 OA
ATOM     45  H   UNL     1     -19.554  27.511  23.337  1.00  0.00     0.293 HD
ENDBRANCH  41  44
BRANCH  43  46
ATOM     46  O   UNL     1     -16.750  29.022  24.125  1.00  0.00    -0.504 OA
ATOM     47  H   UNL     1     -16.896  28.142  24.601  1.00  0.00     0.293 HD
ENDBRANCH  43  46
ENDBRANCH  28  38
BRANCH  34  48
ATOM     48  O   UNL     1     -24.125  35.820  20.628  1.00  0.00    -0.507 OA
ATOM     49  H   UNL     1     -25.123  35.662  20.666  1.00  0.00     0.293 HD
ENDBRANCH  34  48
BRANCH  37  50
ATOM     50  O   UNL     1     -22.132  38.530  24.053  1.00  0.00    -0.508 OA
ATOM     51  H   UNL     1     -21.607  39.302  23.631  1.00  0.00     0.293 HD
ENDBRANCH  37  50
ENDBRANCH  26  27
ENDBRANCH   5  26
BRANCH   4  52
ATOM     52  O   UNL     1     -23.814  30.389  19.753  1.00  0.00    -0.384 OA
ATOM     53  H   UNL     1     -23.603  31.302  20.084  1.00  0.00     0.211 HD
ENDBRANCH   4  52
TORSDOF 16
ENDMDL
MODEL 3
REMARK VINA RESULT:    -2.012      1.656      8.973
REMARK INTER + INTRA:          -5.207
REMARK INTER:                  -4.374
REMARK INTRA:                  -0.833
REMARK UNBOUND:                -1.900
REMARK SMILES C[C@@H]1O[C@H](OC[C@@H]2O[C@H](Oc3c(-c4ccc(O)c(O)c4)oc4cc(O)cc(O)c4c3=O)[C@@H](O)[C@H](O)[C@@H]2O)[C@@H](O)[C@H](O)[C@@H]1O
REMARK SMILES IDX 7 1 36 2 34 3 32 4 9 5 8 6 6 7 5 8 4 9 1 10 2 11 42 12 3 13
REMARK SMILES IDX 40 14 38 15 43 16 41 18 39 20 37 22 35 24 10 26 11 27 12 28
REMARK SMILES IDX 30 29 21 30 29 31 31 32 22 33 27 34 23 35 26 36 24 37 13 38
REMARK SMILES IDX 20 39 14 40 18 41 15 42 16 43 19 44 17 46 28 48 25 50 33 52
REMARK H PARENT 43 17 41 19 39 21 37 23 35 25 19 45 17 47 28 49 25 51 33 53
REMARK Flexibility Score: inf
ROOT
ATOM      1  C   UNL     1     -21.899  25.115  17.943  1.00  0.00     0.180 C 
ATOM      2  C   UNL     1     -23.474  25.132  17.943  1.00  0.00     0.177 C 
ATOM      3  C   UNL     1     -24.030  24.431  19.199  1.00  0.00     0.180 C 
ATOM      4  C   UNL     1     -23.135  24.776  20.448  1.00  0.00     0.214 C 
ATOM      5  C   UNL     1     -22.180  25.975  20.176  1.00  0.00     0.339 C 
ATOM      6  O   UNL     1     -21.273  25.697  19.108  1.00  0.00    -0.332 OA
ENDROOT
BRANCH   1   7
ATOM      7  C   UNL     1     -21.286  23.708  17.729  1.00  0.00     0.198 C 
BRANCH   7   8
ATOM      8  O   UNL     1     -20.299  23.771  16.710  1.00  0.00    -0.347 OA
BRANCH   8   9
ATOM      9  C   UNL     1     -20.667  23.136  15.486  1.00  0.00     0.281 C 
ATOM     10  C   UNL     1     -24.124  22.910  14.213  1.00  0.00     0.041 C 
ATOM     11  C   UNL     1     -22.599  22.876  14.136  1.00  0.00     0.150 C 
ATOM     12  C   UNL     1     -22.056  23.749  13.003  1.00  0.00     0.174 C 
ATOM     13  O   UNL     1     -22.078  23.353  15.370  1.00  0.00    -0.344 OA
ATOM     14  C   UNL     1     -20.542  23.432  12.935  1.00  0.00     0.179 C 
ATOM     15  C   UNL     1     -19.891  23.757  14.278  1.00  0.00     0.202 C 
BRANCH  12  16
ATOM     16  O   UNL     1     -22.281  25.105  13.311  1.00  0.00    -0.388 OA
ATOM     17  H   UNL     1     -21.574  25.709  12.905  1.00  0.00     0.211 HD
ENDBRANCH  12  16
BRANCH  14  18
ATOM     18  O   UNL     1     -19.924  24.142  11.901  1.00  0.00    -0.387 OA
ATOM     19  H   UNL     1     -18.995  24.375  12.178  1.00  0.00     0.211 HD
ENDBRANCH  14  18
BRANCH  15  20
ATOM     20  O   UNL     1     -18.576  23.252  14.272  1.00  0.00    -0.385 OA
ATOM     21  H   UNL     1     -18.595  22.428  13.732  1.00  0.00     0.211 HD
ENDBRANCH  15  20
ENDBRANCH   8   9
ENDBRANCH   7   8
ENDBRANCH   1   7
BRANCH   2  22
ATOM     22  O   UNL     1     -24.068  24.701  16.739  1.00  0.00    -0.387 OA
ATOM     23  H   UNL     1     -23.426  24.844  15.998  1.00  0.00     0.211 HD
ENDBRANCH   2  22
BRANCH   3  24
ATOM     24  O   UNL     1     -24.062  23.031  19.023  1.00  0.00    -0.387 OA
ATOM     25  H   UNL     1     -23.147  22.757  18.744  1.00  0.00     0.211 HD
ENDBRANCH   3  24
BRANCH   5  26
ATOM     26  O   UNL     1     -21.467  26.248  21.381  1.00  0.00    -0.454 OA
BRANCH  26  27
ATOM     27  C   UNL     1     -20.889  27.461  21.770  1.00  0.00     0.214 A 
ATOM     28  C   UNL     1     -19.610  27.553  22.375  1.00  0.00     0.180 A 
ATOM     29  C   UNL     1     -21.627  28.621  21.549  1.00  0.00     0.239 A 
ATOM     30  O   UNL     1     -19.216  28.717  22.886  1.00  0.00    -0.452 OA
ATOM     31  C   UNL     1     -21.118  29.848  22.001  1.00  0.00     0.111 A 
ATOM     32  O   UNL     1     -22.763  28.531  21.006  1.00  0.00    -0.285 OA
ATOM     33  C   UNL     1     -19.922  29.832  22.766  1.00  0.00     0.146 A 
ATOM     34  C   UNL     1     -21.760  31.108  21.771  1.00  0.00     0.134 A 
ATOM     35  C   UNL     1     -19.456  30.978  23.397  1.00  0.00     0.094 A 
ATOM     36  C   UNL     1     -21.265  32.252  22.418  1.00  0.00     0.093 A 
ATOM     37  C   UNL     1     -20.130  32.205  23.218  1.00  0.00     0.123 A 
BRANCH  28  38
ATOM     38  C   UNL     1     -18.659  26.444  22.401  1.00  0.00     0.025 A 
ATOM     39  C   UNL     1     -18.379  25.722  21.222  1.00  0.00     0.062 A 
ATOM     40  C   UNL     1     -17.866  26.220  23.544  1.00  0.00     0.016 A 
ATOM     41  C   UNL     1     -17.374  24.752  21.219  1.00  0.00     0.158 A 
ATOM     42  C   UNL     1     -16.837  25.285  23.510  1.00  0.00     0.051 A 
ATOM     43  C   UNL     1     -16.583  24.549  22.358  1.00  0.00     0.157 A 
BRANCH  41  44
ATOM     44  O   UNL     1     -17.132  24.004  20.073  1.00  0.00    -0.504 OA
ATOM     45  H   UNL     1     -17.854  23.429  19.639  1.00  0.00     0.293 HD
ENDBRANCH  41  44
BRANCH  43  46
ATOM     46  O   UNL     1     -15.558  23.609  22.374  1.00  0.00    -0.504 OA
ATOM     47  H   UNL     1     -14.617  23.855  22.098  1.00  0.00     0.293 HD
ENDBRANCH  43  46
ENDBRANCH  28  38
BRANCH  34  48
ATOM     48  O   UNL     1     -22.854  31.268  20.915  1.00  0.00    -0.507 OA
ATOM     49  H   UNL     1     -23.726  31.709  21.175  1.00  0.00     0.293 HD
ENDBRANCH  34  48
BRANCH  37  50
ATOM     50  O   UNL     1     -19.655  33.360  23.819  1.00  0.00    -0.508 OA
ATOM     51  H   UNL     1     -19.777  34.295  23.417  1.00  0.00     0.293 HD
ENDBRANCH  37  50
ENDBRANCH  26  27
ENDBRANCH   5  26
BRANCH   4  52
ATOM     52  O   UNL     1     -23.942  25.076  21.571  1.00  0.00    -0.384 OA
ATOM     53  H   UNL     1     -23.690  24.450  22.302  1.00  0.00     0.211 HD
ENDBRANCH   4  52
TORSDOF 16
ENDMDL
MODEL 4
REMARK VINA RESULT:    -1.970      3.475      9.764
REMARK INTER + INTRA:          -5.138
REMARK INTER:                  -4.296
REMARK INTRA:                  -0.841
REMARK UNBOUND:                -1.900
REMARK SMILES C[C@@H]1O[C@H](OC[C@@H]2O[C@H](Oc3c(-c4ccc(O)c(O)c4)oc4cc(O)cc(O)c4c3=O)[C@@H](O)[C@H](O)[C@@H]2O)[C@@H](O)[C@H](O)[C@@H]1O
REMARK SMILES IDX 7 1 36 2 34 3 32 4 9 5 8 6 6 7 5 8 4 9 1 10 2 11 42 12 3 13
REMARK SMILES IDX 40 14 38 15 43 16 41 18 39 20 37 22 35 24 10 26 11 27 12 28
REMARK SMILES IDX 30 29 21 30 29 31 31 32 22 33 27 34 23 35 26 36 24 37 13 38
REMARK SMILES IDX 20 39 14 40 18 41 15 42 16 43 19 44 17 46 28 48 25 50 33 52
REMARK H PARENT 43 17 41 19 39 21 37 23 35 25 19 45 17 47 28 49 25 51 33 53
REMARK Flexibility Score: inf
ROOT
ATOM      1  C   UNL     1     -19.961  29.091  20.222  1.00  0.00     0.180 C 
ATOM      2  C   UNL     1     -20.625  29.177  18.796  1.00  0.00     0.177 C 
ATOM      3  C   UNL     1     -22.158  29.043  18.897  1.00  0.00     0.180 C 
ATOM      4  C   UNL     1     -22.682  29.806  20.171  1.00  0.00     0.214 C 
ATOM      5  C   UNL     1     -21.609  30.761  20.769  1.00  0.00     0.339 C 
ATOM      6  O   UNL     1     -20.442  30.051  21.189  1.00  0.00    -0.332 OA
ENDROOT
BRANCH   1   7
ATOM      7  C   UNL     1     -20.042  27.685  20.869  1.00  0.00     0.198 C 
BRANCH   7   8
ATOM      8  O   UNL     1     -19.947  26.693  19.858  1.00  0.00    -0.347 OA
BRANCH   8   9
ATOM      9  C   UNL     1     -20.368  25.390  20.263  1.00  0.00     0.281 C 
ATOM     10  C   UNL     1     -22.476  24.708  23.215  1.00  0.00     0.041 C 
ATOM     11  C   UNL     1     -21.818  24.418  21.869  1.00  0.00     0.150 C 
ATOM     12  C   UNL     1     -22.824  23.932  20.824  1.00  0.00     0.174 C 
ATOM     13  O   UNL     1     -21.213  25.615  21.398  1.00  0.00    -0.344 OA
ATOM     14  C   UNL     1     -21.970  23.488  19.611  1.00  0.00     0.179 C 
ATOM     15  C   UNL     1     -21.140  24.668  19.110  1.00  0.00     0.202 C 
BRANCH  12  16
ATOM     16  O   UNL     1     -23.686  24.993  20.481  1.00  0.00    -0.388 OA
ATOM     17  H   UNL     1     -23.835  25.628  21.258  1.00  0.00     0.211 HD
ENDBRANCH  12  16
BRANCH  14  18
ATOM     18  O   UNL     1     -22.775  22.979  18.587  1.00  0.00    -0.387 OA
ATOM     19  H   UNL     1     -23.462  22.375  18.984  1.00  0.00     0.211 HD
ENDBRANCH  14  18
BRANCH  15  20
ATOM     20  O   UNL     1     -20.209  24.192  18.166  1.00  0.00    -0.385 OA
ATOM     21  H   UNL     1     -20.258  24.803  17.394  1.00  0.00     0.211 HD
ENDBRANCH  15  20
ENDBRANCH   8   9
ENDBRANCH   7   8
ENDBRANCH   1   7
BRANCH   2  22
ATOM     22  O   UNL     1     -20.042  28.340  17.823  1.00  0.00    -0.387 OA
ATOM     23  H   UNL     1     -19.485  28.892  17.219  1.00  0.00     0.211 HD
ENDBRANCH   2  22
BRANCH   3  24
ATOM     24  O   UNL     1     -22.542  27.688  18.975  1.00  0.00    -0.387 OA
ATOM     25  H   UNL     1     -23.308  27.571  18.350  1.00  0.00     0.211 HD
ENDBRANCH   3  24
BRANCH   5  26
ATOM     26  O   UNL     1     -22.200  31.449  21.871  1.00  0.00    -0.454 OA
BRANCH  26  27
ATOM     27  C   UNL     1     -21.934  32.753  22.301  1.00  0.00     0.214 A 
ATOM     28  C   UNL     1     -20.899  33.075  23.213  1.00  0.00     0.180 A 
ATOM     29  C   UNL     1     -22.746  33.769  21.799  1.00  0.00     0.239 A 
ATOM     30  O   UNL     1     -20.835  34.305  23.715  1.00  0.00    -0.452 OA
ATOM     31  C   UNL     1     -22.565  35.078  22.270  1.00  0.00     0.111 A 
ATOM     32  O   UNL     1     -23.662  33.475  20.984  1.00  0.00    -0.285 OA
ATOM     33  C   UNL     1     -21.635  35.286  23.323  1.00  0.00     0.146 A 
ATOM     34  C   UNL     1     -23.296  36.208  21.778  1.00  0.00     0.134 A 
ATOM     35  C   UNL     1     -21.534  36.515  23.961  1.00  0.00     0.094 A 
ATOM     36  C   UNL     1     -23.171  37.441  22.439  1.00  0.00     0.093 A 
ATOM     37  C   UNL     1     -22.304  37.608  23.512  1.00  0.00     0.123 A 
BRANCH  28  38
ATOM     38  C   UNL     1     -19.839  32.137  23.579  1.00  0.00     0.025 A 
ATOM     39  C   UNL     1     -20.120  30.759  23.695  1.00  0.00     0.062 A 
ATOM     40  C   UNL     1     -18.497  32.567  23.618  1.00  0.00     0.016 A 
ATOM     41  C   UNL     1     -19.081  29.852  23.913  1.00  0.00     0.158 A 
ATOM     42  C   UNL     1     -17.471  31.644  23.788  1.00  0.00     0.051 A 
ATOM     43  C   UNL     1     -17.751  30.290  23.936  1.00  0.00     0.157 A 
BRANCH  41  44
ATOM     44  O   UNL     1     -19.362  28.500  24.079  1.00  0.00    -0.504 OA
ATOM     45  H   UNL     1     -19.342  28.051  24.995  1.00  0.00     0.293 HD
ENDBRANCH  41  44
BRANCH  43  46
ATOM     46  O   UNL     1     -16.697  29.403  24.125  1.00  0.00    -0.504 OA
ATOM     47  H   UNL     1     -16.133  29.429  24.965  1.00  0.00     0.293 HD
ENDBRANCH  43  46
ENDBRANCH  28  38
BRANCH  34  48
ATOM     48  O   UNL     1     -24.125  36.155  20.652  1.00  0.00    -0.507 OA
ATOM     49  H   UNL     1     -24.962  36.708  20.531  1.00  0.00     0.293 HD
ENDBRANCH  34  48
BRANCH  37  50
ATOM     50  O   UNL     1     -22.187  38.847  24.122  1.00  0.00    -0.508 OA
ATOM     51  H   UNL     1     -21.740  38.986  25.035  1.00  0.00     0.293 HD
ENDBRANCH  37  50
ENDBRANCH  26  27
ENDBRANCH   5  26
BRANCH   4  52
ATOM     52  O   UNL     1     -23.843  30.553  19.863  1.00  0.00    -0.384 OA
ATOM     53  H   UNL     1     -24.524  30.359  20.560  1.00  0.00     0.211 HD
ENDBRANCH   4  52
TORSDOF 16
ENDMDL
MODEL 5
REMARK VINA RESULT:    -1.528      2.540      7.976
REMARK INTER + INTRA:          -4.412
REMARK INTER:                  -4.069
REMARK INTRA:                  -0.343
REMARK UNBOUND:                -1.900
REMARK SMILES C[C@@H]1O[C@H](OC[C@@H]2O[C@H](Oc3c(-c4ccc(O)c(O)c4)oc4cc(O)cc(O)c4c3=O)[C@@H](O)[C@H](O)[C@@H]2O)[C@@H](O)[C@H](O)[C@@H]1O
REMARK SMILES IDX 7 1 36 2 34 3 32 4 9 5 8 6 6 7 5 8 4 9 1 10 2 11 42 12 3 13
REMARK SMILES IDX 40 14 38 15 43 16 41 18 39 20 37 22 35 24 10 26 11 27 12 28
REMARK SMILES IDX 30 29 21 30 29 31 31 32 22 33 27 34 23 35 26 36 24 37 13 38
REMARK SMILES IDX 20 39 14 40 18 41 15 42 16 43 19 44 17 46 28 48 25 50 33 52
REMARK H PARENT 43 17 41 19 39 21 37 23 35 25 19 45 17 47 28 49 25 51 33 53
REMARK Flexibility Score: inf
ROOT
ATOM      1  C   UNL     1     -19.258  26.930  23.652  1.00  0.00     0.180 C 
ATOM      2  C   UNL     1     -17.924  27.746  23.455  1.00  0.00     0.177 C 
ATOM      3  C   UNL     1     -18.078  28.779  22.319  1.00  0.00     0.180 C 
ATOM      4  C   UNL     1     -19.515  29.419  22.366  1.00  0.00     0.214 C 
ATOM      5  C   UNL     1     -20.249  29.126  23.707  1.00  0.00     0.339 C 
ATOM      6  O   UNL     1     -20.437  27.724  23.910  1.00  0.00    -0.332 OA
ENDROOT
BRANCH   1   7
ATOM      7  C   UNL     1     -19.583  25.965  22.484  1.00  0.00     0.198 C 
BRANCH   7   8
ATOM      8  O   UNL     1     -18.624  24.918  22.454  1.00  0.00    -0.347 OA
BRANCH   8   9
ATOM      9  C   UNL     1     -18.948  23.841  21.575  1.00  0.00     0.281 C 
ATOM     10  C   UNL     1     -22.387  22.875  20.644  1.00  0.00     0.041 C 
ATOM     11  C   UNL     1     -20.867  22.937  20.513  1.00  0.00     0.150 C 
ATOM     12  C   UNL     1     -20.422  23.360  19.112  1.00  0.00     0.174 C 
ATOM     13  O   UNL     1     -20.375  23.884  21.453  1.00  0.00    -0.344 OA
ATOM     14  C   UNL     1     -18.886  23.164  19.095  1.00  0.00     0.179 C 
ATOM     15  C   UNL     1     -18.250  24.022  20.187  1.00  0.00     0.202 C 
BRANCH  12  16
ATOM     16  O   UNL     1     -20.768  24.710  18.901  1.00  0.00    -0.388 OA
ATOM     17  H   UNL     1     -21.160  24.861  17.977  1.00  0.00     0.211 HD
ENDBRANCH  12  16
BRANCH  14  18
ATOM     18  O   UNL     1     -18.350  23.480  17.843  1.00  0.00    -0.387 OA
ATOM     19  H   UNL     1     -18.869  24.235  17.450  1.00  0.00     0.211 HD
ENDBRANCH  14  18
BRANCH  15  20
ATOM     20  O   UNL     1     -16.894  23.660  20.308  1.00  0.00    -0.385 OA
ATOM     21  H   UNL     1     -16.876  22.801  20.792  1.00  0.00     0.211 HD
ENDBRANCH  15  20
ENDBRANCH   8   9
ENDBRANCH   7   8
ENDBRANCH   1   7
BRANCH   2  22
ATOM     22  O   UNL     1     -16.761  26.956  23.354  1.00  0.00    -0.387 OA
ATOM     23  H   UNL     1     -16.490  26.907  22.403  1.00  0.00     0.211 HD
ENDBRANCH   2  22
BRANCH   3  24
ATOM     24  O   UNL     1     -17.877  28.178  21.059  1.00  0.00    -0.387 OA
ATOM     25  H   UNL     1     -16.900  28.006  20.977  1.00  0.00     0.211 HD
ENDBRANCH   3  24
BRANCH   5  26
ATOM     26  O   UNL     1     -21.505  29.801  23.675  1.00  0.00    -0.454 OA
BRANCH  26  27
ATOM     27  C   UNL     1     -21.940  30.745  22.739  1.00  0.00     0.214 A 
ATOM     28  C   UNL     1     -22.579  30.397  21.523  1.00  0.00     0.180 A 
ATOM     29  C   UNL     1     -21.718  32.088  23.036  1.00  0.00     0.239 A 
ATOM     30  O   UNL     1     -22.788  31.339  20.607  1.00  0.00    -0.452 OA
ATOM     31  C   UNL     1     -22.065  33.061  22.086  1.00  0.00     0.111 A 
ATOM     32  O   UNL     1     -21.153  32.391  24.123  1.00  0.00    -0.285 OA
ATOM     33  C   UNL     1     -22.522  32.620  20.816  1.00  0.00     0.146 A 
ATOM     34  C   UNL     1     -21.941  34.471  22.311  1.00  0.00     0.134 A 
ATOM     35  C   UNL     1     -22.711  33.512  19.770  1.00  0.00     0.094 A 
ATOM     36  C   UNL     1     -22.142  35.351  21.235  1.00  0.00     0.093 A 
ATOM     37  C   UNL     1     -22.526  34.895  19.980  1.00  0.00     0.123 A 
BRANCH  28  38
ATOM     38  C   UNL     1     -23.094  29.057  21.248  1.00  0.00     0.025 A 
ATOM     39  C   UNL     1     -22.878  28.458  19.989  1.00  0.00     0.062 A 
ATOM     40  C   UNL     1     -23.625  28.276  22.294  1.00  0.00     0.016 A 
ATOM     41  C   UNL     1     -23.253  27.131  19.774  1.00  0.00     0.158 A 
ATOM     42  C   UNL     1     -23.949  26.941  22.076  1.00  0.00     0.051 A 
ATOM     43  C   UNL     1     -23.767  26.361  20.826  1.00  0.00     0.157 A 
BRANCH  41  44
ATOM     44  O   UNL     1     -23.089  26.556  18.519  1.00  0.00    -0.504 OA
ATOM     45  H   UNL     1     -23.791  26.648  17.784  1.00  0.00     0.293 HD
ENDBRANCH  41  44
BRANCH  43  46
ATOM     46  O   UNL     1     -24.124  25.029  20.645  1.00  0.00    -0.504 OA
ATOM     47  H   UNL     1     -24.214  24.399  21.431  1.00  0.00     0.293 HD
ENDBRANCH  43  46
ENDBRANCH  28  38
BRANCH  34  48
ATOM     48  O   UNL     1     -21.644  35.026  23.559  1.00  0.00    -0.507 OA
ATOM     49  H   UNL     1     -22.177  35.763  24.000  1.00  0.00     0.293 HD
ENDBRANCH  34  48
BRANCH  37  50
ATOM     50  O   UNL     1     -22.741  35.797  18.950  1.00  0.00    -0.508 OA
ATOM     51  H   UNL     1     -21.998  36.374  18.541  1.00  0.00     0.293 HD
ENDBRANCH  37  50
ENDBRANCH  26  27
ENDBRANCH   5  26
BRANCH   4  52
ATOM     52  O   UNL     1     -19.443  30.821  22.179  1.00  0.00    -0.384 OA
ATOM     53  H   UNL     1     -20.318  31.208  22.445  1.00  0.00     0.211 HD
ENDBRANCH   4  52
TORSDOF 16
ENDMDL
MODEL 6
REMARK VINA RESULT:    -1.439      2.270      8.249
REMARK INTER + INTRA:          -4.265
REMARK INTER:                  -2.363
REMARK INTRA:                  -1.902
REMARK UNBOUND:                -1.900
REMARK SMILES C[C@@H]1O[C@H](OC[C@@H]2O[C@H](Oc3c(-c4ccc(O)c(O)c4)oc4cc(O)cc(O)c4c3=O)[C@@H](O)[C@H](O)[C@@H]2O)[C@@H](O)[C@H](O)[C@@H]1O
REMARK SMILES IDX 7 1 36 2 34 3 32 4 9 5 8 6 6 7 5 8 4 9 1 10 2 11 42 12 3 13
REMARK SMILES IDX 40 14 38 15 43 16 41 18 39 20 37 22 35 24 10 26 11 27 12 28
REMARK SMILES IDX 30 29 21 30 29 31 31 32 22 33 27 34 23 35 26 36 24 37 13 38
REMARK SMILES IDX 20 39 14 40 18 41 15 42 16 43 19 44 17 46 28 48 25 50 33 52
REMARK H PARENT 43 17 41 19 39 21 37 23 35 25 19 45 17 47 28 49 25 51 33 53
REMARK Flexibility Score: inf
ROOT
ATOM      1  C   UNL     1     -21.112  28.414  19.594  1.00  0.00     0.180 C 
ATOM      2  C   UNL     1     -22.605  28.893  19.444  1.00  0.00     0.177 C 
ATOM      3  C   UNL     1     -23.569  27.904  20.131  1.00  0.00     0.180 C 
ATOM      4  C   UNL     1     -22.932  27.377  21.472  1.00  0.00     0.214 C 
ATOM      5  C   UNL     1     -21.711  28.231  21.920  1.00  0.00     0.339 C 
ATOM      6  O   UNL     1     -20.662  28.204  20.950  1.00  0.00    -0.332 OA
ENDROOT
BRANCH   1   7
ATOM      7  C   UNL     1     -20.776  27.139  18.780  1.00  0.00     0.198 C 
BRANCH   7   8
ATOM      8  O   UNL     1     -20.234  26.153  19.646  1.00  0.00    -0.347 OA
BRANCH   8   9
ATOM      9  C   UNL     1     -20.627  24.814  19.342  1.00  0.00     0.281 C 
ATOM     10  C   UNL     1     -23.690  23.200  20.619  1.00  0.00     0.041 C 
ATOM     11  C   UNL     1     -22.491  23.392  19.693  1.00  0.00     0.150 C 
ATOM     12  C   UNL     1     -22.890  23.372  18.216  1.00  0.00     0.174 C 
ATOM     13  O   UNL     1     -21.895  24.648  19.988  1.00  0.00    -0.344 OA
ATOM     14  C   UNL     1     -21.554  23.362  17.433  1.00  0.00     0.179 C 
ATOM     15  C   UNL     1     -20.740  24.602  17.796  1.00  0.00     0.202 C 
BRANCH  12  16
ATOM     16  O   UNL     1     -23.646  24.524  17.923  1.00  0.00    -0.388 OA
ATOM     17  H   UNL     1     -23.403  24.917  17.019  1.00  0.00     0.211 HD
ENDBRANCH  12  16
BRANCH  14  18
ATOM     18  O   UNL     1     -21.778  23.302  16.055  1.00  0.00    -0.387 OA
ATOM     19  H   UNL     1     -21.637  22.365  15.744  1.00  0.00     0.211 HD
ENDBRANCH  14  18
BRANCH  15  20
ATOM     20  O   UNL     1     -19.446  24.461  17.258  1.00  0.00    -0.385 OA
ATOM     21  H   UNL     1     -19.395  23.549  16.888  1.00  0.00     0.211 HD
ENDBRANCH  15  20
ENDBRANCH   8   9
ENDBRANCH   7   8
ENDBRANCH   1   7
BRANCH   2  22
ATOM     22  O   UNL     1     -22.984  29.238  18.131  1.00  0.00    -0.387 OA
ATOM     23  H   UNL     1     -23.938  29.007  18.003  1.00  0.00     0.211 HD
ENDBRANCH   2  22
BRANCH   3  24
ATOM     24  O   UNL     1     -23.854  26.808  19.290  1.00  0.00    -0.387 OA
ATOM     25  H   UNL     1     -23.329  26.037  19.637  1.00  0.00     0.211 HD
ENDBRANCH   3  24
BRANCH   5  26
ATOM     26  O   UNL     1     -21.252  27.716  23.169  1.00  0.00    -0.454 OA
BRANCH  26  27
ATOM     27  C   UNL     1     -19.949  27.332  23.504  1.00  0.00     0.214 A 
ATOM     28  C   UNL     1     -18.910  28.258  23.769  1.00  0.00     0.180 A 
ATOM     29  C   UNL     1     -19.682  25.966  23.567  1.00  0.00     0.239 A 
ATOM     30  O   UNL     1     -17.661  27.815  23.891  1.00  0.00    -0.452 OA
ATOM     31  C   UNL     1     -18.369  25.541  23.817  1.00  0.00     0.111 A 
ATOM     32  O   UNL     1     -20.614  25.148  23.334  1.00  0.00    -0.285 OA
ATOM     33  C   UNL     1     -17.349  26.528  23.882  1.00  0.00     0.146 A 
ATOM     34  C   UNL     1     -17.993  24.166  23.967  1.00  0.00     0.134 A 
ATOM     35  C   UNL     1     -16.008  26.173  23.945  1.00  0.00     0.094 A 
ATOM     36  C   UNL     1     -16.629  23.837  24.034  1.00  0.00     0.093 A 
ATOM     37  C   UNL     1     -15.641  24.813  24.029  1.00  0.00     0.123 A 
BRANCH  28  38
ATOM     38  C   UNL     1     -19.149  29.682  23.992  1.00  0.00     0.025 A 
ATOM     39  C   UNL     1     -18.079  30.600  23.930  1.00  0.00     0.062 A 
ATOM     40  C   UNL     1     -20.468  30.175  24.065  1.00  0.00     0.016 A 
ATOM     41  C   UNL     1     -18.330  31.971  24.012  1.00  0.00     0.158 A 
ATOM     42  C   UNL     1     -20.703  31.545  24.096  1.00  0.00     0.051 A 
ATOM     43  C   UNL     1     -19.647  32.448  24.070  1.00  0.00     0.157 A 
BRANCH  41  44
ATOM     44  O   UNL     1     -17.273  32.874  24.003  1.00  0.00    -0.504 OA
ATOM     45  H   UNL     1     -16.812  33.176  24.862  1.00  0.00     0.293 HD
ENDBRANCH  41  44
BRANCH  43  46
ATOM     46  O   UNL     1     -19.925  33.810  24.124  1.00  0.00    -0.504 OA
ATOM     47  H   UNL     1     -20.805  34.179  23.790  1.00  0.00     0.293 HD
ENDBRANCH  43  46
ENDBRANCH  28  38
BRANCH  34  48
ATOM     48  O   UNL     1     -18.920  23.124  24.069  1.00  0.00    -0.507 OA
ATOM     49  H   UNL     1     -19.153  22.646  24.929  1.00  0.00     0.293 HD
ENDBRANCH  34  48
BRANCH  37  50
ATOM     50  O   UNL     1     -14.307  24.451  24.124  1.00  0.00    -0.508 OA
ATOM     51  H   UNL     1     -13.779  24.036  23.349  1.00  0.00     0.293 HD
ENDBRANCH  37  50
ENDBRANCH  26  27
ENDBRANCH   5  26
BRANCH   4  52
ATOM     52  O   UNL     1     -23.894  27.369  22.511  1.00  0.00    -0.384 OA
ATOM     53  H   UNL     1     -24.139  28.312  22.706  1.00  0.00     0.211 HD
ENDBRANCH   4  52
TORSDOF 16
ENDMDL
MODEL 7
REMARK VINA RESULT:    -1.424      2.823      5.689
REMARK INTER + INTRA:          -4.241
REMARK INTER:                  -4.671
REMARK INTRA:                   0.430
REMARK UNBOUND:                -1.900
REMARK SMILES C[C@@H]1O[C@H](OC[C@@H]2O[C@H](Oc3c(-c4ccc(O)c(O)c4)oc4cc(O)cc(O)c4c3=O)[C@@H](O)[C@H](O)[C@@H]2O)[C@@H](O)[C@H](O)[C@@H]1O
REMARK SMILES IDX 7 1 36 2 34 3 32 4 9 5 8 6 6 7 5 8 4 9 1 10 2 11 42 12 3 13
REMARK SMILES IDX 40 14 38 15 43 16 41 18 39 20 37 22 35 24 10 26 11 27 12 28
REMARK SMILES IDX 30 29 21 30 29 31 31 32 22 33 27 34 23 35 26 36 24 37 13 38
REMARK SMILES IDX 20 39 14 40 18 41 15 42 16 43 19 44 17 46 28 48 25 50 33 52
REMARK H PARENT 43 17 41 19 39 21 37 23 35 25 19 45 17 47 28 49 25 51 33 53
REMARK Flexibility Score: inf
ROOT
ATOM      1  C   UNL     1     -22.604  30.732  21.134  1.00  0.00     0.180 C 
ATOM      2  C   UNL     1     -21.937  30.892  22.552  1.00  0.00     0.177 C 
ATOM      3  C   UNL     1     -22.621  29.973  23.585  1.00  0.00     0.180 C 
ATOM      4  C   UNL     1     -22.982  28.592  22.921  1.00  0.00     0.214 C 
ATOM      5  C   UNL     1     -22.259  28.385  21.559  1.00  0.00     0.339 C 
ATOM      6  O   UNL     1     -22.626  29.386  20.608  1.00  0.00    -0.332 OA
ENDROOT
BRANCH   1   7
ATOM      7  C   UNL     1     -24.044  31.298  21.049  1.00  0.00     0.198 C 
BRANCH   7   8
ATOM      8  O   UNL     1     -23.997  32.650  20.619  1.00  0.00    -0.347 OA
BRANCH   8   9
ATOM      9  C   UNL     1     -23.050  33.462  21.314  1.00  0.00     0.281 C 
ATOM     10  C   UNL     1     -20.772  35.865  19.683  1.00  0.00     0.041 C 
ATOM     11  C   UNL     1     -21.549  35.235  20.836  1.00  0.00     0.150 C 
ATOM     12  C   UNL     1     -22.350  36.269  21.630  1.00  0.00     0.174 C 
ATOM     13  O   UNL     1     -22.449  34.275  20.299  1.00  0.00    -0.344 OA
ATOM     14  C   UNL     1     -22.891  35.507  22.864  1.00  0.00     0.179 C 
ATOM     15  C   UNL     1     -23.755  34.335  22.403  1.00  0.00     0.202 C 
BRANCH  12  16
ATOM     16  O   UNL     1     -23.402  36.757  20.829  1.00  0.00    -0.388 OA
ATOM     17  H   UNL     1     -23.957  36.005  20.434  1.00  0.00     0.211 HD
ENDBRANCH  12  16
BRANCH  14  18
ATOM     18  O   UNL     1     -23.616  36.357  23.705  1.00  0.00    -0.387 OA
ATOM     19  H   UNL     1     -23.134  36.442  24.573  1.00  0.00     0.211 HD
ENDBRANCH  14  18
BRANCH  15  20
ATOM     20  O   UNL     1     -24.045  33.526  23.520  1.00  0.00    -0.385 OA
ATOM     21  H   UNL     1     -24.077  34.127  24.299  1.00  0.00     0.211 HD
ENDBRANCH  15  20
ENDBRANCH   8   9
ENDBRANCH   7   8
ENDBRANCH   1   7
BRANCH   2  22
ATOM     22  O   UNL     1     -21.786  32.224  22.985  1.00  0.00    -0.387 OA
ATOM     23  H   UNL     1     -21.436  32.221  23.912  1.00  0.00     0.211 HD
ENDBRANCH   2  22
BRANCH   3  24
ATOM     24  O   UNL     1     -23.796  30.568  24.090  1.00  0.00    -0.387 OA
ATOM     25  H   UNL     1     -23.982  30.135  24.967  1.00  0.00     0.211 HD
ENDBRANCH   3  24
BRANCH   5  26
ATOM     26  O   UNL     1     -22.598  27.087  21.075  1.00  0.00    -0.454 OA
BRANCH  26  27
ATOM     27  C   UNL     1     -21.856  26.283  20.202  1.00  0.00     0.214 A 
ATOM     28  C   UNL     1     -20.440  26.265  20.178  1.00  0.00     0.180 A 
ATOM     29  C   UNL     1     -22.567  25.475  19.318  1.00  0.00     0.239 A 
ATOM     30  O   UNL     1     -19.815  25.621  19.195  1.00  0.00    -0.452 OA
ATOM     31  C   UNL     1     -21.861  24.718  18.372  1.00  0.00     0.111 A 
ATOM     32  O   UNL     1     -23.829  25.493  19.349  1.00  0.00    -0.285 OA
ATOM     33  C   UNL     1     -20.455  24.900  18.286  1.00  0.00     0.146 A 
ATOM     34  C   UNL     1     -22.484  23.806  17.459  1.00  0.00     0.134 A 
ATOM     35  C   UNL     1     -19.716  24.326  17.260  1.00  0.00     0.094 A 
ATOM     36  C   UNL     1     -21.711  23.235  16.434  1.00  0.00     0.093 A 
ATOM     37  C   UNL     1     -20.347  23.478  16.326  1.00  0.00     0.123 A 
BRANCH  28  38
ATOM     38  C   UNL     1     -19.617  26.859  21.229  1.00  0.00     0.025 A 
ATOM     39  C   UNL     1     -18.992  26.038  22.192  1.00  0.00     0.062 A 
ATOM     40  C   UNL     1     -19.274  28.225  21.171  1.00  0.00     0.016 A 
ATOM     41  C   UNL     1     -18.101  26.595  23.112  1.00  0.00     0.158 A 
ATOM     42  C   UNL     1     -18.348  28.754  22.064  1.00  0.00     0.051 A 
ATOM     43  C   UNL     1     -17.758  27.951  23.034  1.00  0.00     0.157 A 
BRANCH  41  44
ATOM     44  O   UNL     1     -17.525  25.795  24.093  1.00  0.00    -0.504 OA
ATOM     45  H   UNL     1     -17.299  24.814  23.928  1.00  0.00     0.293 HD
ENDBRANCH  41  44
BRANCH  43  46
ATOM     46  O   UNL     1     -16.853  28.524  23.922  1.00  0.00    -0.504 OA
ATOM     47  H   UNL     1     -16.451  27.987  24.679  1.00  0.00     0.293 HD
ENDBRANCH  43  46
ENDBRANCH  28  38
BRANCH  34  48
ATOM     48  O   UNL     1     -23.829  23.434  17.543  1.00  0.00    -0.507 OA
ATOM     49  H   UNL     1     -24.605  24.032  17.294  1.00  0.00     0.293 HD
ENDBRANCH  34  48
BRANCH  37  50
ATOM     50  O   UNL     1     -19.613  22.875  15.317  1.00  0.00    -0.508 OA
ATOM     51  H   UNL     1     -18.731  22.379  15.481  1.00  0.00     0.293 HD
ENDBRANCH  37  50
ENDBRANCH  26  27
ENDBRANCH   5  26
BRANCH   4  52
ATOM     52  O   UNL     1     -22.650  27.521  23.785  1.00  0.00    -0.384 OA
ATOM     53  H   UNL     1     -21.941  27.839  24.404  1.00  0.00     0.211 HD
ENDBRANCH   4  52
TORSDOF 16
ENDMDL
MODEL 8
REMARK VINA RESULT:    -0.942      2.972      7.517
REMARK INTER + INTRA:          -3.449
REMARK INTER:                  -3.536
REMARK INTRA:                   0.087
REMARK UNBOUND:                -1.900
REMARK SMILES C[C@@H]1O[C@H](OC[C@@H]2O[C@H](Oc3c(-c4ccc(O)c(O)c4)oc4cc(O)cc(O)c4c3=O)[C@@H](O)[C@H](O)[C@@H]2O)[C@@H](O)[C@H](O)[C@@H]1O
REMARK SMILES IDX 7 1 36 2 34 3 32 4 9 5 8 6 6 7 5 8 4 9 1 10 2 11 42 12 3 13
REMARK SMILES IDX 40 14 38 15 43 16 41 18 39 20 37 22 35 24 10 26 11 27 12 28
REMARK SMILES IDX 30 29 21 30 29 31 31 32 22 33 27 34 23 35 26 36 24 37 13 38
REMARK SMILES IDX 20 39 14 40 18 41 15 42 16 43 19 44 17 46 28 48 25 50 33 52
REMARK H PARENT 43 17 41 19 39 21 37 23 35 25 19 45 17 47 28 49 25 51 33 53
REMARK Flexibility Score: inf
ROOT
ATOM      1  C   UNL     1     -19.143  26.497  22.210  1.00  0.00     0.180 C 
ATOM      2  C   UNL     1     -17.847  27.102  22.870  1.00  0.00     0.177 C 
ATOM      3  C   UNL     1     -17.763  28.621  22.618  1.00  0.00     0.180 C 
ATOM      4  C   UNL     1     -19.197  29.263  22.719  1.00  0.00     0.214 C 
ATOM      5  C   UNL     1     -20.228  28.302  23.379  1.00  0.00     0.339 C 
ATOM      6  O   UNL     1     -20.389  27.100  22.625  1.00  0.00    -0.332 OA
ENDROOT
BRANCH   1   7
ATOM      7  C   UNL     1     -19.114  26.487  20.660  1.00  0.00     0.198 C 
BRANCH   7   8
ATOM      8  O   UNL     1     -18.392  25.352  20.208  1.00  0.00    -0.347 OA
BRANCH   8   9
ATOM      9  C   UNL     1     -18.844  24.108  20.743  1.00  0.00     0.281 C 
ATOM     10  C   UNL     1     -18.026  22.876  24.125  1.00  0.00     0.041 C 
ATOM     11  C   UNL     1     -18.805  22.952  22.814  1.00  0.00     0.150 C 
ATOM     12  C   UNL     1     -20.311  23.089  23.041  1.00  0.00     0.174 C 
ATOM     13  O   UNL     1     -18.348  24.085  22.087  1.00  0.00    -0.344 OA
ATOM     14  C   UNL     1     -20.951  22.937  21.639  1.00  0.00     0.179 C 
ATOM     15  C   UNL     1     -20.405  24.018  20.709  1.00  0.00     0.202 C 
BRANCH  12  16
ATOM     16  O   UNL     1     -20.585  24.356  23.593  1.00  0.00    -0.388 OA
ATOM     17  H   UNL     1     -19.752  24.793  23.971  1.00  0.00     0.211 HD
ENDBRANCH  12  16
BRANCH  14  18
ATOM     18  O   UNL     1     -22.346  23.003  21.710  1.00  0.00    -0.387 OA
ATOM     19  H   UNL     1     -22.734  22.313  21.105  1.00  0.00     0.211 HD
ENDBRANCH  14  18
BRANCH  15  20
ATOM     20  O   UNL     1     -20.817  23.727  19.393  1.00  0.00    -0.385 OA
ATOM     21  H   UNL     1     -21.798  23.813  19.382  1.00  0.00     0.211 HD
ENDBRANCH  15  20
ENDBRANCH   8   9
ENDBRANCH   7   8
ENDBRANCH   1   7
BRANCH   2  22
ATOM     22  O   UNL     1     -16.656  26.408  22.573  1.00  0.00    -0.387 OA
ATOM     23  H   UNL     1     -16.675  26.135  21.621  1.00  0.00     0.211 HD
ENDBRANCH   2  22
BRANCH   3  24
ATOM     24  O   UNL     1     -17.221  28.893  21.344  1.00  0.00    -0.387 OA
ATOM     25  H   UNL     1     -17.916  28.641  20.678  1.00  0.00     0.211 HD
ENDBRANCH   3  24
BRANCH   5  26
ATOM     26  O   UNL     1     -21.469  28.997  23.485  1.00  0.00    -0.454 OA
BRANCH  26  27
ATOM     27  C   UNL     1     -21.954  30.005  22.644  1.00  0.00     0.214 A 
ATOM     28  C   UNL     1     -22.633  29.743  21.428  1.00  0.00     0.180 A 
ATOM     29  C   UNL     1     -21.741  31.324  23.038  1.00  0.00     0.239 A 
ATOM     30  O   UNL     1     -22.892  30.750  20.598  1.00  0.00    -0.452 OA
ATOM     31  C   UNL     1     -22.139  32.362  22.182  1.00  0.00     0.111 A 
ATOM     32  O   UNL     1     -21.140  31.550  24.125  1.00  0.00    -0.285 OA
ATOM     33  C   UNL     1     -22.637  32.015  20.899  1.00  0.00     0.146 A 
ATOM     34  C   UNL     1     -22.027  33.752  22.514  1.00  0.00     0.134 A 
ATOM     35  C   UNL     1     -22.879  32.984  19.935  1.00  0.00     0.094 A 
ATOM     36  C   UNL     1     -22.283  34.711  21.520  1.00  0.00     0.093 A 
ATOM     37  C   UNL     1     -22.707  34.349  20.248  1.00  0.00     0.123 A 
BRANCH  28  38
ATOM     38  C   UNL     1     -23.137  28.419  21.066  1.00  0.00     0.025 A 
ATOM     39  C   UNL     1     -22.986  27.938  19.749  1.00  0.00     0.062 A 
ATOM     40  C   UNL     1     -23.590  27.537  22.068  1.00  0.00     0.016 A 
ATOM     41  C   UNL     1     -23.348  26.625  19.439  1.00  0.00     0.158 A 
ATOM     42  C   UNL     1     -23.900  26.219  21.753  1.00  0.00     0.051 A 
ATOM     43  C   UNL     1     -23.783  25.754  20.447  1.00  0.00     0.157 A 
BRANCH  41  44
ATOM     44  O   UNL     1     -23.248  26.166  18.131  1.00  0.00    -0.504 OA
ATOM     45  H   UNL     1     -23.782  26.584  17.368  1.00  0.00     0.293 HD
ENDBRANCH  41  44
BRANCH  43  46
ATOM     46  O   UNL     1     -24.124  24.435  20.170  1.00  0.00    -0.504 OA
ATOM     47  H   UNL     1     -24.718  23.905  20.794  1.00  0.00     0.293 HD
ENDBRANCH  43  46
ENDBRANCH  28  38
BRANCH  34  48
ATOM     48  O   UNL     1     -21.692  34.212  23.791  1.00  0.00    -0.507 OA
ATOM     49  H   UNL     1     -21.351  35.142  23.994  1.00  0.00     0.293 HD
ENDBRANCH  34  48
BRANCH  37  50
ATOM     50  O   UNL     1     -22.976  35.325  19.301  1.00  0.00    -0.508 OA
ATOM     51  H   UNL     1     -23.765  35.976  19.371  1.00  0.00     0.293 HD
ENDBRANCH  37  50
ENDBRANCH  26  27
ENDBRANCH   5  26
BRANCH   4  52
ATOM     52  O   UNL     1     -19.152  30.469  23.460  1.00  0.00    -0.384 OA
ATOM     53  H   UNL     1     -19.908  31.039  23.157  1.00  0.00     0.211 HD
ENDBRANCH   4  52
TORSDOF 16
ENDMDL
MODEL 9
REMARK VINA RESULT:    -0.673      2.224      6.606
REMARK INTER + INTRA:          -3.006
REMARK INTER:                  -2.572
REMARK INTRA:                  -0.434
REMARK UNBOUND:                -1.900
REMARK SMILES C[C@@H]1O[C@H](OC[C@@H]2O[C@H](Oc3c(-c4ccc(O)c(O)c4)oc4cc(O)cc(O)c4c3=O)[C@@H](O)[C@H](O)[C@@H]2O)[C@@H](O)[C@H](O)[C@@H]1O
REMARK SMILES IDX 7 1 36 2 34 3 32 4 9 5 8 6 6 7 5 8 4 9 1 10 2 11 42 12 3 13
REMARK SMILES IDX 40 14 38 15 43 16 41 18 39 20 37 22 35 24 10 26 11 27 12 28
REMARK SMILES IDX 30 29 21 30 29 31 31 32 22 33 27 34 23 35 26 36 24 37 13 38
REMARK SMILES IDX 20 39 14 40 18 41 15 42 16 43 19 44 17 46 28 48 25 50 33 52
REMARK H PARENT 43 17 41 19 39 21 37 23 35 25 19 45 17 47 28 49 25 51 33 53
REMARK Flexibility Score: inf
ROOT
ATOM      1  C   UNL     1     -19.983  25.693  19.544  1.00  0.00     0.180 C 
ATOM      2  C   UNL     1     -20.152  25.024  18.127  1.00  0.00     0.177 C 
ATOM      3  C   UNL     1     -21.463  24.214  18.057  1.00  0.00     0.180 C 
ATOM      4  C   UNL     1     -22.607  24.975  18.826  1.00  0.00     0.214 C 
ATOM      5  C   UNL     1     -22.231  26.454  19.129  1.00  0.00     0.339 C 
ATOM      6  O   UNL     1     -21.072  26.546  19.960  1.00  0.00    -0.332 OA
ENDROOT
BRANCH   1   7
ATOM      7  C   UNL     1     -19.708  24.683  20.686  1.00  0.00     0.198 C 
BRANCH   7   8
ATOM      8  O   UNL     1     -19.397  25.389  21.878  1.00  0.00    -0.347 OA
BRANCH   8   9
ATOM      9  C   UNL     1     -18.622  26.572  21.682  1.00  0.00     0.281 C 
ATOM     10  C   UNL     1     -20.053  29.920  21.072  1.00  0.00     0.041 C 
ATOM     11  C   UNL     1     -18.980  28.907  21.464  1.00  0.00     0.150 C 
ATOM     12  C   UNL     1     -18.331  29.240  22.808  1.00  0.00     0.174 C 
ATOM     13  O   UNL     1     -19.587  27.625  21.555  1.00  0.00    -0.344 OA
ATOM     14  C   UNL     1     -17.143  28.255  22.943  1.00  0.00     0.179 C 
ATOM     15  C   UNL     1     -17.662  26.820  22.891  1.00  0.00     0.202 C 
BRANCH  12  16
ATOM     16  O   UNL     1     -19.272  29.050  23.839  1.00  0.00    -0.388 OA
ATOM     17  H   UNL     1     -18.912  29.346  24.741  1.00  0.00     0.211 HD
ENDBRANCH  12  16
BRANCH  14  18
ATOM     18  O   UNL     1     -16.431  28.482  24.124  1.00  0.00    -0.387 OA
ATOM     19  H   UNL     1     -15.493  28.729  23.895  1.00  0.00     0.211 HD
ENDBRANCH  14  18
BRANCH  15  20
ATOM     20  O   UNL     1     -16.559  25.949  22.783  1.00  0.00    -0.385 OA
ATOM     21  H   UNL     1     -15.946  26.355  22.127  1.00  0.00     0.211 HD
ENDBRANCH  15  20
ENDBRANCH   8   9
ENDBRANCH   7   8
ENDBRANCH   1   7
BRANCH   2  22
ATOM     22  O   UNL     1     -19.021  24.319  17.670  1.00  0.00    -0.387 OA
ATOM     23  H   UNL     1     -18.758  23.657  18.358  1.00  0.00     0.211 HD
ENDBRANCH   2  22
BRANCH   3  24
ATOM     24  O   UNL     1     -21.295  22.933  18.623  1.00  0.00    -0.387 OA
ATOM     25  H   UNL     1     -22.058  22.378  18.305  1.00  0.00     0.211 HD
ENDBRANCH   3  24
BRANCH   5  26
ATOM     26  O   UNL     1     -23.351  27.070  19.762  1.00  0.00    -0.454 OA
BRANCH  26  27
ATOM     27  C   UNL     1     -23.334  28.108  20.700  1.00  0.00     0.214 A 
ATOM     28  C   UNL     1     -23.262  27.891  22.098  1.00  0.00     0.180 A 
ATOM     29  C   UNL     1     -23.399  29.411  20.211  1.00  0.00     0.239 A 
ATOM     30  O   UNL     1     -23.442  28.918  22.925  1.00  0.00    -0.452 OA
ATOM     31  C   UNL     1     -23.467  30.476  21.122  1.00  0.00     0.111 A 
ATOM     32  O   UNL     1     -23.458  29.597  18.965  1.00  0.00    -0.285 OA
ATOM     33  C   UNL     1     -23.583  30.166  22.503  1.00  0.00     0.146 A 
ATOM     34  C   UNL     1     -23.472  31.856  20.734  1.00  0.00     0.134 A 
ATOM     35  C   UNL     1     -23.837  31.155  23.444  1.00  0.00     0.094 A 
ATOM     36  C   UNL     1     -23.726  32.836  21.707  1.00  0.00     0.093 A 
ATOM     37  C   UNL     1     -23.903  32.508  23.045  1.00  0.00     0.123 A 
BRANCH  28  38
ATOM     38  C   UNL     1     -22.922  26.598  22.688  1.00  0.00     0.025 A 
ATOM     39  C   UNL     1     -23.439  25.408  22.134  1.00  0.00     0.062 A 
ATOM     40  C   UNL     1     -21.920  26.512  23.676  1.00  0.00     0.016 A 
ATOM     41  C   UNL     1     -23.009  24.169  22.615  1.00  0.00     0.158 A 
ATOM     42  C   UNL     1     -21.468  25.271  24.109  1.00  0.00     0.051 A 
ATOM     43  C   UNL     1     -22.002  24.098  23.587  1.00  0.00     0.157 A 
BRANCH  41  44
ATOM     44  O   UNL     1     -23.556  22.997  22.106  1.00  0.00    -0.504 OA
ATOM     45  H   UNL     1     -24.068  22.338  22.694  1.00  0.00     0.293 HD
ENDBRANCH  41  44
BRANCH  43  46
ATOM     46  O   UNL     1     -21.537  22.877  24.063  1.00  0.00    -0.504 OA
ATOM     47  H   UNL     1     -20.944  22.285  23.496  1.00  0.00     0.293 HD
ENDBRANCH  43  46
ENDBRANCH  28  38
BRANCH  34  48
ATOM     48  O   UNL     1     -23.218  32.286  19.427  1.00  0.00    -0.507 OA
ATOM     49  H   UNL     1     -23.076  33.250  19.160  1.00  0.00     0.293 HD
ENDBRANCH  34  48
BRANCH  37  50
ATOM     50  O   UNL     1     -24.125  33.505  23.981  1.00  0.00    -0.508 OA
ATOM     51  H   UNL     1     -23.927  34.496  23.807  1.00  0.00     0.293 HD
ENDBRANCH  37  50
ENDBRANCH  26  27
ENDBRANCH   5  26
BRANCH   4  52
ATOM     52  O   UNL     1     -23.810  24.950  18.080  1.00  0.00    -0.384 OA
ATOM     53  H   UNL     1     -24.535  24.637  18.684  1.00  0.00     0.211 HD
ENDBRANCH   4  52
TORSDOF 16
ENDMDL
