MODEL 1
REMARK VINA RESULT:    -4.950      0.000      0.000
REMARK INTER + INTRA:          -6.024
REMARK INTER:                  -5.818
REMARK INTRA:                  -0.205
REMARK UNBOUND:                -0.205
REMARK SMILES [NH3+][C@H](CO)C(=O)[O-]
REMARK SMILES IDX 3 1 2 2 1 3 5 7 6 8 7 9 4 10
REMARK H PARENT 1 4 1 5 1 6 4 11
REMARK Flexibility Score: inf
ROOT
ATOM      1  C   UNL     1      77.667  -0.744  24.166  1.00  0.00     0.227 C 
ENDROOT
BRANCH   1   2
ATOM      2  C   UNL     1      78.824  -1.075  25.124  1.00  0.00     0.253 C 
BRANCH   2   3
ATOM      3  N   UNL     1      79.480   0.146  25.607  1.00  0.00    -0.348 N 
ATOM      4  H   UNL     1      80.206  -0.100  26.319  1.00  0.00     0.345 HD
ATOM      5  H   UNL     1      78.772   0.768  26.064  1.00  0.00     0.345 HD
ATOM      6  H   UNL     1      79.935   0.665  24.822  1.00  0.00     0.345 HD
ENDBRANCH   2   3
BRANCH   2   7
ATOM      7  C   UNL     1      78.336  -1.914  26.277  1.00  0.00     0.102 C 
ATOM      8  O   UNL     1      79.137  -2.667  26.892  1.00  0.00    -0.544 OA
ATOM      9  O   UNL     1      76.996  -1.897  26.643  1.00  0.00    -0.544 OA
ENDBRANCH   2   7
ENDBRANCH   1   2
BRANCH   1  10
ATOM     10  O   UNL     1      77.206  -1.902  23.525  1.00  0.00    -0.390 OA
ATOM     11  H   UNL     1      76.217  -1.890  23.612  1.00  0.00     0.210 HD
ENDBRANCH   1  10
TORSDOF 4
ENDMDL
MODEL 2
REMARK VINA RESULT:    -4.895      2.043      2.857
REMARK INTER + INTRA:          -5.959
REMARK INTER:                  -5.727
REMARK INTRA:                  -0.232
REMARK UNBOUND:                -0.205
REMARK SMILES [NH3+][C@H](CO)C(=O)[O-]
REMARK SMILES IDX 3 1 2 2 1 3 5 7 6 8 7 9 4 10
REMARK H PARENT 1 4 1 5 1 6 4 11
REMARK Flexibility Score: inf
ROOT
ATOM      1  C   UNL     1      79.145  -2.529  26.316  1.00  0.00     0.227 C 
ENDROOT
BRANCH   1   2
ATOM      2  C   UNL     1      77.982  -1.654  25.820  1.00  0.00     0.253 C 
BRANCH   2   3
ATOM      3  N   UNL     1      77.209  -1.110  26.943  1.00  0.00    -0.348 N 
ATOM      4  H   UNL     1      77.177  -0.067  26.878  1.00  0.00     0.345 HD
ATOM      5  H   UNL     1      77.673  -1.367  27.846  1.00  0.00     0.345 HD
ATOM      6  H   UNL     1      76.232  -1.483  26.942  1.00  0.00     0.345 HD
ENDBRANCH   2   3
BRANCH   2   7
ATOM      7  C   UNL     1      78.491  -0.546  24.933  1.00  0.00     0.102 C 
ATOM      8  O   UNL     1      79.574   0.035  25.208  1.00  0.00    -0.544 OA
ATOM      9  O   UNL     1      77.751  -0.129  23.833  1.00  0.00    -0.544 OA
ENDBRANCH   2   7
ENDBRANCH   1   2
BRANCH   1  10
ATOM     10  O   UNL     1      79.919  -2.985  25.240  1.00  0.00    -0.390 OA
ATOM     11  H   UNL     1      79.413  -3.735  24.834  1.00  0.00     0.210 HD
ENDBRANCH   1  10
TORSDOF 4
ENDMDL
MODEL 3
REMARK VINA RESULT:    -4.804      1.141      2.904
REMARK INTER + INTRA:          -5.852
REMARK INTER:                  -5.836
REMARK INTRA:                  -0.017
REMARK UNBOUND:                -0.205
REMARK SMILES [NH3+][C@H](CO)C(=O)[O-]
REMARK SMILES IDX 3 1 2 2 1 3 5 7 6 8 7 9 4 10
REMARK H PARENT 1 4 1 5 1 6 4 11
REMARK Flexibility Score: inf
ROOT
ATOM      1  C   UNL     1      79.463  -2.413  25.783  1.00  0.00     0.227 C 
ENDROOT
BRANCH   1   2
ATOM      2  C   UNL     1      78.637  -1.120  25.683  1.00  0.00     0.253 C 
BRANCH   2   3
ATOM      3  N   UNL     1      79.486   0.067  25.839  1.00  0.00    -0.348 N 
ATOM      4  H   UNL     1      79.206   0.797  25.143  1.00  0.00     0.345 HD
ATOM      5  H   UNL     1      80.485  -0.189  25.660  1.00  0.00     0.345 HD
ATOM      6  H   UNL     1      79.402   0.465  26.803  1.00  0.00     0.345 HD
ENDBRANCH   2   3
BRANCH   2   7
ATOM      7  C   UNL     1      77.882  -1.070  24.379  1.00  0.00     0.102 C 
ATOM      8  O   UNL     1      77.715   0.029  23.788  1.00  0.00    -0.544 OA
ATOM      9  O   UNL     1      77.328  -2.227  23.841  1.00  0.00    -0.544 OA
ENDBRANCH   2   7
ENDBRANCH   1   2
BRANCH   1  10
ATOM     10  O   UNL     1      79.392  -2.949  27.076  1.00  0.00    -0.390 OA
ATOM     11  H   UNL     1      79.589  -2.200  27.696  1.00  0.00     0.210 HD
ENDBRANCH   1  10
TORSDOF 4
ENDMDL
MODEL 4
REMARK VINA RESULT:    -4.733      1.703      1.866
REMARK INTER + INTRA:          -5.769
REMARK INTER:                  -5.744
REMARK INTRA:                  -0.025
REMARK UNBOUND:                -0.205
REMARK SMILES [NH3+][C@H](CO)C(=O)[O-]
REMARK SMILES IDX 3 1 2 2 1 3 5 7 6 8 7 9 4 10
REMARK H PARENT 1 4 1 5 1 6 4 11
REMARK Flexibility Score: inf
ROOT
ATOM      1  C   UNL     1      77.477  -1.203  24.333  1.00  0.00     0.227 C 
ENDROOT
BRANCH   1   2
ATOM      2  C   UNL     1      78.134  -1.081  25.718  1.00  0.00     0.253 C 
BRANCH   2   3
ATOM      3  N   UNL     1      77.127  -1.071  26.785  1.00  0.00    -0.348 N 
ATOM      4  H   UNL     1      77.515  -0.599  27.634  1.00  0.00     0.345 HD
ATOM      5  H   UNL     1      76.879  -2.055  27.044  1.00  0.00     0.345 HD
ATOM      6  H   UNL     1      76.261  -0.569  26.482  1.00  0.00     0.345 HD
ENDBRANCH   2   3
BRANCH   2   7
ATOM      7  C   UNL     1      79.133  -2.189  25.933  1.00  0.00     0.102 C 
ATOM      8  O   UNL     1      79.893  -2.543  24.994  1.00  0.00    -0.544 OA
ATOM      9  O   UNL     1      79.194  -2.856  27.151  1.00  0.00    -0.544 OA
ENDBRANCH   2   7
ENDBRANCH   1   2
BRANCH   1  10
ATOM     10  O   UNL     1      77.487   0.031  23.668  1.00  0.00    -0.390 OA
ATOM     11  H   UNL     1      78.377   0.104  23.236  1.00  0.00     0.210 HD
ENDBRANCH   1  10
TORSDOF 4
ENDMDL
MODEL 5
REMARK VINA RESULT:    -4.717      2.055      2.300
REMARK INTER + INTRA:          -5.750
REMARK INTER:                  -5.393
REMARK INTRA:                  -0.356
REMARK UNBOUND:                -0.205
REMARK SMILES [NH3+][C@H](CO)C(=O)[O-]
REMARK SMILES IDX 3 1 2 2 1 3 5 7 6 8 7 9 4 10
REMARK H PARENT 1 4 1 5 1 6 4 11
REMARK Flexibility Score: inf
ROOT
ATOM      1  C   UNL     1      77.625  -1.833  24.096  1.00  0.00     0.227 C 
ENDROOT
BRANCH   1   2
ATOM      2  C   UNL     1      78.450  -1.907  25.391  1.00  0.00     0.253 C 
BRANCH   2   3
ATOM      3  N   UNL     1      79.663  -2.712  25.202  1.00  0.00    -0.348 N 
ATOM      4  H   UNL     1      79.416  -3.626  24.758  1.00  0.00     0.345 HD
ATOM      5  H   UNL     1      80.103  -2.909  26.132  1.00  0.00     0.345 HD
ATOM      6  H   UNL     1      80.354  -2.214  24.596  1.00  0.00     0.345 HD
ENDBRANCH   2   3
BRANCH   2   7
ATOM      7  C   UNL     1      78.795  -0.525  25.883  1.00  0.00     0.102 C 
ATOM      8  O   UNL     1      78.148  -0.015  26.836  1.00  0.00    -0.544 OA
ATOM      9  O   UNL     1      79.797   0.213  25.265  1.00  0.00    -0.544 OA
ENDBRANCH   2   7
ENDBRANCH   1   2
BRANCH   1  10
ATOM     10  O   UNL     1      77.470  -0.502  23.682  1.00  0.00    -0.390 OA
ATOM     11  H   UNL     1      78.291  -0.026  23.972  1.00  0.00     0.210 HD
ENDBRANCH   1  10
TORSDOF 4
ENDMDL
MODEL 6
REMARK VINA RESULT:    -4.674      1.967      2.585
REMARK INTER + INTRA:          -5.699
REMARK INTER:                  -5.332
REMARK INTRA:                  -0.368
REMARK UNBOUND:                -0.205
REMARK SMILES [NH3+][C@H](CO)C(=O)[O-]
REMARK SMILES IDX 3 1 2 2 1 3 5 7 6 8 7 9 4 10
REMARK H PARENT 1 4 1 5 1 6 4 11
REMARK Flexibility Score: inf
ROOT
ATOM      1  C   UNL     1      79.420  -2.743  25.443  1.00  0.00     0.227 C 
ENDROOT
BRANCH   1   2
ATOM      2  C   UNL     1      78.492  -1.579  25.059  1.00  0.00     0.253 C 
BRANCH   2   3
ATOM      3  N   UNL     1      77.443  -2.019  24.131  1.00  0.00    -0.348 N 
ATOM      4  H   UNL     1      77.856  -2.185  23.184  1.00  0.00     0.345 HD
ATOM      5  H   UNL     1      76.715  -1.273  24.044  1.00  0.00     0.345 HD
ATOM      6  H   UNL     1      76.991  -2.901  24.465  1.00  0.00     0.345 HD
ENDBRANCH   2   3
BRANCH   2   7
ATOM      7  C   UNL     1      77.890  -0.950  26.290  1.00  0.00     0.102 C 
ATOM      8  O   UNL     1      78.363   0.124  26.745  1.00  0.00    -0.544 OA
ATOM      9  O   UNL     1      76.839  -1.571  26.955  1.00  0.00    -0.544 OA
ENDBRANCH   2   7
ENDBRANCH   1   2
BRANCH   1  10
ATOM     10  O   UNL     1      79.419  -2.943  26.831  1.00  0.00    -0.390 OA
ATOM     11  H   UNL     1      79.208  -3.902  26.971  1.00  0.00     0.210 HD
ENDBRANCH   1  10
TORSDOF 4
ENDMDL
MODEL 7
REMARK VINA RESULT:    -4.485      2.096      2.725
REMARK INTER + INTRA:          -5.477
REMARK INTER:                  -5.249
REMARK INTRA:                  -0.228
REMARK UNBOUND:                -0.205
REMARK SMILES [NH3+][C@H](CO)C(=O)[O-]
REMARK SMILES IDX 3 1 2 2 1 3 5 7 6 8 7 9 4 10
REMARK H PARENT 1 4 1 5 1 6 4 11
REMARK Flexibility Score: inf
ROOT
ATOM      1  C   UNL     1      79.789  -0.211  26.199  1.00  0.00     0.227 C 
ENDROOT
BRANCH   1   2
ATOM      2  C   UNL     1      79.382  -1.583  25.639  1.00  0.00     0.253 C 
BRANCH   2   3
ATOM      3  N   UNL     1      79.526  -2.635  26.652  1.00  0.00    -0.348 N 
ATOM      4  H   UNL     1      80.136  -3.401  26.284  1.00  0.00     0.345 HD
ATOM      5  H   UNL     1      78.587  -3.044  26.871  1.00  0.00     0.345 HD
ATOM      6  H   UNL     1      79.947  -2.256  27.531  1.00  0.00     0.345 HD
ENDBRANCH   2   3
BRANCH   2   7
ATOM      7  C   UNL     1      77.974  -1.543  25.103  1.00  0.00     0.102 C 
ATOM      8  O   UNL     1      77.043  -2.108  25.736  1.00  0.00    -0.544 OA
ATOM      9  O   UNL     1      77.698  -0.923  23.891  1.00  0.00    -0.544 OA
ENDBRANCH   2   7
ENDBRANCH   1   2
BRANCH   1  10
ATOM     10  O   UNL     1      79.839   0.748  25.177  1.00  0.00    -0.390 OA
ATOM     11  H   UNL     1      80.559   1.383  25.430  1.00  0.00     0.210 HD
ENDBRANCH   1  10
TORSDOF 4
ENDMDL
MODEL 8
REMARK VINA RESULT:    -4.445      1.884      2.495
REMARK INTER + INTRA:          -5.430
REMARK INTER:                  -5.390
REMARK INTRA:                  -0.040
REMARK UNBOUND:                -0.205
REMARK SMILES [NH3+][C@H](CO)C(=O)[O-]
REMARK SMILES IDX 3 1 2 2 1 3 5 7 6 8 7 9 4 10
REMARK H PARENT 1 4 1 5 1 6 4 11
REMARK Flexibility Score: inf
ROOT
ATOM      1  C   UNL     1      79.481  -0.394  24.960  1.00  0.00     0.227 C 
ENDROOT
BRANCH   1   2
ATOM      2  C   UNL     1      77.993  -0.735  25.143  1.00  0.00     0.253 C 
BRANCH   2   3
ATOM      3  N   UNL     1      77.423  -1.303  23.916  1.00  0.00    -0.348 N 
ATOM      4  H   UNL     1      77.876  -2.223  23.708  1.00  0.00     0.345 HD
ATOM      5  H   UNL     1      77.608  -0.660  23.111  1.00  0.00     0.345 HD
ATOM      6  H   UNL     1      76.391  -1.445  24.010  1.00  0.00     0.345 HD
ENDBRANCH   2   3
BRANCH   2   7
ATOM      7  C   UNL     1      77.801  -1.674  26.307  1.00  0.00     0.102 C 
ATOM      8  O   UNL     1      76.774  -1.580  27.030  1.00  0.00    -0.544 OA
ATOM      9  O   UNL     1      78.772  -2.618  26.618  1.00  0.00    -0.544 OA
ENDBRANCH   2   7
ENDBRANCH   1   2
BRANCH   1  10
ATOM     10  O   UNL     1      79.843   0.697  25.763  1.00  0.00    -0.390 OA
ATOM     11  H   UNL     1      80.368   1.305  25.182  1.00  0.00     0.210 HD
ENDBRANCH   1  10
TORSDOF 4
ENDMDL
MODEL 9
REMARK VINA RESULT:    -4.374      1.488      2.202
REMARK INTER + INTRA:          -5.347
REMARK INTER:                  -5.153
REMARK INTRA:                  -0.194
REMARK UNBOUND:                -0.205
REMARK SMILES [NH3+][C@H](CO)C(=O)[O-]
REMARK SMILES IDX 3 1 2 2 1 3 5 7 6 8 7 9 4 10
REMARK H PARENT 1 4 1 5 1 6 4 11
REMARK Flexibility Score: inf
ROOT
ATOM      1  C   UNL     1      77.016  -1.138  26.019  1.00  0.00     0.227 C 
ENDROOT
BRANCH   1   2
ATOM      2  C   UNL     1      78.495  -1.048  25.610  1.00  0.00     0.253 C 
BRANCH   2   3
ATOM      3  N   UNL     1      79.178   0.038  26.323  1.00  0.00    -0.348 N 
ATOM      4  H   UNL     1      78.813   0.962  25.994  1.00  0.00     0.345 HD
ATOM      5  H   UNL     1      80.205   0.002  26.120  1.00  0.00     0.345 HD
ATOM      6  H   UNL     1      79.031  -0.039  27.356  1.00  0.00     0.345 HD
ENDBRANCH   2   3
BRANCH   2   7
ATOM      7  C   UNL     1      79.193  -2.363  25.842  1.00  0.00     0.102 C 
ATOM      8  O   UNL     1      79.223  -2.866  26.995  1.00  0.00    -0.544 OA
ATOM      9  O   UNL     1      79.843  -3.009  24.797  1.00  0.00    -0.544 OA
ENDBRANCH   2   7
ENDBRANCH   1   2
BRANCH   1  10
ATOM     10  O   UNL     1      76.895  -1.503  27.368  1.00  0.00    -0.390 OA
ATOM     11  H   UNL     1      77.786  -1.841  27.643  1.00  0.00     0.210 HD
ENDBRANCH   1  10
TORSDOF 4
ENDMDL
