MODEL 1
REMARK VINA RESULT:    -5.620      0.000      0.000
REMARK INTER + INTRA:          -5.948
REMARK INTER:                  -5.948
REMARK INTRA:                   0.000
REMARK UNBOUND:                 0.000
REMARK SMILES O=c1ccc2cc(O)c(O)cc2o1
REMARK SMILES IDX 4 1 3 2 2 3 1 4 13 5 12 6 11 7 9 8 7 9 6 10 5 11 8 12 10 14
REMARK H PARENT 8 13 10 15
REMARK Flexibility Score: inf
ROOT
ATOM      1  C   UNL     1      -9.217  -6.863   3.331  1.00  0.00     0.019 A 
ATOM      2  C   UNL     1      -8.717  -8.111   2.959  1.00  0.00     0.094 A 
ATOM      3  C   UNL     1      -7.762  -8.729   3.772  1.00  0.00     0.336 A 
ATOM      4  O   UNL     1      -7.300  -9.856   3.453  1.00  0.00    -0.246 OA
ATOM      5  O   UNL     1      -7.337  -8.134   4.884  1.00  0.00    -0.423 OA
ATOM      6  C   UNL     1      -7.787  -6.944   5.275  1.00  0.00     0.142 A 
ATOM      7  C   UNL     1      -7.303  -6.367   6.454  1.00  0.00     0.098 A 
ATOM      8  C   UNL     1      -7.774  -5.112   6.870  1.00  0.00     0.161 A 
ATOM      9  C   UNL     1      -8.733  -4.434   6.104  1.00  0.00     0.158 A 
ATOM     10  C   UNL     1      -9.221  -5.008   4.921  1.00  0.00     0.062 A 
ATOM     11  C   UNL     1      -8.751  -6.261   4.504  1.00  0.00     0.022 A 
ENDROOT
BRANCH   9  12
ATOM     12  O   UNL     1      -9.195  -3.188   6.526  1.00  0.00    -0.504 OA
ATOM     13  H   UNL     1     -10.185  -2.996   6.626  1.00  0.00     0.293 HD
ENDBRANCH   9  12
BRANCH   8  14
ATOM     14  O   UNL     1      -7.293  -4.536   8.044  1.00  0.00    -0.504 OA
ATOM     15  H   UNL     1      -6.675  -5.039   8.669  1.00  0.00     0.293 HD
ENDBRANCH   8  14
TORSDOF 2
ENDMDL
MODEL 2
REMARK VINA RESULT:    -5.561      1.497      4.646
REMARK INTER + INTRA:          -5.886
REMARK INTER:                  -5.886
REMARK INTRA:                   0.000
REMARK UNBOUND:                 0.000
REMARK SMILES O=c1ccc2cc(O)c(O)cc2o1
REMARK SMILES IDX 4 1 3 2 2 3 1 4 13 5 12 6 11 7 9 8 7 9 6 10 5 11 8 12 10 14
REMARK H PARENT 8 13 10 15
REMARK Flexibility Score: inf
ROOT
ATOM      1  C   UNL     1     -10.138  -4.008   4.132  1.00  0.00     0.019 A 
ATOM      2  C   UNL     1     -10.493  -2.721   4.534  1.00  0.00     0.094 A 
ATOM      3  C   UNL     1      -9.960  -2.210   5.722  1.00  0.00     0.336 A 
ATOM      4  O   UNL     1     -10.269  -1.049   6.101  1.00  0.00    -0.246 OA
ATOM      5  O   UNL     1      -9.126  -2.942   6.457  1.00  0.00    -0.423 OA
ATOM      6  C   UNL     1      -8.762  -4.175   6.110  1.00  0.00     0.142 A 
ATOM      7  C   UNL     1      -7.882  -4.897   6.922  1.00  0.00     0.098 A 
ATOM      8  C   UNL     1      -7.495  -6.197   6.561  1.00  0.00     0.161 A 
ATOM      9  C   UNL     1      -7.990  -6.774   5.382  1.00  0.00     0.158 A 
ATOM     10  C   UNL     1      -8.873  -6.054   4.564  1.00  0.00     0.062 A 
ATOM     11  C   UNL     1      -9.260  -4.756   4.924  1.00  0.00     0.022 A 
ENDROOT
BRANCH   9  12
ATOM     12  O   UNL     1      -7.599  -8.066   5.031  1.00  0.00    -0.504 OA
ATOM     13  H   UNL     1      -8.074  -8.881   5.399  1.00  0.00     0.293 HD
ENDBRANCH   9  12
BRANCH   8  14
ATOM     14  O   UNL     1      -6.618  -6.919   7.368  1.00  0.00    -0.504 OA
ATOM     15  H   UNL     1      -5.627  -6.711   7.394  1.00  0.00     0.293 HD
ENDBRANCH   8  14
TORSDOF 2
ENDMDL
MODEL 3
REMARK VINA RESULT:    -5.161      2.030      4.807
REMARK INTER + INTRA:          -5.463
REMARK INTER:                  -5.463
REMARK INTRA:                   0.000
REMARK UNBOUND:                 0.000
REMARK SMILES O=c1ccc2cc(O)c(O)cc2o1
REMARK SMILES IDX 4 1 3 2 2 3 1 4 13 5 12 6 11 7 9 8 7 9 6 10 5 11 8 12 10 14
REMARK H PARENT 8 13 10 15
REMARK Flexibility Score: inf
ROOT
ATOM      1  C   UNL     1      -7.278  -6.651   5.848  1.00  0.00     0.019 A 
ATOM      2  C   UNL     1      -7.384  -5.897   7.017  1.00  0.00     0.094 A 
ATOM      3  C   UNL     1      -8.345  -4.883   7.084  1.00  0.00     0.336 A 
ATOM      4  O   UNL     1      -8.456  -4.191   8.130  1.00  0.00    -0.246 OA
ATOM      5  O   UNL     1      -9.144  -4.641   6.047  1.00  0.00    -0.423 OA
ATOM      6  C   UNL     1      -9.075  -5.336   4.914  1.00  0.00     0.142 A 
ATOM      7  C   UNL     1      -9.941  -5.037   3.857  1.00  0.00     0.098 A 
ATOM      8  C   UNL     1      -9.872  -5.767   2.661  1.00  0.00     0.161 A 
ATOM      9  C   UNL     1      -8.934  -6.800   2.522  1.00  0.00     0.158 A 
ATOM     10  C   UNL     1      -8.063  -7.104   3.579  1.00  0.00     0.062 A 
ATOM     11  C   UNL     1      -8.130  -6.375   4.774  1.00  0.00     0.022 A 
ENDROOT
BRANCH   9  12
ATOM     12  O   UNL     1      -8.874  -7.520   1.330  1.00  0.00    -0.504 OA
ATOM     13  H   UNL     1      -9.366  -8.398   1.215  1.00  0.00     0.293 HD
ENDBRANCH   9  12
BRANCH   8  14
ATOM     14  O   UNL     1     -10.734  -5.471   1.607  1.00  0.00    -0.504 OA
ATOM     15  H   UNL     1     -10.824  -6.085   0.806  1.00  0.00     0.293 HD
ENDBRANCH   8  14
TORSDOF 2
ENDMDL
MODEL 4
REMARK VINA RESULT:    -5.155      1.351      5.037
REMARK INTER + INTRA:          -5.457
REMARK INTER:                  -5.457
REMARK INTRA:                   0.000
REMARK UNBOUND:                 0.000
REMARK SMILES O=c1ccc2cc(O)c(O)cc2o1
REMARK SMILES IDX 4 1 3 2 2 3 1 4 13 5 12 6 11 7 9 8 7 9 6 10 5 11 8 12 10 14
REMARK H PARENT 8 13 10 15
REMARK Flexibility Score: inf
ROOT
ATOM      1  C   UNL     1      -7.212  -5.861   6.134  1.00  0.00     0.019 A 
ATOM      2  C   UNL     1      -7.604  -4.585   6.537  1.00  0.00     0.094 A 
ATOM      3  C   UNL     1      -8.816  -4.068   6.065  1.00  0.00     0.336 A 
ATOM      4  O   UNL     1      -9.187  -2.918   6.417  1.00  0.00    -0.246 OA
ATOM      5  O   UNL     1      -9.581  -4.784   5.245  1.00  0.00    -0.423 OA
ATOM      6  C   UNL     1      -9.243  -6.006   4.836  1.00  0.00     0.142 A 
ATOM      7  C   UNL     1     -10.087  -6.711   3.973  1.00  0.00     0.098 A 
ATOM      8  C   UNL     1      -9.736  -7.999   3.539  1.00  0.00     0.161 A 
ATOM      9  C   UNL     1      -8.536  -8.582   3.972  1.00  0.00     0.158 A 
ATOM     10  C   UNL     1      -7.685  -7.878   4.837  1.00  0.00     0.062 A 
ATOM     11  C   UNL     1      -8.035  -6.592   5.271  1.00  0.00     0.022 A 
ENDROOT
BRANCH   9  12
ATOM     12  O   UNL     1      -8.195  -9.861   3.536  1.00  0.00    -0.504 OA
ATOM     13  H   UNL     1      -8.254 -10.664   4.152  1.00  0.00     0.293 HD
ENDBRANCH   9  12
BRANCH   8  14
ATOM     14  O   UNL     1     -10.575  -8.704   2.679  1.00  0.00    -0.504 OA
ATOM     15  H   UNL     1     -10.413  -8.728   1.680  1.00  0.00     0.293 HD
ENDBRANCH   8  14
TORSDOF 2
ENDMDL
MODEL 5
REMARK VINA RESULT:    -5.145      1.991      4.196
REMARK INTER + INTRA:          -5.446
REMARK INTER:                  -5.446
REMARK INTRA:                   0.000
REMARK UNBOUND:                 0.000
REMARK SMILES O=c1ccc2cc(O)c(O)cc2o1
REMARK SMILES IDX 4 1 3 2 2 3 1 4 13 5 12 6 11 7 9 8 7 9 6 10 5 11 8 12 10 14
REMARK H PARENT 8 13 10 15
REMARK Flexibility Score: inf
ROOT
ATOM      1  C   UNL     1      -8.721  -4.651   6.028  1.00  0.00     0.019 A 
ATOM      2  C   UNL     1      -7.897  -5.062   7.075  1.00  0.00     0.094 A 
ATOM      3  C   UNL     1      -7.283  -6.318   7.002  1.00  0.00     0.336 A 
ATOM      4  O   UNL     1      -6.535  -6.706   7.938  1.00  0.00    -0.246 OA
ATOM      5  O   UNL     1      -7.485  -7.106   5.950  1.00  0.00    -0.423 OA
ATOM      6  C   UNL     1      -8.264  -6.753   4.930  1.00  0.00     0.142 A 
ATOM      7  C   UNL     1      -8.439  -7.624   3.850  1.00  0.00     0.098 A 
ATOM      8  C   UNL     1      -9.259  -7.256   2.772  1.00  0.00     0.161 A 
ATOM      9  C   UNL     1      -9.906  -6.012   2.777  1.00  0.00     0.158 A 
ATOM     10  C   UNL     1      -9.735  -5.134   3.858  1.00  0.00     0.062 A 
ATOM     11  C   UNL     1      -8.916  -5.501   4.934  1.00  0.00     0.022 A 
ENDROOT
BRANCH   9  12
ATOM     12  O   UNL     1     -10.719  -5.654   1.702  1.00  0.00    -0.504 OA
ATOM     13  H   UNL     1     -10.812  -6.249   0.887  1.00  0.00     0.293 HD
ENDBRANCH   9  12
BRANCH   8  14
ATOM     14  O   UNL     1      -9.435  -8.122   1.695  1.00  0.00    -0.504 OA
ATOM     15  H   UNL     1      -9.328  -9.124   1.796  1.00  0.00     0.293 HD
ENDBRANCH   8  14
TORSDOF 2
ENDMDL
MODEL 6
REMARK VINA RESULT:    -5.096      1.651      1.998
REMARK INTER + INTRA:          -5.394
REMARK INTER:                  -5.394
REMARK INTRA:                   0.000
REMARK UNBOUND:                 0.000
REMARK SMILES O=c1ccc2cc(O)c(O)cc2o1
REMARK SMILES IDX 4 1 3 2 2 3 1 4 13 5 12 6 11 7 9 8 7 9 6 10 5 11 8 12 10 14
REMARK H PARENT 8 13 10 15
REMARK Flexibility Score: inf
ROOT
ATOM      1  C   UNL     1      -9.902  -5.182   3.055  1.00  0.00     0.019 A 
ATOM      2  C   UNL     1      -9.894  -6.007   1.930  1.00  0.00     0.094 A 
ATOM      3  C   UNL     1      -9.109  -7.165   1.944  1.00  0.00     0.336 A 
ATOM      4  O   UNL     1      -9.089  -7.922   0.938  1.00  0.00    -0.246 OA
ATOM      5  O   UNL     1      -8.381  -7.473   3.015  1.00  0.00    -0.423 OA
ATOM      6  C   UNL     1      -8.360  -6.713   4.108  1.00  0.00     0.142 A 
ATOM      7  C   UNL     1      -7.575  -7.088   5.203  1.00  0.00     0.098 A 
ATOM      8  C   UNL     1      -7.549  -6.291   6.358  1.00  0.00     0.161 A 
ATOM      9  C   UNL     1      -8.312  -5.115   6.416  1.00  0.00     0.158 A 
ATOM     10  C   UNL     1      -9.100  -4.735   5.319  1.00  0.00     0.062 A 
ATOM     11  C   UNL     1      -9.127  -5.530   4.166  1.00  0.00     0.022 A 
ENDROOT
BRANCH   9  12
ATOM     12  O   UNL     1      -8.280  -4.330   7.567  1.00  0.00    -0.504 OA
ATOM     13  H   UNL     1      -7.706  -3.497   7.625  1.00  0.00     0.293 HD
ENDBRANCH   9  12
BRANCH   8  14
ATOM     14  O   UNL     1      -6.769  -6.662   7.450  1.00  0.00    -0.504 OA
ATOM     15  H   UNL     1      -5.818  -6.994   7.336  1.00  0.00     0.293 HD
ENDBRANCH   8  14
TORSDOF 2
ENDMDL
MODEL 7
REMARK VINA RESULT:    -5.064      1.515      2.424
REMARK INTER + INTRA:          -5.360
REMARK INTER:                  -5.360
REMARK INTRA:                   0.000
REMARK UNBOUND:                 0.000
REMARK SMILES O=c1ccc2cc(O)c(O)cc2o1
REMARK SMILES IDX 4 1 3 2 2 3 1 4 13 5 12 6 11 7 9 8 7 9 6 10 5 11 8 12 10 14
REMARK H PARENT 8 13 10 15
REMARK Flexibility Score: inf
ROOT
ATOM      1  C   UNL     1      -7.944  -8.087   4.476  1.00  0.00     0.019 A 
ATOM      2  C   UNL     1      -8.623  -8.554   3.350  1.00  0.00     0.094 A 
ATOM      3  C   UNL     1      -9.578  -7.731   2.744  1.00  0.00     0.336 A 
ATOM      4  O   UNL     1     -10.201  -8.134   1.727  1.00  0.00    -0.246 OA
ATOM      5  O   UNL     1      -9.834  -6.521   3.236  1.00  0.00    -0.423 OA
ATOM      6  C   UNL     1      -9.210  -6.037   4.308  1.00  0.00     0.142 A 
ATOM      7  C   UNL     1      -9.521  -4.758   4.779  1.00  0.00     0.098 A 
ATOM      8  C   UNL     1      -8.866  -4.244   5.909  1.00  0.00     0.161 A 
ATOM      9  C   UNL     1      -7.895  -5.013   6.567  1.00  0.00     0.158 A 
ATOM     10  C   UNL     1      -7.580  -6.297   6.099  1.00  0.00     0.062 A 
ATOM     11  C   UNL     1      -8.234  -6.812   4.971  1.00  0.00     0.022 A 
ENDROOT
BRANCH   9  12
ATOM     12  O   UNL     1      -7.249  -4.494   7.689  1.00  0.00    -0.504 OA
ATOM     13  H   UNL     1      -7.689  -3.798   8.278  1.00  0.00     0.293 HD
ENDBRANCH   9  12
BRANCH   8  14
ATOM     14  O   UNL     1      -9.173  -2.970   6.380  1.00  0.00    -0.504 OA
ATOM     15  H   UNL     1      -8.769  -2.608   7.236  1.00  0.00     0.293 HD
ENDBRANCH   8  14
TORSDOF 2
ENDMDL
MODEL 8
REMARK VINA RESULT:    -5.052      2.958      4.008
REMARK INTER + INTRA:          -5.347
REMARK INTER:                  -5.347
REMARK INTRA:                   0.000
REMARK UNBOUND:                 0.000
REMARK SMILES O=c1ccc2cc(O)c(O)cc2o1
REMARK SMILES IDX 4 1 3 2 2 3 1 4 13 5 12 6 11 7 9 8 7 9 6 10 5 11 8 12 10 14
REMARK H PARENT 8 13 10 15
REMARK Flexibility Score: inf
ROOT
ATOM      1  C   UNL     1      -9.081  -8.041   1.167  1.00  0.00     0.019 A 
ATOM      2  C   UNL     1      -9.749  -7.518   0.061  1.00  0.00     0.094 A 
ATOM      3  C   UNL     1     -10.425  -6.300   0.191  1.00  0.00     0.336 A 
ATOM      4  O   UNL     1     -11.034  -5.811  -0.797  1.00  0.00    -0.246 OA
ATOM      5  O   UNL     1     -10.430  -5.652   1.354  1.00  0.00    -0.423 OA
ATOM      6  C   UNL     1      -9.806  -6.118   2.434  1.00  0.00     0.142 A 
ATOM      7  C   UNL     1      -9.846  -5.393   3.630  1.00  0.00     0.098 A 
ATOM      8  C   UNL     1      -9.189  -5.879   4.771  1.00  0.00     0.161 A 
ATOM      9  C   UNL     1      -8.491  -7.094   4.714  1.00  0.00     0.158 A 
ATOM     10  C   UNL     1      -8.448  -7.824   3.517  1.00  0.00     0.062 A 
ATOM     11  C   UNL     1      -9.103  -7.340   2.377  1.00  0.00     0.022 A 
ENDROOT
BRANCH   9  12
ATOM     12  O   UNL     1      -7.841  -7.568   5.853  1.00  0.00    -0.504 OA
ATOM     13  H   UNL     1      -7.380  -6.940   6.500  1.00  0.00     0.293 HD
ENDBRANCH   9  12
BRANCH   8  14
ATOM     14  O   UNL     1      -9.227  -5.159   5.963  1.00  0.00    -0.504 OA
ATOM     15  H   UNL     1      -9.481  -4.179   5.984  1.00  0.00     0.293 HD
ENDBRANCH   8  14
TORSDOF 2
ENDMDL
MODEL 9
REMARK VINA RESULT:    -4.853      2.327      3.177
REMARK INTER + INTRA:          -5.136
REMARK INTER:                  -5.136
REMARK INTRA:                   0.000
REMARK UNBOUND:                 0.000
REMARK SMILES O=c1ccc2cc(O)c(O)cc2o1
REMARK SMILES IDX 4 1 3 2 2 3 1 4 13 5 12 6 11 7 9 8 7 9 6 10 5 11 8 12 10 14
REMARK H PARENT 8 13 10 15
REMARK Flexibility Score: inf
ROOT
ATOM      1  C   UNL     1     -10.538  -5.930   1.397  1.00  0.00     0.019 A 
ATOM      2  C   UNL     1     -10.516  -6.776   0.288  1.00  0.00     0.094 A 
ATOM      3  C   UNL     1      -9.799  -7.975   0.363  1.00  0.00     0.336 A 
ATOM      4  O   UNL     1      -9.767  -8.751  -0.628  1.00  0.00    -0.246 OA
ATOM      5  O   UNL     1      -9.147  -8.302   1.476  1.00  0.00    -0.423 OA
ATOM      6  C   UNL     1      -9.142  -7.523   2.557  1.00  0.00     0.142 A 
ATOM      7  C   UNL     1      -8.439  -7.919   3.699  1.00  0.00     0.098 A 
ATOM      8  C   UNL     1      -8.430  -7.103   4.840  1.00  0.00     0.161 A 
ATOM      9  C   UNL     1      -9.128  -5.887   4.838  1.00  0.00     0.158 A 
ATOM     10  C   UNL     1      -9.834  -5.485   3.694  1.00  0.00     0.062 A 
ATOM     11  C   UNL     1      -9.844  -6.299   2.554  1.00  0.00     0.022 A 
ENDROOT
BRANCH   9  12
ATOM     12  O   UNL     1      -9.114  -5.082   5.976  1.00  0.00    -0.504 OA
ATOM     13  H   UNL     1      -8.361  -4.427   6.153  1.00  0.00     0.293 HD
ENDBRANCH   9  12
BRANCH   8  14
ATOM     14  O   UNL     1      -7.730  -7.495   5.979  1.00  0.00    -0.504 OA
ATOM     15  H   UNL     1      -7.861  -8.410   6.394  1.00  0.00     0.293 HD
ENDBRANCH   8  14
TORSDOF 2
ENDMDL
