MODEL 1
REMARK VINA RESULT:    -9.437      0.000      0.000
REMARK INTER + INTRA:         -13.231
REMARK INTER:                 -12.747
REMARK INTRA:                  -0.485
REMARK UNBOUND:                -0.485
REMARK SMILES CC[C@H](CC[C@@H](C)[C@@H]1CC[C@@H]2[C@@H]3CC(=O)C4=CC(=O)CC[C@@]4(C)[C@H]3CC[C@@]21C)C(C)C
REMARK SMILES IDX 4 1 3 2 2 3 1 4 29 5 30 6 31 7 5 8 6 9 7 10 8 11 9 12 27 13
REMARK SMILES IDX 10 14 11 15 26 16 28 17 12 18 25 19 24 20 13 21 22 22 14 23
REMARK SMILES IDX 16 24 21 25 23 26 15 27 17 28 20 29 18 30 19 31
REMARK H PARENT
REMARK Flexibility Score: inf
ROOT
ATOM      1  C   UNL     1      31.423  20.211  19.619  1.00  0.00     0.004 C 
ENDROOT
BRANCH   1   2
ATOM      2  C   UNL     1      32.467  19.532  18.683  1.00  0.00    -0.009 C 
BRANCH   2   3
ATOM      3  C   UNL     1      31.832  18.275  18.026  1.00  0.00     0.000 C 
ATOM      4  C   UNL     1      32.611  17.745  16.815  1.00  0.00     0.004 C 
ENDBRANCH   2   3
BRANCH   2   5
ATOM      5  C   UNL     1      33.084  20.570  17.674  1.00  0.00    -0.014 C 
ATOM      6  C   UNL     1      32.003  21.361  16.913  1.00  0.00     0.007 C 
ATOM      7  C   UNL     1      34.133  21.514  18.284  1.00  0.00     0.007 C 
ENDBRANCH   2   5
ENDBRANCH   1   2
BRANCH   1   8
ATOM      8  C   UNL     1      31.463  19.639  21.057  1.00  0.00     0.004 C 
BRANCH   8   9
ATOM      9  C   UNL     1      32.765  19.982  21.839  1.00  0.00    -0.011 C 
ATOM     10  C   UNL     1      32.962  21.516  21.772  1.00  0.00     0.008 C 
BRANCH   9  11
ATOM     11  C   UNL     1      32.721  19.365  23.290  1.00  0.00    -0.002 C 
ATOM     12  C   UNL     1      32.587  17.835  23.368  1.00  0.00     0.005 C 
ATOM     13  C   UNL     1      31.713  19.934  24.339  1.00  0.00    -0.026 C 
ATOM     14  C   UNL     1      31.949  17.531  24.724  1.00  0.00     0.005 C 
ATOM     15  C   UNL     1      31.807  18.872  25.464  1.00  0.00    -0.001 C 
ATOM     16  C   UNL     1      30.262  20.005  23.792  1.00  0.00     0.007 C 
ATOM     17  C   UNL     1      32.177  21.325  24.844  1.00  0.00     0.012 C 
ATOM     18  C   UNL     1      30.665  18.923  26.536  1.00  0.00     0.004 C 
ATOM     19  C   UNL     1      29.210  20.186  24.891  1.00  0.00     0.005 C 
ATOM     20  C   UNL     1      29.245  19.040  25.929  1.00  0.00     0.003 C 
ATOM     21  C   UNL     1      30.743  17.689  27.457  1.00  0.00     0.085 C 
ATOM     22  C   UNL     1      28.078  19.113  27.023  1.00  0.00    -0.000 C 
ATOM     23  C   UNL     1      29.725  17.753  28.543  1.00  0.00     0.159 C 
ATOM     24  C   UNL     1      28.540  18.628  28.411  1.00  0.00     0.005 C 
ATOM     25  C   UNL     1      27.504  20.561  27.191  1.00  0.00     0.020 C 
ATOM     26  C   UNL     1      26.941  18.167  26.556  1.00  0.00     0.017 C 
ATOM     27  O   UNL     1      29.879  17.028  29.562  1.00  0.00    -0.295 OA
ATOM     28  C   UNL     1      27.873  18.980  29.528  1.00  0.00     0.055 C 
ATOM     29  C   UNL     1      26.393  20.664  28.247  1.00  0.00     0.081 C 
ATOM     30  C   UNL     1      26.761  19.944  29.506  1.00  0.00     0.156 C 
ATOM     31  O   UNL     1      26.103  20.154  30.556  1.00  0.00    -0.295 OA
ENDBRANCH   9  11
ENDBRANCH   8   9
ENDBRANCH   1   8
TORSDOF 6
ENDMDL
MODEL 2
REMARK VINA RESULT:    -9.133      3.798      9.558
REMARK INTER + INTRA:         -12.821
REMARK INTER:                 -12.356
REMARK INTRA:                  -0.466
REMARK UNBOUND:                -0.485
REMARK SMILES CC[C@H](CC[C@@H](C)[C@@H]1CC[C@@H]2[C@@H]3CC(=O)C4=CC(=O)CC[C@@]4(C)[C@H]3CC[C@@]21C)C(C)C
REMARK SMILES IDX 4 1 3 2 2 3 1 4 29 5 30 6 31 7 5 8 6 9 7 10 8 11 9 12 27 13
REMARK SMILES IDX 10 14 11 15 26 16 28 17 12 18 25 19 24 20 13 21 22 22 14 23
REMARK SMILES IDX 16 24 21 25 23 26 15 27 17 28 20 29 18 30 19 31
REMARK H PARENT
REMARK Flexibility Score: inf
ROOT
ATOM      1  C   UNL     1      28.870  20.126  26.257  1.00  0.00     0.004 C 
ENDROOT
BRANCH   1   2
ATOM      2  C   UNL     1      28.292  18.993  27.155  1.00  0.00    -0.009 C 
BRANCH   2   3
ATOM      3  C   UNL     1      29.114  18.904  28.471  1.00  0.00     0.000 C 
ATOM      4  C   UNL     1      29.465  17.471  28.891  1.00  0.00     0.004 C 
ENDBRANCH   2   3
BRANCH   2   5
ATOM      5  C   UNL     1      26.740  19.161  27.352  1.00  0.00    -0.014 C 
ATOM      6  C   UNL     1      25.938  18.041  26.660  1.00  0.00     0.007 C 
ATOM      7  C   UNL     1      26.292  19.339  28.812  1.00  0.00     0.007 C 
ENDBRANCH   2   5
ENDBRANCH   1   2
BRANCH   1   8
ATOM      8  C   UNL     1      29.785  19.578  25.135  1.00  0.00     0.004 C 
BRANCH   8   9
ATOM      9  C   UNL     1      31.246  19.293  25.591  1.00  0.00    -0.011 C 
ATOM     10  C   UNL     1      31.405  17.758  25.723  1.00  0.00     0.008 C 
BRANCH   9  11
ATOM     11  C   UNL     1      32.277  20.003  24.632  1.00  0.00    -0.002 C 
ATOM     12  C   UNL     1      32.094  21.519  24.449  1.00  0.00     0.005 C 
ATOM     13  C   UNL     1      32.520  19.428  23.200  1.00  0.00    -0.026 C 
ATOM     14  C   UNL     1      32.714  21.864  23.094  1.00  0.00     0.005 C 
ATOM     15  C   UNL     1      33.338  20.569  22.545  1.00  0.00    -0.001 C 
ATOM     16  C   UNL     1      31.199  19.202  22.418  1.00  0.00     0.007 C 
ATOM     17  C   UNL     1      33.346  18.118  23.270  1.00  0.00     0.012 C 
ATOM     18  C   UNL     1      33.461  20.501  20.983  1.00  0.00     0.004 C 
ATOM     19  C   UNL     1      31.411  19.013  20.913  1.00  0.00     0.005 C 
ATOM     20  C   UNL     1      32.117  20.227  20.265  1.00  0.00     0.003 C 
ATOM     21  C   UNL     1      34.093  21.797  20.441  1.00  0.00     0.085 C 
ATOM     22  C   UNL     1      32.242  20.136  18.671  1.00  0.00    -0.000 C 
ATOM     23  C   UNL     1      34.305  21.727  18.968  1.00  0.00     0.159 C 
ATOM     24  C   UNL     1      33.555  20.752  18.147  1.00  0.00     0.005 C 
ATOM     25  C   UNL     1      32.166  18.661  18.148  1.00  0.00     0.020 C 
ATOM     26  C   UNL     1      31.072  20.952  18.063  1.00  0.00     0.017 C 
ATOM     27  O   UNL     1      35.115  22.531  18.432  1.00  0.00    -0.295 OA
ATOM     28  C   UNL     1      34.040  20.425  16.933  1.00  0.00     0.055 C 
ATOM     29  C   UNL     1      32.301  18.542  16.622  1.00  0.00     0.081 C 
ATOM     30  C   UNL     1      33.430  19.375  16.102  1.00  0.00     0.156 C 
ATOM     31  O   UNL     1      33.854  19.185  14.934  1.00  0.00    -0.295 OA
ENDBRANCH   9  11
ENDBRANCH   8   9
ENDBRANCH   1   8
TORSDOF 6
ENDMDL
MODEL 3
REMARK VINA RESULT:    -8.548      7.176      9.047
REMARK INTER + INTRA:         -12.031
REMARK INTER:                 -11.135
REMARK INTRA:                  -0.897
REMARK UNBOUND:                -0.485
REMARK SMILES CC[C@H](CC[C@@H](C)[C@@H]1CC[C@@H]2[C@@H]3CC(=O)C4=CC(=O)CC[C@@]4(C)[C@H]3CC[C@@]21C)C(C)C
REMARK SMILES IDX 4 1 3 2 2 3 1 4 29 5 30 6 31 7 5 8 6 9 7 10 8 11 9 12 27 13
REMARK SMILES IDX 10 14 11 15 26 16 28 17 12 18 25 19 24 20 13 21 22 22 14 23
REMARK SMILES IDX 16 24 21 25 23 26 15 27 17 28 20 29 18 30 19 31
REMARK H PARENT
REMARK Flexibility Score: inf
ROOT
ATOM      1  C   UNL     1      33.486  20.777  22.538  1.00  0.00     0.004 C 
ENDROOT
BRANCH   1   2
ATOM      2  C   UNL     1      32.500  19.844  21.774  1.00  0.00    -0.009 C 
BRANCH   2   3
ATOM      3  C   UNL     1      31.183  19.706  22.587  1.00  0.00     0.000 C 
ATOM      4  C   UNL     1      29.916  20.011  21.777  1.00  0.00     0.004 C 
ENDBRANCH   2   3
BRANCH   2   5
ATOM      5  C   UNL     1      32.316  20.312  20.283  1.00  0.00    -0.014 C 
ATOM      6  C   UNL     1      33.392  21.325  19.851  1.00  0.00     0.007 C 
ATOM      7  C   UNL     1      32.191  19.169  19.262  1.00  0.00     0.007 C 
ENDBRANCH   2   5
ENDBRANCH   1   2
BRANCH   1   8
ATOM      8  C   UNL     1      34.614  19.989  23.245  1.00  0.00     0.004 C 
BRANCH   8   9
ATOM      9  C   UNL     1      34.778  20.333  24.755  1.00  0.00    -0.011 C 
ATOM     10  C   UNL     1      33.574  19.718  25.510  1.00  0.00     0.008 C 
BRANCH   9  11
ATOM     11  C   UNL     1      36.201  19.896  25.274  1.00  0.00    -0.002 C 
ATOM     12  C   UNL     1      36.255  18.580  26.068  1.00  0.00     0.005 C 
ATOM     13  C   UNL     1      37.074  20.913  26.077  1.00  0.00    -0.026 C 
ATOM     14  C   UNL     1      37.489  18.673  26.966  1.00  0.00     0.005 C 
ATOM     15  C   UNL     1      38.198  19.994  26.619  1.00  0.00    -0.001 C 
ATOM     16  C   UNL     1      36.299  21.560  27.256  1.00  0.00     0.007 C 
ATOM     17  C   UNL     1      37.649  22.002  25.136  1.00  0.00     0.012 C 
ATOM     18  C   UNL     1      39.071  20.602  27.771  1.00  0.00     0.004 C 
ATOM     19  C   UNL     1      37.213  22.249  28.275  1.00  0.00     0.005 C 
ATOM     20  C   UNL     1      38.241  21.273  28.893  1.00  0.00     0.003 C 
ATOM     21  C   UNL     1      39.990  19.521  28.371  1.00  0.00     0.085 C 
ATOM     22  C   UNL     1      39.131  21.914  30.059  1.00  0.00    -0.000 C 
ATOM     23  C   UNL     1      40.897  20.089  29.407  1.00  0.00     0.159 C 
ATOM     24  C   UNL     1      40.575  21.376  30.062  1.00  0.00     0.005 C 
ATOM     25  C   UNL     1      39.205  23.477  29.966  1.00  0.00     0.020 C 
ATOM     26  C   UNL     1      38.484  21.516  31.412  1.00  0.00     0.017 C 
ATOM     27  O   UNL     1      41.927  19.440  29.734  1.00  0.00    -0.295 OA
ATOM     28  C   UNL     1      41.569  22.056  30.667  1.00  0.00     0.055 C 
ATOM     29  C   UNL     1      40.067  24.118  31.064  1.00  0.00     0.081 C 
ATOM     30  C   UNL     1      41.368  23.399  31.234  1.00  0.00     0.156 C 
ATOM     31  O   UNL     1      42.298  23.943  31.883  1.00  0.00    -0.295 OA
ENDBRANCH   9  11
ENDBRANCH   8   9
ENDBRANCH   1   8
TORSDOF 6
ENDMDL
MODEL 4
REMARK VINA RESULT:    -8.447      4.611      8.865
REMARK INTER + INTRA:         -11.895
REMARK INTER:                 -10.602
REMARK INTRA:                  -1.293
REMARK UNBOUND:                -0.485
REMARK SMILES CC[C@H](CC[C@@H](C)[C@@H]1CC[C@@H]2[C@@H]3CC(=O)C4=CC(=O)CC[C@@]4(C)[C@H]3CC[C@@]21C)C(C)C
REMARK SMILES IDX 4 1 3 2 2 3 1 4 29 5 30 6 31 7 5 8 6 9 7 10 8 11 9 12 27 13
REMARK SMILES IDX 10 14 11 15 26 16 28 17 12 18 25 19 24 20 13 21 22 22 14 23
REMARK SMILES IDX 16 24 21 25 23 26 15 27 17 28 20 29 18 30 19 31
REMARK H PARENT
REMARK Flexibility Score: inf
ROOT
ATOM      1  C   UNL     1      29.280  19.659  25.747  1.00  0.00     0.004 C 
ENDROOT
BRANCH   1   2
ATOM      2  C   UNL     1      28.729  18.476  26.597  1.00  0.00    -0.009 C 
BRANCH   2   3
ATOM      3  C   UNL     1      29.891  17.833  27.405  1.00  0.00     0.000 C 
ATOM      4  C   UNL     1      29.592  17.664  28.899  1.00  0.00     0.004 C 
ENDBRANCH   2   3
BRANCH   2   5
ATOM      5  C   UNL     1      27.490  18.923  27.457  1.00  0.00    -0.014 C 
ATOM      6  C   UNL     1      27.380  20.455  27.573  1.00  0.00     0.007 C 
ATOM      7  C   UNL     1      26.150  18.304  27.024  1.00  0.00     0.007 C 
ENDBRANCH   2   5
ENDBRANCH   1   2
BRANCH   1   8
ATOM      8  C   UNL     1      29.405  19.298  24.247  1.00  0.00     0.004 C 
BRANCH   8   9
ATOM      9  C   UNL     1      30.861  19.356  23.701  1.00  0.00    -0.011 C 
ATOM     10  C   UNL     1      30.807  19.983  22.286  1.00  0.00     0.008 C 
BRANCH   9  11
ATOM     11  C   UNL     1      31.813  20.081  24.729  1.00  0.00    -0.002 C 
ATOM     12  C   UNL     1      32.193  21.531  24.391  1.00  0.00     0.005 C 
ATOM     13  C   UNL     1      33.140  19.386  25.172  1.00  0.00    -0.026 C 
ATOM     14  C   UNL     1      33.525  21.799  25.092  1.00  0.00     0.005 C 
ATOM     15  C   UNL     1      33.861  20.541  25.911  1.00  0.00    -0.001 C 
ATOM     16  C   UNL     1      33.993  18.910  23.966  1.00  0.00     0.007 C 
ATOM     17  C   UNL     1      32.845  18.206  26.134  1.00  0.00     0.012 C 
ATOM     18  C   UNL     1      35.387  20.317  26.189  1.00  0.00     0.004 C 
ATOM     19  C   UNL     1      35.442  18.584  24.341  1.00  0.00     0.005 C 
ATOM     20  C   UNL     1      36.174  19.798  24.960  1.00  0.00     0.003 C 
ATOM     21  C   UNL     1      36.031  21.614  26.716  1.00  0.00     0.085 C 
ATOM     22  C   UNL     1      37.729  19.547  25.246  1.00  0.00    -0.000 C 
ATOM     23  C   UNL     1      37.462  21.408  27.074  1.00  0.00     0.159 C 
ATOM     24  C   UNL     1      38.216  20.261  26.523  1.00  0.00     0.005 C 
ATOM     25  C   UNL     1      38.074  18.025  25.391  1.00  0.00     0.020 C 
ATOM     26  C   UNL     1      38.525  20.137  24.052  1.00  0.00     0.017 C 
ATOM     27  O   UNL     1      38.024  22.244  27.832  1.00  0.00    -0.295 OA
ATOM     28  C   UNL     1      39.338  19.866  27.155  1.00  0.00     0.055 C 
ATOM     29  C   UNL     1      39.557  17.756  25.684  1.00  0.00     0.081 C 
ATOM     30  C   UNL     1      40.082  18.662  26.753  1.00  0.00     0.156 C 
ATOM     31  O   UNL     1      41.180  18.399  27.305  1.00  0.00    -0.295 OA
ENDBRANCH   9  11
ENDBRANCH   8   9
ENDBRANCH   1   8
TORSDOF 6
ENDMDL
MODEL 5
REMARK VINA RESULT:    -8.317      7.192      9.139
REMARK INTER + INTRA:         -11.719
REMARK INTER:                 -10.725
REMARK INTRA:                  -0.994
REMARK UNBOUND:                -0.485
REMARK SMILES CC[C@H](CC[C@@H](C)[C@@H]1CC[C@@H]2[C@@H]3CC(=O)C4=CC(=O)CC[C@@]4(C)[C@H]3CC[C@@]21C)C(C)C
REMARK SMILES IDX 4 1 3 2 2 3 1 4 29 5 30 6 31 7 5 8 6 9 7 10 8 11 9 12 27 13
REMARK SMILES IDX 10 14 11 15 26 16 28 17 12 18 25 19 24 20 13 21 22 22 14 23
REMARK SMILES IDX 16 24 21 25 23 26 15 27 17 28 20 29 18 30 19 31
REMARK H PARENT
REMARK Flexibility Score: inf
ROOT
ATOM      1  C   UNL     1      33.283  19.447  22.887  1.00  0.00     0.004 C 
ENDROOT
BRANCH   1   2
ATOM      2  C   UNL     1      32.405  20.467  22.102  1.00  0.00    -0.009 C 
BRANCH   2   3
ATOM      3  C   UNL     1      32.723  20.364  20.585  1.00  0.00     0.000 C 
ATOM      4  C   UNL     1      33.589  21.511  20.050  1.00  0.00     0.004 C 
ENDBRANCH   2   3
BRANCH   2   5
ATOM      5  C   UNL     1      30.884  20.312  22.475  1.00  0.00    -0.014 C 
ATOM      6  C   UNL     1      30.019  19.936  21.258  1.00  0.00     0.007 C 
ATOM      7  C   UNL     1      30.605  19.376  23.662  1.00  0.00     0.007 C 
ENDBRANCH   2   5
ENDBRANCH   1   2
BRANCH   1   8
ATOM      8  C   UNL     1      34.662  20.033  23.274  1.00  0.00     0.004 C 
BRANCH   8   9
ATOM      9  C   UNL     1      34.806  20.367  24.787  1.00  0.00    -0.011 C 
ATOM     10  C   UNL     1      33.592  19.749  25.522  1.00  0.00     0.008 C 
BRANCH   9  11
ATOM     11  C   UNL     1      36.222  19.922  25.323  1.00  0.00    -0.002 C 
ATOM     12  C   UNL     1      36.261  18.605  26.114  1.00  0.00     0.005 C 
ATOM     13  C   UNL     1      37.089  20.934  26.138  1.00  0.00    -0.026 C 
ATOM     14  C   UNL     1      37.485  18.691  27.027  1.00  0.00     0.005 C 
ATOM     15  C   UNL     1      38.203  20.009  26.691  1.00  0.00    -0.001 C 
ATOM     16  C   UNL     1      36.304  21.582  27.309  1.00  0.00     0.007 C 
ATOM     17  C   UNL     1      37.680  22.023  25.206  1.00  0.00     0.012 C 
ATOM     18  C   UNL     1      39.065  20.612  27.854  1.00  0.00     0.004 C 
ATOM     19  C   UNL     1      37.208  22.266  28.340  1.00  0.00     0.005 C 
ATOM     20  C   UNL     1      38.225  21.284  28.968  1.00  0.00     0.003 C 
ATOM     21  C   UNL     1      39.973  19.526  28.463  1.00  0.00     0.085 C 
ATOM     22  C   UNL     1      39.104  21.919  30.146  1.00  0.00    -0.000 C 
ATOM     23  C   UNL     1      40.870  20.088  29.511  1.00  0.00     0.159 C 
ATOM     24  C   UNL     1      40.546  21.375  30.165  1.00  0.00     0.005 C 
ATOM     25  C   UNL     1      39.186  23.482  30.056  1.00  0.00     0.020 C 
ATOM     26  C   UNL     1      38.440  21.522  31.490  1.00  0.00     0.017 C 
ATOM     27  O   UNL     1      41.893  19.435  29.848  1.00  0.00    -0.295 OA
ATOM     28  C   UNL     1      41.536  22.049  30.782  1.00  0.00     0.055 C 
ATOM     29  C   UNL     1      40.038  24.117  31.166  1.00  0.00     0.081 C 
ATOM     30  C   UNL     1      41.334  23.392  31.350  1.00  0.00     0.156 C 
ATOM     31  O   UNL     1      42.258  23.931  32.010  1.00  0.00    -0.295 OA
ENDBRANCH   9  11
ENDBRANCH   8   9
ENDBRANCH   1   8
TORSDOF 6
ENDMDL
MODEL 6
REMARK VINA RESULT:    -8.234      8.990     12.093
REMARK INTER + INTRA:         -11.606
REMARK INTER:                  -9.480
REMARK INTRA:                  -2.126
REMARK UNBOUND:                -0.485
REMARK SMILES CC[C@H](CC[C@@H](C)[C@@H]1CC[C@@H]2[C@@H]3CC(=O)C4=CC(=O)CC[C@@]4(C)[C@H]3CC[C@@]21C)C(C)C
REMARK SMILES IDX 4 1 3 2 2 3 1 4 29 5 30 6 31 7 5 8 6 9 7 10 8 11 9 12 27 13
REMARK SMILES IDX 10 14 11 15 26 16 28 17 12 18 25 19 24 20 13 21 22 22 14 23
REMARK SMILES IDX 16 24 21 25 23 26 15 27 17 28 20 29 18 30 19 31
REMARK H PARENT
REMARK Flexibility Score: inf
ROOT
ATOM      1  C   UNL     1      40.494  20.931  33.425  1.00  0.00     0.004 C 
ENDROOT
BRANCH   1   2
ATOM      2  C   UNL     1      41.532  19.865  33.886  1.00  0.00    -0.009 C 
BRANCH   2   3
ATOM      3  C   UNL     1      40.906  18.448  33.768  1.00  0.00     0.000 C 
ATOM      4  C   UNL     1      39.564  18.419  33.025  1.00  0.00     0.004 C 
ENDBRANCH   2   3
BRANCH   2   5
ATOM      5  C   UNL     1      42.905  20.050  33.141  1.00  0.00    -0.014 C 
ATOM      6  C   UNL     1      44.081  20.232  34.120  1.00  0.00     0.007 C 
ATOM      7  C   UNL     1      43.220  18.969  32.095  1.00  0.00     0.007 C 
ENDBRANCH   2   5
ENDBRANCH   1   2
BRANCH   1   8
ATOM      8  C   UNL     1      41.169  22.206  32.866  1.00  0.00     0.004 C 
BRANCH   8   9
ATOM      9  C   UNL     1      40.762  22.549  31.403  1.00  0.00    -0.011 C 
ATOM     10  C   UNL     1      41.906  23.386  30.781  1.00  0.00     0.008 C 
BRANCH   9  11
ATOM     11  C   UNL     1      40.370  21.241  30.613  1.00  0.00    -0.002 C 
ATOM     12  C   UNL     1      41.360  20.784  29.530  1.00  0.00     0.005 C 
ATOM     13  C   UNL     1      38.952  21.128  29.968  1.00  0.00    -0.026 C 
ATOM     14  C   UNL     1      40.549  19.964  28.527  1.00  0.00     0.005 C 
ATOM     15  C   UNL     1      39.117  19.867  29.081  1.00  0.00    -0.001 C 
ATOM     16  C   UNL     1      38.599  22.356  29.087  1.00  0.00     0.007 C 
ATOM     17  C   UNL     1      37.871  20.906  31.057  1.00  0.00     0.012 C 
ATOM     18  C   UNL     1      38.000  19.649  28.003  1.00  0.00     0.004 C 
ATOM     19  C   UNL     1      37.412  22.109  28.151  1.00  0.00     0.005 C 
ATOM     20  C   UNL     1      37.661  20.922  27.190  1.00  0.00     0.003 C 
ATOM     21  C   UNL     1      38.396  18.505  27.049  1.00  0.00     0.085 C 
ATOM     22  C   UNL     1      36.506  20.707  26.103  1.00  0.00    -0.000 C 
ATOM     23  C   UNL     1      37.314  18.214  26.068  1.00  0.00     0.159 C 
ATOM     24  C   UNL     1      36.266  19.219  25.784  1.00  0.00     0.005 C 
ATOM     25  C   UNL     1      35.138  21.324  26.554  1.00  0.00     0.020 C 
ATOM     26  C   UNL     1      36.966  21.395  24.791  1.00  0.00     0.017 C 
ATOM     27  O   UNL     1      37.323  17.107  25.465  1.00  0.00    -0.295 OA
ATOM     28  C   UNL     1      35.109  18.803  25.233  1.00  0.00     0.055 C 
ATOM     29  C   UNL     1      34.005  21.118  25.536  1.00  0.00     0.081 C 
ATOM     30  C   UNL     1      33.967  19.709  25.032  1.00  0.00     0.156 C 
ATOM     31  O   UNL     1      32.951  19.299  24.416  1.00  0.00    -0.295 OA
ENDBRANCH   9  11
ENDBRANCH   8   9
ENDBRANCH   1   8
TORSDOF 6
ENDMDL
MODEL 7
REMARK VINA RESULT:    -7.920      6.096      9.285
REMARK INTER + INTRA:         -11.183
REMARK INTER:                  -9.579
REMARK INTRA:                  -1.604
REMARK UNBOUND:                -0.485
REMARK SMILES CC[C@H](CC[C@@H](C)[C@@H]1CC[C@@H]2[C@@H]3CC(=O)C4=CC(=O)CC[C@@]4(C)[C@H]3CC[C@@]21C)C(C)C
REMARK SMILES IDX 4 1 3 2 2 3 1 4 29 5 30 6 31 7 5 8 6 9 7 10 8 11 9 12 27 13
REMARK SMILES IDX 10 14 11 15 26 16 28 17 12 18 25 19 24 20 13 21 22 22 14 23
REMARK SMILES IDX 16 24 21 25 23 26 15 27 17 28 20 29 18 30 19 31
REMARK H PARENT
REMARK Flexibility Score: inf
ROOT
ATOM      1  C   UNL     1      40.035  20.929  29.393  1.00  0.00     0.004 C 
ENDROOT
BRANCH   1   2
ATOM      2  C   UNL     1      39.016  21.682  30.299  1.00  0.00    -0.009 C 
BRANCH   2   3
ATOM      3  C   UNL     1      38.103  20.652  31.020  1.00  0.00     0.000 C 
ATOM      4  C   UNL     1      38.775  19.297  31.278  1.00  0.00     0.004 C 
ENDBRANCH   2   3
BRANCH   2   5
ATOM      5  C   UNL     1      39.746  22.703  31.248  1.00  0.00    -0.014 C 
ATOM      6  C   UNL     1      41.157  22.226  31.645  1.00  0.00     0.007 C 
ATOM      7  C   UNL     1      39.776  24.151  30.734  1.00  0.00     0.007 C 
ENDBRANCH   2   5
ENDBRANCH   1   2
BRANCH   1   8
ATOM      8  C   UNL     1      39.966  21.392  27.918  1.00  0.00     0.004 C 
BRANCH   8   9
ATOM      9  C   UNL     1      39.423  20.310  26.939  1.00  0.00    -0.011 C 
ATOM     10  C   UNL     1      40.385  19.099  26.997  1.00  0.00     0.008 C 
BRANCH   9  11
ATOM     11  C   UNL     1      37.909  19.990  27.248  1.00  0.00    -0.002 C 
ATOM     12  C   UNL     1      37.585  18.527  27.591  1.00  0.00     0.005 C 
ATOM     13  C   UNL     1      36.805  20.445  26.240  1.00  0.00    -0.026 C 
ATOM     14  C   UNL     1      36.113  18.320  27.232  1.00  0.00     0.005 C 
ATOM     15  C   UNL     1      35.567  19.684  26.776  1.00  0.00    -0.001 C 
ATOM     16  C   UNL     1      37.112  20.006  24.784  1.00  0.00     0.007 C 
ATOM     17  C   UNL     1      36.593  21.979  26.318  1.00  0.00     0.012 C 
ATOM     18  C   UNL     1      34.341  19.617  25.800  1.00  0.00     0.004 C 
ATOM     19  C   UNL     1      35.895  20.092  23.857  1.00  0.00     0.005 C 
ATOM     20  C   UNL     1      34.719  19.219  24.352  1.00  0.00     0.003 C 
ATOM     21  C   UNL     1      33.274  18.651  26.350  1.00  0.00     0.085 C 
ATOM     22  C   UNL     1      33.473  19.170  23.349  1.00  0.00    -0.000 C 
ATOM     23  C   UNL     1      32.058  18.634  25.490  1.00  0.00     0.159 C 
ATOM     24  C   UNL     1      32.122  19.104  24.089  1.00  0.00     0.005 C 
ATOM     25  C   UNL     1      33.429  20.407  22.388  1.00  0.00     0.020 C 
ATOM     26  C   UNL     1      33.603  17.875  22.505  1.00  0.00     0.017 C 
ATOM     27  O   UNL     1      30.982  18.186  25.969  1.00  0.00    -0.295 OA
ATOM     28  C   UNL     1      30.976  19.461  23.477  1.00  0.00     0.055 C 
ATOM     29  C   UNL     1      32.233  20.395  21.424  1.00  0.00     0.081 C 
ATOM     30  C   UNL     1      30.958  20.057  22.132  1.00  0.00     0.156 C 
ATOM     31  O   UNL     1      29.858  20.270  21.563  1.00  0.00    -0.295 OA
ENDBRANCH   9  11
ENDBRANCH   8   9
ENDBRANCH   1   8
TORSDOF 6
ENDMDL
MODEL 8
REMARK VINA RESULT:    -7.777      7.102      9.407
REMARK INTER + INTRA:         -10.990
REMARK INTER:                 -10.440
REMARK INTRA:                  -0.549
REMARK UNBOUND:                -0.485
REMARK SMILES CC[C@H](CC[C@@H](C)[C@@H]1CC[C@@H]2[C@@H]3CC(=O)C4=CC(=O)CC[C@@]4(C)[C@H]3CC[C@@]21C)C(C)C
REMARK SMILES IDX 4 1 3 2 2 3 1 4 29 5 30 6 31 7 5 8 6 9 7 10 8 11 9 12 27 13
REMARK SMILES IDX 10 14 11 15 26 16 28 17 12 18 25 19 24 20 13 21 22 22 14 23
REMARK SMILES IDX 16 24 21 25 23 26 15 27 17 28 20 29 18 30 19 31
REMARK H PARENT
REMARK Flexibility Score: inf
ROOT
ATOM      1  C   UNL     1      32.870  19.649  25.449  1.00  0.00     0.004 C 
ENDROOT
BRANCH   1   2
ATOM      2  C   UNL     1      31.620  18.961  24.826  1.00  0.00    -0.009 C 
BRANCH   2   3
ATOM      3  C   UNL     1      30.485  18.890  25.885  1.00  0.00     0.000 C 
ATOM      4  C   UNL     1      30.644  17.745  26.893  1.00  0.00     0.004 C 
ENDBRANCH   2   3
BRANCH   2   5
ATOM      5  C   UNL     1      31.217  19.639  23.464  1.00  0.00    -0.014 C 
ATOM      6  C   UNL     1      32.096  19.163  22.292  1.00  0.00     0.007 C 
ATOM      7  C   UNL     1      29.724  19.538  23.113  1.00  0.00     0.007 C 
ENDBRANCH   2   5
ENDBRANCH   1   2
BRANCH   1   8
ATOM      8  C   UNL     1      34.128  18.750  25.390  1.00  0.00     0.004 C 
BRANCH   8   9
ATOM      9  C   UNL     1      35.198  19.224  24.363  1.00  0.00    -0.011 C 
ATOM     10  C   UNL     1      34.835  20.668  23.940  1.00  0.00     0.008 C 
BRANCH   9  11
ATOM     11  C   UNL     1      36.651  19.030  24.944  1.00  0.00    -0.002 C 
ATOM     12  C   UNL     1      36.879  17.762  25.783  1.00  0.00     0.005 C 
ATOM     13  C   UNL     1      37.324  20.193  25.740  1.00  0.00    -0.026 C 
ATOM     14  C   UNL     1      38.049  18.072  26.717  1.00  0.00     0.005 C 
ATOM     15  C   UNL     1      38.555  19.477  26.350  1.00  0.00    -0.001 C 
ATOM     16  C   UNL     1      36.414  20.744  26.870  1.00  0.00     0.007 C 
ATOM     17  C   UNL     1      37.758  21.332  24.782  1.00  0.00     0.012 C 
ATOM     18  C   UNL     1      39.279  20.247  27.508  1.00  0.00     0.004 C 
ATOM     19  C   UNL     1      37.170  21.596  27.895  1.00  0.00     0.005 C 
ATOM     20  C   UNL     1      38.313  20.812  28.579  1.00  0.00     0.003 C 
ATOM     21  C   UNL     1      40.332  19.341  28.175  1.00  0.00     0.085 C 
ATOM     22  C   UNL     1      39.048  21.617  29.752  1.00  0.00    -0.000 C 
ATOM     23  C   UNL     1      41.099  20.073  29.221  1.00  0.00     0.159 C 
ATOM     24  C   UNL     1      40.557  21.312  29.821  1.00  0.00     0.005 C 
ATOM     25  C   UNL     1      38.882  23.168  29.609  1.00  0.00     0.020 C 
ATOM     26  C   UNL     1      38.420  21.161  31.095  1.00  0.00     0.017 C 
ATOM     27  O   UNL     1      42.204  19.603  29.604  1.00  0.00    -0.295 OA
ATOM     28  C   UNL     1      41.409  22.155  30.435  1.00  0.00     0.055 C 
ATOM     29  C   UNL     1      39.591  23.968  30.712  1.00  0.00     0.081 C 
ATOM     30  C   UNL     1      40.981  23.466  30.949  1.00  0.00     0.156 C 
ATOM     31  O   UNL     1      41.789  24.167  31.609  1.00  0.00    -0.295 OA
ENDBRANCH   9  11
ENDBRANCH   8   9
ENDBRANCH   1   8
TORSDOF 6
ENDMDL
MODEL 9
REMARK VINA RESULT:    -7.775      7.786     10.335
REMARK INTER + INTRA:         -10.986
REMARK INTER:                  -9.525
REMARK INTRA:                  -1.461
REMARK UNBOUND:                -0.485
REMARK SMILES CC[C@H](CC[C@@H](C)[C@@H]1CC[C@@H]2[C@@H]3CC(=O)C4=CC(=O)CC[C@@]4(C)[C@H]3CC[C@@]21C)C(C)C
REMARK SMILES IDX 4 1 3 2 2 3 1 4 29 5 30 6 31 7 5 8 6 9 7 10 8 11 9 12 27 13
REMARK SMILES IDX 10 14 11 15 26 16 28 17 12 18 25 19 24 20 13 21 22 22 14 23
REMARK SMILES IDX 16 24 21 25 23 26 15 27 17 28 20 29 18 30 19 31
REMARK H PARENT
REMARK Flexibility Score: inf
ROOT
ATOM      1  C   UNL     1      33.654  18.902  25.538  1.00  0.00     0.004 C 
ENDROOT
BRANCH   1   2
ATOM      2  C   UNL     1      32.315  18.578  24.811  1.00  0.00    -0.009 C 
BRANCH   2   3
ATOM      3  C   UNL     1      31.484  17.588  25.674  1.00  0.00     0.000 C 
ATOM      4  C   UNL     1      30.536  18.272  26.667  1.00  0.00     0.004 C 
ENDBRANCH   2   3
BRANCH   2   5
ATOM      5  C   UNL     1      31.560  19.895  24.396  1.00  0.00    -0.014 C 
ATOM      6  C   UNL     1      32.255  21.161  24.934  1.00  0.00     0.007 C 
ATOM      7  C   UNL     1      31.268  20.021  22.892  1.00  0.00     0.007 C 
ENDBRANCH   2   5
ENDBRANCH   1   2
BRANCH   1   8
ATOM      8  C   UNL     1      34.891  18.554  24.675  1.00  0.00     0.004 C 
BRANCH   8   9
ATOM      9  C   UNL     1      36.018  19.626  24.722  1.00  0.00    -0.011 C 
ATOM     10  C   UNL     1      35.692  20.697  23.652  1.00  0.00     0.008 C 
BRANCH   9  11
ATOM     11  C   UNL     1      36.210  20.169  26.190  1.00  0.00    -0.002 C 
ATOM     12  C   UNL     1      36.216  21.698  26.349  1.00  0.00     0.005 C 
ATOM     13  C   UNL     1      37.401  19.647  27.056  1.00  0.00    -0.026 C 
ATOM     14  C   UNL     1      37.008  21.993  27.624  1.00  0.00     0.005 C 
ATOM     15  C   UNL     1      37.371  20.635  28.249  1.00  0.00    -0.001 C 
ATOM     16  C   UNL     1      38.761  19.746  26.315  1.00  0.00     0.007 C 
ATOM     17  C   UNL     1      37.138  18.194  27.528  1.00  0.00     0.012 C 
ATOM     18  C   UNL     1      38.652  20.641  29.153  1.00  0.00     0.004 C 
ATOM     19  C   UNL     1      39.969  19.612  27.248  1.00  0.00     0.005 C 
ATOM     20  C   UNL     1      39.978  20.694  28.354  1.00  0.00     0.003 C 
ATOM     21  C   UNL     1      38.594  21.811  30.153  1.00  0.00     0.085 C 
ATOM     22  C   UNL     1      41.288  20.678  29.273  1.00  0.00    -0.000 C 
ATOM     23  C   UNL     1      39.755  21.791  31.086  1.00  0.00     0.159 C 
ATOM     24  C   UNL     1      40.984  21.043  30.739  1.00  0.00     0.005 C 
ATOM     25  C   UNL     1      42.007  19.285  29.269  1.00  0.00     0.020 C 
ATOM     26  C   UNL     1      42.260  21.753  28.719  1.00  0.00     0.017 C 
ATOM     27  O   UNL     1      39.681  22.444  32.161  1.00  0.00    -0.295 OA
ATOM     28  C   UNL     1      41.829  20.701  31.731  1.00  0.00     0.055 C 
ATOM     29  C   UNL     1      43.259  19.236  30.157  1.00  0.00     0.081 C 
ATOM     30  C   UNL     1      43.008  19.852  31.498  1.00  0.00     0.156 C 
ATOM     31  O   UNL     1      43.823  19.652  32.434  1.00  0.00    -0.295 OA
ENDBRANCH   9  11
ENDBRANCH   8   9
ENDBRANCH   1   8
TORSDOF 6
ENDMDL
