MODEL 1
REMARK VINA RESULT:    -4.671      0.000      0.000
REMARK INTER + INTRA:          -5.650
REMARK INTER:                  -5.354
REMARK INTRA:                  -0.296
REMARK UNBOUND:                -0.296
REMARK SMILES O=C([O-])C=Cc1ccc(O)cc1
REMARK SMILES IDX 6 1 7 2 12 3 8 4 11 5 9 6 5 7 4 8 2 9 1 10 3 11 10 12
REMARK H PARENT 10 13
REMARK Flexibility Score: inf
ROOT
ATOM      1  C   UNL     1       8.400  -7.492  -9.014  1.00  0.00    -0.025 A 
ATOM      2  C   UNL     1       9.729  -7.780  -8.669  1.00  0.00     0.012 A 
ATOM      3  C   UNL     1       7.757  -6.395  -8.414  1.00  0.00     0.012 A 
ATOM      4  C   UNL     1      10.423  -6.953  -7.779  1.00  0.00     0.047 A 
ATOM      5  C   UNL     1       8.452  -5.570  -7.524  1.00  0.00     0.047 A 
ATOM      6  C   UNL     1       9.787  -5.844  -7.207  1.00  0.00     0.115 A 
ENDROOT
BRANCH   1   7
ATOM      7  C   UNL     1       7.672  -8.409  -9.913  1.00  0.00     0.010 C 
ATOM      8  C   UNL     1       7.552  -8.261 -11.241  1.00  0.00     0.025 C 
BRANCH   8   9
ATOM      9  C   UNL     1       8.278  -7.273 -12.061  1.00  0.00     0.064 C 
ATOM     10  O   UNL     1       9.358  -7.608 -12.615  1.00  0.00    -0.545 OA
ATOM     11  O   UNL     1       7.836  -5.960 -12.179  1.00  0.00    -0.545 OA
ENDBRANCH   8   9
ENDBRANCH   1   7
BRANCH   6  12
ATOM     12  O   UNL     1      10.468  -5.012  -6.321  1.00  0.00    -0.508 OA
ATOM     13  H   UNL     1      11.478  -5.018  -6.260  1.00  0.00     0.293 HD
ENDBRANCH   6  12
TORSDOF 3
ENDMDL
MODEL 2
REMARK VINA RESULT:    -4.574      2.609      3.582
REMARK INTER + INTRA:          -5.538
REMARK INTER:                  -5.257
REMARK INTRA:                  -0.281
REMARK UNBOUND:                -0.296
REMARK SMILES O=C([O-])C=Cc1ccc(O)cc1
REMARK SMILES IDX 6 1 7 2 12 3 8 4 11 5 9 6 5 7 4 8 2 9 1 10 3 11 10 12
REMARK H PARENT 10 13
REMARK Flexibility Score: inf
ROOT
ATOM      1  C   UNL     1       7.885  -6.679  -7.150  1.00  0.00    -0.025 A 
ATOM      2  C   UNL     1       8.186  -5.432  -6.584  1.00  0.00     0.012 A 
ATOM      3  C   UNL     1       7.622  -7.771  -6.305  1.00  0.00     0.012 A 
ATOM      4  C   UNL     1       8.172  -5.263  -5.196  1.00  0.00     0.047 A 
ATOM      5  C   UNL     1       7.608  -7.602  -4.917  1.00  0.00     0.047 A 
ATOM      6  C   UNL     1       7.879  -6.348  -4.359  1.00  0.00     0.115 A 
ENDROOT
BRANCH   1   7
ATOM      7  C   UNL     1       7.959  -6.845  -8.616  1.00  0.00     0.010 C 
ATOM      8  C   UNL     1       9.086  -7.023  -9.321  1.00  0.00     0.025 C 
BRANCH   8   9
ATOM      9  C   UNL     1      10.422  -7.275  -8.749  1.00  0.00     0.064 C 
ATOM     10  O   UNL     1      10.724  -8.440  -8.381  1.00  0.00    -0.545 OA
ATOM     11  O   UNL     1      11.331  -6.243  -8.542  1.00  0.00    -0.545 OA
ENDBRANCH   8   9
ENDBRANCH   1   7
BRANCH   6  12
ATOM     12  O   UNL     1       7.861  -6.193  -2.974  1.00  0.00    -0.508 OA
ATOM     13  H   UNL     1       8.061  -5.301  -2.539  1.00  0.00     0.293 HD
ENDBRANCH   6  12
TORSDOF 3
ENDMDL
MODEL 3
REMARK VINA RESULT:    -4.534      2.387      3.315
REMARK INTER + INTRA:          -5.492
REMARK INTER:                  -5.217
REMARK INTRA:                  -0.275
REMARK UNBOUND:                -0.296
REMARK SMILES O=C([O-])C=Cc1ccc(O)cc1
REMARK SMILES IDX 6 1 7 2 12 3 8 4 11 5 9 6 5 7 4 8 2 9 1 10 3 11 10 12
REMARK H PARENT 10 13
REMARK Flexibility Score: inf
ROOT
ATOM      1  C   UNL     1       9.711  -6.887  -7.679  1.00  0.00    -0.025 A 
ATOM      2  C   UNL     1       8.859  -6.126  -6.865  1.00  0.00     0.012 A 
ATOM      3  C   UNL     1       9.470  -8.264  -7.825  1.00  0.00     0.012 A 
ATOM      4  C   UNL     1       7.751  -6.720  -6.250  1.00  0.00     0.047 A 
ATOM      5  C   UNL     1       8.363  -8.857  -7.210  1.00  0.00     0.047 A 
ATOM      6  C   UNL     1       7.500  -8.087  -6.424  1.00  0.00     0.115 A 
ENDROOT
BRANCH   1   7
ATOM      7  C   UNL     1      10.902  -6.250  -8.274  1.00  0.00     0.010 C 
ATOM      8  C   UNL     1      11.028  -5.885  -9.559  1.00  0.00     0.025 C 
BRANCH   8   9
ATOM      9  C   UNL     1       9.941  -5.879 -10.556  1.00  0.00     0.064 C 
ATOM     10  O   UNL     1       9.826  -6.853 -11.347  1.00  0.00    -0.545 OA
ATOM     11  O   UNL     1       9.085  -4.792 -10.692  1.00  0.00    -0.545 OA
ENDBRANCH   8   9
ENDBRANCH   1   7
BRANCH   6  12
ATOM     12  O   UNL     1       6.400  -8.690  -5.818  1.00  0.00    -0.508 OA
ATOM     13  H   UNL     1       6.050  -9.587  -6.129  1.00  0.00     0.293 HD
ENDBRANCH   6  12
TORSDOF 3
ENDMDL
MODEL 4
REMARK VINA RESULT:    -4.491     11.945     13.801
REMARK INTER + INTRA:          -5.444
REMARK INTER:                  -5.177
REMARK INTRA:                  -0.266
REMARK UNBOUND:                -0.296
REMARK SMILES O=C([O-])C=Cc1ccc(O)cc1
REMARK SMILES IDX 6 1 7 2 12 3 8 4 11 5 9 6 5 7 4 8 2 9 1 10 3 11 10 12
REMARK H PARENT 10 13
REMARK Flexibility Score: inf
ROOT
ATOM      1  C   UNL     1      21.829  -2.549  -7.635  1.00  0.00    -0.025 A 
ATOM      2  C   UNL     1      20.812  -2.437  -8.595  1.00  0.00     0.012 A 
ATOM      3  C   UNL     1      21.482  -2.740  -6.286  1.00  0.00     0.012 A 
ATOM      4  C   UNL     1      19.470  -2.568  -8.222  1.00  0.00     0.047 A 
ATOM      5  C   UNL     1      20.140  -2.872  -5.915  1.00  0.00     0.047 A 
ATOM      6  C   UNL     1      19.132  -2.789  -6.880  1.00  0.00     0.115 A 
ENDROOT
BRANCH   1   7
ATOM      7  C   UNL     1      23.234  -2.353  -8.045  1.00  0.00     0.010 C 
ATOM      8  C   UNL     1      24.067  -3.324  -8.449  1.00  0.00     0.025 C 
BRANCH   8   9
ATOM      9  C   UNL     1      23.680  -4.717  -8.740  1.00  0.00     0.064 C 
ATOM     10  O   UNL     1      24.085  -5.639  -7.984  1.00  0.00    -0.545 OA
ATOM     11  O   UNL     1      22.936  -5.045  -9.868  1.00  0.00    -0.545 OA
ENDBRANCH   8   9
ENDBRANCH   1   7
BRANCH   6  12
ATOM     12  O   UNL     1      17.799  -2.923  -6.496  1.00  0.00    -0.508 OA
ATOM     13  H   UNL     1      17.340  -2.223  -5.926  1.00  0.00     0.293 HD
ENDBRANCH   6  12
TORSDOF 3
ENDMDL
MODEL 5
REMARK VINA RESULT:    -4.470      2.476      3.056
REMARK INTER + INTRA:          -5.420
REMARK INTER:                  -5.146
REMARK INTRA:                  -0.273
REMARK UNBOUND:                -0.296
REMARK SMILES O=C([O-])C=Cc1ccc(O)cc1
REMARK SMILES IDX 6 1 7 2 12 3 8 4 11 5 9 6 5 7 4 8 2 9 1 10 3 11 10 12
REMARK H PARENT 10 13
REMARK Flexibility Score: inf
ROOT
ATOM      1  C   UNL     1       9.433  -6.711  -7.454  1.00  0.00    -0.025 A 
ATOM      2  C   UNL     1       9.153  -8.082  -7.554  1.00  0.00     0.012 A 
ATOM      3  C   UNL     1       8.733  -5.934  -6.515  1.00  0.00     0.012 A 
ATOM      4  C   UNL     1       8.226  -8.679  -6.692  1.00  0.00     0.047 A 
ATOM      5  C   UNL     1       7.807  -6.531  -5.655  1.00  0.00     0.047 A 
ATOM      6  C   UNL     1       7.553  -7.904  -5.738  1.00  0.00     0.115 A 
ENDROOT
BRANCH   1   7
ATOM      7  C   UNL     1      10.376  -6.095  -8.409  1.00  0.00     0.010 C 
ATOM      8  C   UNL     1      10.078  -5.722  -9.663  1.00  0.00     0.025 C 
BRANCH   8   9
ATOM      9  C   UNL     1       8.723  -5.683 -10.244  1.00  0.00     0.064 C 
ATOM     10  O   UNL     1       8.411  -6.517 -11.135  1.00  0.00    -0.545 OA
ATOM     11  O   UNL     1       7.805  -4.704  -9.883  1.00  0.00    -0.545 OA
ENDBRANCH   8   9
ENDBRANCH   1   7
BRANCH   6  12
ATOM     12  O   UNL     1       6.629  -8.487  -4.874  1.00  0.00    -0.508 OA
ATOM     13  H   UNL     1       6.683  -9.466  -4.623  1.00  0.00     0.293 HD
ENDBRANCH   6  12
TORSDOF 3
ENDMDL
MODEL 6
REMARK VINA RESULT:    -4.356      1.862      2.425
REMARK INTER + INTRA:          -5.289
REMARK INTER:                  -5.003
REMARK INTRA:                  -0.286
REMARK UNBOUND:                -0.296
REMARK SMILES O=C([O-])C=Cc1ccc(O)cc1
REMARK SMILES IDX 6 1 7 2 12 3 8 4 11 5 9 6 5 7 4 8 2 9 1 10 3 11 10 12
REMARK H PARENT 10 13
REMARK Flexibility Score: inf
ROOT
ATOM      1  C   UNL     1       9.647  -7.450  -7.554  1.00  0.00    -0.025 A 
ATOM      2  C   UNL     1      10.103  -6.139  -7.350  1.00  0.00     0.012 A 
ATOM      3  C   UNL     1       8.514  -7.900  -6.854  1.00  0.00     0.012 A 
ATOM      4  C   UNL     1       9.407  -5.273  -6.500  1.00  0.00     0.047 A 
ATOM      5  C   UNL     1       7.820  -7.033  -6.004  1.00  0.00     0.047 A 
ATOM      6  C   UNL     1       8.262  -5.718  -5.827  1.00  0.00     0.115 A 
ENDROOT
BRANCH   1   7
ATOM      7  C   UNL     1      10.427  -8.361  -8.414  1.00  0.00     0.010 C 
ATOM      8  C   UNL     1      10.218  -8.563  -9.724  1.00  0.00     0.025 C 
BRANCH   8   9
ATOM      9  C   UNL     1       9.305  -7.777 -10.575  1.00  0.00     0.064 C 
ATOM     10  O   UNL     1       9.771  -6.840 -11.276  1.00  0.00    -0.545 OA
ATOM     11  O   UNL     1       7.933  -7.998 -10.568  1.00  0.00    -0.545 OA
ENDBRANCH   8   9
ENDBRANCH   1   7
BRANCH   6  12
ATOM     12  O   UNL     1       7.560  -4.864  -4.979  1.00  0.00    -0.508 OA
ATOM     13  H   UNL     1       6.922  -4.166  -5.340  1.00  0.00     0.293 HD
ENDBRANCH   6  12
TORSDOF 3
ENDMDL
MODEL 7
REMARK VINA RESULT:    -4.315      1.666      4.803
REMARK INTER + INTRA:          -5.241
REMARK INTER:                  -4.965
REMARK INTRA:                  -0.276
REMARK UNBOUND:                -0.296
REMARK SMILES O=C([O-])C=Cc1ccc(O)cc1
REMARK SMILES IDX 6 1 7 2 12 3 8 4 11 5 9 6 5 7 4 8 2 9 1 10 3 11 10 12
REMARK H PARENT 10 13
REMARK Flexibility Score: inf
ROOT
ATOM      1  C   UNL     1       8.222  -6.488  -9.776  1.00  0.00    -0.025 A 
ATOM      2  C   UNL     1       8.357  -5.907 -11.046  1.00  0.00     0.012 A 
ATOM      3  C   UNL     1       7.732  -7.801  -9.669  1.00  0.00     0.012 A 
ATOM      4  C   UNL     1       8.059  -6.646 -12.196  1.00  0.00     0.047 A 
ATOM      5  C   UNL     1       7.434  -8.538 -10.820  1.00  0.00     0.047 A 
ATOM      6  C   UNL     1       7.599  -7.964 -12.085  1.00  0.00     0.115 A 
ENDROOT
BRANCH   1   7
ATOM      7  C   UNL     1       8.492  -5.671  -8.575  1.00  0.00     0.010 C 
ATOM      8  C   UNL     1       9.576  -5.778  -7.791  1.00  0.00     0.025 C 
BRANCH   8   9
ATOM      9  C   UNL     1      10.771  -6.587  -8.091  1.00  0.00     0.064 C 
ATOM     10  O   UNL     1      11.671  -6.106  -8.829  1.00  0.00    -0.545 OA
ATOM     11  O   UNL     1      10.897  -7.895  -7.637  1.00  0.00    -0.545 OA
ENDBRANCH   8   9
ENDBRANCH   1   7
BRANCH   6  12
ATOM     12  O   UNL     1       7.300  -8.710 -13.223  1.00  0.00    -0.508 OA
ATOM     13  H   UNL     1       7.245  -9.721 -13.193  1.00  0.00     0.293 HD
ENDBRANCH   6  12
TORSDOF 3
ENDMDL
MODEL 8
REMARK VINA RESULT:    -4.244     13.123     15.129
REMARK INTER + INTRA:          -5.160
REMARK INTER:                  -4.901
REMARK INTRA:                  -0.258
REMARK UNBOUND:                -0.296
REMARK SMILES O=C([O-])C=Cc1ccc(O)cc1
REMARK SMILES IDX 6 1 7 2 12 3 8 4 11 5 9 6 5 7 4 8 2 9 1 10 3 11 10 12
REMARK H PARENT 10 13
REMARK Flexibility Score: inf
ROOT
ATOM      1  C   UNL     1      23.650  -3.683  -7.934  1.00  0.00    -0.025 A 
ATOM      2  C   UNL     1      24.186  -4.061  -6.694  1.00  0.00     0.012 A 
ATOM      3  C   UNL     1      23.605  -4.623  -8.978  1.00  0.00     0.012 A 
ATOM      4  C   UNL     1      24.619  -5.375  -6.482  1.00  0.00     0.047 A 
ATOM      5  C   UNL     1      24.038  -5.935  -8.766  1.00  0.00     0.047 A 
ATOM      6  C   UNL     1      24.543  -6.315  -7.518  1.00  0.00     0.115 A 
ENDROOT
BRANCH   1   7
ATOM      7  C   UNL     1      23.249  -2.278  -8.150  1.00  0.00     0.010 C 
ATOM      8  C   UNL     1      22.025  -1.777  -7.924  1.00  0.00     0.025 C 
BRANCH   8   9
ATOM      9  C   UNL     1      20.923  -2.484  -7.245  1.00  0.00     0.064 C 
ATOM     10  O   UNL     1      19.892  -2.791  -7.900  1.00  0.00    -0.545 OA
ATOM     11  O   UNL     1      20.965  -2.757  -5.882  1.00  0.00    -0.545 OA
ENDBRANCH   8   9
ENDBRANCH   1   7
BRANCH   6  12
ATOM     12  O   UNL     1      24.971  -7.626  -7.319  1.00  0.00    -0.508 OA
ATOM     13  H   UNL     1      25.925  -7.838  -7.058  1.00  0.00     0.293 HD
ENDBRANCH   6  12
TORSDOF 3
ENDMDL
MODEL 9
REMARK VINA RESULT:    -4.230      1.798      4.877
REMARK INTER + INTRA:          -5.144
REMARK INTER:                  -4.856
REMARK INTRA:                  -0.288
REMARK UNBOUND:                -0.296
REMARK SMILES O=C([O-])C=Cc1ccc(O)cc1
REMARK SMILES IDX 6 1 7 2 12 3 8 4 11 5 9 6 5 7 4 8 2 9 1 10 3 11 10 12
REMARK H PARENT 10 13
REMARK Flexibility Score: inf
ROOT
ATOM      1  C   UNL     1       9.742  -6.413  -9.690  1.00  0.00    -0.025 A 
ATOM      2  C   UNL     1       9.112  -5.388 -10.410  1.00  0.00     0.012 A 
ATOM      3  C   UNL     1       9.492  -7.752 -10.039  1.00  0.00     0.012 A 
ATOM      4  C   UNL     1       8.286  -5.692 -11.498  1.00  0.00     0.047 A 
ATOM      5  C   UNL     1       8.667  -8.055 -11.127  1.00  0.00     0.047 A 
ATOM      6  C   UNL     1       8.065  -7.028 -11.861  1.00  0.00     0.115 A 
ENDROOT
BRANCH   1   7
ATOM      7  C   UNL     1      10.566  -6.070  -8.514  1.00  0.00     0.010 C 
ATOM      8  C   UNL     1      10.104  -5.904  -7.264  1.00  0.00     0.025 C 
BRANCH   8   9
ATOM      9  C   UNL     1       8.738  -6.221  -6.808  1.00  0.00     0.064 C 
ATOM     10  O   UNL     1       8.453  -7.406  -6.493  1.00  0.00    -0.545 OA
ATOM     11  O   UNL     1       7.738  -5.256  -6.786  1.00  0.00    -0.545 OA
ENDBRANCH   8   9
ENDBRANCH   1   7
BRANCH   6  12
ATOM     12  O   UNL     1       7.246  -7.344 -12.942  1.00  0.00    -0.508 OA
ATOM     13  H   UNL     1       7.625  -7.479 -13.871  1.00  0.00     0.293 HD
ENDBRANCH   6  12
TORSDOF 3
ENDMDL
