MODEL 1
REMARK VINA RESULT:    -5.629      0.000      0.000
REMARK INTER + INTRA:          -9.464
REMARK INTER:                  -8.590
REMARK INTRA:                  -0.873
REMARK UNBOUND:                -0.873
REMARK SMILES CCCCCCCCCCC(=O)[O-]
REMARK SMILES IDX 7 1 8 2 9 3 10 4 11 5 12 6 13 7 6 8 5 9 4 10 3 11 2 12 1 13
REMARK H PARENT
REMARK Flexibility Score: inf
ROOT
ATOM      1  C   UNL     1      -6.996 -13.922  -5.069  1.00  0.00     0.000 C 
ENDROOT
BRANCH   1   2
ATOM      2  C   UNL     1      -8.426 -13.909  -5.631  1.00  0.00     0.000 C 
BRANCH   2   3
ATOM      3  C   UNL     1      -8.972 -15.321  -5.894  1.00  0.00     0.006 C 
BRANCH   3   4
ATOM      4  C   UNL     1      -7.882 -16.229  -6.471  1.00  0.00     0.053 C 
BRANCH   4   5
ATOM      5  C   UNL     1      -7.778 -17.493  -5.677  1.00  0.00     0.041 C 
ATOM      6  O   UNL     1      -8.726 -17.851  -4.929  1.00  0.00    -0.550 OA
ATOM      7  O   UNL     1      -6.655 -18.301  -5.799  1.00  0.00    -0.550 OA
ENDBRANCH   4   5
ENDBRANCH   3   4
ENDBRANCH   2   3
ENDBRANCH   1   2
BRANCH   1   8
ATOM      8  C   UNL     1      -6.863 -13.116  -3.768  1.00  0.00     0.000 C 
BRANCH   8   9
ATOM      9  C   UNL     1      -6.352 -14.001  -2.625  1.00  0.00    -0.000 C 
BRANCH   9  10
ATOM     10  C   UNL     1      -6.852 -15.446  -2.780  1.00  0.00    -0.000 C 
BRANCH  10  11
ATOM     11  C   UNL     1      -5.701 -16.473  -2.712  1.00  0.00    -0.000 C 
BRANCH  11  12
ATOM     12  C   UNL     1      -4.500 -15.996  -1.880  1.00  0.00    -0.003 C 
ATOM     13  C   UNL     1      -4.051 -17.016  -0.837  1.00  0.00     0.004 C 
ENDBRANCH  11  12
ENDBRANCH  10  11
ENDBRANCH   9  10
ENDBRANCH   8   9
ENDBRANCH   1   8
TORSDOF 9
ENDMDL
MODEL 2
REMARK VINA RESULT:    -5.617      2.573      5.089
REMARK INTER + INTRA:          -9.445
REMARK INTER:                  -8.366
REMARK INTRA:                  -1.079
REMARK UNBOUND:                -0.873
REMARK SMILES CCCCCCCCCCC(=O)[O-]
REMARK SMILES IDX 7 1 8 2 9 3 10 4 11 5 12 6 13 7 6 8 5 9 4 10 3 11 2 12 1 13
REMARK H PARENT
REMARK Flexibility Score: inf
ROOT
ATOM      1  C   UNL     1      -7.633 -17.242  -4.320  1.00  0.00     0.000 C 
ENDROOT
BRANCH   1   2
ATOM      2  C   UNL     1      -7.002 -16.768  -3.001  1.00  0.00     0.000 C 
BRANCH   2   3
ATOM      3  C   UNL     1      -5.533 -16.348  -3.166  1.00  0.00     0.006 C 
BRANCH   3   4
ATOM      4  C   UNL     1      -4.980 -15.771  -1.860  1.00  0.00     0.053 C 
BRANCH   4   5
ATOM      5  C   UNL     1      -3.895 -16.648  -1.317  1.00  0.00     0.041 C 
ATOM      6  O   UNL     1      -2.766 -16.678  -1.873  1.00  0.00    -0.550 OA
ATOM      7  O   UNL     1      -4.116 -17.397  -0.168  1.00  0.00    -0.550 OA
ENDBRANCH   4   5
ENDBRANCH   3   4
ENDBRANCH   2   3
ENDBRANCH   1   2
BRANCH   1   8
ATOM      8  C   UNL     1      -6.709 -17.030  -5.529  1.00  0.00     0.000 C 
BRANCH   8   9
ATOM      9  C   UNL     1      -7.318 -16.025  -6.515  1.00  0.00    -0.000 C 
BRANCH   9  10
ATOM     10  C   UNL     1      -8.672 -15.504  -6.005  1.00  0.00    -0.000 C 
BRANCH  10  11
ATOM     11  C   UNL     1      -8.621 -14.004  -5.643  1.00  0.00    -0.000 C 
BRANCH  11  12
ATOM     12  C   UNL     1      -7.192 -13.446  -5.531  1.00  0.00    -0.003 C 
ATOM     13  C   UNL     1      -6.837 -12.989  -4.119  1.00  0.00     0.004 C 
ENDBRANCH  11  12
ENDBRANCH  10  11
ENDBRANCH   9  10
ENDBRANCH   8   9
ENDBRANCH   1   8
TORSDOF 9
ENDMDL
MODEL 3
REMARK VINA RESULT:    -5.499      2.819      5.441
REMARK INTER + INTRA:          -9.266
REMARK INTER:                  -8.507
REMARK INTRA:                  -0.759
REMARK UNBOUND:                -0.873
REMARK SMILES CCCCCCCCCCC(=O)[O-]
REMARK SMILES IDX 7 1 8 2 9 3 10 4 11 5 12 6 13 7 6 8 5 9 4 10 3 11 2 12 1 13
REMARK H PARENT
REMARK Flexibility Score: inf
ROOT
ATOM      1  C   UNL     1      -6.791 -15.225  -2.713  1.00  0.00     0.000 C 
ENDROOT
BRANCH   1   2
ATOM      2  C   UNL     1      -5.770 -16.373  -2.671  1.00  0.00     0.000 C 
BRANCH   2   3
ATOM      3  C   UNL     1      -4.482 -15.993  -1.925  1.00  0.00     0.006 C 
BRANCH   3   4
ATOM      4  C   UNL     1      -4.165 -17.012  -0.827  1.00  0.00     0.053 C 
BRANCH   4   5
ATOM      5  C   UNL     1      -2.698 -17.310  -0.796  1.00  0.00     0.041 C 
ATOM      6  O   UNL     1      -2.221 -18.049   0.105  1.00  0.00    -0.550 OA
ATOM      7  O   UNL     1      -1.867 -16.812  -1.790  1.00  0.00    -0.550 OA
ENDBRANCH   4   5
ENDBRANCH   3   4
ENDBRANCH   2   3
ENDBRANCH   1   2
BRANCH   1   8
ATOM      8  C   UNL     1      -6.125 -13.843  -2.785  1.00  0.00     0.000 C 
BRANCH   8   9
ATOM      9  C   UNL     1      -6.888 -12.916  -3.739  1.00  0.00    -0.000 C 
BRANCH   9  10
ATOM     10  C   UNL     1      -6.925 -13.497  -5.161  1.00  0.00    -0.000 C 
BRANCH  10  11
ATOM     11  C   UNL     1      -8.366 -13.774  -5.641  1.00  0.00    -0.000 C 
BRANCH  11  12
ATOM     12  C   UNL     1      -8.584 -15.213  -6.136  1.00  0.00    -0.003 C 
ATOM     13  C   UNL     1      -7.280 -15.980  -6.339  1.00  0.00     0.004 C 
ENDBRANCH  11  12
ENDBRANCH  10  11
ENDBRANCH   9  10
ENDBRANCH   8   9
ENDBRANCH   1   8
TORSDOF 9
ENDMDL
MODEL 4
REMARK VINA RESULT:    -5.492      2.952      5.630
REMARK INTER + INTRA:          -9.255
REMARK INTER:                  -8.533
REMARK INTRA:                  -0.722
REMARK UNBOUND:                -0.873
REMARK SMILES CCCCCCCCCCC(=O)[O-]
REMARK SMILES IDX 7 1 8 2 9 3 10 4 11 5 12 6 13 7 6 8 5 9 4 10 3 11 2 12 1 13
REMARK H PARENT
REMARK Flexibility Score: inf
ROOT
ATOM      1  C   UNL     1      -6.813 -16.423  -3.205  1.00  0.00     0.000 C 
ENDROOT
BRANCH   1   2
ATOM      2  C   UNL     1      -5.883 -15.652  -2.255  1.00  0.00     0.000 C 
BRANCH   2   3
ATOM      3  C   UNL     1      -4.459 -16.230  -2.223  1.00  0.00     0.006 C 
BRANCH   3   4
ATOM      4  C   UNL     1      -4.212 -17.000  -0.923  1.00  0.00     0.053 C 
BRANCH   4   5
ATOM      5  C   UNL     1      -2.749 -17.256  -0.736  1.00  0.00     0.041 C 
ATOM      6  O   UNL     1      -2.352 -18.028   0.176  1.00  0.00    -0.550 OA
ATOM      7  O   UNL     1      -1.826 -16.681  -1.601  1.00  0.00    -0.550 OA
ENDBRANCH   4   5
ENDBRANCH   3   4
ENDBRANCH   2   3
ENDBRANCH   1   2
BRANCH   1   8
ATOM      8  C   UNL     1      -6.162 -16.713  -4.566  1.00  0.00     0.000 C 
BRANCH   8   9
ATOM      9  C   UNL     1      -7.224 -16.860  -5.662  1.00  0.00    -0.000 C 
BRANCH   9  10
ATOM     10  C   UNL     1      -7.449 -15.528  -6.394  1.00  0.00    -0.000 C 
BRANCH  10  11
ATOM     11  C   UNL     1      -8.604 -14.711  -5.778  1.00  0.00    -0.000 C 
BRANCH  11  12
ATOM     12  C   UNL     1      -8.259 -13.229  -5.553  1.00  0.00    -0.003 C 
ATOM     13  C   UNL     1      -6.942 -13.029  -4.806  1.00  0.00     0.004 C 
ENDBRANCH  11  12
ENDBRANCH  10  11
ENDBRANCH   9  10
ENDBRANCH   8   9
ENDBRANCH   1   8
TORSDOF 9
ENDMDL
MODEL 5
REMARK VINA RESULT:    -5.426      1.346      2.576
REMARK INTER + INTRA:          -9.155
REMARK INTER:                  -8.595
REMARK INTRA:                  -0.559
REMARK UNBOUND:                -0.873
REMARK SMILES CCCCCCCCCCC(=O)[O-]
REMARK SMILES IDX 7 1 8 2 9 3 10 4 11 5 12 6 13 7 6 8 5 9 4 10 3 11 2 12 1 13
REMARK H PARENT
REMARK Flexibility Score: inf
ROOT
ATOM      1  C   UNL     1      -6.160 -13.868  -2.750  1.00  0.00     0.000 C 
ENDROOT
BRANCH   1   2
ATOM      2  C   UNL     1      -6.888 -12.979  -3.770  1.00  0.00     0.000 C 
BRANCH   2   3
ATOM      3  C   UNL     1      -6.938 -13.606  -5.172  1.00  0.00     0.006 C 
BRANCH   3   4
ATOM      4  C   UNL     1      -8.384 -13.752  -5.655  1.00  0.00     0.053 C 
BRANCH   4   5
ATOM      5  C   UNL     1      -8.694 -15.185  -5.954  1.00  0.00     0.041 C 
ATOM      6  O   UNL     1      -9.485 -15.830  -5.216  1.00  0.00    -0.550 OA
ATOM      7  O   UNL     1      -8.149 -15.795  -7.076  1.00  0.00    -0.550 OA
ENDBRANCH   4   5
ENDBRANCH   3   4
ENDBRANCH   2   3
ENDBRANCH   1   2
BRANCH   1   8
ATOM      8  C   UNL     1      -6.781 -15.270  -2.637  1.00  0.00     0.000 C 
BRANCH   8   9
ATOM      9  C   UNL     1      -5.705 -16.356  -2.748  1.00  0.00    -0.000 C 
BRANCH   9  10
ATOM     10  C   UNL     1      -4.460 -15.986  -1.926  1.00  0.00    -0.000 C 
BRANCH  10  11
ATOM     11  C   UNL     1      -4.134 -17.046  -0.852  1.00  0.00    -0.000 C 
BRANCH  11  12
ATOM     12  C   UNL     1      -2.636 -17.381  -0.753  1.00  0.00    -0.003 C 
ATOM     13  C   UNL     1      -1.779 -16.584  -1.733  1.00  0.00     0.004 C 
ENDBRANCH  11  12
ENDBRANCH  10  11
ENDBRANCH   9  10
ENDBRANCH   8   9
ENDBRANCH   1   8
TORSDOF 9
ENDMDL
MODEL 6
REMARK VINA RESULT:    -5.375      3.579      6.221
REMARK INTER + INTRA:          -9.076
REMARK INTER:                  -8.547
REMARK INTRA:                  -0.529
REMARK UNBOUND:                -0.873
REMARK SMILES CCCCCCCCCCC(=O)[O-]
REMARK SMILES IDX 7 1 8 2 9 3 10 4 11 5 12 6 13 7 6 8 5 9 4 10 3 11 2 12 1 13
REMARK H PARENT
REMARK Flexibility Score: inf
ROOT
ATOM      1  C   UNL     1      -5.626 -16.322  -2.697  1.00  0.00     0.000 C 
ENDROOT
BRANCH   1   2
ATOM      2  C   UNL     1      -4.416 -15.839  -1.881  1.00  0.00     0.000 C 
BRANCH   2   3
ATOM      3  C   UNL     1      -3.946 -16.876  -0.849  1.00  0.00     0.006 C 
BRANCH   3   4
ATOM      4  C   UNL     1      -2.421 -17.016  -0.872  1.00  0.00     0.053 C 
BRANCH   4   5
ATOM      5  C   UNL     1      -1.916 -17.461   0.465  1.00  0.00     0.041 C 
ATOM      6  O   UNL     1      -2.120 -16.754   1.487  1.00  0.00    -0.550 OA
ATOM      7  O   UNL     1      -1.263 -18.680   0.591  1.00  0.00    -0.550 OA
ENDBRANCH   4   5
ENDBRANCH   3   4
ENDBRANCH   2   3
ENDBRANCH   1   2
BRANCH   1   8
ATOM      8  C   UNL     1      -6.794 -15.325  -2.672  1.00  0.00     0.000 C 
BRANCH   8   9
ATOM      9  C   UNL     1      -6.281 -13.880  -2.680  1.00  0.00    -0.000 C 
BRANCH   9  10
ATOM     10  C   UNL     1      -6.867 -13.093  -3.863  1.00  0.00    -0.000 C 
BRANCH  10  11
ATOM     11  C   UNL     1      -7.027 -13.970  -5.124  1.00  0.00    -0.000 C 
BRANCH  11  12
ATOM     12  C   UNL     1      -8.447 -13.947  -5.713  1.00  0.00    -0.003 C 
ATOM     13  C   UNL     1      -9.171 -15.284  -5.583  1.00  0.00     0.004 C 
ENDBRANCH  11  12
ENDBRANCH  10  11
ENDBRANCH   9  10
ENDBRANCH   8   9
ENDBRANCH   1   8
TORSDOF 9
ENDMDL
MODEL 7
REMARK VINA RESULT:    -5.280      2.617      5.125
REMARK INTER + INTRA:          -8.932
REMARK INTER:                  -8.133
REMARK INTRA:                  -0.799
REMARK UNBOUND:                -0.873
REMARK SMILES CCCCCCCCCCC(=O)[O-]
REMARK SMILES IDX 7 1 8 2 9 3 10 4 11 5 12 6 13 7 6 8 5 9 4 10 3 11 2 12 1 13
REMARK H PARENT
REMARK Flexibility Score: inf
ROOT
ATOM      1  C   UNL     1      -6.475 -14.117  -2.634  1.00  0.00     0.000 C 
ENDROOT
BRANCH   1   2
ATOM      2  C   UNL     1      -6.368 -15.552  -3.173  1.00  0.00     0.000 C 
BRANCH   2   3
ATOM      3  C   UNL     1      -5.563 -16.475  -2.244  1.00  0.00     0.006 C 
BRANCH   3   4
ATOM      4  C   UNL     1      -4.209 -15.850  -1.894  1.00  0.00     0.053 C 
BRANCH   4   5
ATOM      5  C   UNL     1      -3.478 -16.705  -0.907  1.00  0.00     0.041 C 
ATOM      6  O   UNL     1      -2.219 -16.686  -0.862  1.00  0.00    -0.550 OA
ATOM      7  O   UNL     1      -4.187 -17.486  -0.004  1.00  0.00    -0.550 OA
ENDBRANCH   4   5
ENDBRANCH   3   4
ENDBRANCH   2   3
ENDBRANCH   1   2
BRANCH   1   8
ATOM      8  C   UNL     1      -6.823 -13.097  -3.730  1.00  0.00     0.000 C 
BRANCH   8   9
ATOM      9  C   UNL     1      -6.972 -13.786  -5.092  1.00  0.00    -0.000 C 
BRANCH   9  10
ATOM     10  C   UNL     1      -8.415 -13.680  -5.608  1.00  0.00    -0.000 C 
BRANCH  10  11
ATOM     11  C   UNL     1      -9.135 -15.046  -5.614  1.00  0.00    -0.000 C 
BRANCH  11  12
ATOM     12  C   UNL     1      -8.360 -16.147  -6.358  1.00  0.00    -0.003 C 
ATOM     13  C   UNL     1      -8.354 -17.481  -5.616  1.00  0.00     0.004 C 
ENDBRANCH  11  12
ENDBRANCH  10  11
ENDBRANCH   9  10
ENDBRANCH   8   9
ENDBRANCH   1   8
TORSDOF 9
ENDMDL
MODEL 8
REMARK VINA RESULT:    -5.273      2.424      3.478
REMARK INTER + INTRA:          -8.920
REMARK INTER:                  -8.372
REMARK INTRA:                  -0.549
REMARK UNBOUND:                -0.873
REMARK SMILES CCCCCCCCCCC(=O)[O-]
REMARK SMILES IDX 7 1 8 2 9 3 10 4 11 5 12 6 13 7 6 8 5 9 4 10 3 11 2 12 1 13
REMARK H PARENT
REMARK Flexibility Score: inf
ROOT
ATOM      1  C   UNL     1      -7.567 -16.239  -3.572  1.00  0.00     0.000 C 
ENDROOT
BRANCH   1   2
ATOM      2  C   UNL     1      -7.016 -16.546  -4.973  1.00  0.00     0.000 C 
BRANCH   2   3
ATOM      3  C   UNL     1      -7.308 -15.424  -5.982  1.00  0.00     0.006 C 
BRANCH   3   4
ATOM      4  C   UNL     1      -8.615 -14.704  -5.636  1.00  0.00     0.053 C 
BRANCH   4   5
ATOM      5  C   UNL     1      -8.395 -13.226  -5.563  1.00  0.00     0.041 C 
ATOM      6  O   UNL     1      -7.499 -12.755  -4.814  1.00  0.00    -0.550 OA
ATOM      7  O   UNL     1      -9.147 -12.371  -6.359  1.00  0.00    -0.550 OA
ENDBRANCH   4   5
ENDBRANCH   3   4
ENDBRANCH   2   3
ENDBRANCH   1   2
BRANCH   1   8
ATOM      8  C   UNL     1      -6.518 -15.594  -2.652  1.00  0.00     0.000 C 
BRANCH   8   9
ATOM      9  C   UNL     1      -5.183 -16.343  -2.733  1.00  0.00    -0.000 C 
BRANCH   9  10
ATOM     10  C   UNL     1      -4.265 -15.963  -1.561  1.00  0.00    -0.000 C 
BRANCH  10  11
ATOM     11  C   UNL     1      -3.887 -17.184  -0.695  1.00  0.00    -0.000 C 
BRANCH  11  12
ATOM     12  C   UNL     1      -2.375 -17.458  -0.643  1.00  0.00    -0.003 C 
ATOM     13  C   UNL     1      -1.597 -16.729  -1.736  1.00  0.00     0.004 C 
ENDBRANCH  11  12
ENDBRANCH  10  11
ENDBRANCH   9  10
ENDBRANCH   8   9
ENDBRANCH   1   8
TORSDOF 9
ENDMDL
MODEL 9
REMARK VINA RESULT:    -5.069      1.618      3.795
REMARK INTER + INTRA:          -8.610
REMARK INTER:                  -7.599
REMARK INTRA:                  -1.011
REMARK UNBOUND:                -0.873
REMARK SMILES CCCCCCCCCCC(=O)[O-]
REMARK SMILES IDX 7 1 8 2 9 3 10 4 11 5 12 6 13 7 6 8 5 9 4 10 3 11 2 12 1 13
REMARK H PARENT
REMARK Flexibility Score: inf
ROOT
ATOM      1  C   UNL     1      -6.532 -16.680  -2.654  1.00  0.00     0.000 C 
ENDROOT
BRANCH   1   2
ATOM      2  C   UNL     1      -7.627 -17.000  -3.683  1.00  0.00     0.000 C 
BRANCH   2   3
ATOM      3  C   UNL     1      -7.056 -17.502  -5.018  1.00  0.00     0.006 C 
BRANCH   3   4
ATOM      4  C   UNL     1      -7.903 -18.650  -5.577  1.00  0.00     0.053 C 
BRANCH   4   5
ATOM      5  C   UNL     1      -8.971 -18.121  -6.482  1.00  0.00     0.041 C 
ATOM      6  O   UNL     1      -8.671 -17.362  -7.441  1.00  0.00    -0.550 OA
ATOM      7  O   UNL     1     -10.293 -18.505  -6.295  1.00  0.00    -0.550 OA
ENDBRANCH   4   5
ENDBRANCH   3   4
ENDBRANCH   2   3
ENDBRANCH   1   2
BRANCH   1   8
ATOM      8  C   UNL     1      -5.778 -15.380  -2.977  1.00  0.00     0.000 C 
BRANCH   8   9
ATOM      9  C   UNL     1      -6.625 -14.152  -2.623  1.00  0.00    -0.000 C 
BRANCH   9  10
ATOM     10  C   UNL     1      -6.564 -13.100  -3.741  1.00  0.00    -0.000 C 
BRANCH  10  11
ATOM     11  C   UNL     1      -6.934 -13.690  -5.119  1.00  0.00    -0.000 C 
BRANCH  11  12
ATOM     12  C   UNL     1      -8.344 -13.304  -5.595  1.00  0.00    -0.003 C 
ATOM     13  C   UNL     1      -9.323 -14.475  -5.578  1.00  0.00     0.004 C 
ENDBRANCH  11  12
ENDBRANCH  10  11
ENDBRANCH   9  10
ENDBRANCH   8   9
ENDBRANCH   1   8
TORSDOF 9
ENDMDL
