MODEL 1
REMARK VINA RESULT:    -3.614      0.000      0.000
REMARK INTER + INTRA:          -4.286
REMARK INTER:                  -4.247
REMARK INTRA:                  -0.039
REMARK UNBOUND:                -0.039
REMARK SMILES O=C([O-])CCC(=O)[O-]
REMARK SMILES IDX 4 1 2 2 1 3 3 4 5 5 6 6 7 7 8 8
REMARK H PARENT
REMARK Flexibility Score: inf
ROOT
ATOM      1  C   UNL     1      -3.595   2.705   2.825  1.00  0.00     0.059 C 
ENDROOT
BRANCH   1   2
ATOM      2  C   UNL     1      -3.312   2.122   4.176  1.00  0.00     0.042 C 
ATOM      3  O   UNL     1      -3.915   2.555   5.192  1.00  0.00    -0.550 OA
ATOM      4  O   UNL     1      -2.409   1.074   4.305  1.00  0.00    -0.550 OA
ENDBRANCH   1   2
BRANCH   1   5
ATOM      5  C   UNL     1      -3.416   4.227   2.820  1.00  0.00     0.059 C 
BRANCH   5   6
ATOM      6  C   UNL     1      -4.249   4.877   1.758  1.00  0.00     0.042 C 
ATOM      7  O   UNL     1      -3.699   5.517   0.824  1.00  0.00    -0.550 OA
ATOM      8  O   UNL     1      -5.635   4.812   1.824  1.00  0.00    -0.550 OA
ENDBRANCH   5   6
ENDBRANCH   1   5
TORSDOF 3
ENDMDL
MODEL 2
REMARK VINA RESULT:    -3.510      1.237      1.608
REMARK INTER + INTRA:          -4.164
REMARK INTER:                  -4.127
REMARK INTRA:                  -0.037
REMARK UNBOUND:                -0.039
REMARK SMILES O=C([O-])CCC(=O)[O-]
REMARK SMILES IDX 4 1 2 2 1 3 3 4 5 5 6 6 7 7 8 8
REMARK H PARENT
REMARK Flexibility Score: inf
ROOT
ATOM      1  C   UNL     1      -3.343   3.454   3.666  1.00  0.00     0.059 C 
ENDROOT
BRANCH   1   2
ATOM      2  C   UNL     1      -3.232   1.980   3.912  1.00  0.00     0.042 C 
ATOM      3  O   UNL     1      -3.673   1.161   3.063  1.00  0.00    -0.550 OA
ATOM      4  O   UNL     1      -2.606   1.512   5.061  1.00  0.00    -0.550 OA
ENDBRANCH   1   2
BRANCH   1   5
ATOM      5  C   UNL     1      -3.834   3.752   2.246  1.00  0.00     0.059 C 
BRANCH   5   6
ATOM      6  C   UNL     1      -3.719   5.209   1.916  1.00  0.00     0.042 C 
ATOM      7  O   UNL     1      -3.798   6.074   2.829  1.00  0.00    -0.550 OA
ATOM      8  O   UNL     1      -3.567   5.614   0.596  1.00  0.00    -0.550 OA
ENDBRANCH   5   6
ENDBRANCH   1   5
TORSDOF 3
ENDMDL
MODEL 3
REMARK VINA RESULT:    -3.213      1.199      4.242
REMARK INTER + INTRA:          -3.815
REMARK INTER:                  -3.786
REMARK INTRA:                  -0.029
REMARK UNBOUND:                -0.039
REMARK SMILES O=C([O-])CCC(=O)[O-]
REMARK SMILES IDX 4 1 2 2 1 3 3 4 5 5 6 6 7 7 8 8
REMARK H PARENT
REMARK Flexibility Score: inf
ROOT
ATOM      1  C   UNL     1      -4.380   4.447   1.991  1.00  0.00     0.059 C 
ENDROOT
BRANCH   1   2
ATOM      2  C   UNL     1      -4.163   5.886   1.639  1.00  0.00     0.042 C 
ATOM      3  O   UNL     1      -4.439   6.791   2.470  1.00  0.00    -0.550 OA
ATOM      4  O   UNL     1      -3.619   6.226   0.406  1.00  0.00    -0.550 OA
ENDBRANCH   1   2
BRANCH   1   5
ATOM      5  C   UNL     1      -3.221   3.890   2.824  1.00  0.00     0.059 C 
BRANCH   5   6
ATOM      6  C   UNL     1      -3.626   2.665   3.586  1.00  0.00     0.042 C 
ATOM      7  O   UNL     1      -4.020   2.761   4.778  1.00  0.00    -0.550 OA
ATOM      8  O   UNL     1      -3.528   1.413   2.992  1.00  0.00    -0.550 OA
ENDBRANCH   5   6
ENDBRANCH   1   5
TORSDOF 3
ENDMDL
MODEL 4
REMARK VINA RESULT:    -3.033      1.452      1.731
REMARK INTER + INTRA:          -3.604
REMARK INTER:                  -3.572
REMARK INTRA:                  -0.033
REMARK UNBOUND:                -0.039
REMARK SMILES O=C([O-])CCC(=O)[O-]
REMARK SMILES IDX 4 1 2 2 1 3 3 4 5 5 6 6 7 7 8 8
REMARK H PARENT
REMARK Flexibility Score: inf
ROOT
ATOM      1  C   UNL     1      -3.993   3.905   2.102  1.00  0.00     0.059 C 
ENDROOT
BRANCH   1   2
ATOM      2  C   UNL     1      -3.692   2.927   3.196  1.00  0.00     0.042 C 
ATOM      3  O   UNL     1      -3.772   3.280   4.401  1.00  0.00    -0.550 OA
ATOM      4  O   UNL     1      -3.361   1.614   2.883  1.00  0.00    -0.550 OA
ENDBRANCH   1   2
BRANCH   1   5
ATOM      5  C   UNL     1      -3.367   5.275   2.383  1.00  0.00     0.059 C 
BRANCH   5   6
ATOM      6  C   UNL     1      -3.621   6.239   1.265  1.00  0.00     0.042 C 
ATOM      7  O   UNL     1      -3.692   7.475   1.498  1.00  0.00    -0.550 OA
ATOM      8  O   UNL     1      -3.820   5.769  -0.027  1.00  0.00    -0.550 OA
ENDBRANCH   5   6
ENDBRANCH   1   5
TORSDOF 3
ENDMDL
MODEL 5
REMARK VINA RESULT:    -3.027      1.301      4.242
REMARK INTER + INTRA:          -3.597
REMARK INTER:                  -3.561
REMARK INTRA:                  -0.036
REMARK UNBOUND:                -0.039
REMARK SMILES O=C([O-])CCC(=O)[O-]
REMARK SMILES IDX 4 1 2 2 1 3 3 4 5 5 6 6 7 7 8 8
REMARK H PARENT
REMARK Flexibility Score: inf
ROOT
ATOM      1  C   UNL     1      -4.380   4.417   1.833  1.00  0.00     0.059 C 
ENDROOT
BRANCH   1   2
ATOM      2  C   UNL     1      -4.510   5.903   1.695  1.00  0.00     0.042 C 
ATOM      3  O   UNL     1      -4.985   6.403   0.642  1.00  0.00    -0.550 OA
ATOM      4  O   UNL     1      -4.143   6.733   2.748  1.00  0.00    -0.550 OA
ENDBRANCH   1   2
BRANCH   1   5
ATOM      5  C   UNL     1      -3.306   4.038   2.857  1.00  0.00     0.059 C 
BRANCH   5   6
ATOM      6  C   UNL     1      -3.610   2.728   3.518  1.00  0.00     0.042 C 
ATOM      7  O   UNL     1      -3.523   1.654   2.867  1.00  0.00    -0.550 OA
ATOM      8  O   UNL     1      -4.029   2.698   4.842  1.00  0.00    -0.550 OA
ENDBRANCH   5   6
ENDBRANCH   1   5
TORSDOF 3
ENDMDL
MODEL 6
REMARK VINA RESULT:    -2.315      1.928      4.803
REMARK INTER + INTRA:          -2.760
REMARK INTER:                  -2.640
REMARK INTRA:                  -0.120
REMARK UNBOUND:                -0.039
REMARK SMILES O=C([O-])CCC(=O)[O-]
REMARK SMILES IDX 4 1 2 2 1 3 3 4 5 5 6 6 7 7 8 8
REMARK H PARENT
REMARK Flexibility Score: inf
ROOT
ATOM      1  C   UNL     1      -3.836   6.769   1.906  1.00  0.00     0.059 C 
ENDROOT
BRANCH   1   2
ATOM      2  C   UNL     1      -3.687   7.213   0.483  1.00  0.00     0.042 C 
ATOM      3  O   UNL     1      -3.283   8.376   0.221  1.00  0.00    -0.550 OA
ATOM      4  O   UNL     1      -3.958   6.327  -0.553  1.00  0.00    -0.550 OA
ENDBRANCH   1   2
BRANCH   1   5
ATOM      5  C   UNL     1      -3.229   5.379   2.129  1.00  0.00     0.059 C 
BRANCH   5   6
ATOM      6  C   UNL     1      -4.285   4.353   2.405  1.00  0.00     0.042 C 
ATOM      7  O   UNL     1      -5.443   4.491   1.930  1.00  0.00    -0.550 OA
ATOM      8  O   UNL     1      -4.002   3.266   3.223  1.00  0.00    -0.550 OA
ENDBRANCH   5   6
ENDBRANCH   1   5
TORSDOF 3
ENDMDL
MODEL 7
REMARK VINA RESULT:    -2.150      2.697      3.948
REMARK INTER + INTRA:          -2.566
REMARK INTER:                  -2.382
REMARK INTRA:                  -0.184
REMARK UNBOUND:                -0.039
REMARK SMILES O=C([O-])CCC(=O)[O-]
REMARK SMILES IDX 4 1 2 2 1 3 3 4 5 5 6 6 7 7 8 8
REMARK H PARENT
REMARK Flexibility Score: inf
ROOT
ATOM      1  C   UNL     1      -3.832   6.121   1.013  1.00  0.00     0.059 C 
ENDROOT
BRANCH   1   2
ATOM      2  C   UNL     1      -4.602   5.074   1.759  1.00  0.00     0.042 C 
ATOM      3  O   UNL     1      -4.008   4.291   2.545  1.00  0.00    -0.550 OA
ATOM      4  O   UNL     1      -5.981   4.991   1.614  1.00  0.00    -0.550 OA
ENDBRANCH   1   2
BRANCH   1   5
ATOM      5  C   UNL     1      -3.107   7.074   1.969  1.00  0.00     0.059 C 
BRANCH   5   6
ATOM      6  C   UNL     1      -4.065   7.775   2.883  1.00  0.00     0.042 C 
ATOM      7  O   UNL     1      -4.889   8.606   2.420  1.00  0.00    -0.550 OA
ATOM      8  O   UNL     1      -4.019   7.540   4.251  1.00  0.00    -0.550 OA
ENDBRANCH   5   6
ENDBRANCH   1   5
TORSDOF 3
ENDMDL
MODEL 8
REMARK VINA RESULT:    -2.141      2.625      3.804
REMARK INTER + INTRA:          -2.555
REMARK INTER:                  -2.485
REMARK INTRA:                  -0.070
REMARK UNBOUND:                -0.039
REMARK SMILES O=C([O-])CCC(=O)[O-]
REMARK SMILES IDX 4 1 2 2 1 3 3 4 5 5 6 6 7 7 8 8
REMARK H PARENT
REMARK Flexibility Score: inf
ROOT
ATOM      1  C   UNL     1      -3.761   5.887   0.842  1.00  0.00     0.059 C 
ENDROOT
BRANCH   1   2
ATOM      2  C   UNL     1      -4.524   5.051   1.823  1.00  0.00     0.042 C 
ATOM      3  O   UNL     1      -5.779   4.978   1.753  1.00  0.00    -0.550 OA
ATOM      4  O   UNL     1      -3.844   4.321   2.791  1.00  0.00    -0.550 OA
ENDBRANCH   1   2
BRANCH   1   5
ATOM      5  C   UNL     1      -4.696   6.570  -0.162  1.00  0.00     0.059 C 
BRANCH   5   6
ATOM      6  C   UNL     1      -4.854   5.758  -1.411  1.00  0.00     0.042 C 
ATOM      7  O   UNL     1      -3.839   5.363  -2.044  1.00  0.00    -0.550 OA
ATOM      8  O   UNL     1      -6.123   5.472  -1.899  1.00  0.00    -0.550 OA
ENDBRANCH   5   6
ENDBRANCH   1   5
TORSDOF 3
ENDMDL
MODEL 9
REMARK VINA RESULT:    -2.095      3.295      4.371
REMARK INTER + INTRA:          -2.502
REMARK INTER:                  -2.344
REMARK INTRA:                  -0.158
REMARK UNBOUND:                -0.039
REMARK SMILES O=C([O-])CCC(=O)[O-]
REMARK SMILES IDX 4 1 2 2 1 3 3 4 5 5 6 6 7 7 8 8
REMARK H PARENT
REMARK Flexibility Score: inf
ROOT
ATOM      1  C   UNL     1      -2.993   7.135   2.107  1.00  0.00     0.059 C 
ENDROOT
BRANCH   1   2
ATOM      2  C   UNL     1      -3.867   7.920   3.036  1.00  0.00     0.042 C 
ATOM      3  O   UNL     1      -4.445   8.963   2.632  1.00  0.00    -0.550 OA
ATOM      4  O   UNL     1      -4.073   7.478   4.337  1.00  0.00    -0.550 OA
ENDBRANCH   1   2
BRANCH   1   5
ATOM      5  C   UNL     1      -3.431   5.669   2.026  1.00  0.00     0.059 C 
BRANCH   5   6
ATOM      6  C   UNL     1      -4.675   5.508   1.208  1.00  0.00     0.042 C 
ATOM      7  O   UNL     1      -4.690   5.862  -0.000  1.00  0.00    -0.550 OA
ATOM      8  O   UNL     1      -5.832   5.007   1.792  1.00  0.00    -0.550 OA
ENDBRANCH   5   6
ENDBRANCH   1   5
TORSDOF 3
ENDMDL
