MODEL 1
REMARK VINA RESULT:    -4.188      0.000      0.000
REMARK INTER + INTRA:         -10.436
REMARK INTER:                  -7.616
REMARK INTRA:                  -2.820
REMARK UNBOUND:                -2.820
REMARK SMILES CCCCCC=CCC=CCCCCCCCC(=O)[O-]
REMARK SMILES IDX 11 1 12 2 13 3 14 4 15 5 16 6 17 7 18 8 19 9 20 10 10 11
REMARK SMILES IDX 9 12 8 13 7 14 6 15 5 16 4 17 3 18 2 19 1 20
REMARK H PARENT
REMARK Flexibility Score: inf
ROOT
ATOM      1  C   UNL     1      95.992  91.067  82.567  1.00  0.00     0.027 C 
ENDROOT
BRANCH   1   2
ATOM      2  C   UNL     1      97.129  92.090  82.421  1.00  0.00     0.004 C 
BRANCH   2   3
ATOM      3  C   UNL     1      98.199  91.922  83.514  1.00  0.00     0.000 C 
BRANCH   3   4
ATOM      4  C   UNL     1      99.556  92.523  83.115  1.00  0.00     0.000 C 
BRANCH   4   5
ATOM      5  C   UNL     1      99.518  93.202  81.734  1.00  0.00     0.000 C 
BRANCH   5   6
ATOM      6  C   UNL     1     100.916  93.344  81.104  1.00  0.00     0.006 C 
BRANCH   6   7
ATOM      7  C   UNL     1     101.337  94.792  80.810  1.00  0.00     0.053 C 
BRANCH   7   8
ATOM      8  C   UNL     1     101.528  95.589  82.064  1.00  0.00     0.041 C 
ATOM      9  O   UNL     1     102.542  95.399  82.786  1.00  0.00    -0.550 OA
ATOM     10  O   UNL     1     100.604  96.565  82.417  1.00  0.00    -0.550 OA
ENDBRANCH   7   8
ENDBRANCH   6   7
ENDBRANCH   5   6
ENDBRANCH   4   5
ENDBRANCH   3   4
ENDBRANCH   2   3
ENDBRANCH   1   2
BRANCH   1  11
ATOM     11  C   UNL     1      96.504  89.689  82.902  1.00  0.00    -0.031 C 
ATOM     12  C   UNL     1      96.910  88.776  81.998  1.00  0.00    -0.027 C 
BRANCH  12  13
ATOM     13  C   UNL     1      96.869  88.959  80.501  1.00  0.00     0.054 C 
BRANCH  13  14
ATOM     14  C   UNL     1      98.189  89.472  80.004  1.00  0.00    -0.027 C 
ATOM     15  C   UNL     1      99.327  89.247  80.677  1.00  0.00    -0.031 C 
BRANCH  15  16
ATOM     16  C   UNL     1     100.653  89.756  80.181  1.00  0.00     0.027 C 
BRANCH  16  17
ATOM     17  C   UNL     1     101.772  89.575  81.218  1.00  0.00     0.004 C 
BRANCH  17  18
ATOM     18  C   UNL     1     101.224  89.478  82.650  1.00  0.00     0.000 C 
BRANCH  18  19
ATOM     19  C   UNL     1     102.270  89.945  83.669  1.00  0.00    -0.003 C 
ATOM     20  C   UNL     1     103.021  91.173  83.165  1.00  0.00     0.004 C 
ENDBRANCH  18  19
ENDBRANCH  17  18
ENDBRANCH  16  17
ENDBRANCH  15  16
ENDBRANCH  13  14
ENDBRANCH  12  13
ENDBRANCH   1  11
TORSDOF 14
ENDMDL
MODEL 2
REMARK VINA RESULT:    -4.136      1.844      4.380
REMARK INTER + INTRA:         -10.341
REMARK INTER:                  -7.856
REMARK INTRA:                  -2.485
REMARK UNBOUND:                -2.820
REMARK SMILES CCCCCC=CCC=CCCCCCCCC(=O)[O-]
REMARK SMILES IDX 11 1 12 2 13 3 14 4 15 5 16 6 17 7 18 8 19 9 20 10 10 11
REMARK SMILES IDX 9 12 8 13 7 14 6 15 5 16 4 17 3 18 2 19 1 20
REMARK H PARENT
REMARK Flexibility Score: inf
ROOT
ATOM      1  C   UNL     1      96.787  89.088  80.519  1.00  0.00     0.027 C 
ENDROOT
BRANCH   1   2
ATOM      2  C   UNL     1      98.015  89.819  79.954  1.00  0.00     0.004 C 
BRANCH   2   3
ATOM      3  C   UNL     1      99.296  88.975  80.081  1.00  0.00     0.000 C 
BRANCH   3   4
ATOM      4  C   UNL     1     100.414  89.705  80.843  1.00  0.00     0.000 C 
BRANCH   4   5
ATOM      5  C   UNL     1     100.586  89.185  82.282  1.00  0.00     0.000 C 
BRANCH   5   6
ATOM      6  C   UNL     1     101.925  89.610  82.911  1.00  0.00     0.006 C 
BRANCH   6   7
ATOM      7  C   UNL     1     101.809  90.155  84.344  1.00  0.00     0.053 C 
BRANCH   7   8
ATOM      8  C   UNL     1     103.135  90.583  84.893  1.00  0.00     0.041 C 
ATOM      9  O   UNL     1     103.852  89.763  85.527  1.00  0.00    -0.550 OA
ATOM     10  O   UNL     1     103.594  91.877  84.677  1.00  0.00    -0.550 OA
ENDBRANCH   7   8
ENDBRANCH   6   7
ENDBRANCH   5   6
ENDBRANCH   4   5
ENDBRANCH   3   4
ENDBRANCH   2   3
ENDBRANCH   1   2
BRANCH   1  11
ATOM     11  C   UNL     1      96.863  88.918  82.016  1.00  0.00    -0.031 C 
ATOM     12  C   UNL     1      96.517  89.856  82.918  1.00  0.00    -0.027 C 
BRANCH  12  13
ATOM     13  C   UNL     1      96.046  91.250  82.583  1.00  0.00     0.054 C 
BRANCH  13  14
ATOM     14  C   UNL     1      97.175  92.229  82.728  1.00  0.00    -0.027 C 
ATOM     15  C   UNL     1      98.385  91.844  83.162  1.00  0.00    -0.031 C 
BRANCH  15  16
ATOM     16  C   UNL     1      99.521  92.820  83.306  1.00  0.00     0.027 C 
BRANCH  16  17
ATOM     17  C   UNL     1     100.011  93.348  81.949  1.00  0.00     0.004 C 
BRANCH  17  18
ATOM     18  C   UNL     1     101.516  93.117  81.748  1.00  0.00     0.000 C 
BRANCH  18  19
ATOM     19  C   UNL     1     102.291  94.436  81.843  1.00  0.00    -0.003 C 
ATOM     20  C   UNL     1     101.892  95.391  80.722  1.00  0.00     0.004 C 
ENDBRANCH  18  19
ENDBRANCH  17  18
ENDBRANCH  16  17
ENDBRANCH  15  16
ENDBRANCH  13  14
ENDBRANCH  12  13
ENDBRANCH   1  11
TORSDOF 14
ENDMDL
MODEL 3
REMARK VINA RESULT:    -4.056      2.773      4.630
REMARK INTER + INTRA:         -10.196
REMARK INTER:                  -7.406
REMARK INTRA:                  -2.790
REMARK UNBOUND:                -2.820
REMARK SMILES CCCCCC=CCC=CCCCCCCCC(=O)[O-]
REMARK SMILES IDX 11 1 12 2 13 3 14 4 15 5 16 6 17 7 18 8 19 9 20 10 10 11
REMARK SMILES IDX 9 12 8 13 7 14 6 15 5 16 4 17 3 18 2 19 1 20
REMARK H PARENT
REMARK Flexibility Score: inf
ROOT
ATOM      1  C   UNL     1      96.199  89.916  82.252  1.00  0.00     0.027 C 
ENDROOT
BRANCH   1   2
ATOM      2  C   UNL     1      97.222  88.926  81.674  1.00  0.00     0.004 C 
BRANCH   2   3
ATOM      3  C   UNL     1      97.793  89.407  80.329  1.00  0.00     0.000 C 
BRANCH   3   4
ATOM      4  C   UNL     1      99.316  89.217  80.228  1.00  0.00     0.000 C 
BRANCH   4   5
ATOM      5  C   UNL     1     100.032  89.461  81.568  1.00  0.00     0.000 C 
BRANCH   5   6
ATOM      6  C   UNL     1     101.456  90.019  81.387  1.00  0.00     0.006 C 
BRANCH   6   7
ATOM      7  C   UNL     1     102.455  89.574  82.467  1.00  0.00     0.053 C 
BRANCH   7   8
ATOM      8  C   UNL     1     103.612  88.820  81.887  1.00  0.00     0.041 C 
ATOM      9  O   UNL     1     103.632  88.535  80.661  1.00  0.00    -0.550 OA
ATOM     10  O   UNL     1     104.684  88.460  82.696  1.00  0.00    -0.550 OA
ENDBRANCH   7   8
ENDBRANCH   6   7
ENDBRANCH   5   6
ENDBRANCH   4   5
ENDBRANCH   3   4
ENDBRANCH   2   3
ENDBRANCH   1   2
BRANCH   1  11
ATOM     11  C   UNL     1      96.704  90.594  83.502  1.00  0.00    -0.031 C 
ATOM     12  C   UNL     1      96.969  91.910  83.612  1.00  0.00    -0.027 C 
BRANCH  12  13
ATOM     13  C   UNL     1      96.856  92.914  82.492  1.00  0.00     0.054 C 
BRANCH  13  14
ATOM     14  C   UNL     1      98.216  93.414  82.103  1.00  0.00    -0.027 C 
ATOM     15  C   UNL     1      98.873  92.908  81.048  1.00  0.00    -0.031 C 
BRANCH  15  16
ATOM     16  C   UNL     1     100.236  93.407  80.651  1.00  0.00     0.027 C 
BRANCH  16  17
ATOM     17  C   UNL     1     100.938  94.157  81.794  1.00  0.00     0.004 C 
BRANCH  17  18
ATOM     18  C   UNL     1     102.281  93.514  82.169  1.00  0.00     0.000 C 
BRANCH  18  19
ATOM     19  C   UNL     1     102.382  93.297  83.683  1.00  0.00    -0.003 C 
ATOM     20  C   UNL     1     101.124  92.625  84.227  1.00  0.00     0.004 C 
ENDBRANCH  18  19
ENDBRANCH  17  18
ENDBRANCH  16  17
ENDBRANCH  15  16
ENDBRANCH  13  14
ENDBRANCH  12  13
ENDBRANCH   1  11
TORSDOF 14
ENDMDL
MODEL 4
REMARK VINA RESULT:    -3.993      3.550      5.614
REMARK INTER + INTRA:         -10.080
REMARK INTER:                  -7.786
REMARK INTRA:                  -2.294
REMARK UNBOUND:                -2.820
REMARK SMILES CCCCCC=CCC=CCCCCCCCC(=O)[O-]
REMARK SMILES IDX 11 1 12 2 13 3 14 4 15 5 16 6 17 7 18 8 19 9 20 10 10 11
REMARK SMILES IDX 9 12 8 13 7 14 6 15 5 16 4 17 3 18 2 19 1 20
REMARK H PARENT
REMARK Flexibility Score: inf
ROOT
ATOM      1  C   UNL     1      99.341  89.223  80.504  1.00  0.00     0.027 C 
ENDROOT
BRANCH   1   2
ATOM      2  C   UNL     1      97.955  89.008  79.875  1.00  0.00     0.004 C 
BRANCH   2   3
ATOM      3  C   UNL     1      96.868  88.782  80.940  1.00  0.00     0.000 C 
BRANCH   3   4
ATOM      4  C   UNL     1      96.487  90.073  81.684  1.00  0.00     0.000 C 
BRANCH   4   5
ATOM      5  C   UNL     1      96.836  90.015  83.182  1.00  0.00     0.000 C 
BRANCH   5   6
ATOM      6  C   UNL     1      96.202  91.167  83.984  1.00  0.00     0.006 C 
BRANCH   6   7
ATOM      7  C   UNL     1      96.114  90.915  85.497  1.00  0.00     0.053 C 
BRANCH   7   8
ATOM      8  C   UNL     1      94.756  90.437  85.911  1.00  0.00     0.041 C 
ATOM      9  O   UNL     1      94.635  89.625  86.866  1.00  0.00    -0.550 OA
ATOM     10  O   UNL     1      93.623  90.913  85.263  1.00  0.00    -0.550 OA
ENDBRANCH   7   8
ENDBRANCH   6   7
ENDBRANCH   5   6
ENDBRANCH   4   5
ENDBRANCH   3   4
ENDBRANCH   2   3
ENDBRANCH   1   2
BRANCH   1  11
ATOM     11  C   UNL     1     100.055  90.414  79.915  1.00  0.00    -0.031 C 
ATOM     12  C   UNL     1     100.226  91.596  80.537  1.00  0.00    -0.027 C 
BRANCH  12  13
ATOM     13  C   UNL     1      99.687  91.945  81.903  1.00  0.00     0.054 C 
BRANCH  13  14
ATOM     14  C   UNL     1     100.717  91.662  82.956  1.00  0.00    -0.027 C 
ATOM     15  C   UNL     1     100.657  90.560  83.719  1.00  0.00    -0.031 C 
BRANCH  15  16
ATOM     16  C   UNL     1     101.690  90.270  84.774  1.00  0.00     0.027 C 
BRANCH  16  17
ATOM     17  C   UNL     1     103.094  90.732  84.357  1.00  0.00     0.004 C 
BRANCH  17  18
ATOM     18  C   UNL     1     103.868  89.633  83.614  1.00  0.00     0.000 C 
BRANCH  18  19
ATOM     19  C   UNL     1     104.025  89.980  82.130  1.00  0.00    -0.003 C 
ATOM     20  C   UNL     1     103.192  89.048  81.255  1.00  0.00     0.004 C 
ENDBRANCH  18  19
ENDBRANCH  17  18
ENDBRANCH  16  17
ENDBRANCH  15  16
ENDBRANCH  13  14
ENDBRANCH  12  13
ENDBRANCH   1  11
TORSDOF 14
ENDMDL
MODEL 5
REMARK VINA RESULT:    -3.976      1.479      3.893
REMARK INTER + INTRA:         -10.049
REMARK INTER:                  -6.769
REMARK INTRA:                  -3.280
REMARK UNBOUND:                -2.820
REMARK SMILES CCCCCC=CCC=CCCCCCCCC(=O)[O-]
REMARK SMILES IDX 11 1 12 2 13 3 14 4 15 5 16 6 17 7 18 8 19 9 20 10 10 11
REMARK SMILES IDX 9 12 8 13 7 14 6 15 5 16 4 17 3 18 2 19 1 20
REMARK H PARENT
REMARK Flexibility Score: inf
ROOT
ATOM      1  C   UNL     1      99.475  88.880  79.887  1.00  0.00     0.027 C 
ENDROOT
BRANCH   1   2
ATOM      2  C   UNL     1      98.323  89.892  79.989  1.00  0.00     0.004 C 
BRANCH   2   3
ATOM      3  C   UNL     1      97.758  89.979  81.418  1.00  0.00     0.000 C 
BRANCH   3   4
ATOM      4  C   UNL     1      97.858  91.393  82.012  1.00  0.00     0.000 C 
BRANCH   4   5
ATOM      5  C   UNL     1      98.621  92.366  81.095  1.00  0.00     0.000 C 
BRANCH   5   6
ATOM      6  C   UNL     1      99.660  93.208  81.857  1.00  0.00     0.006 C 
BRANCH   6   7
ATOM      7  C   UNL     1     101.030  93.306  81.166  1.00  0.00     0.053 C 
BRANCH   7   8
ATOM      8  C   UNL     1     101.703  94.617  81.431  1.00  0.00     0.041 C 
ATOM      9  O   UNL     1     102.852  94.647  81.947  1.00  0.00    -0.550 OA
ATOM     10  O   UNL     1     101.075  95.806  81.077  1.00  0.00    -0.550 OA
ENDBRANCH   7   8
ENDBRANCH   6   7
ENDBRANCH   5   6
ENDBRANCH   4   5
ENDBRANCH   3   4
ENDBRANCH   2   3
ENDBRANCH   1   2
BRANCH   1  11
ATOM     11  C   UNL     1     100.826  89.549  79.915  1.00  0.00    -0.031 C 
ATOM     12  C   UNL     1     101.586  89.707  81.016  1.00  0.00    -0.027 C 
BRANCH  12  13
ATOM     13  C   UNL     1     101.190  89.290  82.411  1.00  0.00     0.054 C 
BRANCH  13  14
ATOM     14  C   UNL     1     101.579  90.350  83.400  1.00  0.00    -0.027 C 
ATOM     15  C   UNL     1     102.789  90.929  83.367  1.00  0.00    -0.031 C 
BRANCH  15  16
ATOM     16  C   UNL     1     103.183  91.994  84.355  1.00  0.00     0.027 C 
BRANCH  16  17
ATOM     17  C   UNL     1     102.049  92.326  85.337  1.00  0.00     0.004 C 
BRANCH  17  18
ATOM     18  C   UNL     1     101.492  93.741  85.120  1.00  0.00     0.000 C 
BRANCH  18  19
ATOM     19  C   UNL     1     100.019  93.819  85.536  1.00  0.00    -0.003 C 
ATOM     20  C   UNL     1      99.347  92.452  85.446  1.00  0.00     0.004 C 
ENDBRANCH  18  19
ENDBRANCH  17  18
ENDBRANCH  16  17
ENDBRANCH  15  16
ENDBRANCH  13  14
ENDBRANCH  12  13
ENDBRANCH   1  11
TORSDOF 14
ENDMDL
MODEL 6
REMARK VINA RESULT:    -3.940      1.137      2.072
REMARK INTER + INTRA:          -9.985
REMARK INTER:                  -7.586
REMARK INTRA:                  -2.399
REMARK UNBOUND:                -2.820
REMARK SMILES CCCCCC=CCC=CCCCCCCCC(=O)[O-]
REMARK SMILES IDX 11 1 12 2 13 3 14 4 15 5 16 6 17 7 18 8 19 9 20 10 10 11
REMARK SMILES IDX 9 12 8 13 7 14 6 15 5 16 4 17 3 18 2 19 1 20
REMARK H PARENT
REMARK Flexibility Score: inf
ROOT
ATOM      1  C   UNL     1      96.270  90.117  81.369  1.00  0.00     0.027 C 
ENDROOT
BRANCH   1   2
ATOM      2  C   UNL     1      96.492  89.963  82.882  1.00  0.00     0.004 C 
BRANCH   2   3
ATOM      3  C   UNL     1      97.397  91.071  83.447  1.00  0.00     0.000 C 
BRANCH   3   4
ATOM      4  C   UNL     1      97.919  92.025  82.360  1.00  0.00     0.000 C 
BRANCH   4   5
ATOM      5  C   UNL     1      99.321  92.573  82.678  1.00  0.00     0.000 C 
BRANCH   5   6
ATOM      6  C   UNL     1      99.655  93.848  81.883  1.00  0.00     0.006 C 
BRANCH   6   7
ATOM      7  C   UNL     1     100.905  93.736  80.995  1.00  0.00     0.053 C 
BRANCH   7   8
ATOM      8  C   UNL     1     101.980  94.692  81.412  1.00  0.00     0.041 C 
ATOM      9  O   UNL     1     102.257  95.687  80.690  1.00  0.00    -0.550 OA
ATOM     10  O   UNL     1     102.653  94.503  82.613  1.00  0.00    -0.550 OA
ENDBRANCH   7   8
ENDBRANCH   6   7
ENDBRANCH   5   6
ENDBRANCH   4   5
ENDBRANCH   3   4
ENDBRANCH   2   3
ENDBRANCH   1   2
BRANCH   1  11
ATOM     11  C   UNL     1      96.540  88.836  80.620  1.00  0.00    -0.031 C 
ATOM     12  C   UNL     1      97.692  88.542  79.986  1.00  0.00    -0.027 C 
BRANCH  12  13
ATOM     13  C   UNL     1      98.881  89.463  79.875  1.00  0.00     0.054 C 
BRANCH  13  14
ATOM     14  C   UNL     1      99.810  89.256  81.036  1.00  0.00    -0.027 C 
ATOM     15  C   UNL     1     101.007  89.859  81.093  1.00  0.00    -0.031 C 
BRANCH  15  16
ATOM     16  C   UNL     1     101.940  89.657  82.256  1.00  0.00     0.027 C 
BRANCH  16  17
ATOM     17  C   UNL     1     102.766  90.914  82.565  1.00  0.00     0.004 C 
BRANCH  17  18
ATOM     18  C   UNL     1     103.622  90.747  83.830  1.00  0.00     0.000 C 
BRANCH  18  19
ATOM     19  C   UNL     1     103.325  91.858  84.843  1.00  0.00    -0.003 C 
ATOM     20  C   UNL     1     101.833  91.932  85.158  1.00  0.00     0.004 C 
ENDBRANCH  18  19
ENDBRANCH  17  18
ENDBRANCH  16  17
ENDBRANCH  15  16
ENDBRANCH  13  14
ENDBRANCH  12  13
ENDBRANCH   1  11
TORSDOF 14
ENDMDL
MODEL 7
REMARK VINA RESULT:    -3.903      2.111      5.083
REMARK INTER + INTRA:          -9.916
REMARK INTER:                  -7.480
REMARK INTRA:                  -2.437
REMARK UNBOUND:                -2.820
REMARK SMILES CCCCCC=CCC=CCCCCCCCC(=O)[O-]
REMARK SMILES IDX 11 1 12 2 13 3 14 4 15 5 16 6 17 7 18 8 19 9 20 10 10 11
REMARK SMILES IDX 9 12 8 13 7 14 6 15 5 16 4 17 3 18 2 19 1 20
REMARK H PARENT
REMARK Flexibility Score: inf
ROOT
ATOM      1  C   UNL     1      99.301  88.852  80.373  1.00  0.00     0.027 C 
ENDROOT
BRANCH   1   2
ATOM      2  C   UNL     1     100.583  89.537  79.875  1.00  0.00     0.004 C 
BRANCH   2   3
ATOM      3  C   UNL     1     101.514  89.929  81.036  1.00  0.00     0.000 C 
BRANCH   3   4
ATOM      4  C   UNL     1     100.956  89.522  82.409  1.00  0.00     0.000 C 
BRANCH   4   5
ATOM      5  C   UNL     1     100.894  90.702  83.395  1.00  0.00     0.000 C 
BRANCH   5   6
ATOM      6  C   UNL     1      99.487  91.320  83.493  1.00  0.00     0.006 C 
BRANCH   6   7
ATOM      7  C   UNL     1      99.159  92.335  82.386  1.00  0.00     0.053 C 
BRANCH   7   8
ATOM      8  C   UNL     1      99.991  93.575  82.494  1.00  0.00     0.041 C 
ATOM      9  O   UNL     1     100.465  94.113  81.458  1.00  0.00    -0.550 OA
ATOM     10  O   UNL     1     100.216  94.157  83.736  1.00  0.00    -0.550 OA
ENDBRANCH   7   8
ENDBRANCH   6   7
ENDBRANCH   5   6
ENDBRANCH   4   5
ENDBRANCH   3   4
ENDBRANCH   2   3
ENDBRANCH   1   2
BRANCH   1  11
ATOM     11  C   UNL     1      98.064  89.655  80.052  1.00  0.00    -0.031 C 
ATOM     12  C   UNL     1      96.974  89.739  80.837  1.00  0.00    -0.027 C 
BRANCH  12  13
ATOM     13  C   UNL     1      96.784  89.004  82.141  1.00  0.00     0.054 C 
BRANCH  13  14
ATOM     14  C   UNL     1      96.233  89.931  83.185  1.00  0.00    -0.027 C 
ATOM     15  C   UNL     1      95.511  91.012  82.852  1.00  0.00    -0.031 C 
BRANCH  15  16
ATOM     16  C   UNL     1      94.954  91.942  83.895  1.00  0.00     0.027 C 
BRANCH  16  17
ATOM     17  C   UNL     1      93.752  91.335  84.635  1.00  0.00     0.004 C 
BRANCH  17  18
ATOM     18  C   UNL     1      93.930  91.378  86.160  1.00  0.00     0.000 C 
BRANCH  18  19
ATOM     19  C   UNL     1      94.791  90.207  86.645  1.00  0.00    -0.003 C 
ATOM     20  C   UNL     1      96.121  90.698  87.212  1.00  0.00     0.004 C 
ENDBRANCH  18  19
ENDBRANCH  17  18
ENDBRANCH  16  17
ENDBRANCH  15  16
ENDBRANCH  13  14
ENDBRANCH  12  13
ENDBRANCH   1  11
TORSDOF 14
ENDMDL
MODEL 8
REMARK VINA RESULT:    -3.894      1.110      2.852
REMARK INTER + INTRA:          -9.901
REMARK INTER:                  -7.391
REMARK INTRA:                  -2.510
REMARK UNBOUND:                -2.820
REMARK SMILES CCCCCC=CCC=CCCCCCCCC(=O)[O-]
REMARK SMILES IDX 11 1 12 2 13 3 14 4 15 5 16 6 17 7 18 8 19 9 20 10 10 11
REMARK SMILES IDX 9 12 8 13 7 14 6 15 5 16 4 17 3 18 2 19 1 20
REMARK H PARENT
REMARK Flexibility Score: inf
ROOT
ATOM      1  C   UNL     1      97.480  89.488  80.290  1.00  0.00     0.027 C 
ENDROOT
BRANCH   1   2
ATOM      2  C   UNL     1      98.884  88.943  79.987  1.00  0.00     0.004 C 
BRANCH   2   3
ATOM      3  C   UNL     1      99.985  89.779  80.665  1.00  0.00     0.000 C 
BRANCH   3   4
ATOM      4  C   UNL     1      99.893  91.275  80.319  1.00  0.00     0.000 C 
BRANCH   4   5
ATOM      5  C   UNL     1     100.826  92.140  81.185  1.00  0.00     0.000 C 
BRANCH   5   6
ATOM      6  C   UNL     1     100.279  93.562  81.409  1.00  0.00     0.006 C 
BRANCH   6   7
ATOM      7  C   UNL     1     101.131  94.676  80.780  1.00  0.00     0.053 C 
BRANCH   7   8
ATOM      8  C   UNL     1     101.134  95.921  81.613  1.00  0.00     0.041 C 
ATOM      9  O   UNL     1     100.539  95.942  82.722  1.00  0.00    -0.550 OA
ATOM     10  O   UNL     1     101.823  97.047  81.179  1.00  0.00    -0.550 OA
ENDBRANCH   7   8
ENDBRANCH   6   7
ENDBRANCH   5   6
ENDBRANCH   4   5
ENDBRANCH   3   4
ENDBRANCH   2   3
ENDBRANCH   1   2
BRANCH   1  11
ATOM     11  C   UNL     1      96.936  88.965  81.597  1.00  0.00    -0.031 C 
ATOM     12  C   UNL     1      96.576  89.732  82.644  1.00  0.00    -0.027 C 
BRANCH  12  13
ATOM     13  C   UNL     1      96.707  91.233  82.706  1.00  0.00     0.054 C 
BRANCH  13  14
ATOM     14  C   UNL     1      97.609  91.630  83.839  1.00  0.00    -0.027 C 
ATOM     15  C   UNL     1      98.877  91.196  83.911  1.00  0.00    -0.031 C 
BRANCH  15  16
ATOM     16  C   UNL     1      99.786  91.593  85.042  1.00  0.00     0.027 C 
BRANCH  16  17
ATOM     17  C   UNL     1     101.270  91.421  84.686  1.00  0.00     0.004 C 
BRANCH  17  18
ATOM     18  C   UNL     1     101.691  89.944  84.662  1.00  0.00     0.000 C 
BRANCH  18  19
ATOM     19  C   UNL     1     102.552  89.640  83.430  1.00  0.00    -0.003 C 
ATOM     20  C   UNL     1     103.588  90.736  83.197  1.00  0.00     0.004 C 
ENDBRANCH  18  19
ENDBRANCH  17  18
ENDBRANCH  16  17
ENDBRANCH  15  16
ENDBRANCH  13  14
ENDBRANCH  12  13
ENDBRANCH   1  11
TORSDOF 14
ENDMDL
MODEL 9
REMARK VINA RESULT:    -3.853      1.802      3.770
REMARK INTER + INTRA:          -9.825
REMARK INTER:                  -7.499
REMARK INTRA:                  -2.326
REMARK UNBOUND:                -2.820
REMARK SMILES CCCCCC=CCC=CCCCCCCCC(=O)[O-]
REMARK SMILES IDX 11 1 12 2 13 3 14 4 15 5 16 6 17 7 18 8 19 9 20 10 10 11
REMARK SMILES IDX 9 12 8 13 7 14 6 15 5 16 4 17 3 18 2 19 1 20
REMARK H PARENT
REMARK Flexibility Score: inf
ROOT
ATOM      1  C   UNL     1      96.852  88.982  82.116  1.00  0.00     0.027 C 
ENDROOT
BRANCH   1   2
ATOM      2  C   UNL     1      96.486  90.397  82.590  1.00  0.00     0.004 C 
BRANCH   2   3
ATOM      3  C   UNL     1      96.639  90.552  84.113  1.00  0.00     0.000 C 
BRANCH   3   4
ATOM      4  C   UNL     1      97.710  91.585  84.502  1.00  0.00     0.000 C 
BRANCH   4   5
ATOM      5  C   UNL     1      98.964  91.498  83.614  1.00  0.00     0.000 C 
BRANCH   5   6
ATOM      6  C   UNL     1     100.237  91.173  84.416  1.00  0.00     0.006 C 
BRANCH   6   7
ATOM      7  C   UNL     1     101.225  90.244  83.692  1.00  0.00     0.053 C 
BRANCH   7   8
ATOM      8  C   UNL     1     102.508  90.939  83.355  1.00  0.00     0.041 C 
ATOM      9  O   UNL     1     102.922  91.888  84.072  1.00  0.00    -0.550 OA
ATOM     10  O   UNL     1     103.264  90.516  82.268  1.00  0.00    -0.550 OA
ENDBRANCH   7   8
ENDBRANCH   6   7
ENDBRANCH   5   6
ENDBRANCH   4   5
ENDBRANCH   3   4
ENDBRANCH   2   3
ENDBRANCH   1   2
BRANCH   1  11
ATOM     11  C   UNL     1      96.899  88.879  80.612  1.00  0.00    -0.031 C 
ATOM     12  C   UNL     1      98.027  88.851  79.876  1.00  0.00    -0.027 C 
BRANCH  12  13
ATOM     13  C   UNL     1      99.426  88.970  80.428  1.00  0.00     0.054 C 
BRANCH  13  14
ATOM     14  C   UNL     1      99.881  90.400  80.385  1.00  0.00    -0.027 C 
ATOM     15  C   UNL     1      99.078  91.378  79.940  1.00  0.00    -0.031 C 
BRANCH  15  16
ATOM     16  C   UNL     1      99.528  92.814  79.899  1.00  0.00     0.027 C 
BRANCH  16  17
ATOM     17  C   UNL     1     100.640  93.105  80.918  1.00  0.00     0.004 C 
BRANCH  17  18
ATOM     18  C   UNL     1     100.929  94.608  81.045  1.00  0.00     0.000 C 
BRANCH  18  19
ATOM     19  C   UNL     1     100.365  95.166  82.357  1.00  0.00    -0.003 C 
ATOM     20  C   UNL     1     101.345  94.960  83.509  1.00  0.00     0.004 C 
ENDBRANCH  18  19
ENDBRANCH  17  18
ENDBRANCH  16  17
ENDBRANCH  15  16
ENDBRANCH  13  14
ENDBRANCH  12  13
ENDBRANCH   1  11
TORSDOF 14
ENDMDL
