MODEL 1
REMARK VINA RESULT:    -3.901      0.000      0.000
REMARK INTER + INTRA:          -9.191
REMARK INTER:                  -7.094
REMARK INTRA:                  -2.097
REMARK UNBOUND:                -2.097
REMARK SMILES CCCCCCCCCCCCCCCC(=O)[O-]
REMARK SMILES IDX 9 1 10 2 11 3 12 4 13 5 14 6 15 7 16 8 17 9 18 10 8 11 7 12
REMARK SMILES IDX 6 13 5 14 4 15 3 16 2 17 1 18
REMARK H PARENT
REMARK Flexibility Score: inf
ROOT
ATOM      1  C   UNL     1      22.837 -15.571  -2.449  1.00  0.00     0.000 C 
ENDROOT
BRANCH   1   2
ATOM      2  C   UNL     1      23.340 -16.895  -3.049  1.00  0.00     0.000 C 
BRANCH   2   3
ATOM      3  C   UNL     1      24.437 -16.674  -4.114  1.00  0.00     0.000 C 
BRANCH   3   4
ATOM      4  C   UNL     1      25.870 -16.765  -3.555  1.00  0.00     0.000 C 
BRANCH   4   5
ATOM      5  C   UNL     1      26.798 -15.613  -3.973  1.00  0.00     0.000 C 
BRANCH   5   6
ATOM      6  C   UNL     1      28.218 -15.758  -3.405  1.00  0.00     0.006 C 
BRANCH   6   7
ATOM      7  C   UNL     1      28.229 -16.694  -2.193  1.00  0.00     0.053 C 
BRANCH   7   8
ATOM      8  C   UNL     1      29.632 -16.964  -1.750  1.00  0.00     0.041 C 
ATOM      9  O   UNL     1      29.950 -16.836  -0.538  1.00  0.00    -0.550 OA
ATOM     10  O   UNL     1      30.578 -17.404  -2.667  1.00  0.00    -0.550 OA
ENDBRANCH   7   8
ENDBRANCH   6   7
ENDBRANCH   5   6
ENDBRANCH   4   5
ENDBRANCH   3   4
ENDBRANCH   2   3
ENDBRANCH   1   2
BRANCH   1  11
ATOM     11  C   UNL     1      23.213 -14.351  -3.304  1.00  0.00     0.000 C 
BRANCH  11  12
ATOM     12  C   UNL     1      24.078 -13.336  -2.541  1.00  0.00    -0.000 C 
BRANCH  12  13
ATOM     13  C   UNL     1      24.304 -13.785  -1.092  1.00  0.00    -0.000 C 
BRANCH  13  14
ATOM     14  C   UNL     1      25.444 -12.986  -0.441  1.00  0.00    -0.000 C 
BRANCH  14  15
ATOM     15  C   UNL     1      26.834 -13.527  -0.812  1.00  0.00    -0.000 C 
BRANCH  15  16
ATOM     16  C   UNL     1      27.627 -14.010   0.414  1.00  0.00    -0.000 C 
BRANCH  16  17
ATOM     17  C   UNL     1      29.095 -13.559   0.383  1.00  0.00    -0.003 C 
ATOM     18  C   UNL     1      29.579 -13.212  -1.025  1.00  0.00     0.004 C 
ENDBRANCH  16  17
ENDBRANCH  15  16
ENDBRANCH  14  15
ENDBRANCH  13  14
ENDBRANCH  12  13
ENDBRANCH  11  12
ENDBRANCH   1  11
TORSDOF 14
ENDMDL
MODEL 2
REMARK VINA RESULT:    -3.770      1.857      4.174
REMARK INTER + INTRA:          -8.953
REMARK INTER:                  -7.312
REMARK INTRA:                  -1.640
REMARK UNBOUND:                -2.097
REMARK SMILES CCCCCCCCCCCCCCCC(=O)[O-]
REMARK SMILES IDX 9 1 10 2 11 3 12 4 13 5 14 6 15 7 16 8 17 9 18 10 8 11 7 12
REMARK SMILES IDX 6 13 5 14 4 15 3 16 2 17 1 18
REMARK H PARENT
REMARK Flexibility Score: inf
ROOT
ATOM      1  C   UNL     1      23.052 -15.391  -1.951  1.00  0.00     0.000 C 
ENDROOT
BRANCH   1   2
ATOM      2  C   UNL     1      23.860 -14.154  -2.379  1.00  0.00     0.000 C 
BRANCH   2   3
ATOM      3  C   UNL     1      24.504 -13.431  -1.175  1.00  0.00     0.000 C 
BRANCH   3   4
ATOM      4  C   UNL     1      26.035 -13.583  -1.108  1.00  0.00     0.000 C 
BRANCH   4   5
ATOM      5  C   UNL     1      26.626 -13.539   0.311  1.00  0.00     0.000 C 
BRANCH   5   6
ATOM      6  C   UNL     1      27.879 -14.415   0.460  1.00  0.00     0.006 C 
BRANCH   6   7
ATOM      7  C   UNL     1      28.863 -13.796   1.458  1.00  0.00     0.053 C 
BRANCH   7   8
ATOM      8  C   UNL     1      29.495 -12.570   0.878  1.00  0.00     0.041 C 
ATOM      9  O   UNL     1      29.691 -11.557   1.601  1.00  0.00    -0.550 OA
ATOM     10  O   UNL     1      29.913 -12.563  -0.446  1.00  0.00    -0.550 OA
ENDBRANCH   7   8
ENDBRANCH   6   7
ENDBRANCH   5   6
ENDBRANCH   4   5
ENDBRANCH   3   4
ENDBRANCH   2   3
ENDBRANCH   1   2
BRANCH   1  11
ATOM     11  C   UNL     1      23.223 -16.574  -2.916  1.00  0.00     0.000 C 
BRANCH  11  12
ATOM     12  C   UNL     1      24.278 -16.308  -4.000  1.00  0.00    -0.000 C 
BRANCH  12  13
ATOM     13  C   UNL     1      25.557 -17.110  -3.731  1.00  0.00    -0.000 C 
BRANCH  13  14
ATOM     14  C   UNL     1      26.768 -16.177  -3.577  1.00  0.00    -0.000 C 
BRANCH  14  15
ATOM     15  C   UNL     1      27.711 -16.611  -2.443  1.00  0.00    -0.000 C 
BRANCH  15  16
ATOM     16  C   UNL     1      29.146 -16.090  -2.635  1.00  0.00    -0.000 C 
BRANCH  16  17
ATOM     17  C   UNL     1      30.203 -17.058  -2.081  1.00  0.00    -0.003 C 
ATOM     18  C   UNL     1      30.413 -16.908  -0.574  1.00  0.00     0.004 C 
ENDBRANCH  16  17
ENDBRANCH  15  16
ENDBRANCH  14  15
ENDBRANCH  13  14
ENDBRANCH  12  13
ENDBRANCH  11  12
ENDBRANCH   1  11
TORSDOF 14
ENDMDL
MODEL 3
REMARK VINA RESULT:    -3.666      1.505      5.515
REMARK INTER + INTRA:          -8.764
REMARK INTER:                  -6.943
REMARK INTRA:                  -1.821
REMARK UNBOUND:                -2.097
REMARK SMILES CCCCCCCCCCCCCCCC(=O)[O-]
REMARK SMILES IDX 9 1 10 2 11 3 12 4 13 5 14 6 15 7 16 8 17 9 18 10 8 11 7 12
REMARK SMILES IDX 6 13 5 14 4 15 3 16 2 17 1 18
REMARK H PARENT
REMARK Flexibility Score: inf
ROOT
ATOM      1  C   UNL     1      29.205 -13.026   1.877  1.00  0.00     0.000 C 
ENDROOT
BRANCH   1   2
ATOM      2  C   UNL     1      30.558 -12.661   1.241  1.00  0.00     0.000 C 
BRANCH   2   3
ATOM      3  C   UNL     1      30.398 -11.708   0.036  1.00  0.00     0.000 C 
BRANCH   3   4
ATOM      4  C   UNL     1      30.416 -12.425  -1.328  1.00  0.00     0.000 C 
BRANCH   4   5
ATOM      5  C   UNL     1      31.028 -13.835  -1.306  1.00  0.00     0.000 C 
BRANCH   5   6
ATOM      6  C   UNL     1      30.845 -14.582  -2.636  1.00  0.00     0.006 C 
BRANCH   6   7
ATOM      7  C   UNL     1      29.360 -14.713  -2.989  1.00  0.00     0.053 C 
BRANCH   7   8
ATOM      8  C   UNL     1      28.903 -16.128  -2.824  1.00  0.00     0.041 C 
ATOM      9  O   UNL     1      29.722 -17.021  -2.479  1.00  0.00    -0.550 OA
ATOM     10  O   UNL     1      27.565 -16.451  -3.002  1.00  0.00    -0.550 OA
ENDBRANCH   7   8
ENDBRANCH   6   7
ENDBRANCH   5   6
ENDBRANCH   4   5
ENDBRANCH   3   4
ENDBRANCH   2   3
ENDBRANCH   1   2
BRANCH   1  11
ATOM     11  C   UNL     1      28.848 -14.510   1.703  1.00  0.00     0.000 C 
BRANCH  11  12
ATOM     12  C   UNL     1      27.952 -14.764   0.481  1.00  0.00    -0.000 C 
BRANCH  12  13
ATOM     13  C   UNL     1      27.023 -13.573   0.222  1.00  0.00    -0.000 C 
BRANCH  13  14
ATOM     14  C   UNL     1      26.314 -13.712  -1.134  1.00  0.00    -0.000 C 
BRANCH  14  15
ATOM     15  C   UNL     1      24.793 -13.513  -1.032  1.00  0.00    -0.000 C 
BRANCH  15  16
ATOM     16  C   UNL     1      24.058 -13.909  -2.324  1.00  0.00    -0.000 C 
BRANCH  16  17
ATOM     17  C   UNL     1      23.207 -15.177  -2.153  1.00  0.00    -0.003 C 
ATOM     18  C   UNL     1      23.571 -16.275  -3.153  1.00  0.00     0.004 C 
ENDBRANCH  16  17
ENDBRANCH  15  16
ENDBRANCH  14  15
ENDBRANCH  13  14
ENDBRANCH  12  13
ENDBRANCH  11  12
ENDBRANCH   1  11
TORSDOF 14
ENDMDL
MODEL 4
REMARK VINA RESULT:    -3.649      0.940      1.535
REMARK INTER + INTRA:          -8.733
REMARK INTER:                  -6.939
REMARK INTRA:                  -1.795
REMARK UNBOUND:                -2.097
REMARK SMILES CCCCCCCCCCCCCCCC(=O)[O-]
REMARK SMILES IDX 9 1 10 2 11 3 12 4 13 5 14 6 15 7 16 8 17 9 18 10 8 11 7 12
REMARK SMILES IDX 6 13 5 14 4 15 3 16 2 17 1 18
REMARK H PARENT
REMARK Flexibility Score: inf
ROOT
ATOM      1  C   UNL     1      23.197 -15.006  -2.188  1.00  0.00     0.000 C 
ENDROOT
BRANCH   1   2
ATOM      2  C   UNL     1      23.554 -16.266  -2.996  1.00  0.00     0.000 C 
BRANCH   2   3
ATOM      3  C   UNL     1      24.730 -16.023  -3.967  1.00  0.00     0.000 C 
BRANCH   3   4
ATOM      4  C   UNL     1      25.965 -16.897  -3.674  1.00  0.00     0.000 C 
BRANCH   4   5
ATOM      5  C   UNL     1      27.262 -16.113  -3.415  1.00  0.00     0.000 C 
BRANCH   5   6
ATOM      6  C   UNL     1      28.033 -16.628  -2.191  1.00  0.00     0.006 C 
BRANCH   6   7
ATOM      7  C   UNL     1      29.545 -16.574  -2.435  1.00  0.00     0.053 C 
BRANCH   7   8
ATOM      8  C   UNL     1      30.284 -17.182  -1.285  1.00  0.00     0.041 C 
ATOM      9  O   UNL     1      30.612 -16.473  -0.297  1.00  0.00    -0.550 OA
ATOM     10  O   UNL     1      30.566 -18.542  -1.281  1.00  0.00    -0.550 OA
ENDBRANCH   7   8
ENDBRANCH   6   7
ENDBRANCH   5   6
ENDBRANCH   4   5
ENDBRANCH   3   4
ENDBRANCH   2   3
ENDBRANCH   1   2
BRANCH   1  11
ATOM     11  C   UNL     1      24.229 -13.881  -2.355  1.00  0.00     0.000 C 
BRANCH  11  12
ATOM     12  C   UNL     1      24.858 -13.449  -1.021  1.00  0.00    -0.000 C 
BRANCH  12  13
ATOM     13  C   UNL     1      26.387 -13.552  -1.075  1.00  0.00    -0.000 C 
BRANCH  13  14
ATOM     14  C   UNL     1      26.974 -13.753   0.330  1.00  0.00    -0.000 C 
BRANCH  14  15
ATOM     15  C   UNL     1      28.494 -13.529   0.376  1.00  0.00    -0.000 C 
BRANCH  15  16
ATOM     16  C   UNL     1      29.092 -13.246  -1.012  1.00  0.00    -0.000 C 
BRANCH  16  17
ATOM     17  C   UNL     1      30.551 -12.771  -0.939  1.00  0.00    -0.003 C 
ATOM     18  C   UNL     1      30.696 -11.398  -0.283  1.00  0.00     0.004 C 
ENDBRANCH  16  17
ENDBRANCH  15  16
ENDBRANCH  14  15
ENDBRANCH  13  14
ENDBRANCH  12  13
ENDBRANCH  11  12
ENDBRANCH   1  11
TORSDOF 14
ENDMDL
MODEL 5
REMARK VINA RESULT:    -3.573      2.419      5.567
REMARK INTER + INTRA:          -8.595
REMARK INTER:                  -6.600
REMARK INTRA:                  -1.995
REMARK UNBOUND:                -2.097
REMARK SMILES CCCCCCCCCCCCCCCC(=O)[O-]
REMARK SMILES IDX 9 1 10 2 11 3 12 4 13 5 14 6 15 7 16 8 17 9 18 10 8 11 7 12
REMARK SMILES IDX 6 13 5 14 4 15 3 16 2 17 1 18
REMARK H PARENT
REMARK Flexibility Score: inf
ROOT
ATOM      1  C   UNL     1      28.795 -13.914   1.716  1.00  0.00     0.000 C 
ENDROOT
BRANCH   1   2
ATOM      2  C   UNL     1      27.837 -14.456   0.641  1.00  0.00     0.000 C 
BRANCH   2   3
ATOM      3  C   UNL     1      26.695 -13.466   0.325  1.00  0.00     0.000 C 
BRANCH   3   4
ATOM      4  C   UNL     1      26.088 -13.649  -1.079  1.00  0.00     0.000 C 
BRANCH   4   5
ATOM      5  C   UNL     1      24.560 -13.488  -1.147  1.00  0.00     0.000 C 
BRANCH   5   6
ATOM      6  C   UNL     1      23.967 -14.005  -2.466  1.00  0.00     0.006 C 
BRANCH   6   7
ATOM      7  C   UNL     1      24.979 -14.877  -3.216  1.00  0.00     0.053 C 
BRANCH   7   8
ATOM      8  C   UNL     1      24.477 -16.282  -3.333  1.00  0.00     0.041 C 
ATOM      9  O   UNL     1      23.321 -16.577  -2.928  1.00  0.00    -0.550 OA
ATOM     10  O   UNL     1      25.265 -17.254  -3.934  1.00  0.00    -0.550 OA
ENDBRANCH   7   8
ENDBRANCH   6   7
ENDBRANCH   5   6
ENDBRANCH   4   5
ENDBRANCH   3   4
ENDBRANCH   2   3
ENDBRANCH   1   2
BRANCH   1  11
ATOM     11  C   UNL     1      30.141 -13.455   1.135  1.00  0.00     0.000 C 
BRANCH  11  12
ATOM     12  C   UNL     1      30.032 -12.139   0.350  1.00  0.00    -0.000 C 
BRANCH  12  13
ATOM     13  C   UNL     1      30.424 -12.341  -1.118  1.00  0.00    -0.000 C 
BRANCH  13  14
ATOM     14  C   UNL     1      30.940 -13.769  -1.359  1.00  0.00    -0.000 C 
BRANCH  14  15
ATOM     15  C   UNL     1      30.546 -14.317  -2.740  1.00  0.00    -0.000 C 
BRANCH  15  16
ATOM     16  C   UNL     1      29.023 -14.334  -2.956  1.00  0.00    -0.000 C 
BRANCH  16  17
ATOM     17  C   UNL     1      28.472 -15.755  -3.153  1.00  0.00    -0.003 C 
ATOM     18  C   UNL     1      28.834 -16.696  -2.004  1.00  0.00     0.004 C 
ENDBRANCH  16  17
ENDBRANCH  15  16
ENDBRANCH  14  15
ENDBRANCH  13  14
ENDBRANCH  12  13
ENDBRANCH  11  12
ENDBRANCH   1  11
TORSDOF 14
ENDMDL
MODEL 6
REMARK VINA RESULT:    -3.520      1.074      2.077
REMARK INTER + INTRA:          -8.499
REMARK INTER:                  -6.726
REMARK INTRA:                  -1.772
REMARK UNBOUND:                -2.097
REMARK SMILES CCCCCCCCCCCCCCCC(=O)[O-]
REMARK SMILES IDX 9 1 10 2 11 3 12 4 13 5 14 6 15 7 16 8 17 9 18 10 8 11 7 12
REMARK SMILES IDX 6 13 5 14 4 15 3 16 2 17 1 18
REMARK H PARENT
REMARK Flexibility Score: inf
ROOT
ATOM      1  C   UNL     1      24.061 -16.701  -3.814  1.00  0.00     0.000 C 
ENDROOT
BRANCH   1   2
ATOM      2  C   UNL     1      25.488 -17.272  -3.746  1.00  0.00     0.000 C 
BRANCH   2   3
ATOM      3  C   UNL     1      26.559 -16.161  -3.676  1.00  0.00     0.000 C 
BRANCH   3   4
ATOM      4  C   UNL     1      27.783 -16.534  -2.819  1.00  0.00     0.000 C 
BRANCH   4   5
ATOM      5  C   UNL     1      29.094 -15.846  -3.234  1.00  0.00     0.000 C 
BRANCH   5   6
ATOM      6  C   UNL     1      30.321 -16.755  -3.065  1.00  0.00     0.006 C 
BRANCH   6   7
ATOM      7  C   UNL     1      30.910 -16.622  -1.656  1.00  0.00     0.053 C 
BRANCH   7   8
ATOM      8  C   UNL     1      30.705 -17.885  -0.881  1.00  0.00     0.041 C 
ATOM      9  O   UNL     1      30.519 -18.975  -1.484  1.00  0.00    -0.550 OA
ATOM     10  O   UNL     1      30.770 -17.868   0.506  1.00  0.00    -0.550 OA
ENDBRANCH   7   8
ENDBRANCH   6   7
ENDBRANCH   5   6
ENDBRANCH   4   5
ENDBRANCH   3   4
ENDBRANCH   2   3
ENDBRANCH   1   2
BRANCH   1  11
ATOM     11  C   UNL     1      24.039 -15.188  -4.077  1.00  0.00     0.000 C 
BRANCH  11  12
ATOM     12  C   UNL     1      23.338 -14.402  -2.958  1.00  0.00    -0.000 C 
BRANCH  12  13
ATOM     13  C   UNL     1      24.295 -13.393  -2.313  1.00  0.00    -0.000 C 
BRANCH  13  14
ATOM     14  C   UNL     1      24.330 -13.567  -0.786  1.00  0.00    -0.000 C 
BRANCH  14  15
ATOM     15  C   UNL     1      25.668 -13.126  -0.170  1.00  0.00    -0.000 C 
BRANCH  15  16
ATOM     16  C   UNL     1      26.880 -13.595  -0.991  1.00  0.00    -0.000 C 
BRANCH  16  17
ATOM     17  C   UNL     1      28.151 -13.735  -0.138  1.00  0.00    -0.003 C 
ATOM     18  C   UNL     1      28.254 -15.095   0.554  1.00  0.00     0.004 C 
ENDBRANCH  16  17
ENDBRANCH  15  16
ENDBRANCH  14  15
ENDBRANCH  13  14
ENDBRANCH  12  13
ENDBRANCH  11  12
ENDBRANCH   1  11
TORSDOF 14
ENDMDL
MODEL 7
REMARK VINA RESULT:    -3.489      1.663      5.351
REMARK INTER + INTRA:          -8.442
REMARK INTER:                  -6.738
REMARK INTRA:                  -1.704
REMARK UNBOUND:                -2.097
REMARK SMILES CCCCCCCCCCCCCCCC(=O)[O-]
REMARK SMILES IDX 9 1 10 2 11 3 12 4 13 5 14 6 15 7 16 8 17 9 18 10 8 11 7 12
REMARK SMILES IDX 6 13 5 14 4 15 3 16 2 17 1 18
REMARK H PARENT
REMARK Flexibility Score: inf
ROOT
ATOM      1  C   UNL     1      28.510 -16.167  -2.277  1.00  0.00     0.000 C 
ENDROOT
BRANCH   1   2
ATOM      2  C   UNL     1      29.774 -15.295  -2.180  1.00  0.00     0.000 C 
BRANCH   2   3
ATOM      3  C   UNL     1      29.481 -13.807  -2.472  1.00  0.00     0.000 C 
BRANCH   3   4
ATOM      4  C   UNL     1      30.555 -12.846  -1.927  1.00  0.00     0.000 C 
BRANCH   4   5
ATOM      5  C   UNL     1      30.836 -12.981  -0.421  1.00  0.00     0.000 C 
BRANCH   5   6
ATOM      6  C   UNL     1      29.743 -12.339   0.447  1.00  0.00     0.006 C 
BRANCH   6   7
ATOM      7  C   UNL     1      29.233 -13.326   1.501  1.00  0.00     0.053 C 
BRANCH   7   8
ATOM      8  C   UNL     1      28.107 -14.144   0.953  1.00  0.00     0.041 C 
ATOM      9  O   UNL     1      28.146 -15.401   1.021  1.00  0.00    -0.550 OA
ATOM     10  O   UNL     1      26.992 -13.518   0.413  1.00  0.00    -0.550 OA
ENDBRANCH   7   8
ENDBRANCH   6   7
ENDBRANCH   5   6
ENDBRANCH   4   5
ENDBRANCH   3   4
ENDBRANCH   2   3
ENDBRANCH   1   2
BRANCH   1  11
ATOM     11  C   UNL     1      27.259 -15.359  -2.655  1.00  0.00     0.000 C 
BRANCH  11  12
ATOM     12  C   UNL     1      26.627 -15.827  -3.975  1.00  0.00    -0.000 C 
BRANCH  12  13
ATOM     13  C   UNL     1      25.632 -16.968  -3.733  1.00  0.00    -0.000 C 
BRANCH  13  14
ATOM     14  C   UNL     1      24.196 -16.522  -4.047  1.00  0.00    -0.000 C 
BRANCH  14  15
ATOM     15  C   UNL     1      23.218 -16.815  -2.898  1.00  0.00    -0.000 C 
BRANCH  15  16
ATOM     16  C   UNL     1      22.919 -15.571  -2.045  1.00  0.00    -0.000 C 
BRANCH  16  17
ATOM     17  C   UNL     1      23.379 -14.269  -2.719  1.00  0.00    -0.003 C 
ATOM     18  C   UNL     1      24.343 -13.460  -1.851  1.00  0.00     0.004 C 
ENDBRANCH  16  17
ENDBRANCH  15  16
ENDBRANCH  14  15
ENDBRANCH  13  14
ENDBRANCH  12  13
ENDBRANCH  11  12
ENDBRANCH   1  11
TORSDOF 14
ENDMDL
MODEL 8
REMARK VINA RESULT:    -3.422      0.886      4.532
REMARK INTER + INTRA:          -8.320
REMARK INTER:                  -6.868
REMARK INTRA:                  -1.453
REMARK UNBOUND:                -2.097
REMARK SMILES CCCCCCCCCCCCCCCC(=O)[O-]
REMARK SMILES IDX 9 1 10 2 11 3 12 4 13 5 14 6 15 7 16 8 17 9 18 10 8 11 7 12
REMARK SMILES IDX 6 13 5 14 4 15 3 16 2 17 1 18
REMARK H PARENT
REMARK Flexibility Score: inf
ROOT
ATOM      1  C   UNL     1      25.661 -13.051  -0.365  1.00  0.00     0.000 C 
ENDROOT
BRANCH   1   2
ATOM      2  C   UNL     1      27.134 -13.451  -0.560  1.00  0.00     0.000 C 
BRANCH   2   3
ATOM      3  C   UNL     1      27.797 -13.899   0.762  1.00  0.00     0.000 C 
BRANCH   3   4
ATOM      4  C   UNL     1      28.989 -13.019   1.185  1.00  0.00     0.000 C 
BRANCH   4   5
ATOM      5  C   UNL     1      30.369 -13.672   1.001  1.00  0.00     0.000 C 
BRANCH   5   6
ATOM      6  C   UNL     1      30.515 -14.380  -0.354  1.00  0.00     0.006 C 
BRANCH   6   7
ATOM      7  C   UNL     1      30.699 -15.889  -0.165  1.00  0.00     0.053 C 
BRANCH   7   8
ATOM      8  C   UNL     1      29.934 -16.646  -1.205  1.00  0.00     0.041 C 
ATOM      9  O   UNL     1      28.675 -16.634  -1.199  1.00  0.00    -0.550 OA
ATOM     10  O   UNL     1      30.612 -17.322  -2.211  1.00  0.00    -0.550 OA
ENDBRANCH   7   8
ENDBRANCH   6   7
ENDBRANCH   5   6
ENDBRANCH   4   5
ENDBRANCH   3   4
ENDBRANCH   2   3
ENDBRANCH   1   2
BRANCH   1  11
ATOM     11  C   UNL     1      24.690 -13.975  -1.114  1.00  0.00     0.000 C 
BRANCH  11  12
ATOM     12  C   UNL     1      24.070 -13.307  -2.351  1.00  0.00    -0.000 C 
BRANCH  12  13
ATOM     13  C   UNL     1      23.144 -14.278  -3.094  1.00  0.00    -0.000 C 
BRANCH  13  14
ATOM     14  C   UNL     1      22.884 -15.539  -2.257  1.00  0.00    -0.000 C 
BRANCH  14  15
ATOM     15  C   UNL     1      23.257 -16.832  -3.000  1.00  0.00    -0.000 C 
BRANCH  15  16
ATOM     16  C   UNL     1      24.278 -16.594  -4.125  1.00  0.00    -0.000 C 
BRANCH  16  17
ATOM     17  C   UNL     1      25.716 -16.925  -3.696  1.00  0.00    -0.003 C 
ATOM     18  C   UNL     1      26.663 -15.732  -3.825  1.00  0.00     0.004 C 
ENDBRANCH  16  17
ENDBRANCH  15  16
ENDBRANCH  14  15
ENDBRANCH  13  14
ENDBRANCH  12  13
ENDBRANCH  11  12
ENDBRANCH   1  11
TORSDOF 14
ENDMDL
MODEL 9
REMARK VINA RESULT:    -3.422      2.116      5.289
REMARK INTER + INTRA:          -8.320
REMARK INTER:                  -6.887
REMARK INTRA:                  -1.434
REMARK UNBOUND:                -2.097
REMARK SMILES CCCCCCCCCCCCCCCC(=O)[O-]
REMARK SMILES IDX 9 1 10 2 11 3 12 4 13 5 14 6 15 7 16 8 17 9 18 10 8 11 7 12
REMARK SMILES IDX 6 13 5 14 4 15 3 16 2 17 1 18
REMARK H PARENT
REMARK Flexibility Score: inf
ROOT
ATOM      1  C   UNL     1      29.131 -15.600  -3.729  1.00  0.00     0.000 C 
ENDROOT
BRANCH   1   2
ATOM      2  C   UNL     1      30.176 -16.634  -3.275  1.00  0.00     0.000 C 
BRANCH   2   3
ATOM      3  C   UNL     1      29.734 -17.391  -2.003  1.00  0.00     0.000 C 
BRANCH   3   4
ATOM      4  C   UNL     1      30.848 -17.533  -0.949  1.00  0.00     0.000 C 
BRANCH   4   5
ATOM      5  C   UNL     1      30.561 -16.835   0.391  1.00  0.00     0.000 C 
BRANCH   5   6
ATOM      6  C   UNL     1      29.968 -15.429   0.213  1.00  0.00     0.006 C 
BRANCH   6   7
ATOM      7  C   UNL     1      28.492 -15.403   0.624  1.00  0.00     0.053 C 
BRANCH   7   8
ATOM      8  C   UNL     1      28.104 -14.039   1.100  1.00  0.00     0.041 C 
ATOM      9  O   UNL     1      27.104 -13.456   0.605  1.00  0.00    -0.550 OA
ATOM     10  O   UNL     1      28.817 -13.432   2.126  1.00  0.00    -0.550 OA
ENDBRANCH   7   8
ENDBRANCH   6   7
ENDBRANCH   5   6
ENDBRANCH   4   5
ENDBRANCH   3   4
ENDBRANCH   2   3
ENDBRANCH   1   2
BRANCH   1  11
ATOM     11  C   UNL     1      27.764 -15.803  -3.057  1.00  0.00     0.000 C 
BRANCH  11  12
ATOM     12  C   UNL     1      26.603 -15.809  -4.063  1.00  0.00    -0.000 C 
BRANCH  12  13
ATOM     13  C   UNL     1      25.633 -16.961  -3.775  1.00  0.00    -0.000 C 
BRANCH  13  14
ATOM     14  C   UNL     1      24.178 -16.527  -4.014  1.00  0.00    -0.000 C 
BRANCH  14  15
ATOM     15  C   UNL     1      23.276 -16.782  -2.796  1.00  0.00    -0.000 C 
BRANCH  15  16
ATOM     16  C   UNL     1      22.873 -15.483  -2.077  1.00  0.00    -0.000 C 
BRANCH  16  17
ATOM     17  C   UNL     1      23.555 -14.243  -2.674  1.00  0.00    -0.003 C 
ATOM     18  C   UNL     1      24.576 -13.613  -1.726  1.00  0.00     0.004 C 
ENDBRANCH  16  17
ENDBRANCH  15  16
ENDBRANCH  14  15
ENDBRANCH  13  14
ENDBRANCH  12  13
ENDBRANCH  11  12
ENDBRANCH   1  11
TORSDOF 14
ENDMDL
