MODEL 1
REMARK VINA RESULT:    -5.520      0.000      0.000
REMARK INTER + INTRA:         -11.922
REMARK INTER:                 -10.682
REMARK INTRA:                  -1.240
REMARK UNBOUND:                -1.240
REMARK SMILES CCCCCCCCCCCCCCCCCC(=O)[O-]
REMARK SMILES IDX 10 1 11 2 12 3 13 4 14 5 15 6 16 7 17 8 18 9 19 10 20 11
REMARK SMILES IDX 9 12 8 13 7 14 6 15 5 16 4 17 3 18 2 19 1 20
REMARK H PARENT
REMARK Flexibility Score: inf
ROOT
ATOM      1  C   UNL     1      81.961  58.911  10.786  1.00  0.00     0.000 C 
ENDROOT
BRANCH   1   2
ATOM      2  C   UNL     1      80.678  59.702  10.477  1.00  0.00     0.000 C 
BRANCH   2   3
ATOM      3  C   UNL     1      79.484  58.785  10.165  1.00  0.00     0.000 C 
BRANCH   3   4
ATOM      4  C   UNL     1      79.754  57.314  10.526  1.00  0.00     0.000 C 
BRANCH   4   5
ATOM      5  C   UNL     1      78.480  56.455  10.490  1.00  0.00     0.000 C 
BRANCH   5   6
ATOM      6  C   UNL     1      77.574  56.796   9.294  1.00  0.00     0.000 C 
BRANCH   6   7
ATOM      7  C   UNL     1      78.077  56.183   7.974  1.00  0.00     0.006 C 
BRANCH   7   8
ATOM      8  C   UNL     1      77.833  54.671   7.848  1.00  0.00     0.053 C 
BRANCH   8   9
ATOM      9  C   UNL     1      79.114  53.894   7.862  1.00  0.00     0.041 C 
ATOM     10  O   UNL     1      80.210  54.482   8.052  1.00  0.00    -0.550 OA
ATOM     11  O   UNL     1      79.098  52.524   7.631  1.00  0.00    -0.550 OA
ENDBRANCH   8   9
ENDBRANCH   7   8
ENDBRANCH   6   7
ENDBRANCH   5   6
ENDBRANCH   4   5
ENDBRANCH   3   4
ENDBRANCH   2   3
ENDBRANCH   1   2
BRANCH   1  12
ATOM     12  C   UNL     1      83.199  59.508  10.095  1.00  0.00     0.000 C 
BRANCH  12  13
ATOM     13  C   UNL     1      83.513  60.935  10.577  1.00  0.00    -0.000 C 
BRANCH  13  14
ATOM     14  C   UNL     1      84.948  61.084  11.115  1.00  0.00    -0.000 C 
BRANCH  14  15
ATOM     15  C   UNL     1      85.582  59.785  11.647  1.00  0.00    -0.000 C 
BRANCH  15  16
ATOM     16  C   UNL     1      85.757  59.787  13.174  1.00  0.00    -0.000 C 
BRANCH  16  17
ATOM     17  C   UNL     1      84.503  60.281  13.918  1.00  0.00    -0.000 C 
BRANCH  17  18
ATOM     18  C   UNL     1      84.772  60.908  15.301  1.00  0.00    -0.000 C 
BRANCH  18  19
ATOM     19  C   UNL     1      85.818  62.036  15.313  1.00  0.00    -0.003 C 
ATOM     20  C   UNL     1      85.226  63.393  15.691  1.00  0.00     0.004 C 
ENDBRANCH  18  19
ENDBRANCH  17  18
ENDBRANCH  16  17
ENDBRANCH  15  16
ENDBRANCH  14  15
ENDBRANCH  13  14
ENDBRANCH  12  13
ENDBRANCH   1  12
TORSDOF 16
ENDMDL
MODEL 2
REMARK VINA RESULT:    -5.469      4.406      9.171
REMARK INTER + INTRA:         -11.825
REMARK INTER:                 -10.348
REMARK INTRA:                  -1.477
REMARK UNBOUND:                -1.240
REMARK SMILES CCCCCCCCCCCCCCCCCC(=O)[O-]
REMARK SMILES IDX 10 1 11 2 12 3 13 4 14 5 15 6 16 7 17 8 18 9 19 10 20 11
REMARK SMILES IDX 9 12 8 13 7 14 6 15 5 16 4 17 3 18 2 19 1 20
REMARK H PARENT
REMARK Flexibility Score: inf
ROOT
ATOM      1  C   UNL     1      82.629  60.910  10.324  1.00  0.00     0.000 C 
ENDROOT
BRANCH   1   2
ATOM      2  C   UNL     1      84.120  60.635  10.066  1.00  0.00     0.000 C 
BRANCH   2   3
ATOM      3  C   UNL     1      84.403  59.152   9.775  1.00  0.00     0.000 C 
BRANCH   3   4
ATOM      4  C   UNL     1      85.368  58.520  10.794  1.00  0.00     0.000 C 
BRANCH   4   5
ATOM      5  C   UNL     1      85.962  59.554  11.763  1.00  0.00     0.000 C 
BRANCH   5   6
ATOM      6  C   UNL     1      85.344  59.466  13.169  1.00  0.00     0.000 C 
BRANCH   6   7
ATOM      7  C   UNL     1      85.027  60.849  13.767  1.00  0.00     0.006 C 
BRANCH   7   8
ATOM      8  C   UNL     1      84.460  60.803  15.194  1.00  0.00     0.053 C 
BRANCH   8   9
ATOM      9  C   UNL     1      85.405  61.400  16.192  1.00  0.00     0.041 C 
ATOM     10  O   UNL     1      86.171  62.340  15.856  1.00  0.00    -0.550 OA
ATOM     11  O   UNL     1      85.462  60.893  17.485  1.00  0.00    -0.550 OA
ENDBRANCH   8   9
ENDBRANCH   7   8
ENDBRANCH   6   7
ENDBRANCH   5   6
ENDBRANCH   4   5
ENDBRANCH   3   4
ENDBRANCH   2   3
ENDBRANCH   1   2
BRANCH   1  12
ATOM     12  C   UNL     1      82.011  59.912  11.319  1.00  0.00     0.000 C 
BRANCH  12  13
ATOM     13  C   UNL     1      80.964  58.997  10.661  1.00  0.00    -0.000 C 
BRANCH  13  14
ATOM     14  C   UNL     1      81.320  57.502  10.771  1.00  0.00    -0.000 C 
BRANCH  14  15
ATOM     15  C   UNL     1      80.226  56.535  10.282  1.00  0.00    -0.000 C 
BRANCH  15  16
ATOM     16  C   UNL     1      78.806  57.010  10.637  1.00  0.00    -0.000 C 
BRANCH  16  17
ATOM     17  C   UNL     1      77.774  56.669   9.547  1.00  0.00    -0.000 C 
BRANCH  17  18
ATOM     18  C   UNL     1      78.085  55.395   8.735  1.00  0.00    -0.000 C 
BRANCH  18  19
ATOM     19  C   UNL     1      77.847  55.515   7.219  1.00  0.00    -0.003 C 
ATOM     20  C   UNL     1      77.785  56.965   6.740  1.00  0.00     0.004 C 
ENDBRANCH  18  19
ENDBRANCH  17  18
ENDBRANCH  16  17
ENDBRANCH  15  16
ENDBRANCH  14  15
ENDBRANCH  13  14
ENDBRANCH  12  13
ENDBRANCH   1  12
TORSDOF 16
ENDMDL
MODEL 3
REMARK VINA RESULT:    -5.253      3.154      7.794
REMARK INTER + INTRA:         -11.407
REMARK INTER:                  -9.455
REMARK INTRA:                  -1.952
REMARK UNBOUND:                -1.240
REMARK SMILES CCCCCCCCCCCCCCCCCC(=O)[O-]
REMARK SMILES IDX 10 1 11 2 12 3 13 4 14 5 15 6 16 7 17 8 18 9 19 10 20 11
REMARK SMILES IDX 9 12 8 13 7 14 6 15 5 16 4 17 3 18 2 19 1 20
REMARK H PARENT
REMARK Flexibility Score: inf
ROOT
ATOM      1  C   UNL     1      79.259  58.784   9.950  1.00  0.00     0.000 C 
ENDROOT
BRANCH   1   2
ATOM      2  C   UNL     1      80.430  59.663  10.423  1.00  0.00     0.000 C 
BRANCH   2   3
ATOM      3  C   UNL     1      81.667  58.836  10.808  1.00  0.00     0.000 C 
BRANCH   3   4
ATOM      4  C   UNL     1      82.840  59.709  11.289  1.00  0.00     0.000 C 
BRANCH   4   5
ATOM      5  C   UNL     1      83.054  60.946  10.404  1.00  0.00     0.000 C 
BRANCH   5   6
ATOM      6  C   UNL     1      84.542  61.237  10.147  1.00  0.00     0.000 C 
BRANCH   6   7
ATOM      7  C   UNL     1      85.372  59.957   9.944  1.00  0.00     0.006 C 
BRANCH   7   8
ATOM      8  C   UNL     1      85.296  59.375   8.524  1.00  0.00     0.053 C 
BRANCH   8   9
ATOM      9  C   UNL     1      84.923  57.924   8.531  1.00  0.00     0.041 C 
ATOM     10  O   UNL     1      84.710  57.330   9.620  1.00  0.00    -0.550 OA
ATOM     11  O   UNL     1      84.844  57.221   7.336  1.00  0.00    -0.550 OA
ENDBRANCH   8   9
ENDBRANCH   7   8
ENDBRANCH   6   7
ENDBRANCH   5   6
ENDBRANCH   4   5
ENDBRANCH   3   4
ENDBRANCH   2   3
ENDBRANCH   1   2
BRANCH   1  12
ATOM     12  C   UNL     1      79.252  57.402  10.625  1.00  0.00     0.000 C 
BRANCH  12  13
ATOM     13  C   UNL     1      78.134  56.490  10.090  1.00  0.00    -0.000 C 
BRANCH  13  14
ATOM     14  C   UNL     1      77.649  56.898   8.686  1.00  0.00    -0.000 C 
BRANCH  14  15
ATOM     15  C   UNL     1      78.068  55.946   7.552  1.00  0.00    -0.000 C 
BRANCH  15  16
ATOM     16  C   UNL     1      78.047  54.467   7.973  1.00  0.00    -0.000 C 
BRANCH  16  17
ATOM     17  C   UNL     1      79.397  53.764   7.747  1.00  0.00    -0.000 C 
BRANCH  17  18
ATOM     18  C   UNL     1      80.609  54.457   8.404  1.00  0.00    -0.000 C 
BRANCH  18  19
ATOM     19  C   UNL     1      80.944  53.974   9.826  1.00  0.00    -0.003 C 
ATOM     20  C   UNL     1      81.872  54.928  10.576  1.00  0.00     0.004 C 
ENDBRANCH  18  19
ENDBRANCH  17  18
ENDBRANCH  16  17
ENDBRANCH  15  16
ENDBRANCH  14  15
ENDBRANCH  13  14
ENDBRANCH  12  13
ENDBRANCH   1  12
TORSDOF 16
ENDMDL
MODEL 4
REMARK VINA RESULT:    -5.195      4.784      9.950
REMARK INTER + INTRA:         -11.293
REMARK INTER:                 -10.365
REMARK INTRA:                  -0.928
REMARK UNBOUND:                -1.240
REMARK SMILES CCCCCCCCCCCCCCCCCC(=O)[O-]
REMARK SMILES IDX 10 1 11 2 12 3 13 4 14 5 15 6 16 7 17 8 18 9 19 10 20 11
REMARK SMILES IDX 9 12 8 13 7 14 6 15 5 16 4 17 3 18 2 19 1 20
REMARK H PARENT
REMARK Flexibility Score: inf
ROOT
ATOM      1  C   UNL     1      85.184  60.510  11.879  1.00  0.00     0.000 C 
ENDROOT
BRANCH   1   2
ATOM      2  C   UNL     1      84.659  59.668  13.055  1.00  0.00     0.000 C 
BRANCH   2   3
ATOM      3  C   UNL     1      84.317  60.525  14.285  1.00  0.00     0.000 C 
BRANCH   3   4
ATOM      4  C   UNL     1      85.547  61.244  14.869  1.00  0.00     0.000 C 
BRANCH   4   5
ATOM      5  C   UNL     1      85.405  61.524  16.373  1.00  0.00     0.000 C 
BRANCH   5   6
ATOM      6  C   UNL     1      84.990  62.977  16.665  1.00  0.00     0.000 C 
BRANCH   6   7
ATOM      7  C   UNL     1      85.307  63.932  15.499  1.00  0.00     0.006 C 
BRANCH   7   8
ATOM      8  C   UNL     1      84.541  65.263  15.551  1.00  0.00     0.053 C 
BRANCH   8   9
ATOM      9  C   UNL     1      84.631  66.012  14.257  1.00  0.00     0.041 C 
ATOM     10  O   UNL     1      85.582  65.791  13.461  1.00  0.00    -0.550 OA
ATOM     11  O   UNL     1      83.682  66.978  13.945  1.00  0.00    -0.550 OA
ENDBRANCH   8   9
ENDBRANCH   7   8
ENDBRANCH   6   7
ENDBRANCH   5   6
ENDBRANCH   4   5
ENDBRANCH   3   4
ENDBRANCH   2   3
ENDBRANCH   1   2
BRANCH   1  12
ATOM     12  C   UNL     1      84.107  60.760  10.809  1.00  0.00     0.000 C 
BRANCH  12  13
ATOM     13  C   UNL     1      82.969  59.726  10.866  1.00  0.00    -0.000 C 
BRANCH  13  14
ATOM     14  C   UNL     1      81.578  60.372  11.012  1.00  0.00    -0.000 C 
BRANCH  14  15
ATOM     15  C   UNL     1      80.465  59.715  10.177  1.00  0.00    -0.000 C 
BRANCH  15  16
ATOM     16  C   UNL     1      80.293  58.218  10.483  1.00  0.00    -0.000 C 
BRANCH  16  17
ATOM     17  C   UNL     1      78.826  57.757  10.399  1.00  0.00    -0.000 C 
BRANCH  17  18
ATOM     18  C   UNL     1      78.622  56.229  10.437  1.00  0.00    -0.000 C 
BRANCH  18  19
ATOM     19  C   UNL     1      78.483  55.555   9.060  1.00  0.00    -0.003 C 
ATOM     20  C   UNL     1      77.740  56.423   8.045  1.00  0.00     0.004 C 
ENDBRANCH  18  19
ENDBRANCH  17  18
ENDBRANCH  16  17
ENDBRANCH  15  16
ENDBRANCH  14  15
ENDBRANCH  13  14
ENDBRANCH  12  13
ENDBRANCH   1  12
TORSDOF 16
ENDMDL
MODEL 5
REMARK VINA RESULT:    -5.171      4.175      8.857
REMARK INTER + INTRA:         -11.248
REMARK INTER:                  -9.920
REMARK INTRA:                  -1.328
REMARK UNBOUND:                -1.240
REMARK SMILES CCCCCCCCCCCCCCCCCC(=O)[O-]
REMARK SMILES IDX 10 1 11 2 12 3 13 4 14 5 15 6 16 7 17 8 18 9 19 10 20 11
REMARK SMILES IDX 9 12 8 13 7 14 6 15 5 16 4 17 3 18 2 19 1 20
REMARK H PARENT
REMARK Flexibility Score: inf
ROOT
ATOM      1  C   UNL     1      79.516  58.832   9.950  1.00  0.00     0.000 C 
ENDROOT
BRANCH   1   2
ATOM      2  C   UNL     1      80.553  59.767  10.596  1.00  0.00     0.000 C 
BRANCH   2   3
ATOM      3  C   UNL     1      81.938  59.111  10.719  1.00  0.00     0.000 C 
BRANCH   3   4
ATOM      4  C   UNL     1      82.976  60.035  11.382  1.00  0.00     0.000 C 
BRANCH   4   5
ATOM      5  C   UNL     1      83.482  61.130  10.430  1.00  0.00     0.000 C 
BRANCH   5   6
ATOM      6  C   UNL     1      84.948  61.511  10.698  1.00  0.00     0.000 C 
BRANCH   6   7
ATOM      7  C   UNL     1      85.619  62.184   9.486  1.00  0.00     0.006 C 
BRANCH   7   8
ATOM      8  C   UNL     1      84.633  62.677   8.415  1.00  0.00     0.053 C 
BRANCH   8   9
ATOM      9  C   UNL     1      85.340  63.229   7.215  1.00  0.00     0.041 C 
ATOM     10  O   UNL     1      85.103  64.402   6.823  1.00  0.00    -0.550 OA
ATOM     11  O   UNL     1      86.235  62.435   6.509  1.00  0.00    -0.550 OA
ENDBRANCH   8   9
ENDBRANCH   7   8
ENDBRANCH   6   7
ENDBRANCH   5   6
ENDBRANCH   4   5
ENDBRANCH   3   4
ENDBRANCH   2   3
ENDBRANCH   1   2
BRANCH   1  12
ATOM     12  C   UNL     1      79.586  57.401  10.510  1.00  0.00     0.000 C 
BRANCH  12  13
ATOM     13  C   UNL     1      78.295  56.605  10.255  1.00  0.00    -0.000 C 
BRANCH  13  14
ATOM     14  C   UNL     1      77.671  56.898   8.878  1.00  0.00    -0.000 C 
BRANCH  14  15
ATOM     15  C   UNL     1      78.117  55.954   7.747  1.00  0.00    -0.000 C 
BRANCH  15  16
ATOM     16  C   UNL     1      78.013  54.468   8.132  1.00  0.00    -0.000 C 
BRANCH  16  17
ATOM     17  C   UNL     1      79.320  53.695   7.884  1.00  0.00    -0.000 C 
BRANCH  17  18
ATOM     18  C   UNL     1      80.586  54.356   8.465  1.00  0.00    -0.000 C 
BRANCH  18  19
ATOM     19  C   UNL     1      81.312  53.534   9.545  1.00  0.00    -0.003 C 
ATOM     20  C   UNL     1      81.048  54.046  10.961  1.00  0.00     0.004 C 
ENDBRANCH  18  19
ENDBRANCH  17  18
ENDBRANCH  16  17
ENDBRANCH  15  16
ENDBRANCH  14  15
ENDBRANCH  13  14
ENDBRANCH  12  13
ENDBRANCH   1  12
TORSDOF 16
ENDMDL
MODEL 6
REMARK VINA RESULT:    -5.124      3.765      7.486
REMARK INTER + INTRA:         -11.158
REMARK INTER:                  -9.528
REMARK INTRA:                  -1.630
REMARK UNBOUND:                -1.240
REMARK SMILES CCCCCCCCCCCCCCCCCC(=O)[O-]
REMARK SMILES IDX 10 1 11 2 12 3 13 4 14 5 15 6 16 7 17 8 18 9 19 10 20 11
REMARK SMILES IDX 9 12 8 13 7 14 6 15 5 16 4 17 3 18 2 19 1 20
REMARK H PARENT
REMARK Flexibility Score: inf
ROOT
ATOM      1  C   UNL     1      77.818  54.556   7.744  1.00  0.00     0.000 C 
ENDROOT
BRANCH   1   2
ATOM      2  C   UNL     1      78.051  56.077   7.746  1.00  0.00     0.000 C 
BRANCH   2   3
ATOM      3  C   UNL     1      77.618  56.736   9.066  1.00  0.00     0.000 C 
BRANCH   3   4
ATOM      4  C   UNL     1      78.406  56.210  10.279  1.00  0.00     0.000 C 
BRANCH   4   5
ATOM      5  C   UNL     1      79.448  57.218  10.787  1.00  0.00     0.000 C 
BRANCH   5   6
ATOM      6  C   UNL     1      79.367  58.569  10.055  1.00  0.00     0.000 C 
BRANCH   6   7
ATOM      7  C   UNL     1      80.471  59.549  10.490  1.00  0.00     0.006 C 
BRANCH   7   8
ATOM      8  C   UNL     1      81.822  58.881  10.793  1.00  0.00     0.053 C 
BRANCH   8   9
ATOM      9  C   UNL     1      82.883  59.886  11.122  1.00  0.00     0.041 C 
ATOM     10  O   UNL     1      83.395  60.589  10.211  1.00  0.00    -0.550 OA
ATOM     11  O   UNL     1      83.329  60.023  12.430  1.00  0.00    -0.550 OA
ENDBRANCH   8   9
ENDBRANCH   7   8
ENDBRANCH   6   7
ENDBRANCH   5   6
ENDBRANCH   4   5
ENDBRANCH   3   4
ENDBRANCH   2   3
ENDBRANCH   1   2
BRANCH   1  12
ATOM     12  C   UNL     1      79.119  53.762   7.949  1.00  0.00     0.000 C 
BRANCH  12  13
ATOM     13  C   UNL     1      80.375  54.634   7.773  1.00  0.00    -0.000 C 
BRANCH  13  14
ATOM     14  C   UNL     1      81.641  53.988   8.367  1.00  0.00    -0.000 C 
BRANCH  14  15
ATOM     15  C   UNL     1      82.378  54.844   9.413  1.00  0.00    -0.000 C 
BRANCH  15  16
ATOM     16  C   UNL     1      82.304  54.253  10.831  1.00  0.00    -0.000 C 
BRANCH  16  17
ATOM     17  C   UNL     1      81.299  53.093  10.940  1.00  0.00    -0.000 C 
BRANCH  17  18
ATOM     18  C   UNL     1      81.932  51.703  11.161  1.00  0.00    -0.000 C 
BRANCH  18  19
ATOM     19  C   UNL     1      82.003  51.246  12.628  1.00  0.00    -0.003 C 
ATOM     20  C   UNL     1      83.431  50.967  13.096  1.00  0.00     0.004 C 
ENDBRANCH  18  19
ENDBRANCH  17  18
ENDBRANCH  16  17
ENDBRANCH  15  16
ENDBRANCH  14  15
ENDBRANCH  13  14
ENDBRANCH  12  13
ENDBRANCH   1  12
TORSDOF 16
ENDMDL
MODEL 7
REMARK VINA RESULT:    -5.114      1.614      3.441
REMARK INTER + INTRA:         -11.138
REMARK INTER:                  -9.732
REMARK INTRA:                  -1.406
REMARK UNBOUND:                -1.240
REMARK SMILES CCCCCCCCCCCCCCCCCC(=O)[O-]
REMARK SMILES IDX 10 1 11 2 12 3 13 4 14 5 15 6 16 7 17 8 18 9 19 10 20 11
REMARK SMILES IDX 9 12 8 13 7 14 6 15 5 16 4 17 3 18 2 19 1 20
REMARK H PARENT
REMARK Flexibility Score: inf
ROOT
ATOM      1  C   UNL     1      79.569  57.458  10.690  1.00  0.00     0.000 C 
ENDROOT
BRANCH   1   2
ATOM      2  C   UNL     1      78.441  56.466  10.354  1.00  0.00     0.000 C 
BRANCH   2   3
ATOM      3  C   UNL     1      77.666  56.865   9.088  1.00  0.00     0.000 C 
BRANCH   3   4
ATOM      4  C   UNL     1      77.868  55.871   7.930  1.00  0.00     0.000 C 
BRANCH   4   5
ATOM      5  C   UNL     1      78.242  54.464   8.420  1.00  0.00     0.000 C 
BRANCH   5   6
ATOM      6  C   UNL     1      79.482  53.900   7.705  1.00  0.00     0.000 C 
BRANCH   6   7
ATOM      7  C   UNL     1      80.482  53.247   8.675  1.00  0.00     0.006 C 
BRANCH   7   8
ATOM      8  C   UNL     1      81.814  54.003   8.811  1.00  0.00     0.053 C 
BRANCH   8   9
ATOM      9  C   UNL     1      81.913  54.733  10.115  1.00  0.00     0.041 C 
ATOM     10  O   UNL     1      81.273  54.326  11.120  1.00  0.00    -0.550 OA
ATOM     11  O   UNL     1      82.686  55.883  10.210  1.00  0.00    -0.550 OA
ENDBRANCH   8   9
ENDBRANCH   7   8
ENDBRANCH   6   7
ENDBRANCH   5   6
ENDBRANCH   4   5
ENDBRANCH   3   4
ENDBRANCH   2   3
ENDBRANCH   1   2
BRANCH   1  12
ATOM     12  C   UNL     1      79.384  58.815   9.991  1.00  0.00     0.000 C 
BRANCH  12  13
ATOM     13  C   UNL     1      80.380  59.876  10.492  1.00  0.00    -0.000 C 
BRANCH  13  14
ATOM     14  C   UNL     1      81.837  59.377  10.492  1.00  0.00    -0.000 C 
BRANCH  14  15
ATOM     15  C   UNL     1      82.675  59.817  11.706  1.00  0.00    -0.000 C 
BRANCH  15  16
ATOM     16  C   UNL     1      83.974  60.538  11.307  1.00  0.00    -0.000 C 
BRANCH  16  17
ATOM     17  C   UNL     1      85.228  59.676  11.538  1.00  0.00    -0.000 C 
BRANCH  17  18
ATOM     18  C   UNL     1      85.735  59.643  12.994  1.00  0.00    -0.000 C 
BRANCH  18  19
ATOM     19  C   UNL     1      85.285  60.827  13.868  1.00  0.00    -0.003 C 
ATOM     20  C   UNL     1      84.388  60.402  15.030  1.00  0.00     0.004 C 
ENDBRANCH  18  19
ENDBRANCH  17  18
ENDBRANCH  16  17
ENDBRANCH  15  16
ENDBRANCH  14  15
ENDBRANCH  13  14
ENDBRANCH  12  13
ENDBRANCH   1  12
TORSDOF 16
ENDMDL
MODEL 8
REMARK VINA RESULT:    -5.065      2.444      4.365
REMARK INTER + INTRA:         -11.042
REMARK INTER:                  -9.823
REMARK INTRA:                  -1.219
REMARK UNBOUND:                -1.240
REMARK SMILES CCCCCCCCCCCCCCCCCC(=O)[O-]
REMARK SMILES IDX 10 1 11 2 12 3 13 4 14 5 15 6 16 7 17 8 18 9 19 10 20 11
REMARK SMILES IDX 9 12 8 13 7 14 6 15 5 16 4 17 3 18 2 19 1 20
REMARK H PARENT
REMARK Flexibility Score: inf
ROOT
ATOM      1  C   UNL     1      82.092  58.990  10.716  1.00  0.00     0.000 C 
ENDROOT
BRANCH   1   2
ATOM      2  C   UNL     1      80.775  59.765  10.535  1.00  0.00     0.000 C 
BRANCH   2   3
ATOM      3  C   UNL     1      79.579  58.836  10.271  1.00  0.00     0.000 C 
BRANCH   3   4
ATOM      4  C   UNL     1      79.887  57.363  10.593  1.00  0.00     0.000 C 
BRANCH   4   5
ATOM      5  C   UNL     1      78.659  56.454  10.427  1.00  0.00     0.000 C 
BRANCH   5   6
ATOM      6  C   UNL     1      77.754  56.894   9.264  1.00  0.00     0.000 C 
BRANCH   6   7
ATOM      7  C   UNL     1      78.124  56.215   7.933  1.00  0.00     0.006 C 
BRANCH   7   8
ATOM      8  C   UNL     1      77.835  54.706   7.893  1.00  0.00     0.053 C 
BRANCH   8   9
ATOM      9  C   UNL     1      79.088  53.899   7.744  1.00  0.00     0.041 C 
ATOM     10  O   UNL     1      79.028  52.698   7.371  1.00  0.00    -0.550 OA
ATOM     11  O   UNL     1      80.319  54.465   8.050  1.00  0.00    -0.550 OA
ENDBRANCH   8   9
ENDBRANCH   7   8
ENDBRANCH   6   7
ENDBRANCH   5   6
ENDBRANCH   4   5
ENDBRANCH   3   4
ENDBRANCH   2   3
ENDBRANCH   1   2
BRANCH   1  12
ATOM     12  C   UNL     1      83.285  59.694  10.048  1.00  0.00     0.000 C 
BRANCH  12  13
ATOM     13  C   UNL     1      83.551  61.090  10.639  1.00  0.00    -0.000 C 
BRANCH  13  14
ATOM     14  C   UNL     1      83.085  62.231   9.715  1.00  0.00    -0.000 C 
BRANCH  14  15
ATOM     15  C   UNL     1      84.161  62.770   8.754  1.00  0.00    -0.000 C 
BRANCH  15  16
ATOM     16  C   UNL     1      85.591  62.443   9.215  1.00  0.00    -0.000 C 
BRANCH  16  17
ATOM     17  C   UNL     1      86.415  61.720   8.134  1.00  0.00    -0.000 C 
BRANCH  17  18
ATOM     18  C   UNL     1      85.665  60.597   7.388  1.00  0.00    -0.000 C 
BRANCH  18  19
ATOM     19  C   UNL     1      85.644  60.734   5.856  1.00  0.00    -0.003 C 
ATOM     20  C   UNL     1      85.988  59.430   5.137  1.00  0.00     0.004 C 
ENDBRANCH  18  19
ENDBRANCH  17  18
ENDBRANCH  16  17
ENDBRANCH  15  16
ENDBRANCH  14  15
ENDBRANCH  13  14
ENDBRANCH  12  13
ENDBRANCH   1  12
TORSDOF 16
ENDMDL
MODEL 9
REMARK VINA RESULT:    -5.011      6.449      9.271
REMARK INTER + INTRA:         -10.937
REMARK INTER:                  -8.376
REMARK INTRA:                  -2.561
REMARK UNBOUND:                -1.240
REMARK SMILES CCCCCCCCCCCCCCCCCC(=O)[O-]
REMARK SMILES IDX 10 1 11 2 12 3 13 4 14 5 15 6 16 7 17 8 18 9 19 10 20 11
REMARK SMILES IDX 9 12 8 13 7 14 6 15 5 16 4 17 3 18 2 19 1 20
REMARK H PARENT
REMARK Flexibility Score: inf
ROOT
ATOM      1  C   UNL     1      88.669  62.204   7.670  1.00  0.00     0.000 C 
ENDROOT
BRANCH   1   2
ATOM      2  C   UNL     1      88.373  62.977   6.373  1.00  0.00     0.000 C 
BRANCH   2   3
ATOM      3  C   UNL     1      87.924  64.423   6.639  1.00  0.00     0.000 C 
BRANCH   3   4
ATOM      4  C   UNL     1      86.769  64.509   7.652  1.00  0.00     0.000 C 
BRANCH   4   5
ATOM      5  C   UNL     1      85.397  64.266   7.004  1.00  0.00     0.000 C 
BRANCH   5   6
ATOM      6  C   UNL     1      84.717  62.990   7.527  1.00  0.00     0.000 C 
BRANCH   6   7
ATOM      7  C   UNL     1      85.258  62.545   8.898  1.00  0.00     0.006 C 
BRANCH   7   8
ATOM      8  C   UNL     1      84.249  62.685  10.049  1.00  0.00     0.053 C 
BRANCH   8   9
ATOM      9  C   UNL     1      83.809  61.353  10.573  1.00  0.00     0.041 C 
ATOM     10  O   UNL     1      84.628  60.601  11.163  1.00  0.00    -0.550 OA
ATOM     11  O   UNL     1      82.500  60.929  10.380  1.00  0.00    -0.550 OA
ENDBRANCH   8   9
ENDBRANCH   7   8
ENDBRANCH   6   7
ENDBRANCH   5   6
ENDBRANCH   4   5
ENDBRANCH   3   4
ENDBRANCH   2   3
ENDBRANCH   1   2
BRANCH   1  12
ATOM     12  C   UNL     1      89.581  60.988   7.435  1.00  0.00     0.000 C 
BRANCH  12  13
ATOM     13  C   UNL     1      90.232  61.001   6.041  1.00  0.00    -0.000 C 
BRANCH  13  14
ATOM     14  C   UNL     1      91.770  61.062   6.098  1.00  0.00    -0.000 C 
BRANCH  14  15
ATOM     15  C   UNL     1      92.344  62.188   6.977  1.00  0.00    -0.000 C 
BRANCH  15  16
ATOM     16  C   UNL     1      91.966  63.591   6.473  1.00  0.00    -0.000 C 
BRANCH  16  17
ATOM     17  C   UNL     1      91.546  64.539   7.610  1.00  0.00    -0.000 C 
BRANCH  17  18
ATOM     18  C   UNL     1      91.754  63.981   9.033  1.00  0.00    -0.000 C 
BRANCH  18  19
ATOM     19  C   UNL     1      90.693  64.408  10.062  1.00  0.00    -0.003 C 
ATOM     20  C   UNL     1      89.823  65.566   9.574  1.00  0.00     0.004 C 
ENDBRANCH  18  19
ENDBRANCH  17  18
ENDBRANCH  16  17
ENDBRANCH  15  16
ENDBRANCH  14  15
ENDBRANCH  13  14
ENDBRANCH  12  13
ENDBRANCH   1  12
TORSDOF 16
ENDMDL
