MODEL 1
REMARK VINA RESULT:    -2.092      0.000      0.000
REMARK INTER + INTRA:          -3.730
REMARK INTER:                  -3.316
REMARK INTRA:                  -0.415
REMARK UNBOUND:                -0.415
REMARK SMILES CCCCCCCCCCCC(=O)[O-]
REMARK SMILES IDX 7 1 8 2 9 3 10 4 11 5 12 6 13 7 14 8 6 9 5 10 4 11 3 12 2 13
REMARK SMILES IDX 1 14
REMARK H PARENT
REMARK Flexibility Score: inf
ROOT
ATOM      1  C   UNL     1      59.125  -4.310  -3.338  1.00  0.00     0.000 C 
ENDROOT
BRANCH   1   2
ATOM      2  C   UNL     1      59.124  -4.086  -4.860  1.00  0.00     0.000 C 
BRANCH   2   3
ATOM      3  C   UNL     1      57.989  -3.158  -5.329  1.00  0.00     0.000 C 
BRANCH   3   4
ATOM      4  C   UNL     1      58.440  -1.923  -6.134  1.00  0.00     0.006 C 
BRANCH   4   5
ATOM      5  C   UNL     1      58.058  -0.574  -5.502  1.00  0.00     0.053 C 
BRANCH   5   6
ATOM      6  C   UNL     1      58.045   0.534  -6.509  1.00  0.00     0.041 C 
ATOM      7  O   UNL     1      59.124   0.946  -7.010  1.00  0.00    -0.550 OA
ATOM      8  O   UNL     1      56.846   1.135  -6.868  1.00  0.00    -0.550 OA
ENDBRANCH   5   6
ENDBRANCH   4   5
ENDBRANCH   3   4
ENDBRANCH   2   3
ENDBRANCH   1   2
BRANCH   1   9
ATOM      9  C   UNL     1      58.997  -5.795  -2.960  1.00  0.00     0.000 C 
BRANCH   9  10
ATOM     10  C   UNL     1      59.125  -6.034  -1.448  1.00  0.00    -0.000 C 
BRANCH  10  11
ATOM     11  C   UNL     1      58.961  -4.720  -0.668  1.00  0.00    -0.000 C 
BRANCH  11  12
ATOM     12  C   UNL     1      58.316  -4.939   0.717  1.00  0.00    -0.000 C 
BRANCH  12  13
ATOM     13  C   UNL     1      58.235  -6.417   1.130  1.00  0.00    -0.003 C 
ATOM     14  C   UNL     1      58.496  -6.638   2.619  1.00  0.00     0.004 C 
ENDBRANCH  12  13
ENDBRANCH  11  12
ENDBRANCH  10  11
ENDBRANCH   9  10
ENDBRANCH   1   9
TORSDOF 10
ENDMDL
MODEL 2
REMARK VINA RESULT:    -1.322      4.388      7.956
REMARK INTER + INTRA:          -2.509
REMARK INTER:                  -2.139
REMARK INTRA:                  -0.370
REMARK UNBOUND:                -0.415
REMARK SMILES CCCCCCCCCCCC(=O)[O-]
REMARK SMILES IDX 7 1 8 2 9 3 10 4 11 5 12 6 13 7 14 8 6 9 5 10 4 11 3 12 2 13
REMARK SMILES IDX 1 14
REMARK H PARENT
REMARK Flexibility Score: inf
ROOT
ATOM      1  C   UNL     1      57.726  -5.135  -3.858  1.00  0.00     0.000 C 
ENDROOT
BRANCH   1   2
ATOM      2  C   UNL     1      59.116  -5.500  -3.309  1.00  0.00     0.000 C 
BRANCH   2   3
ATOM      3  C   UNL     1      59.048  -6.387  -2.053  1.00  0.00     0.000 C 
BRANCH   3   4
ATOM      4  C   UNL     1      59.123  -5.632  -0.710  1.00  0.00     0.006 C 
BRANCH   4   5
ATOM      5  C   UNL     1      59.123  -6.536   0.533  1.00  0.00     0.053 C 
BRANCH   5   6
ATOM      6  C   UNL     1      57.919  -6.308   1.393  1.00  0.00     0.041 C 
ATOM      7  O   UNL     1      57.958  -6.583   2.621  1.00  0.00    -0.550 OA
ATOM      8  O   UNL     1      56.744  -5.824   0.833  1.00  0.00    -0.550 OA
ENDBRANCH   5   6
ENDBRANCH   4   5
ENDBRANCH   3   4
ENDBRANCH   2   3
ENDBRANCH   1   2
BRANCH   1   9
ATOM      9  C   UNL     1      57.790  -4.537  -5.274  1.00  0.00     0.000 C 
BRANCH   9  10
ATOM     10  C   UNL     1      58.361  -3.111  -5.289  1.00  0.00    -0.000 C 
BRANCH  10  11
ATOM     11  C   UNL     1      58.976  -2.779  -6.658  1.00  0.00    -0.000 C 
BRANCH  11  12
ATOM     12  C   UNL     1      58.647  -1.342  -7.114  1.00  0.00    -0.000 C 
BRANCH  12  13
ATOM     13  C   UNL     1      58.229  -0.412  -5.963  1.00  0.00    -0.003 C 
ATOM     14  C   UNL     1      58.322   1.069  -6.326  1.00  0.00     0.004 C 
ENDBRANCH  12  13
ENDBRANCH  11  12
ENDBRANCH  10  11
ENDBRANCH   9  10
ENDBRANCH   1   9
TORSDOF 10
ENDMDL
MODEL 3
REMARK VINA RESULT:    -0.626      1.260      1.952
REMARK INTER + INTRA:          -1.406
REMARK INTER:                  -1.564
REMARK INTRA:                   0.157
REMARK UNBOUND:                -0.415
REMARK SMILES CCCCCCCCCCCC(=O)[O-]
REMARK SMILES IDX 7 1 8 2 9 3 10 4 11 5 12 6 13 7 14 8 6 9 5 10 4 11 3 12 2 13
REMARK SMILES IDX 1 14
REMARK H PARENT
REMARK Flexibility Score: inf
ROOT
ATOM      1  C   UNL     1      59.068  -5.647  -2.983  1.00  0.00     0.000 C 
ENDROOT
BRANCH   1   2
ATOM      2  C   UNL     1      59.124  -4.304  -3.732  1.00  0.00     0.000 C 
BRANCH   2   3
ATOM      3  C   UNL     1      57.900  -4.071  -4.636  1.00  0.00     0.000 C 
BRANCH   3   4
ATOM      4  C   UNL     1      58.224  -3.743  -6.108  1.00  0.00     0.006 C 
BRANCH   4   5
ATOM      5  C   UNL     1      58.875  -2.368  -6.328  1.00  0.00     0.053 C 
BRANCH   5   6
ATOM      6  C   UNL     1      57.920  -1.245  -6.065  1.00  0.00     0.041 C 
ATOM      7  O   UNL     1      57.000  -1.382  -5.217  1.00  0.00    -0.550 OA
ATOM      8  O   UNL     1      58.024  -0.060  -6.782  1.00  0.00    -0.550 OA
ENDBRANCH   5   6
ENDBRANCH   4   5
ENDBRANCH   3   4
ENDBRANCH   2   3
ENDBRANCH   1   2
BRANCH   1   9
ATOM      9  C   UNL     1      59.119  -5.473  -1.456  1.00  0.00     0.000 C 
BRANCH   9  10
ATOM     10  C   UNL     1      58.497  -6.659  -0.704  1.00  0.00    -0.000 C 
BRANCH  10  11
ATOM     11  C   UNL     1      59.124  -6.815   0.691  1.00  0.00    -0.000 C 
BRANCH  11  12
ATOM     12  C   UNL     1      58.140  -6.440   1.819  1.00  0.00    -0.000 C 
BRANCH  12  13
ATOM     13  C   UNL     1      58.451  -7.125   3.160  1.00  0.00    -0.003 C 
ATOM     14  C   UNL     1      58.065  -6.277   4.370  1.00  0.00     0.004 C 
ENDBRANCH  12  13
ENDBRANCH  11  12
ENDBRANCH  10  11
ENDBRANCH   9  10
ENDBRANCH   1   9
TORSDOF 10
ENDMDL
MODEL 4
REMARK VINA RESULT:     0.043      4.858      8.287
REMARK INTER + INTRA:          -0.347
REMARK INTER:                   0.097
REMARK INTRA:                  -0.444
REMARK UNBOUND:                -0.415
REMARK SMILES CCCCCCCCCCCC(=O)[O-]
REMARK SMILES IDX 7 1 8 2 9 3 10 4 11 5 12 6 13 7 14 8 6 9 5 10 4 11 3 12 2 13
REMARK SMILES IDX 1 14
REMARK H PARENT
REMARK Flexibility Score: inf
ROOT
ATOM      1  C   UNL     1      59.063  -5.680  -2.250  1.00  0.00     0.000 C 
ENDROOT
BRANCH   1   2
ATOM      2  C   UNL     1      58.753  -4.602  -1.197  1.00  0.00     0.000 C 
BRANCH   2   3
ATOM      3  C   UNL     1      59.125  -5.036   0.232  1.00  0.00     0.000 C 
BRANCH   3   4
ATOM      4  C   UNL     1      59.019  -6.550   0.508  1.00  0.00     0.006 C 
BRANCH   4   5
ATOM      5  C   UNL     1      57.837  -6.955   1.403  1.00  0.00     0.053 C 
BRANCH   5   6
ATOM      6  C   UNL     1      57.994  -6.449   2.803  1.00  0.00     0.041 C 
ATOM      7  O   UNL     1      57.283  -5.495   3.214  1.00  0.00    -0.550 OA
ATOM      8  O   UNL     1      58.948  -7.009   3.644  1.00  0.00    -0.550 OA
ENDBRANCH   5   6
ENDBRANCH   4   5
ENDBRANCH   3   4
ENDBRANCH   2   3
ENDBRANCH   1   2
BRANCH   1   9
ATOM      9  C   UNL     1      59.123  -5.111  -3.677  1.00  0.00     0.000 C 
BRANCH   9  10
ATOM     10  C   UNL     1      58.996  -3.581  -3.710  1.00  0.00    -0.000 C 
BRANCH  10  11
ATOM     11  C   UNL     1      58.577  -3.094  -5.107  1.00  0.00    -0.000 C 
BRANCH  11  12
ATOM     12  C   UNL     1      57.645  -1.866  -5.043  1.00  0.00    -0.000 C 
BRANCH  12  13
ATOM     13  C   UNL     1      58.304  -0.567  -5.532  1.00  0.00    -0.003 C 
ATOM     14  C   UNL     1      57.475   0.167  -6.585  1.00  0.00     0.004 C 
ENDBRANCH  12  13
ENDBRANCH  11  12
ENDBRANCH  10  11
ENDBRANCH   9  10
ENDBRANCH   1   9
TORSDOF 10
ENDMDL
