MODEL 1
REMARK VINA RESULT:    -5.400      0.000      0.000
REMARK INTER + INTRA:          -9.132
REMARK INTER:                  -7.452
REMARK INTRA:                  -1.680
REMARK UNBOUND:                -1.680
REMARK SMILES CC[C@@H](CC[C@@H](C)[C@@H]1CC[C@@H]2[C@@H]3CC=C4C[C@H](O)CC[C@@]4(C)[C@H]3CC[C@@]21C)C(C)C
REMARK SMILES IDX 5 1 4 2 3 3 2 4 1 5 28 6 29 7 30 8 6 9 7 10 8 11 9 12 26 13
REMARK SMILES IDX 10 14 11 15 25 16 27 17 12 18 24 19 23 20 13 21 21 22 14 23
REMARK SMILES IDX 15 24 20 25 22 26 16 27 19 28 17 29 18 30
REMARK H PARENT 18 31
REMARK Flexibility Score: inf
ROOT
ATOM      1  C   UNL     1      -7.559   3.175 -27.694  1.00  0.00     0.004 C 
ENDROOT
BRANCH   1   2
ATOM      2  C   UNL     1      -6.807   4.503 -27.905  1.00  0.00     0.004 C 
BRANCH   2   3
ATOM      3  C   UNL     1      -5.980   4.946 -26.668  1.00  0.00    -0.009 C 
BRANCH   3   4
ATOM      4  C   UNL     1      -5.008   6.128 -26.946  1.00  0.00     0.000 C 
ATOM      5  C   UNL     1      -5.599   7.529 -26.805  1.00  0.00     0.004 C 
ENDBRANCH   3   4
BRANCH   3   6
ATOM      6  C   UNL     1      -5.298   3.748 -25.915  1.00  0.00    -0.014 C 
ATOM      7  C   UNL     1      -3.788   3.995 -25.735  1.00  0.00     0.007 C 
ATOM      8  C   UNL     1      -5.922   3.412 -24.545  1.00  0.00     0.007 C 
ENDBRANCH   3   6
ENDBRANCH   2   3
ENDBRANCH   1   2
BRANCH   1   9
ATOM      9  C   UNL     1      -9.035   3.397 -27.258  1.00  0.00    -0.011 C 
ATOM     10  C   UNL     1      -9.921   2.239 -27.747  1.00  0.00     0.008 C 
BRANCH   9  11
ATOM     11  C   UNL     1      -9.289   3.713 -25.741  1.00  0.00    -0.002 C 
ATOM     12  C   UNL     1      -9.985   2.575 -24.969  1.00  0.00     0.005 C 
ATOM     13  C   UNL     1      -9.989   5.043 -25.295  1.00  0.00    -0.026 C 
ATOM     14  C   UNL     1     -10.874   3.230 -23.919  1.00  0.00     0.005 C 
ATOM     15  C   UNL     1     -10.452   4.701 -23.857  1.00  0.00    -0.001 C 
ATOM     16  C   UNL     1     -11.214   5.395 -26.186  1.00  0.00     0.007 C 
ATOM     17  C   UNL     1      -8.992   6.232 -25.255  1.00  0.00     0.012 C 
ATOM     18  C   UNL     1     -11.505   5.681 -23.244  1.00  0.00     0.000 C 
ATOM     19  C   UNL     1     -12.116   6.460 -25.566  1.00  0.00     0.005 C 
ATOM     20  C   UNL     1     -12.673   6.011 -24.198  1.00  0.00     0.003 C 
ATOM     21  C   UNL     1     -12.065   5.136 -21.928  1.00  0.00     0.031 C 
ATOM     22  C   UNL     1     -13.702   7.048 -23.565  1.00  0.00    -0.008 C 
ATOM     23  C   UNL     1     -13.025   6.103 -21.308  1.00  0.00    -0.027 C 
ATOM     24  C   UNL     1     -13.819   6.914 -22.038  1.00  0.00    -0.065 C 
ATOM     25  C   UNL     1     -13.288   8.531 -23.856  1.00  0.00     0.014 C 
ATOM     26  C   UNL     1     -15.092   6.761 -24.189  1.00  0.00     0.016 C 
ATOM     27  C   UNL     1     -14.686   7.920 -21.311  1.00  0.00     0.063 C 
ATOM     28  C   UNL     1     -14.103   9.597 -23.092  1.00  0.00     0.033 C 
ATOM     29  C   UNL     1     -14.152   9.327 -21.581  1.00  0.00     0.118 C 
BRANCH  29  30
ATOM     30  O   UNL     1     -14.985  10.265 -20.954  1.00  0.00    -0.393 OA
ATOM     31  H   UNL     1     -14.667  11.161 -21.231  1.00  0.00     0.210 HD
ENDBRANCH  29  30
ENDBRANCH   9  11
ENDBRANCH   1   9
TORSDOF 7
ENDMDL
MODEL 2
REMARK VINA RESULT:    -5.308     11.284     12.995
REMARK INTER + INTRA:          -9.005
REMARK INTER:                  -6.959
REMARK INTRA:                  -2.046
REMARK UNBOUND:                -1.680
REMARK SMILES CC[C@@H](CC[C@@H](C)[C@@H]1CC[C@@H]2[C@@H]3CC=C4C[C@H](O)CC[C@@]4(C)[C@H]3CC[C@@]21C)C(C)C
REMARK SMILES IDX 5 1 4 2 3 3 2 4 1 5 28 6 29 7 30 8 6 9 7 10 8 11 9 12 26 13
REMARK SMILES IDX 10 14 11 15 25 16 27 17 12 18 24 19 23 20 13 21 21 22 14 23
REMARK SMILES IDX 15 24 20 25 22 26 16 27 19 28 17 29 18 30
REMARK H PARENT 18 31
REMARK Flexibility Score: inf
ROOT
ATOM      1  C   UNL     1      -9.436   6.884 -37.666  1.00  0.00     0.004 C 
ENDROOT
BRANCH   1   2
ATOM      2  C   UNL     1      -9.722   7.838 -38.843  1.00  0.00     0.004 C 
BRANCH   2   3
ATOM      3  C   UNL     1     -11.177   7.740 -39.375  1.00  0.00    -0.009 C 
BRANCH   3   4
ATOM      4  C   UNL     1     -11.288   7.168 -40.818  1.00  0.00     0.000 C 
ATOM      5  C   UNL     1     -12.151   5.919 -40.978  1.00  0.00     0.004 C 
ENDBRANCH   3   4
BRANCH   3   6
ATOM      6  C   UNL     1     -12.005   9.059 -39.167  1.00  0.00    -0.014 C 
ATOM      7  C   UNL     1     -11.848   9.591 -37.730  1.00  0.00     0.007 C 
ATOM      8  C   UNL     1     -11.673  10.188 -40.164  1.00  0.00     0.007 C 
ENDBRANCH   3   6
ENDBRANCH   2   3
ENDBRANCH   1   2
BRANCH   1   9
ATOM      9  C   UNL     1     -10.202   5.538 -37.799  1.00  0.00    -0.011 C 
ATOM     10  C   UNL     1      -9.284   4.451 -38.382  1.00  0.00     0.008 C 
BRANCH   9  11
ATOM     11  C   UNL     1     -10.963   5.024 -36.525  1.00  0.00    -0.002 C 
ATOM     12  C   UNL     1     -11.086   3.490 -36.443  1.00  0.00     0.005 C 
ATOM     13  C   UNL     1     -12.366   5.602 -36.128  1.00  0.00    -0.026 C 
ATOM     14  C   UNL     1     -12.420   3.187 -35.771  1.00  0.00     0.005 C 
ATOM     15  C   UNL     1     -12.910   4.510 -35.175  1.00  0.00    -0.001 C 
ATOM     16  C   UNL     1     -13.307   5.766 -37.355  1.00  0.00     0.007 C 
ATOM     17  C   UNL     1     -12.237   6.948 -35.364  1.00  0.00     0.012 C 
ATOM     18  C   UNL     1     -14.442   4.590 -34.875  1.00  0.00     0.000 C 
ATOM     19  C   UNL     1     -14.768   5.974 -36.961  1.00  0.00     0.005 C 
ATOM     20  C   UNL     1     -15.311   4.787 -36.135  1.00  0.00     0.003 C 
ATOM     21  C   UNL     1     -14.922   3.348 -34.119  1.00  0.00     0.031 C 
ATOM     22  C   UNL     1     -16.861   4.914 -35.795  1.00  0.00    -0.008 C 
ATOM     23  C   UNL     1     -16.375   3.453 -33.776  1.00  0.00    -0.027 C 
ATOM     24  C   UNL     1     -17.268   4.092 -34.560  1.00  0.00    -0.065 C 
ATOM     25  C   UNL     1     -17.274   6.397 -35.503  1.00  0.00     0.014 C 
ATOM     26  C   UNL     1     -17.650   4.381 -37.019  1.00  0.00     0.016 C 
ATOM     27  C   UNL     1     -18.695   4.219 -34.074  1.00  0.00     0.063 C 
ATOM     28  C   UNL     1     -18.703   6.578 -34.947  1.00  0.00     0.033 C 
ATOM     29  C   UNL     1     -18.976   5.682 -33.729  1.00  0.00     0.118 C 
BRANCH  29  30
ATOM     30  O   UNL     1     -20.315   5.813 -33.330  1.00  0.00    -0.393 OA
ATOM     31  H   UNL     1     -20.398   6.698 -32.893  1.00  0.00     0.210 HD
ENDBRANCH  29  30
ENDBRANCH   9  11
ENDBRANCH   1   9
TORSDOF 7
ENDMDL
MODEL 3
REMARK VINA RESULT:    -5.218     13.304     16.383
REMARK INTER + INTRA:          -8.881
REMARK INTER:                  -6.963
REMARK INTRA:                  -1.918
REMARK UNBOUND:                -1.680
REMARK SMILES CC[C@@H](CC[C@@H](C)[C@@H]1CC[C@@H]2[C@@H]3CC=C4C[C@H](O)CC[C@@]4(C)[C@H]3CC[C@@]21C)C(C)C
REMARK SMILES IDX 5 1 4 2 3 3 2 4 1 5 28 6 29 7 30 8 6 9 7 10 8 11 9 12 26 13
REMARK SMILES IDX 10 14 11 15 25 16 27 17 12 18 24 19 23 20 13 21 21 22 14 23
REMARK SMILES IDX 15 24 20 25 22 26 16 27 19 28 17 29 18 30
REMARK H PARENT 18 31
REMARK Flexibility Score: inf
ROOT
ATOM      1  C   UNL     1     -12.626   7.214 -37.058  1.00  0.00     0.004 C 
ENDROOT
BRANCH   1   2
ATOM      2  C   UNL     1     -11.123   7.346 -37.373  1.00  0.00     0.004 C 
BRANCH   2   3
ATOM      3  C   UNL     1     -10.804   8.463 -38.402  1.00  0.00    -0.009 C 
BRANCH   3   4
ATOM      4  C   UNL     1     -12.059   9.224 -38.920  1.00  0.00     0.000 C 
ATOM      5  C   UNL     1     -12.575   8.805 -40.295  1.00  0.00     0.004 C 
ENDBRANCH   3   4
BRANCH   3   6
ATOM      6  C   UNL     1      -9.847   7.992 -39.555  1.00  0.00    -0.014 C 
ATOM      7  C   UNL     1      -8.904   9.129 -39.991  1.00  0.00     0.007 C 
ATOM      8  C   UNL     1      -9.010   6.740 -39.224  1.00  0.00     0.007 C 
ENDBRANCH   3   6
ENDBRANCH   2   3
ENDBRANCH   1   2
BRANCH   1   9
ATOM      9  C   UNL     1     -13.226   5.885 -37.596  1.00  0.00    -0.011 C 
ATOM     10  C   UNL     1     -14.461   6.166 -38.468  1.00  0.00     0.008 C 
BRANCH   9  11
ATOM     11  C   UNL     1     -12.236   4.892 -38.304  1.00  0.00    -0.002 C 
ATOM     12  C   UNL     1     -12.201   5.028 -39.839  1.00  0.00     0.005 C 
ATOM     13  C   UNL     1     -12.268   3.355 -37.996  1.00  0.00    -0.026 C 
ATOM     14  C   UNL     1     -11.954   3.634 -40.402  1.00  0.00     0.005 C 
ATOM     15  C   UNL     1     -11.524   2.763 -39.218  1.00  0.00    -0.001 C 
ATOM     16  C   UNL     1     -13.718   2.796 -37.925  1.00  0.00     0.007 C 
ATOM     17  C   UNL     1     -11.494   3.014 -36.695  1.00  0.00     0.012 C 
ATOM     18  C   UNL     1     -11.689   1.221 -39.418  1.00  0.00     0.000 C 
ATOM     19  C   UNL     1     -13.772   1.272 -37.992  1.00  0.00     0.005 C 
ATOM     20  C   UNL     1     -13.149   0.734 -39.299  1.00  0.00     0.003 C 
ATOM     21  C   UNL     1     -11.114   0.774 -40.764  1.00  0.00     0.031 C 
ATOM     22  C   UNL     1     -13.281  -0.844 -39.458  1.00  0.00    -0.008 C 
ATOM     23  C   UNL     1     -11.215  -0.710 -40.927  1.00  0.00    -0.027 C 
ATOM     24  C   UNL     1     -12.225  -1.437 -40.406  1.00  0.00    -0.065 C 
ATOM     25  C   UNL     1     -13.117  -1.583 -38.085  1.00  0.00     0.014 C 
ATOM     26  C   UNL     1     -14.686  -1.136 -40.046  1.00  0.00     0.016 C 
ATOM     27  C   UNL     1     -12.182  -2.943 -40.551  1.00  0.00     0.063 C 
ATOM     28  C   UNL     1     -13.007  -3.120 -38.182  1.00  0.00     0.033 C 
ATOM     29  C   UNL     1     -11.928  -3.570 -39.180  1.00  0.00     0.118 C 
BRANCH  29  30
ATOM     30  O   UNL     1     -11.942  -4.967 -39.301  1.00  0.00    -0.393 OA
ATOM     31  H   UNL     1     -12.737  -5.199 -39.846  1.00  0.00     0.210 HD
ENDBRANCH  29  30
ENDBRANCH   9  11
ENDBRANCH   1   9
TORSDOF 7
ENDMDL
MODEL 4
REMARK VINA RESULT:    -5.197     12.244     15.469
REMARK INTER + INTRA:          -8.851
REMARK INTER:                  -7.441
REMARK INTRA:                  -1.410
REMARK UNBOUND:                -1.680
REMARK SMILES CC[C@@H](CC[C@@H](C)[C@@H]1CC[C@@H]2[C@@H]3CC=C4C[C@H](O)CC[C@@]4(C)[C@H]3CC[C@@]21C)C(C)C
REMARK SMILES IDX 5 1 4 2 3 3 2 4 1 5 28 6 29 7 30 8 6 9 7 10 8 11 9 12 26 13
REMARK SMILES IDX 10 14 11 15 25 16 27 17 12 18 24 19 23 20 13 21 21 22 14 23
REMARK SMILES IDX 15 24 20 25 22 26 16 27 19 28 17 29 18 30
REMARK H PARENT 18 31
REMARK Flexibility Score: inf
ROOT
ATOM      1  C   UNL     1     -17.203   4.349 -34.007  1.00  0.00     0.004 C 
ENDROOT
BRANCH   1   2
ATOM      2  C   UNL     1     -18.520   4.049 -34.750  1.00  0.00     0.004 C 
BRANCH   2   3
ATOM      3  C   UNL     1     -19.293   5.327 -35.174  1.00  0.00    -0.009 C 
BRANCH   3   4
ATOM      4  C   UNL     1     -19.041   6.555 -34.252  1.00  0.00     0.000 C 
ATOM      5  C   UNL     1     -19.702   7.862 -34.682  1.00  0.00     0.004 C 
ENDBRANCH   3   4
BRANCH   3   6
ATOM      6  C   UNL     1     -20.816   5.068 -35.456  1.00  0.00    -0.014 C 
ATOM      7  C   UNL     1     -21.002   4.070 -36.615  1.00  0.00     0.007 C 
ATOM      8  C   UNL     1     -21.622   4.581 -34.235  1.00  0.00     0.007 C 
ENDBRANCH   3   6
ENDBRANCH   2   3
ENDBRANCH   1   2
BRANCH   1   9
ATOM      9  C   UNL     1     -15.971   3.718 -34.716  1.00  0.00    -0.011 C 
ATOM     10  C   UNL     1     -15.949   2.196 -34.504  1.00  0.00     0.008 C 
BRANCH   9  11
ATOM     11  C   UNL     1     -15.750   4.092 -36.225  1.00  0.00    -0.002 C 
ATOM     12  C   UNL     1     -15.047   2.993 -37.048  1.00  0.00     0.005 C 
ATOM     13  C   UNL     1     -15.082   5.449 -36.637  1.00  0.00    -0.026 C 
ATOM     14  C   UNL     1     -14.190   3.701 -38.090  1.00  0.00     0.005 C 
ATOM     15  C   UNL     1     -14.639   5.165 -38.093  1.00  0.00    -0.001 C 
ATOM     16  C   UNL     1     -13.848   5.793 -35.755  1.00  0.00     0.007 C 
ATOM     17  C   UNL     1     -16.101   6.620 -36.618  1.00  0.00     0.012 C 
ATOM     18  C   UNL     1     -13.615   6.184 -38.691  1.00  0.00     0.000 C 
ATOM     19  C   UNL     1     -12.977   6.895 -36.353  1.00  0.00     0.005 C 
ATOM     20  C   UNL     1     -12.436   6.504 -37.746  1.00  0.00     0.003 C 
ATOM     21  C   UNL     1     -13.068   5.695 -40.034  1.00  0.00     0.031 C 
ATOM     22  C   UNL     1     -11.437   7.581 -38.359  1.00  0.00    -0.008 C 
ATOM     23  C   UNL     1     -12.137   6.700 -40.636  1.00  0.00    -0.027 C 
ATOM     24  C   UNL     1     -11.346   7.501 -39.893  1.00  0.00    -0.065 C 
ATOM     25  C   UNL     1     -11.873   9.045 -38.011  1.00  0.00     0.014 C 
ATOM     26  C   UNL     1     -10.031   7.298 -37.770  1.00  0.00     0.016 C 
ATOM     27  C   UNL     1     -10.509   8.547 -40.599  1.00  0.00     0.063 C 
ATOM     28  C   UNL     1     -11.091  10.151 -38.751  1.00  0.00     0.033 C 
ATOM     29  C   UNL     1     -11.064   9.934 -40.272  1.00  0.00     0.118 C 
BRANCH  29  30
ATOM     30  O   UNL     1     -10.259  10.908 -40.880  1.00  0.00    -0.393 OA
ATOM     31  H   UNL     1     -10.487  11.774 -40.456  1.00  0.00     0.210 HD
ENDBRANCH  29  30
ENDBRANCH   9  11
ENDBRANCH   1   9
TORSDOF 7
ENDMDL
MODEL 5
REMARK VINA RESULT:    -5.168     12.315     15.600
REMARK INTER + INTRA:          -8.811
REMARK INTER:                  -6.920
REMARK INTRA:                  -1.892
REMARK UNBOUND:                -1.680
REMARK SMILES CC[C@@H](CC[C@@H](C)[C@@H]1CC[C@@H]2[C@@H]3CC=C4C[C@H](O)CC[C@@]4(C)[C@H]3CC[C@@]21C)C(C)C
REMARK SMILES IDX 5 1 4 2 3 3 2 4 1 5 28 6 29 7 30 8 6 9 7 10 8 11 9 12 26 13
REMARK SMILES IDX 10 14 11 15 25 16 27 17 12 18 24 19 23 20 13 21 21 22 14 23
REMARK SMILES IDX 15 24 20 25 22 26 16 27 19 28 17 29 18 30
REMARK H PARENT 18 31
REMARK Flexibility Score: inf
ROOT
ATOM      1  C   UNL     1     -17.387   3.862 -34.190  1.00  0.00     0.004 C 
ENDROOT
BRANCH   1   2
ATOM      2  C   UNL     1     -18.333   4.424 -35.270  1.00  0.00     0.004 C 
BRANCH   2   3
ATOM      3  C   UNL     1     -19.080   3.321 -36.067  1.00  0.00    -0.009 C 
BRANCH   3   4
ATOM      4  C   UNL     1     -18.529   1.885 -35.832  1.00  0.00     0.000 C 
ATOM      5  C   UNL     1     -19.573   0.775 -35.735  1.00  0.00     0.004 C 
ENDBRANCH   3   4
BRANCH   3   6
ATOM      6  C   UNL     1     -19.265   3.671 -37.588  1.00  0.00    -0.014 C 
ATOM      7  C   UNL     1     -18.200   2.969 -38.451  1.00  0.00     0.007 C 
ATOM      8  C   UNL     1     -20.664   3.354 -38.154  1.00  0.00     0.007 C 
ENDBRANCH   3   6
ENDBRANCH   2   3
ENDBRANCH   1   2
BRANCH   1   9
ATOM      9  C   UNL     1     -15.896   3.915 -34.629  1.00  0.00    -0.011 C 
ATOM     10  C   UNL     1     -15.138   2.683 -34.110  1.00  0.00     0.008 C 
BRANCH   9  11
ATOM     11  C   UNL     1     -15.611   4.165 -36.153  1.00  0.00    -0.002 C 
ATOM     12  C   UNL     1     -14.843   3.022 -36.845  1.00  0.00     0.005 C 
ATOM     13  C   UNL     1     -14.957   5.501 -36.649  1.00  0.00    -0.026 C 
ATOM     14  C   UNL     1     -13.953   3.662 -37.903  1.00  0.00     0.005 C 
ATOM     15  C   UNL     1     -14.437   5.107 -38.053  1.00  0.00    -0.001 C 
ATOM     16  C   UNL     1     -13.776   5.954 -35.744  1.00  0.00     0.007 C 
ATOM     17  C   UNL     1     -16.004   6.640 -36.779  1.00  0.00     0.012 C 
ATOM     18  C   UNL     1     -13.411   6.101 -38.688  1.00  0.00     0.000 C 
ATOM     19  C   UNL     1     -12.904   7.025 -36.394  1.00  0.00     0.005 C 
ATOM     20  C   UNL     1     -12.287   6.532 -37.722  1.00  0.00     0.003 C 
ATOM     21  C   UNL     1     -12.788   5.515 -39.958  1.00  0.00     0.031 C 
ATOM     22  C   UNL     1     -11.286   7.581 -38.379  1.00  0.00    -0.008 C 
ATOM     23  C   UNL     1     -11.853   6.491 -40.601  1.00  0.00    -0.027 C 
ATOM     24  C   UNL     1     -11.118   7.374 -39.893  1.00  0.00    -0.065 C 
ATOM     25  C   UNL     1     -11.774   9.057 -38.178  1.00  0.00     0.014 C 
ATOM     26  C   UNL     1      -9.904   7.389 -37.703  1.00  0.00     0.016 C 
ATOM     27  C   UNL     1     -10.274   8.380 -40.648  1.00  0.00     0.063 C 
ATOM     28  C   UNL     1     -10.983  10.118 -38.974  1.00  0.00     0.033 C 
ATOM     29  C   UNL     1     -10.878   9.773 -40.468  1.00  0.00     0.118 C 
BRANCH  29  30
ATOM     30  O   UNL     1     -10.068  10.714 -41.119  1.00  0.00    -0.393 OA
ATOM     31  H   UNL     1      -9.532  10.217 -41.789  1.00  0.00     0.210 HD
ENDBRANCH  29  30
ENDBRANCH   9  11
ENDBRANCH   1   9
TORSDOF 7
ENDMDL
MODEL 6
REMARK VINA RESULT:    -5.132     12.332     16.277
REMARK INTER + INTRA:          -8.762
REMARK INTER:                  -6.773
REMARK INTRA:                  -1.989
REMARK UNBOUND:                -1.680
REMARK SMILES CC[C@@H](CC[C@@H](C)[C@@H]1CC[C@@H]2[C@@H]3CC=C4C[C@H](O)CC[C@@]4(C)[C@H]3CC[C@@]21C)C(C)C
REMARK SMILES IDX 5 1 4 2 3 3 2 4 1 5 28 6 29 7 30 8 6 9 7 10 8 11 9 12 26 13
REMARK SMILES IDX 10 14 11 15 25 16 27 17 12 18 24 19 23 20 13 21 21 22 14 23
REMARK SMILES IDX 15 24 20 25 22 26 16 27 19 28 17 29 18 30
REMARK H PARENT 18 31
REMARK Flexibility Score: inf
ROOT
ATOM      1  C   UNL     1     -11.779   6.714 -37.248  1.00  0.00     0.004 C 
ENDROOT
BRANCH   1   2
ATOM      2  C   UNL     1     -12.492   6.270 -35.955  1.00  0.00     0.004 C 
BRANCH   2   3
ATOM      3  C   UNL     1     -13.724   5.362 -36.212  1.00  0.00    -0.009 C 
BRANCH   3   4
ATOM      4  C   UNL     1     -15.057   6.141 -36.404  1.00  0.00     0.000 C 
ATOM      5  C   UNL     1     -15.840   5.825 -37.676  1.00  0.00     0.004 C 
ENDBRANCH   3   4
BRANCH   3   6
ATOM      6  C   UNL     1     -13.844   4.174 -35.190  1.00  0.00    -0.014 C 
ATOM      7  C   UNL     1     -12.734   4.246 -34.125  1.00  0.00     0.007 C 
ATOM      8  C   UNL     1     -15.213   4.067 -34.488  1.00  0.00     0.007 C 
ENDBRANCH   3   6
ENDBRANCH   2   3
ENDBRANCH   1   2
BRANCH   1   9
ATOM      9  C   UNL     1     -12.350   6.004 -38.508  1.00  0.00    -0.011 C 
ATOM     10  C   UNL     1     -12.775   7.038 -39.563  1.00  0.00     0.008 C 
BRANCH   9  11
ATOM     11  C   UNL     1     -11.474   4.864 -39.141  1.00  0.00    -0.002 C 
ATOM     12  C   UNL     1     -11.530   4.810 -40.681  1.00  0.00     0.005 C 
ATOM     13  C   UNL     1     -11.584   3.382 -38.642  1.00  0.00    -0.026 C 
ATOM     14  C   UNL     1     -11.411   3.344 -41.077  1.00  0.00     0.005 C 
ATOM     15  C   UNL     1     -10.960   2.595 -39.820  1.00  0.00    -0.001 C 
ATOM     16  C   UNL     1     -13.058   2.941 -38.418  1.00  0.00     0.007 C 
ATOM     17  C   UNL     1     -10.750   3.147 -37.354  1.00  0.00     0.012 C 
ATOM     18  C   UNL     1     -11.235   1.056 -39.815  1.00  0.00     0.000 C 
ATOM     19  C   UNL     1     -13.214   1.427 -38.290  1.00  0.00     0.005 C 
ATOM     20  C   UNL     1     -12.713   0.692 -39.553  1.00  0.00     0.003 C 
ATOM     21  C   UNL     1     -10.780   0.408 -41.125  1.00  0.00     0.031 C 
ATOM     22  C   UNL     1     -12.955  -0.880 -39.504  1.00  0.00    -0.008 C 
ATOM     23  C   UNL     1     -10.985  -1.074 -41.094  1.00  0.00    -0.027 C 
ATOM     24  C   UNL     1     -12.003  -1.658 -40.429  1.00  0.00    -0.065 C 
ATOM     25  C   UNL     1     -12.749  -1.457 -38.061  1.00  0.00     0.014 C 
ATOM     26  C   UNL     1     -14.411  -1.140 -39.970  1.00  0.00     0.016 C 
ATOM     27  C   UNL     1     -12.066  -3.169 -40.387  1.00  0.00     0.063 C 
ATOM     28  C   UNL     1     -12.744  -2.999 -37.971  1.00  0.00     0.033 C 
ATOM     29  C   UNL     1     -11.764  -3.641 -38.964  1.00  0.00     0.118 C 
BRANCH  29  30
ATOM     30  O   UNL     1     -11.874  -5.038 -38.908  1.00  0.00    -0.393 OA
ATOM     31  H   UNL     1     -10.965  -5.404 -39.053  1.00  0.00     0.210 HD
ENDBRANCH  29  30
ENDBRANCH   9  11
ENDBRANCH   1   9
TORSDOF 7
ENDMDL
MODEL 7
REMARK VINA RESULT:    -5.118      2.885      8.083
REMARK INTER + INTRA:          -8.743
REMARK INTER:                  -6.651
REMARK INTRA:                  -2.092
REMARK UNBOUND:                -1.680
REMARK SMILES CC[C@@H](CC[C@@H](C)[C@@H]1CC[C@@H]2[C@@H]3CC=C4C[C@H](O)CC[C@@]4(C)[C@H]3CC[C@@]21C)C(C)C
REMARK SMILES IDX 5 1 4 2 3 3 2 4 1 5 28 6 29 7 30 8 6 9 7 10 8 11 9 12 26 13
REMARK SMILES IDX 10 14 11 15 25 16 27 17 12 18 24 19 23 20 13 21 21 22 14 23
REMARK SMILES IDX 15 24 20 25 22 26 16 27 19 28 17 29 18 30
REMARK H PARENT 18 31
REMARK Flexibility Score: inf
ROOT
ATOM      1  C   UNL     1     -16.046   6.471 -24.346  1.00  0.00     0.004 C 
ENDROOT
BRANCH   1   2
ATOM      2  C   UNL     1     -15.617   7.689 -23.504  1.00  0.00     0.004 C 
BRANCH   2   3
ATOM      3  C   UNL     1     -14.525   7.358 -22.452  1.00  0.00    -0.009 C 
BRANCH   3   4
ATOM      4  C   UNL     1     -15.074   7.164 -21.009  1.00  0.00     0.000 C 
ATOM      5  C   UNL     1     -16.591   7.041 -20.881  1.00  0.00     0.004 C 
ENDBRANCH   3   4
BRANCH   3   6
ATOM      6  C   UNL     1     -13.285   8.320 -22.518  1.00  0.00    -0.014 C 
ATOM      7  C   UNL     1     -13.282   9.130 -23.828  1.00  0.00     0.007 C 
ATOM      8  C   UNL     1     -13.160   9.288 -21.324  1.00  0.00     0.007 C 
ENDBRANCH   3   6
ENDBRANCH   2   3
ENDBRANCH   1   2
BRANCH   1   9
ATOM      9  C   UNL     1     -15.100   5.255 -24.146  1.00  0.00    -0.011 C 
ATOM     10  C   UNL     1     -15.850   4.092 -23.476  1.00  0.00     0.008 C 
BRANCH   9  11
ATOM     11  C   UNL     1     -14.291   4.768 -25.401  1.00  0.00    -0.002 C 
ATOM     12  C   UNL     1     -14.162   3.236 -25.511  1.00  0.00     0.005 C 
ATOM     13  C   UNL     1     -12.876   5.356 -25.734  1.00  0.00    -0.026 C 
ATOM     14  C   UNL     1     -12.804   2.949 -26.140  1.00  0.00     0.005 C 
ATOM     15  C   UNL     1     -12.295   4.285 -26.689  1.00  0.00    -0.001 C 
ATOM     16  C   UNL     1     -11.980   5.495 -24.471  1.00  0.00     0.007 C 
ATOM     17  C   UNL     1     -12.979   6.717 -26.474  1.00  0.00     0.012 C 
ATOM     18  C   UNL     1     -10.753   4.372 -26.932  1.00  0.00     0.000 C 
ATOM     19  C   UNL     1     -10.507   5.712 -24.806  1.00  0.00     0.005 C 
ATOM     20  C   UNL     1      -9.931   4.544 -25.636  1.00  0.00     0.003 C 
ATOM     21  C   UNL     1     -10.244   3.147 -27.695  1.00  0.00     0.031 C 
ATOM     22  C   UNL     1      -8.370   4.679 -25.917  1.00  0.00    -0.008 C 
ATOM     23  C   UNL     1      -8.779   3.261 -27.983  1.00  0.00    -0.027 C 
ATOM     24  C   UNL     1      -7.917   3.884 -27.153  1.00  0.00    -0.065 C 
ATOM     25  C   UNL     1      -7.950   6.169 -26.163  1.00  0.00     0.014 C 
ATOM     26  C   UNL     1      -7.626   4.122 -24.676  1.00  0.00     0.016 C 
ATOM     27  C   UNL     1      -6.473   4.022 -27.584  1.00  0.00     0.063 C 
ATOM     28  C   UNL     1      -6.501   6.362 -26.662  1.00  0.00     0.033 C 
ATOM     29  C   UNL     1      -6.182   5.493 -27.888  1.00  0.00     0.118 C 
BRANCH  29  30
ATOM     30  O   UNL     1      -4.830   5.633 -28.234  1.00  0.00    -0.393 OA
ATOM     31  H   UNL     1      -4.803   5.863 -29.198  1.00  0.00     0.210 HD
ENDBRANCH  29  30
ENDBRANCH   9  11
ENDBRANCH   1   9
TORSDOF 7
ENDMDL
MODEL 8
REMARK VINA RESULT:    -5.083      2.885      8.436
REMARK INTER + INTRA:          -8.695
REMARK INTER:                  -7.186
REMARK INTRA:                  -1.509
REMARK UNBOUND:                -1.680
REMARK SMILES CC[C@@H](CC[C@@H](C)[C@@H]1CC[C@@H]2[C@@H]3CC=C4C[C@H](O)CC[C@@]4(C)[C@H]3CC[C@@]21C)C(C)C
REMARK SMILES IDX 5 1 4 2 3 3 2 4 1 5 28 6 29 7 30 8 6 9 7 10 8 11 9 12 26 13
REMARK SMILES IDX 10 14 11 15 25 16 27 17 12 18 24 19 23 20 13 21 21 22 14 23
REMARK SMILES IDX 15 24 20 25 22 26 16 27 19 28 17 29 18 30
REMARK H PARENT 18 31
REMARK Flexibility Score: inf
ROOT
ATOM      1  C   UNL     1     -15.137   6.290 -21.738  1.00  0.00     0.004 C 
ENDROOT
BRANCH   1   2
ATOM      2  C   UNL     1     -15.239   7.527 -22.652  1.00  0.00     0.004 C 
BRANCH   2   3
ATOM      3  C   UNL     1     -14.849   8.851 -21.941  1.00  0.00    -0.009 C 
BRANCH   3   4
ATOM      4  C   UNL     1     -13.632   8.721 -20.980  1.00  0.00     0.000 C 
ATOM      5  C   UNL     1     -12.255   8.883 -21.619  1.00  0.00     0.004 C 
ENDBRANCH   3   4
BRANCH   3   6
ATOM      6  C   UNL     1     -16.073   9.592 -21.293  1.00  0.00    -0.014 C 
ATOM      7  C   UNL     1     -15.705  11.039 -20.911  1.00  0.00     0.007 C 
ATOM      8  C   UNL     1     -17.348   9.607 -22.160  1.00  0.00     0.007 C 
ENDBRANCH   3   6
ENDBRANCH   2   3
ENDBRANCH   1   2
BRANCH   1   9
ATOM      9  C   UNL     1     -13.807   5.513 -21.945  1.00  0.00    -0.011 C 
ATOM     10  C   UNL     1     -13.708   4.340 -20.956  1.00  0.00     0.008 C 
BRANCH   9  11
ATOM     11  C   UNL     1     -13.468   5.058 -23.410  1.00  0.00    -0.002 C 
ATOM     12  C   UNL     1     -13.500   3.531 -23.618  1.00  0.00     0.005 C 
ATOM     13  C   UNL     1     -12.186   5.579 -24.146  1.00  0.00    -0.026 C 
ATOM     14  C   UNL     1     -12.431   3.203 -24.653  1.00  0.00     0.005 C 
ATOM     15  C   UNL     1     -12.015   4.537 -25.279  1.00  0.00    -0.001 C 
ATOM     16  C   UNL     1     -10.934   5.582 -23.224  1.00  0.00     0.007 C 
ATOM     17  C   UNL     1     -12.407   6.988 -24.759  1.00  0.00     0.012 C 
ATOM     18  C   UNL     1     -10.623   4.545 -25.990  1.00  0.00     0.000 C 
ATOM     19  C   UNL     1      -9.625   5.730 -23.996  1.00  0.00     0.005 C 
ATOM     20  C   UNL     1      -9.429   4.584 -25.012  1.00  0.00     0.003 C 
ATOM     21  C   UNL     1     -10.473   3.342 -26.925  1.00  0.00     0.031 C 
ATOM     22  C   UNL     1      -8.027   4.641 -25.764  1.00  0.00    -0.008 C 
ATOM     23  C   UNL     1      -9.166   3.385 -27.653  1.00  0.00    -0.027 C 
ATOM     24  C   UNL     1      -8.043   3.900 -27.111  1.00  0.00    -0.065 C 
ATOM     25  C   UNL     1      -7.588   6.115 -26.067  1.00  0.00     0.014 C 
ATOM     26  C   UNL     1      -6.979   3.962 -24.844  1.00  0.00     0.016 C 
ATOM     27  C   UNL     1      -6.798   3.977 -27.968  1.00  0.00     0.063 C 
ATOM     28  C   UNL     1      -6.356   6.251 -26.988  1.00  0.00     0.033 C 
ATOM     29  C   UNL     1      -6.502   5.443 -28.287  1.00  0.00     0.118 C 
BRANCH  29  30
ATOM     30  O   UNL     1      -5.318   5.523 -29.034  1.00  0.00    -0.393 OA
ATOM     31  H   UNL     1      -5.399   6.322 -29.616  1.00  0.00     0.210 HD
ENDBRANCH  29  30
ENDBRANCH   9  11
ENDBRANCH   1   9
TORSDOF 7
ENDMDL
MODEL 9
REMARK VINA RESULT:    -5.043     12.833     15.538
REMARK INTER + INTRA:          -8.639
REMARK INTER:                  -7.368
REMARK INTRA:                  -1.271
REMARK UNBOUND:                -1.680
REMARK SMILES CC[C@@H](CC[C@@H](C)[C@@H]1CC[C@@H]2[C@@H]3CC=C4C[C@H](O)CC[C@@]4(C)[C@H]3CC[C@@]21C)C(C)C
REMARK SMILES IDX 5 1 4 2 3 3 2 4 1 5 28 6 29 7 30 8 6 9 7 10 8 11 9 12 26 13
REMARK SMILES IDX 10 14 11 15 25 16 27 17 12 18 24 19 23 20 13 21 21 22 14 23
REMARK SMILES IDX 15 24 20 25 22 26 16 27 19 28 17 29 18 30
REMARK H PARENT 18 31
REMARK Flexibility Score: inf
ROOT
ATOM      1  C   UNL     1     -11.280  -3.118 -37.605  1.00  0.00     0.004 C 
ENDROOT
BRANCH   1   2
ATOM      2  C   UNL     1     -10.056  -3.817 -36.982  1.00  0.00     0.004 C 
BRANCH   2   3
ATOM      3  C   UNL     1      -8.869  -3.979 -37.969  1.00  0.00    -0.009 C 
BRANCH   3   4
ATOM      4  C   UNL     1      -8.441  -5.455 -38.209  1.00  0.00     0.000 C 
ATOM      5  C   UNL     1      -9.288  -6.519 -37.514  1.00  0.00     0.004 C 
ENDBRANCH   3   4
BRANCH   3   6
ATOM      6  C   UNL     1      -7.659  -3.029 -37.648  1.00  0.00    -0.014 C 
ATOM      7  C   UNL     1      -6.842  -2.725 -38.918  1.00  0.00     0.007 C 
ATOM      8  C   UNL     1      -8.049  -1.700 -36.968  1.00  0.00     0.007 C 
ENDBRANCH   3   6
ENDBRANCH   2   3
ENDBRANCH   1   2
BRANCH   1   9
ATOM      9  C   UNL     1     -11.284  -3.213 -39.157  1.00  0.00    -0.011 C 
ATOM     10  C   UNL     1     -12.349  -4.215 -39.632  1.00  0.00     0.008 C 
BRANCH   9  11
ATOM     11  C   UNL     1     -11.372  -1.862 -39.953  1.00  0.00    -0.002 C 
ATOM     12  C   UNL     1     -10.013  -1.165 -40.160  1.00  0.00     0.005 C 
ATOM     13  C   UNL     1     -12.387  -0.740 -39.539  1.00  0.00    -0.026 C 
ATOM     14  C   UNL     1     -10.276   0.336 -40.131  1.00  0.00     0.005 C 
ATOM     15  C   UNL     1     -11.794   0.509 -40.238  1.00  0.00    -0.001 C 
ATOM     16  C   UNL     1     -12.436  -0.524 -38.000  1.00  0.00     0.007 C 
ATOM     17  C   UNL     1     -13.810  -1.021 -40.090  1.00  0.00     0.012 C 
ATOM     18  C   UNL     1     -12.354   1.881 -39.741  1.00  0.00     0.000 C 
ATOM     19  C   UNL     1     -13.122   0.780 -37.603  1.00  0.00     0.005 C 
ATOM     20  C   UNL     1     -12.405   2.010 -38.204  1.00  0.00     0.003 C 
ATOM     21  C   UNL     1     -11.550   3.048 -40.320  1.00  0.00     0.031 C 
ATOM     22  C   UNL     1     -13.026   3.396 -37.728  1.00  0.00    -0.008 C 
ATOM     23  C   UNL     1     -12.126   4.363 -39.896  1.00  0.00    -0.027 C 
ATOM     24  C   UNL     1     -12.726   4.547 -38.702  1.00  0.00    -0.065 C 
ATOM     25  C   UNL     1     -14.585   3.319 -37.589  1.00  0.00     0.014 C 
ATOM     26  C   UNL     1     -12.394   3.740 -36.354  1.00  0.00     0.016 C 
ATOM     27  C   UNL     1     -13.356   5.893 -38.411  1.00  0.00     0.063 C 
ATOM     28  C   UNL     1     -15.285   4.675 -37.351  1.00  0.00     0.033 C 
ATOM     29  C   UNL     1     -14.877   5.736 -38.385  1.00  0.00     0.118 C 
BRANCH  29  30
ATOM     30  O   UNL     1     -15.463   6.969 -38.061  1.00  0.00    -0.393 OA
ATOM     31  H   UNL     1     -14.823   7.443 -37.471  1.00  0.00     0.210 HD
ENDBRANCH  29  30
ENDBRANCH   9  11
ENDBRANCH   1   9
TORSDOF 7
ENDMDL
