MODEL 1
REMARK VINA RESULT:    -5.399      0.000      0.000
REMARK INTER + INTRA:          -5.990
REMARK INTER:                  -5.872
REMARK INTRA:                  -0.117
REMARK UNBOUND:                -0.117
REMARK SMILES C=C(C)[C@H]1CC=C(C)[C@H](O)C1
REMARK SMILES IDX 8 1 7 2 6 3 5 4 4 5 11 6 9 7 10 8 2 10 1 11 3 12
REMARK H PARENT 10 9
REMARK Flexibility Score: inf
ROOT
ATOM      1  C   UNL     1      14.427 -13.918  28.937  1.00  0.00     0.042 C 
ATOM      2  C   UNL     1      13.595 -14.931  29.681  1.00  0.00    -0.049 C 
ATOM      3  C   UNL     1      14.072 -15.525  30.790  1.00  0.00    -0.025 C 
ATOM      4  C   UNL     1      13.201 -16.485  31.549  1.00  0.00     0.035 C 
ATOM      5  C   UNL     1      11.784 -15.892  31.744  1.00  0.00     0.021 C 
ATOM      6  C   UNL     1      11.231 -15.168  30.473  1.00  0.00     0.044 C 
ATOM      7  C   UNL     1      12.172 -15.250  29.254  1.00  0.00     0.140 C 
ENDROOT
BRANCH   7   8
ATOM      8  O   UNL     1      11.723 -14.361  28.264  1.00  0.00    -0.389 OA
ATOM      9  H   UNL     1      12.175 -14.620  27.418  1.00  0.00     0.211 HD
ENDBRANCH   7   8
BRANCH   5  10
ATOM     10  C   UNL     1      10.825 -16.965  32.240  1.00  0.00    -0.077 C 
ATOM     11  C   UNL     1       9.742 -16.630  32.958  1.00  0.00     0.008 C 
ATOM     12  C   UNL     1      11.089 -18.424  31.963  1.00  0.00     0.039 C 
ENDBRANCH   5  10
TORSDOF 2
ENDMDL
MODEL 2
REMARK VINA RESULT:    -5.118      2.268      4.861
REMARK INTER + INTRA:          -5.684
REMARK INTER:                  -5.571
REMARK INTRA:                  -0.113
REMARK UNBOUND:                -0.117
REMARK SMILES C=C(C)[C@H]1CC=C(C)[C@H](O)C1
REMARK SMILES IDX 8 1 7 2 6 3 5 4 4 5 11 6 9 7 10 8 2 10 1 11 3 12
REMARK H PARENT 10 9
REMARK Flexibility Score: inf
ROOT
ATOM      1  C   UNL     1       9.369 -18.807  33.798  1.00  0.00     0.042 C 
ATOM      2  C   UNL     1       9.994 -17.873  32.793  1.00  0.00    -0.049 C 
ATOM      3  C   UNL     1       9.779 -16.547  32.866  1.00  0.00    -0.025 C 
ATOM      4  C   UNL     1      10.463 -15.631  31.891  1.00  0.00     0.035 C 
ATOM      5  C   UNL     1      11.964 -15.994  31.769  1.00  0.00     0.021 C 
ATOM      6  C   UNL     1      12.231 -17.534  31.719  1.00  0.00     0.044 C 
ATOM      7  C   UNL     1      10.946 -18.387  31.726  1.00  0.00     0.140 C 
ENDROOT
BRANCH   7   8
ATOM      8  O   UNL     1      11.286 -19.731  31.946  1.00  0.00    -0.389 OA
ATOM      9  H   UNL     1      10.469 -20.184  32.284  1.00  0.00     0.211 HD
ENDBRANCH   7   8
BRANCH   5  10
ATOM     10  C   UNL     1      12.586 -15.277  30.579  1.00  0.00    -0.077 C 
ATOM     11  C   UNL     1      13.920 -15.178  30.467  1.00  0.00     0.008 C 
ATOM     12  C   UNL     1      11.719 -14.640  29.523  1.00  0.00     0.039 C 
ENDBRANCH   5  10
TORSDOF 2
ENDMDL
MODEL 3
REMARK VINA RESULT:    -4.997      1.536      4.370
REMARK INTER + INTRA:          -5.553
REMARK INTER:                  -5.434
REMARK INTRA:                  -0.119
REMARK UNBOUND:                -0.117
REMARK SMILES C=C(C)[C@H]1CC=C(C)[C@H](O)C1
REMARK SMILES IDX 8 1 7 2 6 3 5 4 4 5 11 6 9 7 10 8 2 10 1 11 3 12
REMARK H PARENT 10 9
REMARK Flexibility Score: inf
ROOT
ATOM      1  C   UNL     1      11.124 -17.736  32.193  1.00  0.00     0.042 C 
ATOM      2  C   UNL     1      11.834 -16.598  31.506  1.00  0.00    -0.049 C 
ATOM      3  C   UNL     1      13.105 -16.737  31.087  1.00  0.00    -0.025 C 
ATOM      4  C   UNL     1      13.770 -15.610  30.349  1.00  0.00     0.035 C 
ATOM      5  C   UNL     1      12.830 -15.054  29.252  1.00  0.00     0.021 C 
ATOM      6  C   UNL     1      11.342 -14.919  29.713  1.00  0.00     0.044 C 
ATOM      7  C   UNL     1      11.115 -15.296  31.191  1.00  0.00     0.140 C 
ENDROOT
BRANCH   7   8
ATOM      8  O   UNL     1       9.736 -15.400  31.434  1.00  0.00    -0.389 OA
ATOM      9  H   UNL     1       9.526 -16.369  31.494  1.00  0.00     0.211 HD
ENDBRANCH   7   8
BRANCH   5  10
ATOM     10  C   UNL     1      13.371 -13.738  28.710  1.00  0.00    -0.077 C 
ATOM     11  C   UNL     1      14.695 -13.539  28.605  1.00  0.00     0.008 C 
ATOM     12  C   UNL     1      12.435 -12.625  28.310  1.00  0.00     0.039 C 
ENDBRANCH   5  10
TORSDOF 2
ENDMDL
MODEL 4
REMARK VINA RESULT:    -4.956      2.210      4.885
REMARK INTER + INTRA:          -5.508
REMARK INTER:                  -5.396
REMARK INTRA:                  -0.112
REMARK UNBOUND:                -0.117
REMARK SMILES C=C(C)[C@H]1CC=C(C)[C@H](O)C1
REMARK SMILES IDX 8 1 7 2 6 3 5 4 4 5 11 6 9 7 10 8 2 10 1 11 3 12
REMARK H PARENT 10 9
REMARK Flexibility Score: inf
ROOT
ATOM      1  C   UNL     1      13.273 -16.944  31.509  1.00  0.00     0.042 C 
ATOM      2  C   UNL     1      13.005 -16.069  30.311  1.00  0.00    -0.049 C 
ATOM      3  C   UNL     1      11.897 -15.308  30.255  1.00  0.00    -0.025 C 
ATOM      4  C   UNL     1      11.682 -14.397  29.079  1.00  0.00     0.035 C 
ATOM      5  C   UNL     1      12.975 -13.606  28.765  1.00  0.00     0.021 C 
ATOM      6  C   UNL     1      14.275 -14.470  28.862  1.00  0.00     0.044 C 
ATOM      7  C   UNL     1      14.010 -15.955  29.177  1.00  0.00     0.140 C 
ENDROOT
BRANCH   7   8
ATOM      8  O   UNL     1      15.223 -16.582  29.503  1.00  0.00    -0.389 OA
ATOM      9  H   UNL     1      15.915 -16.202  28.900  1.00  0.00     0.211 HD
ENDBRANCH   7   8
BRANCH   5  10
ATOM     10  C   UNL     1      12.858 -12.916  27.413  1.00  0.00    -0.077 C 
ATOM     11  C   UNL     1      13.864 -12.160  26.946  1.00  0.00     0.008 C 
ATOM     12  C   UNL     1      11.602 -13.045  26.589  1.00  0.00     0.039 C 
ENDBRANCH   5  10
TORSDOF 2
ENDMDL
MODEL 5
REMARK VINA RESULT:    -4.873      3.631      6.308
REMARK INTER + INTRA:          -5.418
REMARK INTER:                  -5.288
REMARK INTRA:                  -0.129
REMARK UNBOUND:                -0.117
REMARK SMILES C=C(C)[C@H]1CC=C(C)[C@H](O)C1
REMARK SMILES IDX 8 1 7 2 6 3 5 4 4 5 11 6 9 7 10 8 2 10 1 11 3 12
REMARK H PARENT 10 9
REMARK Flexibility Score: inf
ROOT
ATOM      1  C   UNL     1       8.854 -23.158  32.469  1.00  0.00     0.042 C 
ATOM      2  C   UNL     1       9.126 -21.676  32.532  1.00  0.00    -0.049 C 
ATOM      3  C   UNL     1       9.831 -21.154  33.552  1.00  0.00    -0.025 C 
ATOM      4  C   UNL     1      10.142 -19.684  33.562  1.00  0.00     0.035 C 
ATOM      5  C   UNL     1      10.662 -19.233  32.174  1.00  0.00     0.021 C 
ATOM      6  C   UNL     1       9.874 -19.860  30.978  1.00  0.00     0.044 C 
ATOM      7  C   UNL     1       8.690 -20.746  31.414  1.00  0.00     0.140 C 
ENDROOT
BRANCH   7   8
ATOM      8  O   UNL     1       8.218 -21.465  30.303  1.00  0.00    -0.389 OA
ATOM      9  H   UNL     1       8.765 -22.292  30.242  1.00  0.00     0.211 HD
ENDBRANCH   7   8
BRANCH   5  10
ATOM     10  C   UNL     1      10.693 -17.713  32.090  1.00  0.00    -0.077 C 
ATOM     11  C   UNL     1       9.787 -16.977  32.752  1.00  0.00     0.008 C 
ATOM     12  C   UNL     1      11.721 -17.009  31.242  1.00  0.00     0.039 C 
ENDBRANCH   5  10
TORSDOF 2
ENDMDL
MODEL 6
REMARK VINA RESULT:    -4.868     10.255     11.586
REMARK INTER + INTRA:          -5.412
REMARK INTER:                  -5.281
REMARK INTRA:                  -0.131
REMARK UNBOUND:                -0.117
REMARK SMILES C=C(C)[C@H]1CC=C(C)[C@H](O)C1
REMARK SMILES IDX 8 1 7 2 6 3 5 4 4 5 11 6 9 7 10 8 2 10 1 11 3 12
REMARK H PARENT 10 9
REMARK Flexibility Score: inf
ROOT
ATOM      1  C   UNL     1       5.189 -15.648  21.981  1.00  0.00     0.042 C 
ATOM      2  C   UNL     1       5.653 -17.049  21.674  1.00  0.00    -0.049 C 
ATOM      3  C   UNL     1       5.719 -17.483  20.403  1.00  0.00    -0.025 C 
ATOM      4  C   UNL     1       6.243 -18.863  20.118  1.00  0.00     0.035 C 
ATOM      5  C   UNL     1       7.546 -19.121  20.914  1.00  0.00     0.021 C 
ATOM      6  C   UNL     1       7.496 -18.589  22.383  1.00  0.00     0.044 C 
ATOM      7  C   UNL     1       6.135 -17.979  22.775  1.00  0.00     0.140 C 
ENDROOT
BRANCH   7   8
ATOM      8  O   UNL     1       6.268 -17.300  23.997  1.00  0.00    -0.389 OA
ATOM      9  H   UNL     1       7.092 -16.749  23.933  1.00  0.00     0.211 HD
ENDBRANCH   7   8
BRANCH   5  10
ATOM     10  C   UNL     1       7.912 -20.598  20.863  1.00  0.00    -0.077 C 
ATOM     11  C   UNL     1       6.953 -21.536  20.864  1.00  0.00     0.008 C 
ATOM     12  C   UNL     1       9.355 -21.034  20.841  1.00  0.00     0.039 C 
ENDBRANCH   5  10
TORSDOF 2
ENDMDL
MODEL 7
REMARK VINA RESULT:    -4.846      4.240      6.505
REMARK INTER + INTRA:          -5.388
REMARK INTER:                  -5.251
REMARK INTRA:                  -0.138
REMARK UNBOUND:                -0.117
REMARK SMILES C=C(C)[C@H]1CC=C(C)[C@H](O)C1
REMARK SMILES IDX 8 1 7 2 6 3 5 4 4 5 11 6 9 7 10 8 2 10 1 11 3 12
REMARK H PARENT 10 9
REMARK Flexibility Score: inf
ROOT
ATOM      1  C   UNL     1       9.956 -17.567  32.907  1.00  0.00     0.042 C 
ATOM      2  C   UNL     1       9.873 -19.072  32.901  1.00  0.00    -0.049 C 
ATOM      3  C   UNL     1       9.547 -19.743  34.020  1.00  0.00    -0.025 C 
ATOM      4  C   UNL     1       9.409 -21.239  33.975  1.00  0.00     0.035 C 
ATOM      5  C   UNL     1       8.568 -21.667  32.747  1.00  0.00     0.021 C 
ATOM      6  C   UNL     1       8.913 -20.870  31.446  1.00  0.00     0.044 C 
ATOM      7  C   UNL     1      10.071 -19.868  31.622  1.00  0.00     0.140 C 
ENDROOT
BRANCH   7   8
ATOM      8  O   UNL     1      10.128 -19.027  30.499  1.00  0.00    -0.389 OA
ATOM      9  H   UNL     1       9.237 -19.067  30.062  1.00  0.00     0.211 HD
ENDBRANCH   7   8
BRANCH   5  10
ATOM     10  C   UNL     1       8.676 -23.170  32.530  1.00  0.00    -0.077 C 
ATOM     11  C   UNL     1       9.873 -23.743  32.328  1.00  0.00     0.008 C 
ATOM     12  C   UNL     1       7.443 -24.037  32.508  1.00  0.00     0.039 C 
ENDBRANCH   5  10
TORSDOF 2
ENDMDL
MODEL 8
REMARK VINA RESULT:    -4.768      3.137      5.863
REMARK INTER + INTRA:          -5.304
REMARK INTER:                  -5.170
REMARK INTRA:                  -0.135
REMARK UNBOUND:                -0.117
REMARK SMILES C=C(C)[C@H]1CC=C(C)[C@H](O)C1
REMARK SMILES IDX 8 1 7 2 6 3 5 4 4 5 11 6 9 7 10 8 2 10 1 11 3 12
REMARK H PARENT 10 9
REMARK Flexibility Score: inf
ROOT
ATOM      1  C   UNL     1      12.814 -15.991  29.834  1.00  0.00     0.042 C 
ATOM      2  C   UNL     1      12.501 -14.978  28.764  1.00  0.00    -0.049 C 
ATOM      3  C   UNL     1      12.346 -13.679  29.076  1.00  0.00    -0.025 C 
ATOM      4  C   UNL     1      12.095 -12.678  27.983  1.00  0.00     0.035 C 
ATOM      5  C   UNL     1      13.078 -12.903  26.808  1.00  0.00     0.021 C 
ATOM      6  C   UNL     1      13.295 -14.412  26.457  1.00  0.00     0.044 C 
ATOM      7  C   UNL     1      12.433 -15.374  27.298  1.00  0.00     0.140 C 
ENDROOT
BRANCH   7   8
ATOM      8  O   UNL     1      12.884 -16.689  27.102  1.00  0.00    -0.389 OA
ATOM      9  H   UNL     1      12.237 -17.288  27.560  1.00  0.00     0.211 HD
ENDBRANCH   7   8
BRANCH   5  10
ATOM     10  C   UNL     1      12.640 -12.100  25.592  1.00  0.00    -0.077 C 
ATOM     11  C   UNL     1      11.345 -12.046  25.244  1.00  0.00     0.008 C 
ATOM     12  C   UNL     1      13.652 -11.378  24.739  1.00  0.00     0.039 C 
ENDBRANCH   5  10
TORSDOF 2
ENDMDL
MODEL 9
REMARK VINA RESULT:    -4.761      1.699      2.871
REMARK INTER + INTRA:          -5.295
REMARK INTER:                  -5.163
REMARK INTRA:                  -0.132
REMARK UNBOUND:                -0.117
REMARK SMILES C=C(C)[C@H]1CC=C(C)[C@H](O)C1
REMARK SMILES IDX 8 1 7 2 6 3 5 4 4 5 11 6 9 7 10 8 2 10 1 11 3 12
REMARK H PARENT 10 9
REMARK Flexibility Score: inf
ROOT
ATOM      1  C   UNL     1      13.043 -12.923  26.699  1.00  0.00     0.042 C 
ATOM      2  C   UNL     1      12.919 -13.639  28.020  1.00  0.00    -0.049 C 
ATOM      3  C   UNL     1      11.713 -14.013  28.484  1.00  0.00    -0.025 C 
ATOM      4  C   UNL     1      11.620 -14.781  29.772  1.00  0.00     0.035 C 
ATOM      5  C   UNL     1      12.659 -15.930  29.793  1.00  0.00     0.021 C 
ATOM      6  C   UNL     1      14.056 -15.519  29.223  1.00  0.00     0.044 C 
ATOM      7  C   UNL     1      14.148 -14.033  28.821  1.00  0.00     0.140 C 
ENDROOT
BRANCH   7   8
ATOM      8  O   UNL     1      15.327 -13.826  28.087  1.00  0.00    -0.389 OA
ATOM      9  H   UNL     1      16.044 -14.342  28.541  1.00  0.00     0.211 HD
ENDBRANCH   7   8
BRANCH   5  10
ATOM     10  C   UNL     1      12.773 -16.513  31.194  1.00  0.00    -0.077 C 
ATOM     11  C   UNL     1      13.669 -16.021  32.064  1.00  0.00     0.008 C 
ATOM     12  C   UNL     1      11.907 -17.672  31.620  1.00  0.00     0.039 C 
ENDBRANCH   5  10
TORSDOF 2
ENDMDL
