MODEL 1
REMARK VINA RESULT:    -3.090      0.000      0.000
REMARK INTER + INTRA:          -3.750
REMARK INTER:                  -3.632
REMARK INTRA:                  -0.118
REMARK UNBOUND:                -0.118
REMARK SMILES O=C([O-])CCC(=O)[O-]
REMARK SMILES IDX 4 1 2 2 1 3 3 4 5 5 6 6 7 7 8 8
REMARK H PARENT
REMARK Flexibility Score: inf
ROOT
ATOM      1  C   UNL     1     -19.944  20.216  42.201  1.00  0.00     0.059 C 
ENDROOT
BRANCH   1   2
ATOM      2  C   UNL     1     -20.299  21.314  41.250  1.00  0.00     0.042 C 
ATOM      3  O   UNL     1     -21.505  21.538  40.961  1.00  0.00    -0.550 OA
ATOM      4  O   UNL     1     -19.302  22.124  40.719  1.00  0.00    -0.550 OA
ENDBRANCH   1   2
BRANCH   1   5
ATOM      5  C   UNL     1     -18.454  19.882  42.102  1.00  0.00     0.059 C 
BRANCH   5   6
ATOM      6  C   UNL     1     -17.766  20.171  43.398  1.00  0.00     0.042 C 
ATOM      7  O   UNL     1     -17.617  21.360  43.784  1.00  0.00    -0.550 OA
ATOM      8  O   UNL     1     -17.333  19.127  44.205  1.00  0.00    -0.550 OA
ENDBRANCH   5   6
ENDBRANCH   1   5
TORSDOF 3
ENDMDL
MODEL 2
REMARK VINA RESULT:    -3.057      0.166      3.934
REMARK INTER + INTRA:          -3.711
REMARK INTER:                  -3.603
REMARK INTRA:                  -0.109
REMARK UNBOUND:                -0.118
REMARK SMILES O=C([O-])CCC(=O)[O-]
REMARK SMILES IDX 4 1 2 2 1 3 3 4 5 5 6 6 7 7 8 8
REMARK H PARENT
REMARK Flexibility Score: inf
ROOT
ATOM      1  C   UNL     1     -18.491  19.892  42.002  1.00  0.00     0.059 C 
ENDROOT
BRANCH   1   2
ATOM      2  C   UNL     1     -17.759  20.042  43.298  1.00  0.00     0.042 C 
ATOM      3  O   UNL     1     -17.310  19.026  43.894  1.00  0.00    -0.550 OA
ATOM      4  O   UNL     1     -17.528  21.307  43.824  1.00  0.00    -0.550 OA
ENDBRANCH   1   2
BRANCH   1   5
ATOM      5  C   UNL     1     -19.972  20.228  42.182  1.00  0.00     0.059 C 
BRANCH   5   6
ATOM      6  C   UNL     1     -20.356  21.382  41.311  1.00  0.00     0.042 C 
ATOM      7  O   UNL     1     -21.571  21.642  41.103  1.00  0.00    -0.550 OA
ATOM      8  O   UNL     1     -19.375  22.201  40.768  1.00  0.00    -0.550 OA
ENDBRANCH   5   6
ENDBRANCH   1   5
TORSDOF 3
ENDMDL
MODEL 3
REMARK VINA RESULT:    -3.003      1.721      2.133
REMARK INTER + INTRA:          -3.647
REMARK INTER:                  -3.477
REMARK INTRA:                  -0.170
REMARK UNBOUND:                -0.118
REMARK SMILES O=C([O-])CCC(=O)[O-]
REMARK SMILES IDX 4 1 2 2 1 3 3 4 5 5 6 6 7 7 8 8
REMARK H PARENT
REMARK Flexibility Score: inf
ROOT
ATOM      1  C   UNL     1     -18.798  21.437  42.328  1.00  0.00     0.059 C 
ENDROOT
BRANCH   1   2
ATOM      2  C   UNL     1     -20.129  20.893  41.916  1.00  0.00     0.042 C 
ATOM      3  O   UNL     1     -20.579  21.124  40.762  1.00  0.00    -0.550 OA
ATOM      4  O   UNL     1     -20.852  20.089  42.789  1.00  0.00    -0.550 OA
ENDBRANCH   1   2
BRANCH   1   5
ATOM      5  C   UNL     1     -17.674  20.737  41.563  1.00  0.00     0.059 C 
BRANCH   5   6
ATOM      6  C   UNL     1     -17.560  19.308  41.991  1.00  0.00     0.042 C 
ATOM      7  O   UNL     1     -17.632  18.385  41.138  1.00  0.00    -0.550 OA
ATOM      8  O   UNL     1     -17.326  18.997  43.324  1.00  0.00    -0.550 OA
ENDBRANCH   5   6
ENDBRANCH   1   5
TORSDOF 3
ENDMDL
MODEL 4
REMARK VINA RESULT:    -2.943      1.552      4.077
REMARK INTER + INTRA:          -3.577
REMARK INTER:                  -3.543
REMARK INTRA:                  -0.035
REMARK UNBOUND:                -0.118
REMARK SMILES O=C([O-])CCC(=O)[O-]
REMARK SMILES IDX 4 1 2 2 1 3 3 4 5 5 6 6 7 7 8 8
REMARK H PARENT
REMARK Flexibility Score: inf
ROOT
ATOM      1  C   UNL     1     -17.890  20.022  41.651  1.00  0.00     0.059 C 
ENDROOT
BRANCH   1   2
ATOM      2  C   UNL     1     -17.423  18.612  41.821  1.00  0.00     0.042 C 
ATOM      3  O   UNL     1     -17.329  17.850  40.821  1.00  0.00    -0.550 OA
ATOM      4  O   UNL     1     -17.044  18.151  43.075  1.00  0.00    -0.550 OA
ENDBRANCH   1   2
BRANCH   1   5
ATOM      5  C   UNL     1     -19.384  20.133  41.960  1.00  0.00     0.059 C 
BRANCH   5   6
ATOM      6  C   UNL     1     -19.978  21.312  41.256  1.00  0.00     0.042 C 
ATOM      7  O   UNL     1     -19.238  22.248  40.854  1.00  0.00    -0.550 OA
ATOM      8  O   UNL     1     -21.342  21.355  41.000  1.00  0.00    -0.550 OA
ENDBRANCH   5   6
ENDBRANCH   1   5
TORSDOF 3
ENDMDL
MODEL 5
REMARK VINA RESULT:    -2.935      1.344      4.073
REMARK INTER + INTRA:          -3.568
REMARK INTER:                  -3.481
REMARK INTRA:                  -0.087
REMARK UNBOUND:                -0.118
REMARK SMILES O=C([O-])CCC(=O)[O-]
REMARK SMILES IDX 4 1 2 2 1 3 3 4 5 5 6 6 7 7 8 8
REMARK H PARENT
REMARK Flexibility Score: inf
ROOT
ATOM      1  C   UNL     1     -17.971  20.464  43.046  1.00  0.00     0.059 C 
ENDROOT
BRANCH   1   2
ATOM      2  C   UNL     1     -17.403  19.091  43.220  1.00  0.00     0.042 C 
ATOM      3  O   UNL     1     -17.024  18.701  44.357  1.00  0.00    -0.550 OA
ATOM      4  O   UNL     1     -17.338  18.223  42.138  1.00  0.00    -0.550 OA
ENDBRANCH   1   2
BRANCH   1   5
ATOM      5  C   UNL     1     -18.534  20.636  41.635  1.00  0.00     0.059 C 
BRANCH   5   6
ATOM      6  C   UNL     1     -20.029  20.664  41.668  1.00  0.00     0.042 C 
ATOM      7  O   UNL     1     -20.651  20.141  42.630  1.00  0.00    -0.550 OA
ATOM      8  O   UNL     1     -20.736  21.311  40.662  1.00  0.00    -0.550 OA
ENDBRANCH   5   6
ENDBRANCH   1   5
TORSDOF 3
ENDMDL
MODEL 6
REMARK VINA RESULT:    -2.902      2.991      3.806
REMARK INTER + INTRA:          -3.529
REMARK INTER:                  -3.495
REMARK INTRA:                  -0.034
REMARK UNBOUND:                -0.118
REMARK SMILES O=C([O-])CCC(=O)[O-]
REMARK SMILES IDX 4 1 2 2 1 3 3 4 5 5 6 6 7 7 8 8
REMARK H PARENT
REMARK Flexibility Score: inf
ROOT
ATOM      1  C   UNL     1     -17.469  18.772  42.231  1.00  0.00     0.059 C 
ENDROOT
BRANCH   1   2
ATOM      2  C   UNL     1     -18.155  20.003  41.730  1.00  0.00     0.042 C 
ATOM      3  O   UNL     1     -17.478  21.005  41.373  1.00  0.00    -0.550 OA
ATOM      4  O   UNL     1     -19.538  20.029  41.610  1.00  0.00    -0.550 OA
ENDBRANCH   1   2
BRANCH   1   5
ATOM      5  C   UNL     1     -17.112  17.847  41.066  1.00  0.00     0.059 C 
BRANCH   5   6
ATOM      6  C   UNL     1     -16.727  16.493  41.572  1.00  0.00     0.042 C 
ATOM      7  O   UNL     1     -16.575  16.298  42.807  1.00  0.00    -0.550 OA
ATOM      8  O   UNL     1     -16.584  15.433  40.686  1.00  0.00    -0.550 OA
ENDBRANCH   5   6
ENDBRANCH   1   5
TORSDOF 3
ENDMDL
MODEL 7
REMARK VINA RESULT:    -2.899      2.224      4.726
REMARK INTER + INTRA:          -3.525
REMARK INTER:                  -3.469
REMARK INTRA:                  -0.056
REMARK UNBOUND:                -0.118
REMARK SMILES O=C([O-])CCC(=O)[O-]
REMARK SMILES IDX 4 1 2 2 1 3 3 4 5 5 6 6 7 7 8 8
REMARK H PARENT
REMARK Flexibility Score: inf
ROOT
ATOM      1  C   UNL     1     -20.062  21.571  40.947  1.00  0.00     0.059 C 
ENDROOT
BRANCH   1   2
ATOM      2  C   UNL     1     -19.865  20.403  41.859  1.00  0.00     0.042 C 
ATOM      3  O   UNL     1     -20.749  20.104  42.706  1.00  0.00    -0.550 OA
ATOM      4  O   UNL     1     -18.728  19.613  41.743  1.00  0.00    -0.550 OA
ENDBRANCH   1   2
BRANCH   1   5
ATOM      5  C   UNL     1     -21.540  21.962  40.888  1.00  0.00     0.059 C 
BRANCH   5   6
ATOM      6  C   UNL     1     -22.024  21.970  39.472  1.00  0.00     0.042 C 
ATOM      7  O   UNL     1     -21.255  22.331  38.543  1.00  0.00    -0.550 OA
ATOM      8  O   UNL     1     -23.307  21.533  39.172  1.00  0.00    -0.550 OA
ENDBRANCH   5   6
ENDBRANCH   1   5
TORSDOF 3
ENDMDL
MODEL 8
REMARK VINA RESULT:    -2.874      1.567      2.204
REMARK INTER + INTRA:          -3.497
REMARK INTER:                  -3.309
REMARK INTRA:                  -0.187
REMARK UNBOUND:                -0.118
REMARK SMILES O=C([O-])CCC(=O)[O-]
REMARK SMILES IDX 4 1 2 2 1 3 3 4 5 5 6 6 7 7 8 8
REMARK H PARENT
REMARK Flexibility Score: inf
ROOT
ATOM      1  C   UNL     1     -20.438  21.502  40.773  1.00  0.00     0.059 C 
ENDROOT
BRANCH   1   2
ATOM      2  C   UNL     1     -19.657  22.761  40.975  1.00  0.00     0.042 C 
ATOM      3  O   UNL     1     -18.684  23.032  40.222  1.00  0.00    -0.550 OA
ATOM      4  O   UNL     1     -20.033  23.662  41.963  1.00  0.00    -0.550 OA
ENDBRANCH   1   2
BRANCH   1   5
ATOM      5  C   UNL     1     -20.489  20.690  42.068  1.00  0.00     0.059 C 
BRANCH   5   6
ATOM      6  C   UNL     1     -19.116  20.245  42.462  1.00  0.00     0.042 C 
ATOM      7  O   UNL     1     -18.645  20.565  43.585  1.00  0.00    -0.550 OA
ATOM      8  O   UNL     1     -18.375  19.437  41.610  1.00  0.00    -0.550 OA
ENDBRANCH   5   6
ENDBRANCH   1   5
TORSDOF 3
ENDMDL
MODEL 9
REMARK VINA RESULT:    -2.814      2.553      4.057
REMARK INTER + INTRA:          -3.425
REMARK INTER:                  -3.392
REMARK INTRA:                  -0.034
REMARK UNBOUND:                -0.118
REMARK SMILES O=C([O-])CCC(=O)[O-]
REMARK SMILES IDX 4 1 2 2 1 3 3 4 5 5 6 6 7 7 8 8
REMARK H PARENT
REMARK Flexibility Score: inf
ROOT
ATOM      1  C   UNL     1     -17.406  18.749  41.562  1.00  0.00     0.059 C 
ENDROOT
BRANCH   1   2
ATOM      2  C   UNL     1     -16.736  17.445  41.267  1.00  0.00     0.042 C 
ATOM      3  O   UNL     1     -16.898  16.461  42.037  1.00  0.00    -0.550 OA
ATOM      4  O   UNL     1     -15.972  17.299  40.116  1.00  0.00    -0.550 OA
ENDBRANCH   1   2
BRANCH   1   5
ATOM      5  C   UNL     1     -17.377  19.038  43.064  1.00  0.00     0.059 C 
BRANCH   5   6
ATOM      6  C   UNL     1     -18.093  20.317  43.364  1.00  0.00     0.042 C 
ATOM      7  O   UNL     1     -19.306  20.452  43.054  1.00  0.00    -0.550 OA
ATOM      8  O   UNL     1     -17.436  21.343  44.030  1.00  0.00    -0.550 OA
ENDBRANCH   5   6
ENDBRANCH   1   5
TORSDOF 3
ENDMDL
