MODEL 1
REMARK VINA RESULT:    -2.860      0.000      0.000
REMARK INTER + INTRA:          -3.201
REMARK INTER:                  -3.195
REMARK INTRA:                  -0.006
REMARK UNBOUND:                -0.006
REMARK SMILES CCCC(=O)[O-]
REMARK SMILES IDX 3 1 4 2 5 3 6 4 2 5 1 6
REMARK H PARENT
REMARK Flexibility Score: inf
ROOT
ATOM      1  C   UNL     1      10.369   6.062  -7.235  1.00  0.00     0.052 C 
ENDROOT
BRANCH   1   2
ATOM      2  C   UNL     1      10.828   4.700  -6.813  1.00  0.00     0.041 C 
ATOM      3  O   UNL     1      11.714   4.096  -7.475  1.00  0.00    -0.550 OA
ATOM      4  O   UNL     1      10.303   4.111  -5.671  1.00  0.00    -0.550 OA
ENDBRANCH   1   2
BRANCH   1   5
ATOM      5  C   UNL     1      11.066   7.168  -6.433  1.00  0.00     0.003 C 
ATOM      6  C   UNL     1      11.159   8.480  -7.211  1.00  0.00     0.004 C 
ENDBRANCH   1   5
TORSDOF 2
ENDMDL
MODEL 2
REMARK VINA RESULT:    -2.849      5.273      6.404
REMARK INTER + INTRA:          -3.188
REMARK INTER:                  -3.176
REMARK INTRA:                  -0.012
REMARK UNBOUND:                -0.006
REMARK SMILES CCCC(=O)[O-]
REMARK SMILES IDX 3 1 4 2 5 3 6 4 2 5 1 6
REMARK H PARENT
REMARK Flexibility Score: inf
ROOT
ATOM      1  C   UNL     1      11.845  10.927  -9.775  1.00  0.00     0.052 C 
ENDROOT
BRANCH   1   2
ATOM      2  C   UNL     1      12.426  10.652  -8.422  1.00  0.00     0.041 C 
ATOM      3  O   UNL     1      12.134   9.591  -7.809  1.00  0.00    -0.550 OA
ATOM      4  O   UNL     1      13.316  11.552  -7.851  1.00  0.00    -0.550 OA
ENDBRANCH   1   2
BRANCH   1   5
ATOM      5  C   UNL     1      12.856  11.622 -10.695  1.00  0.00     0.003 C 
ATOM      6  C   UNL     1      13.063  10.867 -12.008  1.00  0.00     0.004 C 
ENDBRANCH   1   5
TORSDOF 2
ENDMDL
MODEL 3
REMARK VINA RESULT:    -2.814     15.507     15.945
REMARK INTER + INTRA:          -3.149
REMARK INTER:                  -3.144
REMARK INTRA:                  -0.005
REMARK UNBOUND:                -0.006
REMARK SMILES CCCC(=O)[O-]
REMARK SMILES IDX 3 1 4 2 5 3 6 4 2 5 1 6
REMARK H PARENT
REMARK Flexibility Score: inf
ROOT
ATOM      1  C   UNL     1      22.652  10.239   2.594  1.00  0.00     0.052 C 
ENDROOT
BRANCH   1   2
ATOM      2  C   UNL     1      24.025   9.687   2.359  1.00  0.00     0.041 C 
ATOM      3  O   UNL     1      24.564   9.791   1.226  1.00  0.00    -0.550 OA
ATOM      4  O   UNL     1      24.721   9.088   3.400  1.00  0.00    -0.550 OA
ENDBRANCH   1   2
BRANCH   1   5
ATOM      5  C   UNL     1      21.672   9.148   3.042  1.00  0.00     0.003 C 
ATOM      6  C   UNL     1      20.216   9.530   2.778  1.00  0.00     0.004 C 
ENDBRANCH   1   5
TORSDOF 2
ENDMDL
MODEL 4
REMARK VINA RESULT:    -2.727     15.808     16.401
REMARK INTER + INTRA:          -3.052
REMARK INTER:                  -2.993
REMARK INTRA:                  -0.060
REMARK UNBOUND:                -0.006
REMARK SMILES CCCC(=O)[O-]
REMARK SMILES IDX 3 1 4 2 5 3 6 4 2 5 1 6
REMARK H PARENT
REMARK Flexibility Score: inf
ROOT
ATOM      1  C   UNL     1      24.103  -0.621 -12.011  1.00  0.00     0.052 C 
ENDROOT
BRANCH   1   2
ATOM      2  C   UNL     1      25.352  -0.701 -11.187  1.00  0.00     0.041 C 
ATOM      3  O   UNL     1      25.371  -0.234 -10.018  1.00  0.00    -0.550 OA
ATOM      4  O   UNL     1      26.484  -1.321 -11.699  1.00  0.00    -0.550 OA
ENDBRANCH   1   2
BRANCH   1   5
ATOM      5  C   UNL     1      24.405  -0.221 -13.460  1.00  0.00     0.003 C 
ATOM      6  C   UNL     1      24.740   1.263 -13.596  1.00  0.00     0.004 C 
ENDBRANCH   1   5
TORSDOF 2
ENDMDL
MODEL 5
REMARK VINA RESULT:    -2.670     15.201     15.633
REMARK INTER + INTRA:          -2.988
REMARK INTER:                  -2.982
REMARK INTRA:                  -0.006
REMARK UNBOUND:                -0.006
REMARK SMILES CCCC(=O)[O-]
REMARK SMILES IDX 3 1 4 2 5 3 6 4 2 5 1 6
REMARK H PARENT
REMARK Flexibility Score: inf
ROOT
ATOM      1  C   UNL     1      22.689  10.463   2.209  1.00  0.00     0.052 C 
ENDROOT
BRANCH   1   2
ATOM      2  C   UNL     1      21.803   9.565   3.018  1.00  0.00     0.041 C 
ATOM      3  O   UNL     1      22.199   9.113   4.124  1.00  0.00    -0.550 OA
ATOM      4  O   UNL     1      20.528   9.256   2.564  1.00  0.00    -0.550 OA
ENDBRANCH   1   2
BRANCH   1   5
ATOM      5  C   UNL     1      24.082   9.853   2.008  1.00  0.00     0.003 C 
ATOM      6  C   UNL     1      24.708  10.260   0.675  1.00  0.00     0.004 C 
ENDBRANCH   1   5
TORSDOF 2
ENDMDL
MODEL 6
REMARK VINA RESULT:    -2.668      4.880      5.820
REMARK INTER + INTRA:          -2.986
REMARK INTER:                  -2.970
REMARK INTRA:                  -0.015
REMARK UNBOUND:                -0.006
REMARK SMILES CCCC(=O)[O-]
REMARK SMILES IDX 3 1 4 2 5 3 6 4 2 5 1 6
REMARK H PARENT
REMARK Flexibility Score: inf
ROOT
ATOM      1  C   UNL     1      11.282  10.118  -8.645  1.00  0.00     0.052 C 
ENDROOT
BRANCH   1   2
ATOM      2  C   UNL     1      12.504  10.834  -9.134  1.00  0.00     0.041 C 
ATOM      3  O   UNL     1      13.268  11.416  -8.319  1.00  0.00    -0.550 OA
ATOM      4  O   UNL     1      12.817  10.830 -10.487  1.00  0.00    -0.550 OA
ENDBRANCH   1   2
BRANCH   1   5
ATOM      5  C   UNL     1      11.465   9.597  -7.215  1.00  0.00     0.003 C 
ATOM      6  C   UNL     1      11.126   8.112  -7.088  1.00  0.00     0.004 C 
ENDBRANCH   1   5
TORSDOF 2
ENDMDL
MODEL 7
REMARK VINA RESULT:    -2.662      2.134      2.931
REMARK INTER + INTRA:          -2.980
REMARK INTER:                  -2.910
REMARK INTRA:                  -0.069
REMARK UNBOUND:                -0.006
REMARK SMILES CCCC(=O)[O-]
REMARK SMILES IDX 3 1 4 2 5 3 6 4 2 5 1 6
REMARK H PARENT
REMARK Flexibility Score: inf
ROOT
ATOM      1  C   UNL     1      10.601   4.324  -5.549  1.00  0.00     0.052 C 
ENDROOT
BRANCH   1   2
ATOM      2  C   UNL     1      11.194   5.268  -4.548  1.00  0.00     0.041 C 
ATOM      3  O   UNL     1      10.502   5.686  -3.582  1.00  0.00    -0.550 OA
ATOM      4  O   UNL     1      12.521   5.659  -4.663  1.00  0.00    -0.550 OA
ENDBRANCH   1   2
BRANCH   1   5
ATOM      5  C   UNL     1      10.829   4.806  -6.986  1.00  0.00     0.003 C 
ATOM      6  C   UNL     1      10.118   6.127  -7.277  1.00  0.00     0.004 C 
ENDBRANCH   1   5
TORSDOF 2
ENDMDL
MODEL 8
REMARK VINA RESULT:    -2.637     16.830     17.609
REMARK INTER + INTRA:          -2.952
REMARK INTER:                  -2.929
REMARK INTRA:                  -0.023
REMARK UNBOUND:                -0.006
REMARK SMILES CCCC(=O)[O-]
REMARK SMILES IDX 3 1 4 2 5 3 6 4 2 5 1 6
REMARK H PARENT
REMARK Flexibility Score: inf
ROOT
ATOM      1  C   UNL     1      27.107  -0.407  -7.824  1.00  0.00     0.052 C 
ENDROOT
BRANCH   1   2
ATOM      2  C   UNL     1      25.989  -1.018  -8.613  1.00  0.00     0.041 C 
ATOM      3  O   UNL     1      25.400  -2.046  -8.187  1.00  0.00    -0.550 OA
ATOM      4  O   UNL     1      25.576  -0.431  -9.801  1.00  0.00    -0.550 OA
ENDBRANCH   1   2
BRANCH   1   5
ATOM      5  C   UNL     1      28.224  -1.420  -7.546  1.00  0.00     0.003 C 
ATOM      6  C   UNL     1      28.724  -1.354  -6.104  1.00  0.00     0.004 C 
ENDBRANCH   1   5
TORSDOF 2
ENDMDL
MODEL 9
REMARK VINA RESULT:    -2.633      2.184      3.289
REMARK INTER + INTRA:          -2.947
REMARK INTER:                  -2.884
REMARK INTRA:                  -0.063
REMARK UNBOUND:                -0.006
REMARK SMILES CCCC(=O)[O-]
REMARK SMILES IDX 3 1 4 2 5 3 6 4 2 5 1 6
REMARK H PARENT
REMARK Flexibility Score: inf
ROOT
ATOM      1  C   UNL     1      10.149   5.888  -7.306  1.00  0.00     0.052 C 
ENDROOT
BRANCH   1   2
ATOM      2  C   UNL     1      10.552   7.060  -6.464  1.00  0.00     0.041 C 
ATOM      3  O   UNL     1      10.143   7.159  -5.277  1.00  0.00    -0.550 OA
ATOM      4  O   UNL     1      11.406   8.025  -6.980  1.00  0.00    -0.550 OA
ENDBRANCH   1   2
BRANCH   1   5
ATOM      5  C   UNL     1      10.622   4.563  -6.697  1.00  0.00     0.003 C 
ATOM      6  C   UNL     1      12.133   4.534  -6.469  1.00  0.00     0.004 C 
ENDBRANCH   1   5
TORSDOF 2
ENDMDL
