MODEL 1
REMARK VINA RESULT:    -5.873      0.000      0.000
REMARK INTER + INTRA:          -9.643
REMARK INTER:                  -8.276
REMARK INTRA:                  -1.367
REMARK UNBOUND:                -1.367
REMARK SMILES OCC1=C[C@@H](O)[C@H]2C=CO[C@@H](O[C@@H]3O[C@@H](CO)[C@H](O)[C@@H](O)[C@H]3O)[C@H]12
REMARK SMILES IDX 12 1 11 2 8 3 9 4 7 5 10 6 24 7 5 8 3 9 4 10 6 11 2 13 1 14
REMARK SMILES IDX 13 16 22 17 14 18 20 19 15 20 18 21 23 22 21 24 16 26 17 27
REMARK SMILES IDX 19 29
REMARK H PARENT 6 12 1 15 23 23 21 25 17 28 19 30
REMARK Flexibility Score: inf
ROOT
ATOM      1  O   UNL     1      17.008  47.638  44.819  1.00  0.00    -0.310 OA
ENDROOT
BRANCH   1   2
ATOM      2  C   UNL     1      17.926  47.618  43.740  1.00  0.00     0.316 C 
ATOM      3  C   UNL     1      19.274  45.808  41.892  1.00  0.00     0.018 C 
ATOM      4  C   UNL     1      17.966  46.066  41.744  1.00  0.00     0.186 C 
ATOM      5  C   UNL     1      20.016  46.633  42.894  1.00  0.00     0.061 C 
ATOM      6  O   UNL     1      17.299  46.966  42.612  1.00  0.00    -0.472 OA
ATOM      7  C   UNL     1      19.158  46.793  44.140  1.00  0.00     0.096 C 
ATOM      8  C   UNL     1      21.367  46.177  43.438  1.00  0.00     0.145 C 
ATOM      9  C   UNL     1      20.164  47.308  45.120  1.00  0.00    -0.036 C 
ATOM     10  C   UNL     1      21.387  46.898  44.759  1.00  0.00     0.007 C 
BRANCH   8  11
ATOM     11  O   UNL     1      21.387  44.788  43.639  1.00  0.00    -0.388 OA
ATOM     12  H   UNL     1      22.273  44.473  43.321  1.00  0.00     0.211 HD
ENDBRANCH   8  11
BRANCH   9  13
ATOM     13  C   UNL     1      19.861  47.960  46.442  1.00  0.00     0.187 C 
BRANCH  13  14
ATOM     14  O   UNL     1      19.389  49.264  46.246  1.00  0.00    -0.392 OA
ATOM     15  H   UNL     1      20.173  49.812  45.983  1.00  0.00     0.211 HD
ENDBRANCH  13  14
ENDBRANCH   9  13
ENDBRANCH   1   2
BRANCH   1  16
ATOM     16  C   UNL     1      16.223  48.823  44.850  1.00  0.00     0.286 C 
ATOM     17  C   UNL     1      14.721  48.536  44.589  1.00  0.00     0.202 C 
ATOM     18  O   UNL     1      16.394  49.482  46.095  1.00  0.00    -0.341 OA
ATOM     19  C   UNL     1      14.114  47.742  45.763  1.00  0.00     0.179 C 
ATOM     20  C   UNL     1      15.981  48.672  47.188  1.00  0.00     0.178 C 
ATOM     21  C   UNL     1      14.462  48.389  47.122  1.00  0.00     0.177 C 
BRANCH  17  22
ATOM     22  O   UNL     1      14.017  49.732  44.350  1.00  0.00    -0.385 OA
ATOM     23  H   UNL     1      14.672  50.477  44.311  1.00  0.00     0.211 HD
ENDBRANCH  17  22
BRANCH  19  24
ATOM     24  O   UNL     1      12.725  47.585  45.606  1.00  0.00    -0.387 OA
ATOM     25  H   UNL     1      12.422  46.887  46.242  1.00  0.00     0.211 HD
ENDBRANCH  19  24
BRANCH  20  26
ATOM     26  C   UNL     1      16.339  49.399  48.489  1.00  0.00     0.191 C 
BRANCH  26  27
ATOM     27  O   UNL     1      17.506  50.151  48.302  1.00  0.00    -0.394 OA
ATOM     28  H   UNL     1      18.152  49.550  47.847  1.00  0.00     0.210 HD
ENDBRANCH  26  27
ENDBRANCH  20  26
BRANCH  21  29
ATOM     29  O   UNL     1      14.100  47.517  48.163  1.00  0.00    -0.387 OA
ATOM     30  H   UNL     1      13.406  46.908  47.800  1.00  0.00     0.211 HD
ENDBRANCH  21  29
ENDBRANCH   1  16
TORSDOF 10
ENDMDL
MODEL 2
REMARK VINA RESULT:    -5.811      1.279      2.578
REMARK INTER + INTRA:          -9.556
REMARK INTER:                  -8.551
REMARK INTRA:                  -1.005
REMARK UNBOUND:                -1.367
REMARK SMILES OCC1=C[C@@H](O)[C@H]2C=CO[C@@H](O[C@@H]3O[C@@H](CO)[C@H](O)[C@@H](O)[C@H]3O)[C@H]12
REMARK SMILES IDX 12 1 11 2 8 3 9 4 7 5 10 6 24 7 5 8 3 9 4 10 6 11 2 13 1 14
REMARK SMILES IDX 13 16 22 17 14 18 20 19 15 20 18 21 23 22 21 24 16 26 17 27
REMARK SMILES IDX 19 29
REMARK H PARENT 6 12 1 15 23 23 21 25 17 28 19 30
REMARK Flexibility Score: inf
ROOT
ATOM      1  O   UNL     1      17.173  48.141  44.342  1.00  0.00    -0.310 OA
ENDROOT
BRANCH   1   2
ATOM      2  C   UNL     1      18.169  47.942  43.353  1.00  0.00     0.316 C 
ATOM      3  C   UNL     1      19.397  45.875  41.701  1.00  0.00     0.018 C 
ATOM      4  C   UNL     1      18.157  46.307  41.424  1.00  0.00     0.186 C 
ATOM      5  C   UNL     1      20.160  46.635  42.737  1.00  0.00     0.061 C 
ATOM      6  O   UNL     1      17.554  47.331  42.196  1.00  0.00    -0.472 OA
ATOM      7  C   UNL     1      19.230  46.973  43.893  1.00  0.00     0.096 C 
ATOM      8  C   UNL     1      21.380  46.021  43.419  1.00  0.00     0.145 C 
ATOM      9  C   UNL     1      20.211  47.387  44.943  1.00  0.00    -0.036 C 
ATOM     10  C   UNL     1      21.389  46.794  44.710  1.00  0.00     0.007 C 
BRANCH   8  11
ATOM     11  O   UNL     1      21.183  44.654  43.668  1.00  0.00    -0.388 OA
ATOM     12  H   UNL     1      21.937  44.179  43.230  1.00  0.00     0.211 HD
ENDBRANCH   8  11
BRANCH   9  13
ATOM     13  C   UNL     1      19.893  48.137  46.208  1.00  0.00     0.187 C 
BRANCH  13  14
ATOM     14  O   UNL     1      19.387  49.409  45.908  1.00  0.00    -0.392 OA
ATOM     15  H   UNL     1      20.086  50.061  46.172  1.00  0.00     0.211 HD
ENDBRANCH  13  14
ENDBRANCH   9  13
ENDBRANCH   1   2
BRANCH   1  16
ATOM     16  C   UNL     1      16.528  46.932  44.721  1.00  0.00     0.286 C 
ATOM     17  C   UNL     1      16.655  46.653  46.241  1.00  0.00     0.202 C 
ATOM     18  O   UNL     1      15.163  46.974  44.335  1.00  0.00    -0.341 OA
ATOM     19  C   UNL     1      15.847  47.690  47.047  1.00  0.00     0.179 C 
ATOM     20  C   UNL     1      14.464  48.041  44.964  1.00  0.00     0.178 C 
ATOM     21  C   UNL     1      14.413  47.842  46.496  1.00  0.00     0.177 C 
BRANCH  17  22
ATOM     22  O   UNL     1      16.257  45.335  46.543  1.00  0.00    -0.385 OA
ATOM     23  H   UNL     1      15.266  45.304  46.556  1.00  0.00     0.211 HD
ENDBRANCH  17  22
BRANCH  19  24
ATOM     24  O   UNL     1      15.844  47.378  48.418  1.00  0.00    -0.387 OA
ATOM     25  H   UNL     1      15.134  46.704  48.577  1.00  0.00     0.211 HD
ENDBRANCH  19  24
BRANCH  20  26
ATOM     26  C   UNL     1      13.049  48.101  44.378  1.00  0.00     0.191 C 
BRANCH  26  27
ATOM     27  O   UNL     1      12.632  49.435  44.288  1.00  0.00    -0.394 OA
ATOM     28  H   UNL     1      12.446  49.602  43.328  1.00  0.00     0.210 HD
ENDBRANCH  26  27
ENDBRANCH  20  26
BRANCH  21  29
ATOM     29  O   UNL     1      13.794  48.953  47.094  1.00  0.00    -0.387 OA
ATOM     30  H   UNL     1      12.883  48.664  47.364  1.00  0.00     0.211 HD
ENDBRANCH  21  29
ENDBRANCH   1  16
TORSDOF 10
ENDMDL
MODEL 3
REMARK VINA RESULT:    -5.790      2.962      5.676
REMARK INTER + INTRA:          -9.526
REMARK INTER:                  -8.402
REMARK INTRA:                  -1.124
REMARK UNBOUND:                -1.367
REMARK SMILES OCC1=C[C@@H](O)[C@H]2C=CO[C@@H](O[C@@H]3O[C@@H](CO)[C@H](O)[C@@H](O)[C@H]3O)[C@H]12
REMARK SMILES IDX 12 1 11 2 8 3 9 4 7 5 10 6 24 7 5 8 3 9 4 10 6 11 2 13 1 14
REMARK SMILES IDX 13 16 22 17 14 18 20 19 15 20 18 21 23 22 21 24 16 26 17 27
REMARK SMILES IDX 19 29
REMARK H PARENT 6 12 1 15 23 23 21 25 17 28 19 30
REMARK Flexibility Score: inf
ROOT
ATOM      1  O   UNL     1      19.361  48.987  45.806  1.00  0.00    -0.310 OA
ENDROOT
BRANCH   1   2
ATOM      2  C   UNL     1      19.982  49.004  47.080  1.00  0.00     0.316 C 
ATOM      3  C   UNL     1      20.410  50.700  49.414  1.00  0.00     0.018 C 
ATOM      4  C   UNL     1      19.202  50.160  49.189  1.00  0.00     0.186 C 
ATOM      5  C   UNL     1      21.532  50.229  48.547  1.00  0.00     0.061 C 
ATOM      6  O   UNL     1      18.981  49.310  48.078  1.00  0.00    -0.472 OA
ATOM      7  C   UNL     1      21.039  50.117  47.112  1.00  0.00     0.096 C 
ATOM      8  C   UNL     1      22.822  51.036  48.428  1.00  0.00     0.145 C 
ATOM      9  C   UNL     1      22.331  49.995  46.369  1.00  0.00    -0.036 C 
ATOM     10  C   UNL     1      23.309  50.574  47.080  1.00  0.00     0.007 C 
BRANCH   8  11
ATOM     11  O   UNL     1      22.554  52.413  48.406  1.00  0.00    -0.388 OA
ATOM     12  H   UNL     1      22.230  52.648  49.314  1.00  0.00     0.211 HD
ENDBRANCH   8  11
BRANCH   9  13
ATOM     13  C   UNL     1      22.498  49.536  44.947  1.00  0.00     0.187 C 
BRANCH  13  14
ATOM     14  O   UNL     1      21.580  50.189  44.113  1.00  0.00    -0.392 OA
ATOM     15  H   UNL     1      20.793  49.589  44.034  1.00  0.00     0.211 HD
ENDBRANCH  13  14
ENDBRANCH   9  13
ENDBRANCH   1   2
BRANCH   1  16
ATOM     16  C   UNL     1      18.142  49.719  45.781  1.00  0.00     0.286 C 
ATOM     17  C   UNL     1      18.230  50.972  44.871  1.00  0.00     0.202 C 
ATOM     18  O   UNL     1      17.082  48.874  45.362  1.00  0.00    -0.341 OA
ATOM     19  C   UNL     1      18.361  50.553  43.393  1.00  0.00     0.179 C 
ATOM     20  C   UNL     1      17.295  48.362  44.053  1.00  0.00     0.178 C 
ATOM     21  C   UNL     1      17.298  49.501  43.008  1.00  0.00     0.177 C 
BRANCH  17  22
ATOM     22  O   UNL     1      17.124  51.819  45.077  1.00  0.00    -0.385 OA
ATOM     23  H   UNL     1      17.064  52.023  46.046  1.00  0.00     0.211 HD
ENDBRANCH  17  22
BRANCH  19  24
ATOM     24  O   UNL     1      18.312  51.673  42.542  1.00  0.00    -0.387 OA
ATOM     25  H   UNL     1      18.452  51.357  41.612  1.00  0.00     0.211 HD
ENDBRANCH  19  24
BRANCH  20  26
ATOM     26  C   UNL     1      16.185  47.350  43.746  1.00  0.00     0.191 C 
BRANCH  26  27
ATOM     27  O   UNL     1      16.702  46.304  42.971  1.00  0.00    -0.394 OA
ATOM     28  H   UNL     1      16.269  45.475  43.303  1.00  0.00     0.210 HD
ENDBRANCH  26  27
ENDBRANCH  20  26
BRANCH  21  29
ATOM     29  O   UNL     1      17.597  48.974  41.740  1.00  0.00    -0.387 OA
ATOM     30  H   UNL     1      17.390  49.685  41.078  1.00  0.00     0.211 HD
ENDBRANCH  21  29
ENDBRANCH   1  16
TORSDOF 10
ENDMDL
MODEL 4
REMARK VINA RESULT:    -5.778      2.698      6.070
REMARK INTER + INTRA:          -9.510
REMARK INTER:                  -8.387
REMARK INTRA:                  -1.123
REMARK UNBOUND:                -1.367
REMARK SMILES OCC1=C[C@@H](O)[C@H]2C=CO[C@@H](O[C@@H]3O[C@@H](CO)[C@H](O)[C@@H](O)[C@H]3O)[C@H]12
REMARK SMILES IDX 12 1 11 2 8 3 9 4 7 5 10 6 24 7 5 8 3 9 4 10 6 11 2 13 1 14
REMARK SMILES IDX 13 16 22 17 14 18 20 19 15 20 18 21 23 22 21 24 16 26 17 27
REMARK SMILES IDX 19 29
REMARK H PARENT 6 12 1 15 23 23 21 25 17 28 19 30
REMARK Flexibility Score: inf
ROOT
ATOM      1  O   UNL     1      19.477  48.699  46.127  1.00  0.00    -0.310 OA
ENDROOT
BRANCH   1   2
ATOM      2  C   UNL     1      20.154  48.800  47.367  1.00  0.00     0.316 C 
ATOM      3  C   UNL     1      20.485  50.550  49.677  1.00  0.00     0.018 C 
ATOM      4  C   UNL     1      19.344  49.864  49.514  1.00  0.00     0.186 C 
ATOM      5  C   UNL     1      21.612  50.217  48.754  1.00  0.00     0.061 C 
ATOM      6  O   UNL     1      19.175  48.985  48.415  1.00  0.00    -0.472 OA
ATOM      7  C   UNL     1      21.065  50.036  47.346  1.00  0.00     0.096 C 
ATOM      8  C   UNL     1      22.784  51.177  48.569  1.00  0.00     0.145 C 
ATOM      9  C   UNL     1      22.323  50.071  46.538  1.00  0.00    -0.036 C 
ATOM     10  C   UNL     1      23.256  50.771  47.198  1.00  0.00     0.007 C 
BRANCH   8  11
ATOM     11  O   UNL     1      22.346  52.510  48.561  1.00  0.00    -0.388 OA
ATOM     12  H   UNL     1      22.547  52.864  47.655  1.00  0.00     0.211 HD
ENDBRANCH   8  11
BRANCH   9  13
ATOM     13  C   UNL     1      22.473  49.627  45.109  1.00  0.00     0.187 C 
BRANCH  13  14
ATOM     14  O   UNL     1      21.400  50.093  44.338  1.00  0.00    -0.392 OA
ATOM     15  H   UNL     1      20.578  49.702  44.732  1.00  0.00     0.211 HD
ENDBRANCH  13  14
ENDBRANCH   9  13
ENDBRANCH   1   2
BRANCH   1  16
ATOM     16  C   UNL     1      18.746  47.485  45.999  1.00  0.00     0.286 C 
ATOM     17  C   UNL     1      17.663  47.569  44.892  1.00  0.00     0.202 C 
ATOM     18  O   UNL     1      19.638  46.411  45.742  1.00  0.00    -0.341 OA
ATOM     19  C   UNL     1      18.323  47.672  43.502  1.00  0.00     0.179 C 
ATOM     20  C   UNL     1      20.362  46.598  44.533  1.00  0.00     0.178 C 
ATOM     21  C   UNL     1      19.413  46.594  43.313  1.00  0.00     0.177 C 
BRANCH  17  22
ATOM     22  O   UNL     1      16.781  46.474  44.971  1.00  0.00    -0.385 OA
ATOM     23  H   UNL     1      16.801  45.995  44.102  1.00  0.00     0.211 HD
ENDBRANCH  17  22
BRANCH  19  24
ATOM     24  O   UNL     1      17.360  47.618  42.478  1.00  0.00    -0.387 OA
ATOM     25  H   UNL     1      16.657  46.973  42.752  1.00  0.00     0.211 HD
ENDBRANCH  19  24
BRANCH  20  26
ATOM     26  C   UNL     1      21.399  45.475  44.416  1.00  0.00     0.191 C 
BRANCH  26  27
ATOM     27  O   UNL     1      20.971  44.537  43.469  1.00  0.00    -0.394 OA
ATOM     28  H   UNL     1      20.213  44.958  42.986  1.00  0.00     0.210 HD
ENDBRANCH  26  27
ENDBRANCH  20  26
BRANCH  21  29
ATOM     29  O   UNL     1      20.146  46.867  42.146  1.00  0.00    -0.387 OA
ATOM     30  H   UNL     1      20.932  47.407  42.420  1.00  0.00     0.211 HD
ENDBRANCH  21  29
ENDBRANCH   1  16
TORSDOF 10
ENDMDL
MODEL 5
REMARK VINA RESULT:    -5.763      2.606      6.057
REMARK INTER + INTRA:          -9.489
REMARK INTER:                  -8.218
REMARK INTRA:                  -1.270
REMARK UNBOUND:                -1.367
REMARK SMILES OCC1=C[C@@H](O)[C@H]2C=CO[C@@H](O[C@@H]3O[C@@H](CO)[C@H](O)[C@@H](O)[C@H]3O)[C@H]12
REMARK SMILES IDX 12 1 11 2 8 3 9 4 7 5 10 6 24 7 5 8 3 9 4 10 6 11 2 13 1 14
REMARK SMILES IDX 13 16 22 17 14 18 20 19 15 20 18 21 23 22 21 24 16 26 17 27
REMARK SMILES IDX 19 29
REMARK H PARENT 6 12 1 15 23 23 21 25 17 28 19 30
REMARK Flexibility Score: inf
ROOT
ATOM      1  O   UNL     1      15.661  48.949  44.567  1.00  0.00    -0.310 OA
ENDROOT
BRANCH   1   2
ATOM      2  C   UNL     1      14.672  48.023  44.982  1.00  0.00     0.316 C 
ATOM      3  C   UNL     1      11.835  47.815  45.628  1.00  0.00     0.018 C 
ATOM      4  C   UNL     1      12.224  47.957  44.351  1.00  0.00     0.186 C 
ATOM      5  C   UNL     1      12.909  47.569  46.638  1.00  0.00     0.061 C 
ATOM      6  O   UNL     1      13.598  48.029  44.013  1.00  0.00    -0.472 OA
ATOM      7  C   UNL     1      14.095  48.472  46.332  1.00  0.00     0.096 C 
ATOM      8  C   UNL     1      12.653  47.795  48.125  1.00  0.00     0.145 C 
ATOM      9  C   UNL     1      14.881  48.357  47.600  1.00  0.00    -0.036 C 
ATOM     10  C   UNL     1      14.056  48.049  48.608  1.00  0.00     0.007 C 
BRANCH   8  11
ATOM     11  O   UNL     1      11.852  48.928  48.332  1.00  0.00    -0.388 OA
ATOM     12  H   UNL     1      12.474  49.698  48.416  1.00  0.00     0.211 HD
ENDBRANCH   8  11
BRANCH   9  13
ATOM     13  C   UNL     1      16.316  48.766  47.794  1.00  0.00     0.187 C 
BRANCH  13  14
ATOM     14  O   UNL     1      16.537  50.042  47.258  1.00  0.00    -0.392 OA
ATOM     15  H   UNL     1      17.464  50.295  47.504  1.00  0.00     0.211 HD
ENDBRANCH  13  14
ENDBRANCH   9  13
ENDBRANCH   1   2
BRANCH   1  16
ATOM     16  C   UNL     1      16.809  48.315  44.017  1.00  0.00     0.286 C 
ATOM     17  C   UNL     1      16.900  48.501  42.480  1.00  0.00     0.202 C 
ATOM     18  O   UNL     1      17.981  48.810  44.647  1.00  0.00    -0.341 OA
ATOM     19  C   UNL     1      17.176  49.978  42.133  1.00  0.00     0.179 C 
ATOM     20  C   UNL     1      18.138  50.210  44.456  1.00  0.00     0.178 C 
ATOM     21  C   UNL     1      18.350  50.543  42.961  1.00  0.00     0.177 C 
BRANCH  17  22
ATOM     22  O   UNL     1      17.874  47.646  41.929  1.00  0.00    -0.385 OA
ATOM     23  H   UNL     1      18.754  47.883  42.320  1.00  0.00     0.211 HD
ENDBRANCH  17  22
BRANCH  19  24
ATOM     24  O   UNL     1      17.390  50.143  40.752  1.00  0.00    -0.387 OA
ATOM     25  H   UNL     1      16.526  49.993  40.289  1.00  0.00     0.211 HD
ENDBRANCH  19  24
BRANCH  20  26
ATOM     26  C   UNL     1      19.335  50.678  45.290  1.00  0.00     0.191 C 
BRANCH  26  27
ATOM     27  O   UNL     1      19.123  51.993  45.723  1.00  0.00    -0.394 OA
ATOM     28  H   UNL     1      18.783  52.491  44.935  1.00  0.00     0.210 HD
ENDBRANCH  26  27
ENDBRANCH  20  26
BRANCH  21  29
ATOM     29  O   UNL     1      18.415  51.937  42.794  1.00  0.00    -0.387 OA
ATOM     30  H   UNL     1      18.378  52.111  41.817  1.00  0.00     0.211 HD
ENDBRANCH  21  29
ENDBRANCH   1  16
TORSDOF 10
ENDMDL
MODEL 6
REMARK VINA RESULT:    -5.762      2.008      6.096
REMARK INTER + INTRA:          -9.487
REMARK INTER:                  -8.484
REMARK INTRA:                  -1.003
REMARK UNBOUND:                -1.367
REMARK SMILES OCC1=C[C@@H](O)[C@H]2C=CO[C@@H](O[C@@H]3O[C@@H](CO)[C@H](O)[C@@H](O)[C@H]3O)[C@H]12
REMARK SMILES IDX 12 1 11 2 8 3 9 4 7 5 10 6 24 7 5 8 3 9 4 10 6 11 2 13 1 14
REMARK SMILES IDX 13 16 22 17 14 18 20 19 15 20 18 21 23 22 21 24 16 26 17 27
REMARK SMILES IDX 19 29
REMARK H PARENT 6 12 1 15 23 23 21 25 17 28 19 30
REMARK Flexibility Score: inf
ROOT
ATOM      1  O   UNL     1      18.372  49.555  45.087  1.00  0.00    -0.310 OA
ENDROOT
BRANCH   1   2
ATOM      2  C   UNL     1      17.018  49.757  45.453  1.00  0.00     0.316 C 
ATOM      3  C   UNL     1      14.581  48.317  46.159  1.00  0.00     0.018 C 
ATOM      4  C   UNL     1      15.598  48.382  47.031  1.00  0.00     0.186 C 
ATOM      5  C   UNL     1      14.684  49.170  44.936  1.00  0.00     0.061 C 
ATOM      6  O   UNL     1      16.779  49.101  46.720  1.00  0.00    -0.472 OA
ATOM      7  C   UNL     1      16.108  49.105  44.402  1.00  0.00     0.096 C 
ATOM      8  C   UNL     1      13.822  48.889  43.708  1.00  0.00     0.145 C 
ATOM      9  C   UNL     1      15.934  49.694  43.039  1.00  0.00    -0.036 C 
ATOM     10  C   UNL     1      14.673  49.505  42.630  1.00  0.00     0.007 C 
BRANCH   8  11
ATOM     11  O   UNL     1      13.685  47.509  43.495  1.00  0.00    -0.388 OA
ATOM     12  H   UNL     1      12.949  47.207  44.089  1.00  0.00     0.211 HD
ENDBRANCH   8  11
BRANCH   9  13
ATOM     13  C   UNL     1      17.034  50.192  42.141  1.00  0.00     0.187 C 
BRANCH  13  14
ATOM     14  O   UNL     1      18.155  49.357  42.233  1.00  0.00    -0.392 OA
ATOM     15  H   UNL     1      18.589  49.365  41.341  1.00  0.00     0.211 HD
ENDBRANCH  13  14
ENDBRANCH   9  13
ENDBRANCH   1   2
BRANCH   1  16
ATOM     16  C   UNL     1      19.051  48.670  45.969  1.00  0.00     0.286 C 
ATOM     17  C   UNL     1      18.941  47.192  45.512  1.00  0.00     0.202 C 
ATOM     18  O   UNL     1      20.412  49.055  46.083  1.00  0.00    -0.341 OA
ATOM     19  C   UNL     1      19.726  46.975  44.202  1.00  0.00     0.179 C 
ATOM     20  C   UNL     1      21.086  49.007  44.832  1.00  0.00     0.178 C 
ATOM     21  C   UNL     1      21.153  47.559  44.295  1.00  0.00     0.177 C 
BRANCH  17  22
ATOM     22  O   UNL     1      19.375  46.320  46.529  1.00  0.00    -0.385 OA
ATOM     23  H   UNL     1      18.663  46.266  47.218  1.00  0.00     0.211 HD
ENDBRANCH  17  22
BRANCH  19  24
ATOM     24  O   UNL     1      19.746  45.616  43.842  1.00  0.00    -0.387 OA
ATOM     25  H   UNL     1      20.680  45.375  43.608  1.00  0.00     0.211 HD
ENDBRANCH  19  24
BRANCH  20  26
ATOM     26  C   UNL     1      22.496  49.579  45.023  1.00  0.00     0.191 C 
BRANCH  26  27
ATOM     27  O   UNL     1      23.002  50.006  43.789  1.00  0.00    -0.394 OA
ATOM     28  H   UNL     1      22.523  50.848  43.571  1.00  0.00     0.210 HD
ENDBRANCH  26  27
ENDBRANCH  20  26
BRANCH  21  29
ATOM     29  O   UNL     1      21.746  47.556  43.022  1.00  0.00    -0.387 OA
ATOM     30  H   UNL     1      21.955  46.610  42.804  1.00  0.00     0.211 HD
ENDBRANCH  21  29
ENDBRANCH   1  16
TORSDOF 10
ENDMDL
MODEL 7
REMARK VINA RESULT:    -5.732      2.774      5.326
REMARK INTER + INTRA:          -9.444
REMARK INTER:                  -8.016
REMARK INTRA:                  -1.429
REMARK UNBOUND:                -1.367
REMARK SMILES OCC1=C[C@@H](O)[C@H]2C=CO[C@@H](O[C@@H]3O[C@@H](CO)[C@H](O)[C@@H](O)[C@H]3O)[C@H]12
REMARK SMILES IDX 12 1 11 2 8 3 9 4 7 5 10 6 24 7 5 8 3 9 4 10 6 11 2 13 1 14
REMARK SMILES IDX 13 16 22 17 14 18 20 19 15 20 18 21 23 22 21 24 16 26 17 27
REMARK SMILES IDX 19 29
REMARK H PARENT 6 12 1 15 23 23 21 25 17 28 19 30
REMARK Flexibility Score: inf
ROOT
ATOM      1  O   UNL     1      18.864  49.257  46.880  1.00  0.00    -0.310 OA
ENDROOT
BRANCH   1   2
ATOM      2  C   UNL     1      19.889  49.171  47.855  1.00  0.00     0.316 C 
ATOM      3  C   UNL     1      21.241  50.724  49.921  1.00  0.00     0.018 C 
ATOM      4  C   UNL     1      19.990  50.282  50.125  1.00  0.00     0.186 C 
ATOM      5  C   UNL     1      21.948  50.216  48.707  1.00  0.00     0.061 C 
ATOM      6  O   UNL     1      19.327  49.500  49.146  1.00  0.00    -0.472 OA
ATOM      7  C   UNL     1      20.978  50.205  47.534  1.00  0.00     0.096 C 
ATOM      8  C   UNL     1      23.177  50.934  48.157  1.00  0.00     0.145 C 
ATOM      9  C   UNL     1      21.916  50.026  46.383  1.00  0.00    -0.036 C 
ATOM     10  C   UNL     1      23.123  50.502  46.715  1.00  0.00     0.007 C 
BRANCH   8  11
ATOM     11  O   UNL     1      23.032  52.326  48.255  1.00  0.00    -0.388 OA
ATOM     12  H   UNL     1      23.586  52.717  47.529  1.00  0.00     0.211 HD
ENDBRANCH   8  11
BRANCH   9  13
ATOM     13  C   UNL     1      21.538  49.622  44.984  1.00  0.00     0.187 C 
BRANCH  13  14
ATOM     14  O   UNL     1      20.409  50.335  44.559  1.00  0.00    -0.392 OA
ATOM     15  H   UNL     1      19.670  49.678  44.486  1.00  0.00     0.211 HD
ENDBRANCH  13  14
ENDBRANCH   9  13
ENDBRANCH   1   2
BRANCH   1  16
ATOM     16  C   UNL     1      18.512  47.988  46.342  1.00  0.00     0.286 C 
ATOM     17  C   UNL     1      17.308  47.352  47.085  1.00  0.00     0.202 C 
ATOM     18  O   UNL     1      18.231  48.114  44.957  1.00  0.00    -0.341 OA
ATOM     19  C   UNL     1      16.023  48.161  46.816  1.00  0.00     0.179 C 
ATOM     20  C   UNL     1      17.142  48.995  44.712  1.00  0.00     0.178 C 
ATOM     21  C   UNL     1      15.831  48.432  45.308  1.00  0.00     0.177 C 
BRANCH  17  22
ATOM     22  O   UNL     1      17.156  45.999  46.726  1.00  0.00    -0.385 OA
ATOM     23  H   UNL     1      17.934  45.494  47.078  1.00  0.00     0.211 HD
ENDBRANCH  17  22
BRANCH  19  24
ATOM     24  O   UNL     1      14.898  47.527  47.374  1.00  0.00    -0.387 OA
ATOM     25  H   UNL     1      15.218  46.869  48.043  1.00  0.00     0.211 HD
ENDBRANCH  19  24
BRANCH  20  26
ATOM     26  C   UNL     1      17.010  49.185  43.197  1.00  0.00     0.191 C 
BRANCH  26  27
ATOM     27  O   UNL     1      18.277  49.378  42.633  1.00  0.00    -0.394 OA
ATOM     28  H   UNL     1      18.239  48.978  41.726  1.00  0.00     0.210 HD
ENDBRANCH  26  27
ENDBRANCH  20  26
BRANCH  21  29
ATOM     29  O   UNL     1      14.794  49.363  45.126  1.00  0.00    -0.387 OA
ATOM     30  H   UNL     1      14.364  49.147  44.258  1.00  0.00     0.211 HD
ENDBRANCH  21  29
ENDBRANCH   1  16
TORSDOF 10
ENDMDL
MODEL 8
REMARK VINA RESULT:    -5.728      2.167      5.212
REMARK INTER + INTRA:          -9.439
REMARK INTER:                  -8.326
REMARK INTRA:                  -1.113
REMARK UNBOUND:                -1.367
REMARK SMILES OCC1=C[C@@H](O)[C@H]2C=CO[C@@H](O[C@@H]3O[C@@H](CO)[C@H](O)[C@@H](O)[C@H]3O)[C@H]12
REMARK SMILES IDX 12 1 11 2 8 3 9 4 7 5 10 6 24 7 5 8 3 9 4 10 6 11 2 13 1 14
REMARK SMILES IDX 13 16 22 17 14 18 20 19 15 20 18 21 23 22 21 24 16 26 17 27
REMARK SMILES IDX 19 29
REMARK H PARENT 6 12 1 15 23 23 21 25 17 28 19 30
REMARK Flexibility Score: inf
ROOT
ATOM      1  O   UNL     1      16.854  49.211  44.844  1.00  0.00    -0.310 OA
ENDROOT
BRANCH   1   2
ATOM      2  C   UNL     1      17.463  48.839  46.068  1.00  0.00     0.316 C 
ATOM      3  C   UNL     1      17.975  49.800  48.775  1.00  0.00     0.018 C 
ATOM      4  C   UNL     1      16.738  49.419  48.421  1.00  0.00     0.186 C 
ATOM      5  C   UNL     1      19.073  49.517  47.802  1.00  0.00     0.061 C 
ATOM      6  O   UNL     1      16.475  48.920  47.120  1.00  0.00    -0.472 OA
ATOM      7  C   UNL     1      18.587  49.834  46.395  1.00  0.00     0.096 C 
ATOM      8  C   UNL     1      20.411  50.245  47.897  1.00  0.00     0.145 C 
ATOM      9  C   UNL     1      19.875  49.841  45.637  1.00  0.00    -0.036 C 
ATOM     10  C   UNL     1      20.880  50.142  46.470  1.00  0.00     0.007 C 
BRANCH   8  11
ATOM     11  O   UNL     1      20.229  51.589  48.256  1.00  0.00    -0.388 OA
ATOM     12  H   UNL     1      21.070  52.058  48.015  1.00  0.00     0.211 HD
ENDBRANCH   8  11
BRANCH   9  13
ATOM     13  C   UNL     1      20.025  49.780  44.141  1.00  0.00     0.187 C 
BRANCH  13  14
ATOM     14  O   UNL     1      19.106  50.639  43.523  1.00  0.00    -0.392 OA
ATOM     15  H   UNL     1      18.462  50.916  44.225  1.00  0.00     0.211 HD
ENDBRANCH  13  14
ENDBRANCH   9  13
ENDBRANCH   1   2
BRANCH   1  16
ATOM     16  C   UNL     1      15.918  48.245  44.383  1.00  0.00     0.286 C 
ATOM     17  C   UNL     1      14.879  48.857  43.407  1.00  0.00     0.202 C 
ATOM     18  O   UNL     1      16.604  47.166  43.766  1.00  0.00    -0.341 OA
ATOM     19  C   UNL     1      15.561  49.270  42.087  1.00  0.00     0.179 C 
ATOM     20  C   UNL     1      17.363  47.591  42.642  1.00  0.00     0.178 C 
ATOM     21  C   UNL     1      16.442  48.132  41.525  1.00  0.00     0.177 C 
BRANCH  17  22
ATOM     22  O   UNL     1      13.814  47.963  43.184  1.00  0.00    -0.385 OA
ATOM     23  H   UNL     1      14.178  47.143  42.760  1.00  0.00     0.211 HD
ENDBRANCH  17  22
BRANCH  19  24
ATOM     24  O   UNL     1      14.616  49.707  41.142  1.00  0.00    -0.387 OA
ATOM     25  H   UNL     1      15.107  50.125  40.388  1.00  0.00     0.211 HD
ENDBRANCH  19  24
BRANCH  20  26
ATOM     26  C   UNL     1      18.182  46.397  42.136  1.00  0.00     0.191 C 
BRANCH  26  27
ATOM     27  O   UNL     1      19.485  46.813  41.835  1.00  0.00    -0.394 OA
ATOM     28  H   UNL     1      19.755  47.425  42.568  1.00  0.00     0.210 HD
ENDBRANCH  26  27
ENDBRANCH  20  26
BRANCH  21  29
ATOM     29  O   UNL     1      17.224  48.623  40.466  1.00  0.00    -0.387 OA
ATOM     30  H   UNL     1      17.445  49.566  40.685  1.00  0.00     0.211 HD
ENDBRANCH  21  29
ENDBRANCH   1  16
TORSDOF 10
ENDMDL
MODEL 9
REMARK VINA RESULT:    -5.698      2.558      5.470
REMARK INTER + INTRA:          -9.396
REMARK INTER:                  -8.207
REMARK INTRA:                  -1.189
REMARK UNBOUND:                -1.367
REMARK SMILES OCC1=C[C@@H](O)[C@H]2C=CO[C@@H](O[C@@H]3O[C@@H](CO)[C@H](O)[C@@H](O)[C@H]3O)[C@H]12
REMARK SMILES IDX 12 1 11 2 8 3 9 4 7 5 10 6 24 7 5 8 3 9 4 10 6 11 2 13 1 14
REMARK SMILES IDX 13 16 22 17 14 18 20 19 15 20 18 21 23 22 21 24 16 26 17 27
REMARK SMILES IDX 19 29
REMARK H PARENT 6 12 1 15 23 23 21 25 17 28 19 30
REMARK Flexibility Score: inf
ROOT
ATOM      1  O   UNL     1      17.069  49.408  44.806  1.00  0.00    -0.310 OA
ENDROOT
BRANCH   1   2
ATOM      2  C   UNL     1      17.089  48.807  46.089  1.00  0.00     0.316 C 
ATOM      3  C   UNL     1      16.306  49.264  48.861  1.00  0.00     0.018 C 
ATOM      4  C   UNL     1      15.372  48.997  47.936  1.00  0.00     0.186 C 
ATOM      5  C   UNL     1      17.733  49.112  48.444  1.00  0.00     0.061 C 
ATOM      6  O   UNL     1      15.734  48.742  46.590  1.00  0.00    -0.472 OA
ATOM      7  C   UNL     1      17.907  49.686  47.046  1.00  0.00     0.096 C 
ATOM      8  C   UNL     1      18.858  49.760  49.247  1.00  0.00     0.145 C 
ATOM      9  C   UNL     1      19.397  49.775  46.951  1.00  0.00    -0.036 C 
ATOM     10  C   UNL     1      19.914  49.888  48.182  1.00  0.00     0.007 C 
BRANCH   8  11
ATOM     11  O   UNL     1      18.478  51.028  49.713  1.00  0.00    -0.388 OA
ATOM     12  H   UNL     1      17.491  51.078  49.611  1.00  0.00     0.211 HD
ENDBRANCH   8  11
BRANCH   9  13
ATOM     13  C   UNL     1      20.196  49.968  45.692  1.00  0.00     0.187 C 
BRANCH  13  14
ATOM     14  O   UNL     1      19.606  50.950  44.885  1.00  0.00    -0.392 OA
ATOM     15  H   UNL     1      20.118  51.786  45.036  1.00  0.00     0.211 HD
ENDBRANCH  13  14
ENDBRANCH   9  13
ENDBRANCH   1   2
BRANCH   1  16
ATOM     16  C   UNL     1      17.595  48.558  43.794  1.00  0.00     0.286 C 
ATOM     17  C   UNL     1      16.603  47.431  43.403  1.00  0.00     0.202 C 
ATOM     18  O   UNL     1      17.948  49.327  42.655  1.00  0.00    -0.341 OA
ATOM     19  C   UNL     1      15.372  48.024  42.689  1.00  0.00     0.179 C 
ATOM     20  C   UNL     1      16.827  50.002  42.100  1.00  0.00     0.178 C 
ATOM     21  C   UNL     1      15.786  48.994  41.561  1.00  0.00     0.177 C 
BRANCH  17  22
ATOM     22  O   UNL     1      17.242  46.453  42.616  1.00  0.00    -0.385 OA
ATOM     23  H   UNL     1      17.975  46.890  42.111  1.00  0.00     0.211 HD
ENDBRANCH  17  22
BRANCH  19  24
ATOM     24  O   UNL     1      14.524  47.008  42.212  1.00  0.00    -0.387 OA
ATOM     25  H   UNL     1      13.786  47.437  41.707  1.00  0.00     0.211 HD
ENDBRANCH  19  24
BRANCH  20  26
ATOM     26  C   UNL     1      17.325  50.918  40.976  1.00  0.00     0.191 C 
BRANCH  26  27
ATOM     27  O   UNL     1      17.332  50.216  39.764  1.00  0.00    -0.394 OA
ATOM     28  H   UNL     1      18.284  50.030  39.559  1.00  0.00     0.210 HD
ENDBRANCH  26  27
ENDBRANCH  20  26
BRANCH  21  29
ATOM     29  O   UNL     1      14.655  49.688  41.099  1.00  0.00    -0.387 OA
ATOM     30  H   UNL     1      14.108  49.036  40.586  1.00  0.00     0.211 HD
ENDBRANCH  21  29
ENDBRANCH   1  16
TORSDOF 10
ENDMDL
