MODEL 1
REMARK VINA RESULT:    -6.178      0.000      0.000
REMARK INTER + INTRA:          -7.504
REMARK INTER:                  -7.261
REMARK INTRA:                  -0.242
REMARK UNBOUND:                -0.242
REMARK SMILES O=c1c(O)c(-c2ccc(O)c(O)c2)oc2cc(O)ccc12
REMARK SMILES IDX 5 1 3 2 2 3 1 4 21 5 15 6 14 7 16 8 17 9 19 10 20 11 6 12
REMARK SMILES IDX 7 13 8 14 9 15 13 16 11 17 10 18 12 20 4 22 18 24
REMARK H PARENT 10 19 12 21 4 23 18 25
REMARK Flexibility Score: inf
ROOT
ATOM      1  C   UNL     1       7.542  25.385  11.580  1.00  0.00     0.180 A 
ATOM      2  C   UNL     1       6.152  25.612  11.523  1.00  0.00     0.208 A 
ATOM      3  C   UNL     1       5.577  26.519  12.427  1.00  0.00     0.235 A 
ATOM      4  O   UNL     1       4.337  26.748  12.389  1.00  0.00    -0.285 OA
ATOM      5  C   UNL     1       6.391  27.159  13.374  1.00  0.00     0.069 A 
ATOM      6  C   UNL     1       7.771  26.859  13.382  1.00  0.00     0.142 A 
ATOM      7  O   UNL     1       8.277  26.002  12.503  1.00  0.00    -0.452 OA
ATOM      8  C   UNL     1       8.613  27.470  14.317  1.00  0.00     0.094 A 
ATOM      9  C   UNL     1       8.095  28.380  15.248  1.00  0.00     0.119 A 
ATOM     10  C   UNL     1       6.728  28.680  15.241  1.00  0.00     0.047 A 
ATOM     11  C   UNL     1       5.877  28.075  14.310  1.00  0.00     0.020 A 
ENDROOT
BRANCH   1  12
ATOM     12  C   UNL     1       8.226  24.457  10.649  1.00  0.00     0.025 A 
ATOM     13  C   UNL     1       8.085  23.064  10.771  1.00  0.00     0.016 A 
ATOM     14  C   UNL     1       8.719  22.209   9.866  1.00  0.00     0.051 A 
ATOM     15  C   UNL     1       9.493  22.732   8.821  1.00  0.00     0.157 A 
ATOM     16  C   UNL     1       8.984  24.977   9.587  1.00  0.00     0.062 A 
ATOM     17  C   UNL     1       9.622  24.123   8.681  1.00  0.00     0.158 A 
BRANCH  15  18
ATOM     18  O   UNL     1      10.126  21.875   7.922  1.00  0.00    -0.504 OA
ATOM     19  H   UNL     1       9.674  21.035   7.581  1.00  0.00     0.293 HD
ENDBRANCH  15  18
BRANCH  17  20
ATOM     20  O   UNL     1      10.377  24.676   7.646  1.00  0.00    -0.504 OA
ATOM     21  H   UNL     1      11.267  25.130   7.813  1.00  0.00     0.293 HD
ENDBRANCH  17  20
ENDBRANCH   1  12
BRANCH   2  22
ATOM     22  O   UNL     1       5.359  24.923  10.602  1.00  0.00    -0.502 OA
ATOM     23  H   UNL     1       5.742  24.504   9.764  1.00  0.00     0.293 HD
ENDBRANCH   2  22
BRANCH   9  24
ATOM     24  O   UNL     1       8.927  28.993  16.181  1.00  0.00    -0.508 OA
ATOM     25  H   UNL     1       8.598  29.230  17.109  1.00  0.00     0.293 HD
ENDBRANCH   9  24
TORSDOF 5
ENDMDL
MODEL 2
REMARK VINA RESULT:    -6.147      1.761      6.773
REMARK INTER + INTRA:          -7.467
REMARK INTER:                  -7.155
REMARK INTRA:                  -0.312
REMARK UNBOUND:                -0.242
REMARK SMILES O=c1c(O)c(-c2ccc(O)c(O)c2)oc2cc(O)ccc12
REMARK SMILES IDX 5 1 3 2 2 3 1 4 21 5 15 6 14 7 16 8 17 9 19 10 20 11 6 12
REMARK SMILES IDX 7 13 8 14 9 15 13 16 11 17 10 18 12 20 4 22 18 24
REMARK H PARENT 10 19 12 21 4 23 18 25
REMARK Flexibility Score: inf
ROOT
ATOM      1  C   UNL     1       8.382  25.745  12.983  1.00  0.00     0.180 A 
ATOM      2  C   UNL     1       7.654  24.547  13.136  1.00  0.00     0.208 A 
ATOM      3  C   UNL     1       7.723  23.579  12.122  1.00  0.00     0.235 A 
ATOM      4  O   UNL     1       7.091  22.494  12.241  1.00  0.00    -0.285 OA
ATOM      5  C   UNL     1       8.493  23.834  10.976  1.00  0.00     0.069 A 
ATOM      6  C   UNL     1       9.172  25.069  10.887  1.00  0.00     0.142 A 
ATOM      7  O   UNL     1       9.088  25.954  11.874  1.00  0.00    -0.452 OA
ATOM      8  C   UNL     1       9.942  25.363   9.756  1.00  0.00     0.094 A 
ATOM      9  C   UNL     1      10.044  24.437   8.710  1.00  0.00     0.119 A 
ATOM     10  C   UNL     1       9.372  23.213   8.796  1.00  0.00     0.047 A 
ATOM     11  C   UNL     1       8.600  22.908   9.922  1.00  0.00     0.020 A 
ENDROOT
BRANCH   1  12
ATOM     12  C   UNL     1       8.375  26.807  14.016  1.00  0.00     0.025 A 
ATOM     13  C   UNL     1       9.394  26.895  14.980  1.00  0.00     0.016 A 
ATOM     14  C   UNL     1       9.380  27.920  15.929  1.00  0.00     0.051 A 
ATOM     15  C   UNL     1       8.357  28.878  15.921  1.00  0.00     0.157 A 
ATOM     16  C   UNL     1       7.364  27.782  13.998  1.00  0.00     0.062 A 
ATOM     17  C   UNL     1       7.347  28.809  14.948  1.00  0.00     0.158 A 
BRANCH  15  18
ATOM     18  O   UNL     1       8.345  29.898  16.872  1.00  0.00    -0.504 OA
ATOM     19  H   UNL     1       7.869  30.776  16.702  1.00  0.00     0.293 HD
ENDBRANCH  15  18
BRANCH  17  20
ATOM     20  O   UNL     1       6.319  29.752  14.907  1.00  0.00    -0.504 OA
ATOM     21  H   UNL     1       6.386  30.641  15.387  1.00  0.00     0.293 HD
ENDBRANCH  17  20
ENDBRANCH   1  12
BRANCH   2  22
ATOM     22  O   UNL     1       6.857  24.341  14.265  1.00  0.00    -0.502 OA
ATOM     23  H   UNL     1       6.588  25.097  14.883  1.00  0.00     0.293 HD
ENDBRANCH   2  22
BRANCH   9  24
ATOM     24  O   UNL     1      10.808  24.723   7.581  1.00  0.00    -0.508 OA
ATOM     25  H   UNL     1      10.382  25.050   6.722  1.00  0.00     0.293 HD
ENDBRANCH   9  24
TORSDOF 5
ENDMDL
MODEL 3
REMARK VINA RESULT:    -6.104      3.993      6.421
REMARK INTER + INTRA:          -7.417
REMARK INTER:                  -7.138
REMARK INTRA:                  -0.278
REMARK UNBOUND:                -0.242
REMARK SMILES O=c1c(O)c(-c2ccc(O)c(O)c2)oc2cc(O)ccc12
REMARK SMILES IDX 5 1 3 2 2 3 1 4 21 5 15 6 14 7 16 8 17 9 19 10 20 11 6 12
REMARK SMILES IDX 7 13 8 14 9 15 13 16 11 17 10 18 12 20 4 22 18 24
REMARK H PARENT 10 19 12 21 4 23 18 25
REMARK Flexibility Score: inf
ROOT
ATOM      1  C   UNL     1       6.845  26.931  13.880  1.00  0.00     0.180 A 
ATOM      2  C   UNL     1       6.210  27.454  12.734  1.00  0.00     0.208 A 
ATOM      3  C   UNL     1       5.140  26.742  12.170  1.00  0.00     0.235 A 
ATOM      4  O   UNL     1       4.547  27.195  11.152  1.00  0.00    -0.285 OA
ATOM      5  C   UNL     1       4.743  25.524  12.743  1.00  0.00     0.069 A 
ATOM      6  C   UNL     1       5.446  25.056  13.875  1.00  0.00     0.142 A 
ATOM      7  O   UNL     1       6.447  25.765  14.383  1.00  0.00    -0.452 OA
ATOM      8  C   UNL     1       5.086  23.841  14.468  1.00  0.00     0.094 A 
ATOM      9  C   UNL     1       4.028  23.085  13.945  1.00  0.00     0.119 A 
ATOM     10  C   UNL     1       3.329  23.548  12.825  1.00  0.00     0.047 A 
ATOM     11  C   UNL     1       3.681  24.760  12.224  1.00  0.00     0.020 A 
ENDROOT
BRANCH   1  12
ATOM     12  C   UNL     1       7.969  27.631  14.544  1.00  0.00     0.025 A 
ATOM     13  C   UNL     1       9.304  27.256  14.310  1.00  0.00     0.016 A 
ATOM     14  C   UNL     1      10.349  27.946  14.928  1.00  0.00     0.051 A 
ATOM     15  C   UNL     1      10.078  29.028  15.777  1.00  0.00     0.157 A 
ATOM     16  C   UNL     1       7.704  28.729  15.378  1.00  0.00     0.062 A 
ATOM     17  C   UNL     1       8.749  29.422  15.999  1.00  0.00     0.158 A 
BRANCH  15  18
ATOM     18  O   UNL     1      11.124  29.713  16.394  1.00  0.00    -0.504 OA
ATOM     19  H   UNL     1      11.792  29.239  16.990  1.00  0.00     0.293 HD
ENDBRANCH  15  18
BRANCH  17  20
ATOM     20  O   UNL     1       8.446  30.500  16.832  1.00  0.00    -0.504 OA
ATOM     21  H   UNL     1       7.568  30.563  17.332  1.00  0.00     0.293 HD
ENDBRANCH  17  20
ENDBRANCH   1  12
BRANCH   2  22
ATOM     22  O   UNL     1       6.658  28.644  12.157  1.00  0.00    -0.502 OA
ATOM     23  H   UNL     1       7.354  28.661  11.421  1.00  0.00     0.293 HD
ENDBRANCH   2  22
BRANCH   9  24
ATOM     24  O   UNL     1       3.664  21.875  14.531  1.00  0.00    -0.508 OA
ATOM     25  H   UNL     1       2.694  21.647  14.717  1.00  0.00     0.293 HD
ENDBRANCH   9  24
TORSDOF 5
ENDMDL
MODEL 4
REMARK VINA RESULT:    -5.952      3.829      6.768
REMARK INTER + INTRA:          -7.239
REMARK INTER:                  -7.032
REMARK INTRA:                  -0.206
REMARK UNBOUND:                -0.242
REMARK SMILES O=c1c(O)c(-c2ccc(O)c(O)c2)oc2cc(O)ccc12
REMARK SMILES IDX 5 1 3 2 2 3 1 4 21 5 15 6 14 7 16 8 17 9 19 10 20 11 6 12
REMARK SMILES IDX 7 13 8 14 9 15 13 16 11 17 10 18 12 20 4 22 18 24
REMARK H PARENT 10 19 12 21 4 23 18 25
REMARK Flexibility Score: inf
ROOT
ATOM      1  C   UNL     1       7.557  26.725  14.542  1.00  0.00     0.180 A 
ATOM      2  C   UNL     1       7.414  25.486  15.200  1.00  0.00     0.208 A 
ATOM      3  C   UNL     1       6.513  24.543  14.680  1.00  0.00     0.235 A 
ATOM      4  O   UNL     1       6.377  23.423  15.244  1.00  0.00    -0.285 OA
ATOM      5  C   UNL     1       5.766  24.862  13.536  1.00  0.00     0.069 A 
ATOM      6  C   UNL     1       5.949  26.134  12.949  1.00  0.00     0.142 A 
ATOM      7  O   UNL     1       6.818  26.993  13.468  1.00  0.00    -0.452 OA
ATOM      8  C   UNL     1       5.214  26.492  11.814  1.00  0.00     0.094 A 
ATOM      9  C   UNL     1       4.297  25.593  11.252  1.00  0.00     0.119 A 
ATOM     10  C   UNL     1       4.115  24.333  11.831  1.00  0.00     0.047 A 
ATOM     11  C   UNL     1       4.844  23.964  12.966  1.00  0.00     0.020 A 
ENDROOT
BRANCH   1  12
ATOM     12  C   UNL     1       8.499  27.764  15.018  1.00  0.00     0.025 A 
ATOM     13  C   UNL     1       9.890  27.567  14.974  1.00  0.00     0.016 A 
ATOM     14  C   UNL     1      10.759  28.571  15.406  1.00  0.00     0.051 A 
ATOM     15  C   UNL     1      10.254  29.792  15.875  1.00  0.00     0.157 A 
ATOM     16  C   UNL     1       7.998  28.997  15.469  1.00  0.00     0.062 A 
ATOM     17  C   UNL     1       8.866  30.004  15.903  1.00  0.00     0.158 A 
BRANCH  15  18
ATOM     18  O   UNL     1      11.125  30.791  16.307  1.00  0.00    -0.504 OA
ATOM     19  H   UNL     1      11.704  30.671  17.129  1.00  0.00     0.293 HD
ENDBRANCH  15  18
BRANCH  17  20
ATOM     20  O   UNL     1       8.331  31.210  16.356  1.00  0.00    -0.504 OA
ATOM     21  H   UNL     1       8.281  31.440  17.341  1.00  0.00     0.293 HD
ENDBRANCH  17  20
ENDBRANCH   1  12
BRANCH   2  22
ATOM     22  O   UNL     1       8.136  25.215  16.365  1.00  0.00    -0.502 OA
ATOM     23  H   UNL     1       8.195  25.875  17.131  1.00  0.00     0.293 HD
ENDBRANCH   2  22
BRANCH   9  24
ATOM     24  O   UNL     1       3.563  25.942  10.122  1.00  0.00    -0.508 OA
ATOM     25  H   UNL     1       2.578  25.716  10.039  1.00  0.00     0.293 HD
ENDBRANCH   9  24
TORSDOF 5
ENDMDL
MODEL 5
REMARK VINA RESULT:    -5.892      1.871      6.798
REMARK INTER + INTRA:          -7.168
REMARK INTER:                  -7.025
REMARK INTRA:                  -0.143
REMARK UNBOUND:                -0.242
REMARK SMILES O=c1c(O)c(-c2ccc(O)c(O)c2)oc2cc(O)ccc12
REMARK SMILES IDX 5 1 3 2 2 3 1 4 21 5 15 6 14 7 16 8 17 9 19 10 20 11 6 12
REMARK SMILES IDX 7 13 8 14 9 15 13 16 11 17 10 18 12 20 4 22 18 24
REMARK H PARENT 10 19 12 21 4 23 18 25
REMARK Flexibility Score: inf
ROOT
ATOM      1  C   UNL     1       7.212  26.215  13.945  1.00  0.00     0.180 A 
ATOM      2  C   UNL     1       6.263  25.325  14.488  1.00  0.00     0.208 A 
ATOM      3  C   UNL     1       6.048  24.093  13.850  1.00  0.00     0.235 A 
ATOM      4  O   UNL     1       5.213  23.275  14.323  1.00  0.00    -0.285 OA
ATOM      5  C   UNL     1       6.763  23.788  12.682  1.00  0.00     0.069 A 
ATOM      6  C   UNL     1       7.678  24.743  12.187  1.00  0.00     0.142 A 
ATOM      7  O   UNL     1       7.858  25.893  12.827  1.00  0.00    -0.452 OA
ATOM      8  C   UNL     1       8.401  24.479  11.019  1.00  0.00     0.094 A 
ATOM      9  C   UNL     1       8.225  23.268  10.336  1.00  0.00     0.119 A 
ATOM     10  C   UNL     1       7.320  22.320  10.825  1.00  0.00     0.047 A 
ATOM     11  C   UNL     1       6.591  22.574  11.991  1.00  0.00     0.020 A 
ENDROOT
BRANCH   1  12
ATOM     12  C   UNL     1       7.509  27.525  14.570  1.00  0.00     0.025 A 
ATOM     13  C   UNL     1       6.525  28.524  14.677  1.00  0.00     0.016 A 
ATOM     14  C   UNL     1       6.821  29.742  15.292  1.00  0.00     0.051 A 
ATOM     15  C   UNL     1       8.098  29.977  15.821  1.00  0.00     0.157 A 
ATOM     16  C   UNL     1       8.780  27.756  15.120  1.00  0.00     0.062 A 
ATOM     17  C   UNL     1       9.080  28.977  15.736  1.00  0.00     0.158 A 
BRANCH  15  18
ATOM     18  O   UNL     1       8.390  31.195  16.432  1.00  0.00    -0.504 OA
ATOM     19  H   UNL     1       9.018  31.866  16.007  1.00  0.00     0.293 HD
ENDBRANCH  15  18
BRANCH  17  20
ATOM     20  O   UNL     1      10.358  29.175  16.260  1.00  0.00    -0.504 OA
ATOM     21  H   UNL     1      10.951  28.403  16.536  1.00  0.00     0.293 HD
ENDBRANCH  17  20
ENDBRANCH   1  12
BRANCH   2  22
ATOM     22  O   UNL     1       5.531  25.677  15.625  1.00  0.00    -0.502 OA
ATOM     23  H   UNL     1       5.336  25.018  16.369  1.00  0.00     0.293 HD
ENDBRANCH   2  22
BRANCH   9  24
ATOM     24  O   UNL     1       8.942  22.998   9.174  1.00  0.00    -0.508 OA
ATOM     25  H   UNL     1       8.838  22.120   8.679  1.00  0.00     0.293 HD
ENDBRANCH   9  24
TORSDOF 5
ENDMDL
MODEL 6
REMARK VINA RESULT:    -5.825     19.854     21.692
REMARK INTER + INTRA:          -7.089
REMARK INTER:                  -6.959
REMARK INTRA:                  -0.129
REMARK UNBOUND:                -0.242
REMARK SMILES O=c1c(O)c(-c2ccc(O)c(O)c2)oc2cc(O)ccc12
REMARK SMILES IDX 5 1 3 2 2 3 1 4 21 5 15 6 14 7 16 8 17 9 19 10 20 11 6 12
REMARK SMILES IDX 7 13 8 14 9 15 13 16 11 17 10 18 12 20 4 22 18 24
REMARK H PARENT 10 19 12 21 4 23 18 25
REMARK Flexibility Score: inf
ROOT
ATOM      1  C   UNL     1      -4.002  39.085   1.000  1.00  0.00     0.180 A 
ATOM      2  C   UNL     1      -3.389  39.170   2.267  1.00  0.00     0.208 A 
ATOM      3  C   UNL     1      -2.180  39.874   2.388  1.00  0.00     0.235 A 
ATOM      4  O   UNL     1      -1.619  39.975   3.513  1.00  0.00    -0.285 OA
ATOM      5  C   UNL     1      -1.603  40.454   1.248  1.00  0.00     0.069 A 
ATOM      6  C   UNL     1      -2.266  40.303   0.011  1.00  0.00     0.142 A 
ATOM      7  O   UNL     1      -3.413  39.637  -0.059  1.00  0.00    -0.452 OA
ATOM      8  C   UNL     1      -1.717  40.859  -1.149  1.00  0.00     0.094 A 
ATOM      9  C   UNL     1      -0.510  41.568  -1.091  1.00  0.00     0.119 A 
ATOM     10  C   UNL     1       0.148  41.721   0.134  1.00  0.00     0.047 A 
ATOM     11  C   UNL     1      -0.392  41.169   1.300  1.00  0.00     0.020 A 
ENDROOT
BRANCH   1  12
ATOM     12  C   UNL     1      -5.286  38.376   0.794  1.00  0.00     0.025 A 
ATOM     13  C   UNL     1      -5.365  37.225  -0.010  1.00  0.00     0.016 A 
ATOM     14  C   UNL     1      -6.582  36.558  -0.170  1.00  0.00     0.051 A 
ATOM     15  C   UNL     1      -7.734  37.022   0.480  1.00  0.00     0.157 A 
ATOM     16  C   UNL     1      -6.438  38.824   1.461  1.00  0.00     0.062 A 
ATOM     17  C   UNL     1      -7.659  38.159   1.301  1.00  0.00     0.158 A 
BRANCH  15  18
ATOM     18  O   UNL     1      -8.947  36.355   0.316  1.00  0.00    -0.504 OA
ATOM     19  H   UNL     1      -9.821  36.859   0.218  1.00  0.00     0.293 HD
ENDBRANCH  15  18
BRANCH  17  20
ATOM     20  O   UNL     1      -8.784  38.641   1.969  1.00  0.00    -0.504 OA
ATOM     21  H   UNL     1      -9.713  38.282   1.787  1.00  0.00     0.293 HD
ENDBRANCH  17  20
ENDBRANCH   1  12
BRANCH   2  22
ATOM     22  O   UNL     1      -3.962  38.541   3.375  1.00  0.00    -0.502 OA
ATOM     23  H   UNL     1      -3.450  37.880   3.947  1.00  0.00     0.293 HD
ENDBRANCH   2  22
BRANCH   9  24
ATOM     24  O   UNL     1       0.043  42.125  -2.241  1.00  0.00    -0.508 OA
ATOM     25  H   UNL     1      -0.160  43.078  -2.519  1.00  0.00     0.293 HD
ENDBRANCH   9  24
TORSDOF 5
ENDMDL
MODEL 7
REMARK VINA RESULT:    -5.759     20.162     21.706
REMARK INTER + INTRA:          -7.011
REMARK INTER:                  -6.762
REMARK INTRA:                  -0.250
REMARK UNBOUND:                -0.242
REMARK SMILES O=c1c(O)c(-c2ccc(O)c(O)c2)oc2cc(O)ccc12
REMARK SMILES IDX 5 1 3 2 2 3 1 4 21 5 15 6 14 7 16 8 17 9 19 10 20 11 6 12
REMARK SMILES IDX 7 13 8 14 9 15 13 16 11 17 10 18 12 20 4 22 18 24
REMARK H PARENT 10 19 12 21 4 23 18 25
REMARK Flexibility Score: inf
ROOT
ATOM      1  C   UNL     1      -3.806  38.928   0.254  1.00  0.00     0.180 A 
ATOM      2  C   UNL     1      -3.299  39.099   1.559  1.00  0.00     0.208 A 
ATOM      3  C   UNL     1      -2.146  39.880   1.740  1.00  0.00     0.235 A 
ATOM      4  O   UNL     1      -1.680  40.058   2.898  1.00  0.00    -0.285 OA
ATOM      5  C   UNL     1      -1.519  40.452   0.622  1.00  0.00     0.069 A 
ATOM      6  C   UNL     1      -2.075  40.213  -0.654  1.00  0.00     0.142 A 
ATOM      7  O   UNL     1      -3.172  39.475  -0.780  1.00  0.00    -0.452 OA
ATOM      8  C   UNL     1      -1.471  40.758  -1.792  1.00  0.00     0.094 A 
ATOM      9  C   UNL     1      -0.316  41.542  -1.674  1.00  0.00     0.119 A 
ATOM     10  C   UNL     1       0.236  41.781  -0.411  1.00  0.00     0.047 A 
ATOM     11  C   UNL     1      -0.359  41.241   0.734  1.00  0.00     0.020 A 
ENDROOT
BRANCH   1  12
ATOM     12  C   UNL     1      -5.026  38.133  -0.017  1.00  0.00     0.025 A 
ATOM     13  C   UNL     1      -6.302  38.609   0.336  1.00  0.00     0.016 A 
ATOM     14  C   UNL     1      -7.441  37.853   0.048  1.00  0.00     0.051 A 
ATOM     15  C   UNL     1      -7.325  36.619  -0.608  1.00  0.00     0.157 A 
ATOM     16  C   UNL     1      -4.917  36.907  -0.693  1.00  0.00     0.062 A 
ATOM     17  C   UNL     1      -6.056  36.147  -0.982  1.00  0.00     0.158 A 
BRANCH  15  18
ATOM     18  O   UNL     1      -8.464  35.867  -0.892  1.00  0.00    -0.504 OA
ATOM     19  H   UNL     1      -8.891  35.267  -0.196  1.00  0.00     0.293 HD
ENDBRANCH  15  18
BRANCH  17  20
ATOM     20  O   UNL     1      -5.907  34.928  -1.643  1.00  0.00    -0.504 OA
ATOM     21  H   UNL     1      -4.998  34.565  -1.904  1.00  0.00     0.293 HD
ENDBRANCH  17  20
ENDBRANCH   1  12
BRANCH   2  22
ATOM     22  O   UNL     1      -3.917  38.477   2.647  1.00  0.00    -0.502 OA
ATOM     23  H   UNL     1      -4.091  38.960   3.519  1.00  0.00     0.293 HD
ENDBRANCH   2  22
BRANCH   9  24
ATOM     24  O   UNL     1       0.290  42.088  -2.803  1.00  0.00    -0.508 OA
ATOM     25  H   UNL     1       0.452  41.536  -3.636  1.00  0.00     0.293 HD
ENDBRANCH   9  24
TORSDOF 5
ENDMDL
MODEL 8
REMARK VINA RESULT:    -5.559     20.127     22.213
REMARK INTER + INTRA:          -6.776
REMARK INTER:                  -6.582
REMARK INTRA:                  -0.194
REMARK UNBOUND:                -0.242
REMARK SMILES O=c1c(O)c(-c2ccc(O)c(O)c2)oc2cc(O)ccc12
REMARK SMILES IDX 5 1 3 2 2 3 1 4 21 5 15 6 14 7 16 8 17 9 19 10 20 11 6 12
REMARK SMILES IDX 7 13 8 14 9 15 13 16 11 17 10 18 12 20 4 22 18 24
REMARK H PARENT 10 19 12 21 4 23 18 25
REMARK Flexibility Score: inf
ROOT
ATOM      1  C   UNL     1      -4.146  39.702   1.105  1.00  0.00     0.180 A 
ATOM      2  C   UNL     1      -4.819  39.033   0.062  1.00  0.00     0.208 A 
ATOM      3  C   UNL     1      -4.280  39.083  -1.233  1.00  0.00     0.235 A 
ATOM      4  O   UNL     1      -4.857  38.483  -2.181  1.00  0.00    -0.285 OA
ATOM      5  C   UNL     1      -3.102  39.811  -1.461  1.00  0.00     0.069 A 
ATOM      6  C   UNL     1      -2.501  40.474  -0.368  1.00  0.00     0.142 A 
ATOM      7  O   UNL     1      -3.040  40.393   0.843  1.00  0.00    -0.452 OA
ATOM      8  C   UNL     1      -1.332  41.217  -0.559  1.00  0.00     0.094 A 
ATOM      9  C   UNL     1      -0.750  41.308  -1.831  1.00  0.00     0.119 A 
ATOM     10  C   UNL     1      -1.343  40.650  -2.915  1.00  0.00     0.047 A 
ATOM     11  C   UNL     1      -2.512  39.905  -2.736  1.00  0.00     0.020 A 
ENDROOT
BRANCH   1  12
ATOM     12  C   UNL     1      -4.642  39.681   2.501  1.00  0.00     0.025 A 
ATOM     13  C   UNL     1      -4.679  38.490   3.246  1.00  0.00     0.016 A 
ATOM     14  C   UNL     1      -5.127  38.499   4.569  1.00  0.00     0.051 A 
ATOM     15  C   UNL     1      -5.531  39.699   5.172  1.00  0.00     0.157 A 
ATOM     16  C   UNL     1      -5.026  40.884   3.116  1.00  0.00     0.062 A 
ATOM     17  C   UNL     1      -5.477  40.897   4.440  1.00  0.00     0.158 A 
BRANCH  15  18
ATOM     18  O   UNL     1      -5.980  39.704   6.492  1.00  0.00    -0.504 OA
ATOM     19  H   UNL     1      -6.212  38.845   6.976  1.00  0.00     0.293 HD
ENDBRANCH  15  18
BRANCH  17  20
ATOM     20  O   UNL     1      -5.864  42.109   5.013  1.00  0.00    -0.504 OA
ATOM     21  H   UNL     1      -5.189  42.803   5.308  1.00  0.00     0.293 HD
ENDBRANCH  17  20
ENDBRANCH   1  12
BRANCH   2  22
ATOM     22  O   UNL     1      -6.017  38.357   0.310  1.00  0.00    -0.502 OA
ATOM     23  H   UNL     1      -6.587  38.548   1.125  1.00  0.00     0.293 HD
ENDBRANCH   2  22
BRANCH   9  24
ATOM     24  O   UNL     1       0.414  42.045  -2.028  1.00  0.00    -0.508 OA
ATOM     25  H   UNL     1       1.298  41.595  -2.234  1.00  0.00     0.293 HD
ENDBRANCH   9  24
TORSDOF 5
ENDMDL
MODEL 9
REMARK VINA RESULT:    -5.448      2.471      6.906
REMARK INTER + INTRA:          -6.646
REMARK INTER:                  -6.684
REMARK INTRA:                   0.038
REMARK UNBOUND:                -0.242
REMARK SMILES O=c1c(O)c(-c2ccc(O)c(O)c2)oc2cc(O)ccc12
REMARK SMILES IDX 5 1 3 2 2 3 1 4 21 5 15 6 14 7 16 8 17 9 19 10 20 11 6 12
REMARK SMILES IDX 7 13 8 14 9 15 13 16 11 17 10 18 12 20 4 22 18 24
REMARK H PARENT 10 19 12 21 4 23 18 25
REMARK Flexibility Score: inf
ROOT
ATOM      1  C   UNL     1       7.064  26.082  13.741  1.00  0.00     0.180 A 
ATOM      2  C   UNL     1       7.817  25.620  12.642  1.00  0.00     0.208 A 
ATOM      3  C   UNL     1       7.383  24.474  11.958  1.00  0.00     0.235 A 
ATOM      4  O   UNL     1       8.032  24.048  10.964  1.00  0.00    -0.285 OA
ATOM      5  C   UNL     1       6.228  23.807  12.395  1.00  0.00     0.069 A 
ATOM      6  C   UNL     1       5.543  24.318  13.519  1.00  0.00     0.142 A 
ATOM      7  O   UNL     1       5.984  25.411  14.132  1.00  0.00    -0.452 OA
ATOM      8  C   UNL     1       4.394  23.675  13.990  1.00  0.00     0.094 A 
ATOM      9  C   UNL     1       3.916  22.523  13.351  1.00  0.00     0.119 A 
ATOM     10  C   UNL     1       4.591  22.016  12.236  1.00  0.00     0.047 A 
ATOM     11  C   UNL     1       5.741  22.651  11.757  1.00  0.00     0.020 A 
ENDROOT
BRANCH   1  12
ATOM     12  C   UNL     1       7.447  27.293  14.503  1.00  0.00     0.025 A 
ATOM     13  C   UNL     1       8.765  27.488  14.953  1.00  0.00     0.016 A 
ATOM     14  C   UNL     1       9.109  28.650  15.648  1.00  0.00     0.051 A 
ATOM     15  C   UNL     1       8.146  29.640  15.893  1.00  0.00     0.157 A 
ATOM     16  C   UNL     1       6.492  28.297  14.731  1.00  0.00     0.062 A 
ATOM     17  C   UNL     1       6.833  29.462  15.428  1.00  0.00     0.158 A 
BRANCH  15  18
ATOM     18  O   UNL     1       8.493  30.797  16.589  1.00  0.00    -0.504 OA
ATOM     19  H   UNL     1       7.796  31.479  16.865  1.00  0.00     0.293 HD
ENDBRANCH  15  18
BRANCH  17  20
ATOM     20  O   UNL     1       5.854  30.431  15.648  1.00  0.00    -0.504 OA
ATOM     21  H   UNL     1       4.893  30.187  15.853  1.00  0.00     0.293 HD
ENDBRANCH  17  20
ENDBRANCH   1  12
BRANCH   2  22
ATOM     22  O   UNL     1       8.990  26.277  12.260  1.00  0.00    -0.502 OA
ATOM     23  H   UNL     1       9.839  25.777  12.025  1.00  0.00     0.293 HD
ENDBRANCH   2  22
BRANCH   9  24
ATOM     24  O   UNL     1       2.772  21.878  13.813  1.00  0.00    -0.508 OA
ATOM     25  H   UNL     1       2.622  20.888  13.657  1.00  0.00     0.293 HD
ENDBRANCH   9  24
TORSDOF 5
ENDMDL
