MODEL 1
REMARK VINA RESULT:    -4.315      0.000      0.000
REMARK INTER + INTRA:          -7.541
REMARK INTER:                  -6.586
REMARK INTRA:                  -0.955
REMARK UNBOUND:                -0.955
REMARK SMILES O=C([O-])CCCCCCCCC(=O)[O-]
REMARK SMILES IDX 7 1 6 2 5 3 4 4 2 5 1 6 3 7 8 8 9 9 10 10 11 11 12 12 13 13
REMARK SMILES IDX 14 14
REMARK H PARENT
REMARK Flexibility Score: inf
ROOT
ATOM      1  C   UNL     1     124.859 176.850 122.704  1.00  0.00     0.000 C 
ENDROOT
BRANCH   1   2
ATOM      2  C   UNL     1     123.465 177.430 122.422  1.00  0.00     0.000 C 
BRANCH   2   3
ATOM      3  C   UNL     1     123.428 178.128 121.054  1.00  0.00     0.006 C 
BRANCH   3   4
ATOM      4  C   UNL     1     124.104 177.294 119.958  1.00  0.00     0.053 C 
BRANCH   4   5
ATOM      5  C   UNL     1     124.884 178.150 119.008  1.00  0.00     0.041 C 
ATOM      6  O   UNL     1     125.265 179.298 119.357  1.00  0.00    -0.550 OA
ATOM      7  O   UNL     1     125.221 177.666 117.750  1.00  0.00    -0.550 OA
ENDBRANCH   4   5
ENDBRANCH   3   4
ENDBRANCH   2   3
ENDBRANCH   1   2
BRANCH   1   8
ATOM      8  C   UNL     1     125.502 177.440 123.969  1.00  0.00     0.000 C 
BRANCH   8   9
ATOM      9  C   UNL     1     126.959 177.873 123.746  1.00  0.00     0.000 C 
BRANCH   9  10
ATOM     10  C   UNL     1     127.180 178.331 122.300  1.00  0.00     0.006 C 
BRANCH  10  11
ATOM     11  C   UNL     1     128.400 177.640 121.683  1.00  0.00     0.053 C 
BRANCH  11  12
ATOM     12  C   UNL     1     128.229 177.497 120.204  1.00  0.00     0.041 C 
ATOM     13  O   UNL     1     128.438 178.478 119.444  1.00  0.00    -0.550 OA
ATOM     14  O   UNL     1     127.791 176.293 119.668  1.00  0.00    -0.550 OA
ENDBRANCH  11  12
ENDBRANCH  10  11
ENDBRANCH   9  10
ENDBRANCH   8   9
ENDBRANCH   1   8
TORSDOF 9
ENDMDL
MODEL 2
REMARK VINA RESULT:    -4.223      0.975      3.906
REMARK INTER + INTRA:          -7.400
REMARK INTER:                  -6.609
REMARK INTRA:                  -0.792
REMARK UNBOUND:                -0.955
REMARK SMILES O=C([O-])CCCCCCCCC(=O)[O-]
REMARK SMILES IDX 7 1 6 2 5 3 4 4 2 5 1 6 3 7 8 8 9 9 10 10 11 11 12 12 13 13
REMARK SMILES IDX 14 14
REMARK H PARENT
REMARK Flexibility Score: inf
ROOT
ATOM      1  C   UNL     1     125.100 176.611 123.379  1.00  0.00     0.000 C 
ENDROOT
BRANCH   1   2
ATOM      2  C   UNL     1     125.854 177.549 124.334  1.00  0.00     0.000 C 
BRANCH   2   3
ATOM      3  C   UNL     1     127.312 177.729 123.887  1.00  0.00     0.006 C 
BRANCH   3   4
ATOM      4  C   UNL     1     127.421 178.437 122.529  1.00  0.00     0.053 C 
BRANCH   4   5
ATOM      5  C   UNL     1     128.285 177.676 121.571  1.00  0.00     0.041 C 
ATOM      6  O   UNL     1     128.155 176.429 121.455  1.00  0.00    -0.550 OA
ATOM      7  O   UNL     1     129.210 178.348 120.783  1.00  0.00    -0.550 OA
ENDBRANCH   4   5
ENDBRANCH   3   4
ENDBRANCH   2   3
ENDBRANCH   1   2
BRANCH   1   8
ATOM      8  C   UNL     1     123.633 177.023 123.178  1.00  0.00     0.000 C 
BRANCH   8   9
ATOM      9  C   UNL     1     123.399 177.748 121.844  1.00  0.00     0.000 C 
BRANCH   9  10
ATOM     10  C   UNL     1     124.469 177.365 120.816  1.00  0.00     0.006 C 
BRANCH  10  11
ATOM     11  C   UNL     1     123.924 177.470 119.388  1.00  0.00     0.053 C 
BRANCH  11  12
ATOM     12  C   UNL     1     124.948 178.071 118.479  1.00  0.00     0.041 C 
ATOM     13  O   UNL     1     126.062 178.440 118.936  1.00  0.00    -0.550 OA
ATOM     14  O   UNL     1     124.656 178.269 117.136  1.00  0.00    -0.550 OA
ENDBRANCH  11  12
ENDBRANCH  10  11
ENDBRANCH   9  10
ENDBRANCH   8   9
ENDBRANCH   1   8
TORSDOF 9
ENDMDL
MODEL 3
REMARK VINA RESULT:    -4.220      1.752      2.580
REMARK INTER + INTRA:          -7.395
REMARK INTER:                  -6.428
REMARK INTRA:                  -0.967
REMARK UNBOUND:                -0.955
REMARK SMILES O=C([O-])CCCCCCCCC(=O)[O-]
REMARK SMILES IDX 7 1 6 2 5 3 4 4 2 5 1 6 3 7 8 8 9 9 10 10 11 11 12 12 13 13
REMARK SMILES IDX 14 14
REMARK H PARENT
REMARK Flexibility Score: inf
ROOT
ATOM      1  C   UNL     1     123.862 177.618 121.283  1.00  0.00     0.000 C 
ENDROOT
BRANCH   1   2
ATOM      2  C   UNL     1     123.784 177.394 119.765  1.00  0.00     0.000 C 
BRANCH   2   3
ATOM      3  C   UNL     1     124.823 178.253 119.030  1.00  0.00     0.006 C 
BRANCH   3   4
ATOM      4  C   UNL     1     125.683 177.426 118.064  1.00  0.00     0.053 C 
BRANCH   4   5
ATOM      5  C   UNL     1     127.146 177.587 118.343  1.00  0.00     0.041 C 
ATOM      6  O   UNL     1     127.553 178.543 119.055  1.00  0.00    -0.550 OA
ATOM      7  O   UNL     1     128.055 176.662 117.846  1.00  0.00    -0.550 OA
ENDBRANCH   4   5
ENDBRANCH   3   4
ENDBRANCH   2   3
ENDBRANCH   1   2
BRANCH   1   8
ATOM      8  C   UNL     1     125.292 177.487 121.830  1.00  0.00     0.000 C 
BRANCH   8   9
ATOM      9  C   UNL     1     125.379 176.547 123.042  1.00  0.00     0.000 C 
BRANCH   9  10
ATOM     10  C   UNL     1     126.314 175.367 122.756  1.00  0.00     0.006 C 
BRANCH  10  11
ATOM     11  C   UNL     1     126.590 175.235 121.255  1.00  0.00     0.053 C 
BRANCH  11  12
ATOM     12  C   UNL     1     128.062 175.174 120.997  1.00  0.00     0.041 C 
ATOM     13  O   UNL     1     128.785 176.183 121.209  1.00  0.00    -0.550 OA
ATOM     14  O   UNL     1     128.630 174.019 120.475  1.00  0.00    -0.550 OA
ENDBRANCH  11  12
ENDBRANCH  10  11
ENDBRANCH   9  10
ENDBRANCH   8   9
ENDBRANCH   1   8
TORSDOF 9
ENDMDL
MODEL 4
REMARK VINA RESULT:    -4.172      4.107      6.258
REMARK INTER + INTRA:          -7.322
REMARK INTER:                  -6.879
REMARK INTRA:                  -0.442
REMARK UNBOUND:                -0.955
REMARK SMILES O=C([O-])CCCCCCCCC(=O)[O-]
REMARK SMILES IDX 7 1 6 2 5 3 4 4 2 5 1 6 3 7 8 8 9 9 10 10 11 11 12 12 13 13
REMARK SMILES IDX 14 14
REMARK H PARENT
REMARK Flexibility Score: inf
ROOT
ATOM      1  C   UNL     1     124.085 176.893 123.529  1.00  0.00     0.000 C 
ENDROOT
BRANCH   1   2
ATOM      2  C   UNL     1     124.681 177.062 122.123  1.00  0.00     0.000 C 
BRANCH   2   3
ATOM      3  C   UNL     1     123.726 177.851 121.214  1.00  0.00     0.006 C 
BRANCH   3   4
ATOM      4  C   UNL     1     123.780 177.370 119.758  1.00  0.00     0.053 C 
BRANCH   4   5
ATOM      5  C   UNL     1     124.890 178.026 118.995  1.00  0.00     0.041 C 
ATOM      6  O   UNL     1     125.298 179.169 119.330  1.00  0.00    -0.550 OA
ATOM      7  O   UNL     1     125.495 177.361 117.937  1.00  0.00    -0.550 OA
ENDBRANCH   4   5
ENDBRANCH   3   4
ENDBRANCH   2   3
ENDBRANCH   1   2
BRANCH   1   8
ATOM      8  C   UNL     1     122.622 177.355 123.613  1.00  0.00     0.000 C 
BRANCH   8   9
ATOM      9  C   UNL     1     121.674 176.240 124.081  1.00  0.00     0.000 C 
BRANCH   9  10
ATOM     10  C   UNL     1     120.408 176.826 124.715  1.00  0.00     0.006 C 
BRANCH  10  11
ATOM     11  C   UNL     1     119.928 178.061 123.945  1.00  0.00     0.053 C 
BRANCH  11  12
ATOM     12  C   UNL     1     118.678 178.607 124.558  1.00  0.00     0.041 C 
ATOM     13  O   UNL     1     118.725 179.211 125.662  1.00  0.00    -0.550 OA
ATOM     14  O   UNL     1     117.453 178.407 123.935  1.00  0.00    -0.550 OA
ENDBRANCH  11  12
ENDBRANCH  10  11
ENDBRANCH   9  10
ENDBRANCH   8   9
ENDBRANCH   1   8
TORSDOF 9
ENDMDL
MODEL 5
REMARK VINA RESULT:    -4.170      7.005      8.822
REMARK INTER + INTRA:          -7.319
REMARK INTER:                  -6.250
REMARK INTRA:                  -1.069
REMARK UNBOUND:                -0.955
REMARK SMILES O=C([O-])CCCCCCCCC(=O)[O-]
REMARK SMILES IDX 7 1 6 2 5 3 4 4 2 5 1 6 3 7 8 8 9 9 10 10 11 11 12 12 13 13
REMARK SMILES IDX 14 14
REMARK H PARENT
REMARK Flexibility Score: inf
ROOT
ATOM      1  C   UNL     1     122.696 178.503 126.148  1.00  0.00     0.000 C 
ENDROOT
BRANCH   1   2
ATOM      2  C   UNL     1     122.500 177.753 124.822  1.00  0.00     0.000 C 
BRANCH   2   3
ATOM      3  C   UNL     1     122.481 176.234 125.049  1.00  0.00     0.006 C 
BRANCH   3   4
ATOM      4  C   UNL     1     121.114 175.615 124.728  1.00  0.00     0.053 C 
BRANCH   4   5
ATOM      5  C   UNL     1     120.286 175.424 125.962  1.00  0.00     0.041 C 
ATOM      6  O   UNL     1     120.819 175.503 127.100  1.00  0.00    -0.550 OA
ATOM      7  O   UNL     1     118.921 175.192 125.856  1.00  0.00    -0.550 OA
ENDBRANCH   4   5
ENDBRANCH   3   4
ENDBRANCH   2   3
ENDBRANCH   1   2
BRANCH   1   8
ATOM      8  C   UNL     1     121.377 179.036 126.729  1.00  0.00     0.000 C 
BRANCH   8   9
ATOM      9  C   UNL     1     120.422 179.562 125.647  1.00  0.00     0.000 C 
BRANCH   9  10
ATOM     10  C   UNL     1     119.061 178.861 125.729  1.00  0.00     0.006 C 
BRANCH  10  11
ATOM     11  C   UNL     1     118.577 178.437 124.339  1.00  0.00     0.053 C 
BRANCH  11  12
ATOM     12  C   UNL     1     117.082 178.406 124.292  1.00  0.00     0.041 C 
ATOM     13  O   UNL     1     116.422 178.118 125.325  1.00  0.00    -0.550 OA
ATOM     14  O   UNL     1     116.418 178.646 123.096  1.00  0.00    -0.550 OA
ENDBRANCH  11  12
ENDBRANCH  10  11
ENDBRANCH   9  10
ENDBRANCH   8   9
ENDBRANCH   1   8
TORSDOF 9
ENDMDL
MODEL 6
REMARK VINA RESULT:    -4.170      6.110      7.987
REMARK INTER + INTRA:          -7.318
REMARK INTER:                  -6.156
REMARK INTRA:                  -1.163
REMARK UNBOUND:                -0.955
REMARK SMILES O=C([O-])CCCCCCCCC(=O)[O-]
REMARK SMILES IDX 7 1 6 2 5 3 4 4 2 5 1 6 3 7 8 8 9 9 10 10 11 11 12 12 13 13
REMARK SMILES IDX 14 14
REMARK H PARENT
REMARK Flexibility Score: inf
ROOT
ATOM      1  C   UNL     1     123.719 178.131 126.205  1.00  0.00     0.000 C 
ENDROOT
BRANCH   1   2
ATOM      2  C   UNL     1     123.110 177.615 124.893  1.00  0.00     0.000 C 
BRANCH   2   3
ATOM      3  C   UNL     1     122.912 176.093 124.942  1.00  0.00     0.006 C 
BRANCH   3   4
ATOM      4  C   UNL     1     121.476 175.682 124.587  1.00  0.00     0.053 C 
BRANCH   4   5
ATOM      5  C   UNL     1     120.623 175.527 125.808  1.00  0.00     0.041 C 
ATOM      6  O   UNL     1     119.373 175.656 125.727  1.00  0.00    -0.550 OA
ATOM      7  O   UNL     1     121.204 175.205 127.027  1.00  0.00    -0.550 OA
ENDBRANCH   4   5
ENDBRANCH   3   4
ENDBRANCH   2   3
ENDBRANCH   1   2
BRANCH   1   8
ATOM      8  C   UNL     1     122.857 179.214 126.874  1.00  0.00     0.000 C 
BRANCH   8   9
ATOM      9  C   UNL     1     121.843 178.632 127.871  1.00  0.00     0.000 C 
BRANCH   9  10
ATOM     10  C   UNL     1     120.408 178.821 127.368  1.00  0.00     0.006 C 
BRANCH  10  11
ATOM     11  C   UNL     1     120.379 179.666 126.090  1.00  0.00     0.053 C 
BRANCH  11  12
ATOM     12  C   UNL     1     119.413 179.091 125.104  1.00  0.00     0.041 C 
ATOM     13  O   UNL     1     118.207 178.922 125.423  1.00  0.00    -0.550 OA
ATOM     14  O   UNL     1     119.853 178.695 123.848  1.00  0.00    -0.550 OA
ENDBRANCH  11  12
ENDBRANCH  10  11
ENDBRANCH   9  10
ENDBRANCH   8   9
ENDBRANCH   1   8
TORSDOF 9
ENDMDL
MODEL 7
REMARK VINA RESULT:    -4.166      7.870      9.584
REMARK INTER + INTRA:          -7.312
REMARK INTER:                  -6.378
REMARK INTRA:                  -0.934
REMARK UNBOUND:                -0.955
REMARK SMILES O=C([O-])CCCCCCCCC(=O)[O-]
REMARK SMILES IDX 7 1 6 2 5 3 4 4 2 5 1 6 3 7 8 8 9 9 10 10 11 11 12 12 13 13
REMARK SMILES IDX 14 14
REMARK H PARENT
REMARK Flexibility Score: inf
ROOT
ATOM      1  C   UNL     1     121.367 179.286 126.530  1.00  0.00     0.000 C 
ENDROOT
BRANCH   1   2
ATOM      2  C   UNL     1     120.755 178.836 127.865  1.00  0.00     0.000 C 
BRANCH   2   3
ATOM      3  C   UNL     1     121.068 177.358 128.141  1.00  0.00     0.006 C 
BRANCH   3   4
ATOM      4  C   UNL     1     120.930 176.490 126.882  1.00  0.00     0.053 C 
BRANCH   4   5
ATOM      5  C   UNL     1     119.696 175.642 126.923  1.00  0.00     0.041 C 
ATOM      6  O   UNL     1     119.182 175.221 125.854  1.00  0.00    -0.550 OA
ATOM      7  O   UNL     1     119.134 175.288 128.143  1.00  0.00    -0.550 OA
ENDBRANCH   4   5
ENDBRANCH   3   4
ENDBRANCH   2   3
ENDBRANCH   1   2
BRANCH   1   8
ATOM      8  C   UNL     1     120.324 179.876 125.567  1.00  0.00     0.000 C 
BRANCH   8   9
ATOM      9  C   UNL     1     120.348 179.207 124.185  1.00  0.00     0.000 C 
BRANCH   9  10
ATOM     10  C   UNL     1     119.161 178.252 124.016  1.00  0.00     0.006 C 
BRANCH  10  11
ATOM     11  C   UNL     1     118.076 178.533 125.061  1.00  0.00     0.053 C 
BRANCH  11  12
ATOM     12  C   UNL     1     116.724 178.542 124.421  1.00  0.00     0.041 C 
ATOM     13  O   UNL     1     116.615 178.601 123.168  1.00  0.00    -0.550 OA
ATOM     14  O   UNL     1     115.581 178.535 125.210  1.00  0.00    -0.550 OA
ENDBRANCH  11  12
ENDBRANCH  10  11
ENDBRANCH   9  10
ENDBRANCH   8   9
ENDBRANCH   1   8
TORSDOF 9
ENDMDL
MODEL 8
REMARK VINA RESULT:    -4.151      7.037      8.351
REMARK INTER + INTRA:          -7.289
REMARK INTER:                  -6.626
REMARK INTRA:                  -0.663
REMARK UNBOUND:                -0.955
REMARK SMILES O=C([O-])CCCCCCCCC(=O)[O-]
REMARK SMILES IDX 7 1 6 2 5 3 4 4 2 5 1 6 3 7 8 8 9 9 10 10 11 11 12 12 13 13
REMARK SMILES IDX 14 14
REMARK H PARENT
REMARK Flexibility Score: inf
ROOT
ATOM      1  C   UNL     1     120.749 179.101 123.980  1.00  0.00     0.000 C 
ENDROOT
BRANCH   1   2
ATOM      2  C   UNL     1     120.250 179.643 125.328  1.00  0.00     0.000 C 
BRANCH   2   3
ATOM      3  C   UNL     1     118.715 179.638 125.386  1.00  0.00     0.006 C 
BRANCH   3   4
ATOM      4  C   UNL     1     118.128 178.245 125.120  1.00  0.00     0.053 C 
BRANCH   4   5
ATOM      5  C   UNL     1     116.671 178.311 124.777  1.00  0.00     0.041 C 
ATOM      6  O   UNL     1     115.802 178.148 125.672  1.00  0.00    -0.550 OA
ATOM      7  O   UNL     1     116.274 178.588 123.475  1.00  0.00    -0.550 OA
ENDBRANCH   4   5
ENDBRANCH   3   4
ENDBRANCH   2   3
ENDBRANCH   1   2
BRANCH   1   8
ATOM      8  C   UNL     1     121.815 178.005 124.139  1.00  0.00     0.000 C 
BRANCH   8   9
ATOM      9  C   UNL     1     122.052 177.617 125.606  1.00  0.00     0.000 C 
BRANCH   9  10
ATOM     10  C   UNL     1     123.428 178.094 126.084  1.00  0.00     0.006 C 
BRANCH  10  11
ATOM     11  C   UNL     1     123.297 179.040 127.281  1.00  0.00     0.053 C 
BRANCH  11  12
ATOM     12  C   UNL     1     122.500 178.398 128.372  1.00  0.00     0.041 C 
ATOM     13  O   UNL     1     121.394 178.888 128.720  1.00  0.00    -0.550 OA
ATOM     14  O   UNL     1     123.000 177.287 129.038  1.00  0.00    -0.550 OA
ENDBRANCH  11  12
ENDBRANCH  10  11
ENDBRANCH   9  10
ENDBRANCH   8   9
ENDBRANCH   1   8
TORSDOF 9
ENDMDL
MODEL 9
REMARK VINA RESULT:    -4.144      7.374      9.019
REMARK INTER + INTRA:          -7.279
REMARK INTER:                  -6.484
REMARK INTRA:                  -0.795
REMARK UNBOUND:                -0.955
REMARK SMILES O=C([O-])CCCCCCCCC(=O)[O-]
REMARK SMILES IDX 7 1 6 2 5 3 4 4 2 5 1 6 3 7 8 8 9 9 10 10 11 11 12 12 13 13
REMARK SMILES IDX 14 14
REMARK H PARENT
REMARK Flexibility Score: inf
ROOT
ATOM      1  C   UNL     1     120.362 179.537 125.043  1.00  0.00     0.000 C 
ENDROOT
BRANCH   1   2
ATOM      2  C   UNL     1     118.855 179.536 125.342  1.00  0.00     0.000 C 
BRANCH   2   3
ATOM      3  C   UNL     1     118.149 178.394 124.595  1.00  0.00     0.006 C 
BRANCH   3   4
ATOM      4  C   UNL     1     116.657 178.677 124.378  1.00  0.00     0.053 C 
BRANCH   4   5
ATOM      5  C   UNL     1     115.854 178.421 125.617  1.00  0.00     0.041 C 
ATOM      6  O   UNL     1     116.345 177.746 126.560  1.00  0.00    -0.550 OA
ATOM      7  O   UNL     1     114.580 178.957 125.744  1.00  0.00    -0.550 OA
ENDBRANCH   4   5
ENDBRANCH   3   4
ENDBRANCH   2   3
ENDBRANCH   1   2
BRANCH   1   8
ATOM      8  C   UNL     1     120.698 178.912 123.680  1.00  0.00     0.000 C 
BRANCH   8   9
ATOM      9  C   UNL     1     121.872 177.925 123.754  1.00  0.00     0.000 C 
BRANCH   9  10
ATOM     10  C   UNL     1     121.801 177.083 125.033  1.00  0.00     0.006 C 
BRANCH  10  11
ATOM     11  C   UNL     1     121.006 175.794 124.800  1.00  0.00     0.053 C 
BRANCH  11  12
ATOM     12  C   UNL     1     120.030 175.573 125.912  1.00  0.00     0.041 C 
ATOM     13  O   UNL     1     119.238 174.595 125.874  1.00  0.00    -0.550 OA
ATOM     14  O   UNL     1     119.962 176.473 126.967  1.00  0.00    -0.550 OA
ENDBRANCH  11  12
ENDBRANCH  10  11
ENDBRANCH   9  10
ENDBRANCH   8   9
ENDBRANCH   1   8
TORSDOF 9
ENDMDL
