MODEL 1
REMARK VINA RESULT:    -3.139      0.000      0.000
REMARK INTER + INTRA:          -5.250
REMARK INTER:                  -4.607
REMARK INTRA:                  -0.644
REMARK UNBOUND:                -0.644
REMARK SMILES O=C([O-])CCCCCCCC(=O)[O-]
REMARK SMILES IDX 7 1 6 2 5 3 4 4 2 5 1 6 3 7 8 8 9 9 10 10 11 11 12 12 13 13
REMARK H PARENT
REMARK Flexibility Score: inf
ROOT
ATOM      1  C   UNL     1      14.433   6.543  16.970  1.00  0.00     0.000 C 
ENDROOT
BRANCH   1   2
ATOM      2  C   UNL     1      14.740   5.508  15.875  1.00  0.00     0.000 C 
BRANCH   2   3
ATOM      3  C   UNL     1      14.281   4.089  16.254  1.00  0.00     0.006 C 
BRANCH   3   4
ATOM      4  C   UNL     1      13.647   4.040  17.650  1.00  0.00     0.053 C 
BRANCH   4   5
ATOM      5  C   UNL     1      14.445   3.190  18.591  1.00  0.00     0.041 C 
ATOM      6  O   UNL     1      15.549   2.706  18.228  1.00  0.00    -0.550 OA
ATOM      7  O   UNL     1      13.951   2.905  19.858  1.00  0.00    -0.550 OA
ENDBRANCH   4   5
ENDBRANCH   3   4
ENDBRANCH   2   3
ENDBRANCH   1   2
BRANCH   1   8
ATOM      8  C   UNL     1      13.460   7.636  16.491  1.00  0.00     0.000 C 
BRANCH   8   9
ATOM      9  C   UNL     1      12.173   7.057  15.875  1.00  0.00     0.006 C 
BRANCH   9  10
ATOM     10  C   UNL     1      10.877   7.505  16.573  1.00  0.00     0.053 C 
BRANCH  10  11
ATOM     11  C   UNL     1      10.913   7.243  18.047  1.00  0.00     0.041 C 
ATOM     12  O   UNL     1      10.884   6.061  18.480  1.00  0.00    -0.550 OA
ATOM     13  O   UNL     1      10.944   8.304  18.943  1.00  0.00    -0.550 OA
ENDBRANCH  10  11
ENDBRANCH   9  10
ENDBRANCH   8   9
ENDBRANCH   1   8
TORSDOF 8
ENDMDL
MODEL 2
REMARK VINA RESULT:    -3.116      1.766      4.036
REMARK INTER + INTRA:          -5.218
REMARK INTER:                  -4.394
REMARK INTRA:                  -0.824
REMARK UNBOUND:                -0.644
REMARK SMILES O=C([O-])CCCCCCCC(=O)[O-]
REMARK SMILES IDX 7 1 6 2 5 3 4 4 2 5 1 6 3 7 8 8 9 9 10 10 11 11 12 12 13 13
REMARK H PARENT
REMARK Flexibility Score: inf
ROOT
ATOM      1  C   UNL     1      12.149   6.693  16.033  1.00  0.00     0.000 C 
ENDROOT
BRANCH   1   2
ATOM      2  C   UNL     1      10.877   6.832  16.887  1.00  0.00     0.000 C 
BRANCH   2   3
ATOM      3  C   UNL     1      10.876   5.894  18.107  1.00  0.00     0.006 C 
BRANCH   3   4
ATOM      4  C   UNL     1      11.911   4.769  17.972  1.00  0.00     0.053 C 
BRANCH   4   5
ATOM      5  C   UNL     1      12.939   4.830  19.060  1.00  0.00     0.041 C 
ATOM      6  O   UNL     1      13.252   3.790  19.696  1.00  0.00    -0.550 OA
ATOM      7  O   UNL     1      13.528   6.044  19.393  1.00  0.00    -0.550 OA
ENDBRANCH   4   5
ENDBRANCH   3   4
ENDBRANCH   2   3
ENDBRANCH   1   2
BRANCH   1   8
ATOM      8  C   UNL     1      13.179   7.797  16.328  1.00  0.00     0.000 C 
BRANCH   8   9
ATOM      9  C   UNL     1      14.627   7.348  16.055  1.00  0.00     0.006 C 
BRANCH   9  10
ATOM     10  C   UNL     1      14.802   5.827  15.902  1.00  0.00     0.053 C 
BRANCH  10  11
ATOM     11  C   UNL     1      15.981   5.317  16.672  1.00  0.00     0.041 C 
ATOM     12  O   UNL     1      17.085   5.919  16.613  1.00  0.00    -0.550 OA
ATOM     13  O   UNL     1      15.869   4.158  17.429  1.00  0.00    -0.550 OA
ENDBRANCH  10  11
ENDBRANCH   9  10
ENDBRANCH   8   9
ENDBRANCH   1   8
TORSDOF 8
ENDMDL
MODEL 3
REMARK VINA RESULT:    -3.082      2.130      5.327
REMARK INTER + INTRA:          -5.167
REMARK INTER:                  -4.585
REMARK INTRA:                  -0.581
REMARK UNBOUND:                -0.644
REMARK SMILES O=C([O-])CCCCCCCC(=O)[O-]
REMARK SMILES IDX 7 1 6 2 5 3 4 4 2 5 1 6 3 7 8 8 9 9 10 10 11 11 12 12 13 13
REMARK H PARENT
REMARK Flexibility Score: inf
ROOT
ATOM      1  C   UNL     1      12.106   5.450  19.158  1.00  0.00     0.000 C 
ENDROOT
BRANCH   1   2
ATOM      2  C   UNL     1      11.095   6.320  18.393  1.00  0.00     0.000 C 
BRANCH   2   3
ATOM      3  C   UNL     1      10.935   5.891  16.923  1.00  0.00     0.006 C 
BRANCH   3   4
ATOM      4  C   UNL     1      11.814   6.723  15.981  1.00  0.00     0.053 C 
BRANCH   4   5
ATOM      5  C   UNL     1      11.868   8.160  16.399  1.00  0.00     0.041 C 
ATOM      6  O   UNL     1      10.924   8.941  16.110  1.00  0.00    -0.550 OA
ATOM      7  O   UNL     1      12.979   8.645  17.078  1.00  0.00    -0.550 OA
ENDBRANCH   4   5
ENDBRANCH   3   4
ENDBRANCH   2   3
ENDBRANCH   1   2
BRANCH   1   8
ATOM      8  C   UNL     1      12.418   4.131  18.430  1.00  0.00     0.000 C 
BRANCH   8   9
ATOM      9  C   UNL     1      13.924   3.934  18.174  1.00  0.00     0.006 C 
BRANCH   9  10
ATOM     10  C   UNL     1      14.334   4.017  16.694  1.00  0.00     0.053 C 
BRANCH  10  11
ATOM     11  C   UNL     1      15.495   4.939  16.483  1.00  0.00     0.041 C 
ATOM     12  O   UNL     1      15.334   6.030  15.875  1.00  0.00    -0.550 OA
ATOM     13  O   UNL     1      16.760   4.579  16.928  1.00  0.00    -0.550 OA
ENDBRANCH  10  11
ENDBRANCH   9  10
ENDBRANCH   8   9
ENDBRANCH   1   8
TORSDOF 8
ENDMDL
MODEL 4
REMARK VINA RESULT:    -3.067      2.223      5.281
REMARK INTER + INTRA:          -5.145
REMARK INTER:                  -4.444
REMARK INTRA:                  -0.702
REMARK UNBOUND:                -0.644
REMARK SMILES O=C([O-])CCCCCCCC(=O)[O-]
REMARK SMILES IDX 7 1 6 2 5 3 4 4 2 5 1 6 3 7 8 8 9 9 10 10 11 11 12 12 13 13
REMARK H PARENT
REMARK Flexibility Score: inf
ROOT
ATOM      1  C   UNL     1      14.391   3.733  17.994  1.00  0.00     0.000 C 
ENDROOT
BRANCH   1   2
ATOM      2  C   UNL     1      13.152   4.121  18.819  1.00  0.00     0.000 C 
BRANCH   2   3
ATOM      3  C   UNL     1      11.947   4.498  17.939  1.00  0.00     0.006 C 
BRANCH   3   4
ATOM      4  C   UNL     1      11.468   5.932  18.200  1.00  0.00     0.053 C 
BRANCH   4   5
ATOM      5  C   UNL     1      11.814   6.847  17.065  1.00  0.00     0.041 C 
ATOM      6  O   UNL     1      11.717   6.447  15.875  1.00  0.00    -0.550 OA
ATOM      7  O   UNL     1      12.277   8.131  17.323  1.00  0.00    -0.550 OA
ENDBRANCH   4   5
ENDBRANCH   3   4
ENDBRANCH   2   3
ENDBRANCH   1   2
BRANCH   1   8
ATOM      8  C   UNL     1      14.179   3.936  16.483  1.00  0.00     0.000 C 
BRANCH   8   9
ATOM      9  C   UNL     1      15.061   5.057  15.904  1.00  0.00     0.006 C 
BRANCH   9  10
ATOM     10  C   UNL     1      16.073   5.648  16.900  1.00  0.00     0.053 C 
BRANCH  10  11
ATOM     11  C   UNL     1      17.463   5.149  16.653  1.00  0.00     0.041 C 
ATOM     12  O   UNL     1      17.802   4.000  17.041  1.00  0.00    -0.550 OA
ATOM     13  O   UNL     1      18.394   5.964  16.022  1.00  0.00    -0.550 OA
ENDBRANCH  10  11
ENDBRANCH   9  10
ENDBRANCH   8   9
ENDBRANCH   1   8
TORSDOF 8
ENDMDL
MODEL 5
REMARK VINA RESULT:    -3.003      2.557      3.568
REMARK INTER + INTRA:          -5.052
REMARK INTER:                  -4.329
REMARK INTRA:                  -0.723
REMARK UNBOUND:                -0.644
REMARK SMILES O=C([O-])CCCCCCCC(=O)[O-]
REMARK SMILES IDX 7 1 6 2 5 3 4 4 2 5 1 6 3 7 8 8 9 9 10 10 11 11 12 12 13 13
REMARK H PARENT
REMARK Flexibility Score: inf
ROOT
ATOM      1  C   UNL     1      14.151   3.886  17.793  1.00  0.00     0.000 C 
ENDROOT
BRANCH   1   2
ATOM      2  C   UNL     1      14.340   4.070  16.278  1.00  0.00     0.000 C 
BRANCH   2   3
ATOM      3  C   UNL     1      14.502   5.547  15.875  1.00  0.00     0.006 C 
BRANCH   3   4
ATOM      4  C   UNL     1      15.430   6.308  16.831  1.00  0.00     0.053 C 
BRANCH   4   5
ATOM      5  C   UNL     1      15.009   7.736  16.993  1.00  0.00     0.041 C 
ATOM      6  O   UNL     1      15.156   8.320  18.099  1.00  0.00    -0.550 OA
ATOM      7  O   UNL     1      14.421   8.412  15.931  1.00  0.00    -0.550 OA
ENDBRANCH   4   5
ENDBRANCH   3   4
ENDBRANCH   2   3
ENDBRANCH   1   2
BRANCH   1   8
ATOM      8  C   UNL     1      12.688   4.082  18.231  1.00  0.00     0.000 C 
BRANCH   8   9
ATOM      9  C   UNL     1      12.395   5.520  18.697  1.00  0.00     0.006 C 
BRANCH   9  10
ATOM     10  C   UNL     1      11.046   6.082  18.216  1.00  0.00     0.053 C 
BRANCH  10  11
ATOM     11  C   UNL     1      11.205   6.995  17.040  1.00  0.00     0.041 C 
ATOM     12  O   UNL     1      11.272   6.520  15.875  1.00  0.00    -0.550 OA
ATOM     13  O   UNL     1      11.314   8.366  17.231  1.00  0.00    -0.550 OA
ENDBRANCH  10  11
ENDBRANCH   9  10
ENDBRANCH   8   9
ENDBRANCH   1   8
TORSDOF 8
ENDMDL
MODEL 6
REMARK VINA RESULT:    -2.968      1.789      4.822
REMARK INTER + INTRA:          -5.000
REMARK INTER:                  -4.264
REMARK INTRA:                  -0.735
REMARK UNBOUND:                -0.644
REMARK SMILES O=C([O-])CCCCCCCC(=O)[O-]
REMARK SMILES IDX 7 1 6 2 5 3 4 4 2 5 1 6 3 7 8 8 9 9 10 10 11 11 12 12 13 13
REMARK H PARENT
REMARK Flexibility Score: inf
ROOT
ATOM      1  C   UNL     1      12.091   6.699  15.897  1.00  0.00     0.000 C 
ENDROOT
BRANCH   1   2
ATOM      2  C   UNL     1      12.096   8.234  15.989  1.00  0.00     0.000 C 
BRANCH   2   3
ATOM      3  C   UNL     1      10.904   8.786  16.790  1.00  0.00     0.006 C 
BRANCH   3   4
ATOM      4  C   UNL     1      11.355   9.602  18.008  1.00  0.00     0.053 C 
BRANCH   4   5
ATOM      5  C   UNL     1      11.910   8.724  19.088  1.00  0.00     0.041 C 
ATOM      6  O   UNL     1      11.150   7.955  19.733  1.00  0.00    -0.550 OA
ATOM      7  O   UNL     1      13.261   8.782  19.406  1.00  0.00    -0.550 OA
ENDBRANCH   4   5
ENDBRANCH   3   4
ENDBRANCH   2   3
ENDBRANCH   1   2
BRANCH   1   8
ATOM      8  C   UNL     1      10.875   6.072  16.602  1.00  0.00     0.000 C 
BRANCH   8   9
ATOM      9  C   UNL     1      11.274   5.173  17.788  1.00  0.00     0.006 C 
BRANCH   9  10
ATOM     10  C   UNL     1      12.644   4.490  17.634  1.00  0.00     0.053 C 
BRANCH  10  11
ATOM     11  C   UNL     1      13.369   4.385  18.940  1.00  0.00     0.041 C 
ATOM     12  O   UNL     1      13.408   5.370  19.723  1.00  0.00    -0.550 OA
ATOM     13  O   UNL     1      14.031   3.211  19.278  1.00  0.00    -0.550 OA
ENDBRANCH  10  11
ENDBRANCH   9  10
ENDBRANCH   8   9
ENDBRANCH   1   8
TORSDOF 8
ENDMDL
MODEL 7
REMARK VINA RESULT:    -2.961      2.275      3.221
REMARK INTER + INTRA:          -4.989
REMARK INTER:                  -4.211
REMARK INTRA:                  -0.778
REMARK UNBOUND:                -0.644
REMARK SMILES O=C([O-])CCCCCCCC(=O)[O-]
REMARK SMILES IDX 7 1 6 2 5 3 4 4 2 5 1 6 3 7 8 8 9 9 10 10 11 11 12 12 13 13
REMARK H PARENT
REMARK Flexibility Score: inf
ROOT
ATOM      1  C   UNL     1      11.607   6.385  19.591  1.00  0.00     0.000 C 
ENDROOT
BRANCH   1   2
ATOM      2  C   UNL     1      13.115   6.683  19.567  1.00  0.00     0.000 C 
BRANCH   2   3
ATOM      3  C   UNL     1      13.970   5.407  19.462  1.00  0.00     0.006 C 
BRANCH   3   4
ATOM      4  C   UNL     1      13.118   4.133  19.532  1.00  0.00     0.053 C 
BRANCH   4   5
ATOM      5  C   UNL     1      13.503   3.274  20.697  1.00  0.00     0.041 C 
ATOM      6  O   UNL     1      14.493   2.501  20.616  1.00  0.00    -0.550 OA
ATOM      7  O   UNL     1      12.745   3.302  21.862  1.00  0.00    -0.550 OA
ENDBRANCH   4   5
ENDBRANCH   3   4
ENDBRANCH   2   3
ENDBRANCH   1   2
BRANCH   1   8
ATOM      8  C   UNL     1      10.875   6.951  18.361  1.00  0.00     0.000 C 
BRANCH   8   9
ATOM      9  C   UNL     1      10.882   5.979  17.166  1.00  0.00     0.006 C 
BRANCH   9  10
ATOM     10  C   UNL     1      11.559   6.532  15.901  1.00  0.00     0.053 C 
BRANCH  10  11
ATOM     11  C   UNL     1      13.053   6.465  15.989  1.00  0.00     0.041 C 
ATOM     12  O   UNL     1      13.726   7.519  16.135  1.00  0.00    -0.550 OA
ATOM     13  O   UNL     1      13.704   5.243  15.875  1.00  0.00    -0.550 OA
ENDBRANCH  10  11
ENDBRANCH   9  10
ENDBRANCH   8   9
ENDBRANCH   1   8
TORSDOF 8
ENDMDL
