MODEL 1
REMARK VINA RESULT:    -5.293      0.000      0.000
REMARK INTER + INTRA:          -7.296
REMARK INTER:                  -7.150
REMARK INTRA:                  -0.147
REMARK UNBOUND:                -0.147
REMARK SMILES CCCCCCCC(=O)[O-]
REMARK SMILES IDX 5 1 6 2 7 3 8 4 9 5 10 6 4 7 3 8 2 9 1 10
REMARK H PARENT
REMARK Flexibility Score: inf
ROOT
ATOM      1  C   UNL     1      -1.444   8.218 -39.579  1.00  0.00     0.000 C 
ENDROOT
BRANCH   1   2
ATOM      2  C   UNL     1      -0.639   9.079 -38.587  1.00  0.00     0.006 C 
BRANCH   2   3
ATOM      3  C   UNL     1      -1.265  10.449 -38.284  1.00  0.00     0.053 C 
BRANCH   3   4
ATOM      4  C   UNL     1      -0.236  11.459 -37.875  1.00  0.00     0.041 C 
ATOM      5  O   UNL     1       0.965  11.316 -38.225  1.00  0.00    -0.550 OA
ATOM      6  O   UNL     1      -0.599  12.540 -37.082  1.00  0.00    -0.550 OA
ENDBRANCH   3   4
ENDBRANCH   2   3
ENDBRANCH   1   2
BRANCH   1   7
ATOM      7  C   UNL     1      -0.608   7.079 -40.191  1.00  0.00     0.000 C 
BRANCH   7   8
ATOM      8  C   UNL     1       0.156   7.511 -41.456  1.00  0.00    -0.000 C 
BRANCH   8   9
ATOM      9  C   UNL     1       0.762   6.359 -42.277  1.00  0.00    -0.003 C 
ATOM     10  C   UNL     1       1.996   5.742 -41.623  1.00  0.00     0.004 C 
ENDBRANCH   8   9
ENDBRANCH   7   8
ENDBRANCH   1   7
TORSDOF 6
ENDMDL
MODEL 2
REMARK VINA RESULT:    -5.192      1.217      1.795
REMARK INTER + INTRA:          -7.160
REMARK INTER:                  -7.037
REMARK INTRA:                  -0.123
REMARK UNBOUND:                -0.147
REMARK SMILES CCCCCCCC(=O)[O-]
REMARK SMILES IDX 5 1 6 2 7 3 8 4 9 5 10 6 4 7 3 8 2 9 1 10
REMARK H PARENT
REMARK Flexibility Score: inf
ROOT
ATOM      1  C   UNL     1      -0.641   9.115 -38.568  1.00  0.00     0.000 C 
ENDROOT
BRANCH   1   2
ATOM      2  C   UNL     1      -1.303  10.470 -38.252  1.00  0.00     0.006 C 
BRANCH   2   3
ATOM      3  C   UNL     1      -0.317  11.581 -37.859  1.00  0.00     0.053 C 
BRANCH   3   4
ATOM      4  C   UNL     1      -1.010  12.748 -37.223  1.00  0.00     0.041 C 
ATOM      5  O   UNL     1      -1.073  13.851 -37.826  1.00  0.00    -0.550 OA
ATOM      6  O   UNL     1      -1.559  12.623 -35.953  1.00  0.00    -0.550 OA
ENDBRANCH   3   4
ENDBRANCH   2   3
ENDBRANCH   1   2
BRANCH   1   7
ATOM      7  C   UNL     1      -1.483   8.250 -39.523  1.00  0.00     0.000 C 
BRANCH   7   8
ATOM      8  C   UNL     1      -0.673   7.111 -40.170  1.00  0.00    -0.000 C 
BRANCH   8   9
ATOM      9  C   UNL     1       0.069   7.493 -41.463  1.00  0.00    -0.003 C 
ATOM     10  C   UNL     1       0.897   6.346 -42.039  1.00  0.00     0.004 C 
ENDBRANCH   8   9
ENDBRANCH   7   8
ENDBRANCH   1   7
TORSDOF 6
ENDMDL
MODEL 3
REMARK VINA RESULT:    -5.086      2.909      4.605
REMARK INTER + INTRA:          -7.017
REMARK INTER:                  -6.897
REMARK INTRA:                  -0.121
REMARK UNBOUND:                -0.147
REMARK SMILES CCCCCCCC(=O)[O-]
REMARK SMILES IDX 5 1 6 2 7 3 8 4 9 5 10 6 4 7 3 8 2 9 1 10
REMARK H PARENT
REMARK Flexibility Score: inf
ROOT
ATOM      1  C   UNL     1      -2.477   8.876 -39.351  1.00  0.00     0.000 C 
ENDROOT
BRANCH   1   2
ATOM      2  C   UNL     1      -1.866   9.787 -38.269  1.00  0.00     0.006 C 
BRANCH   2   3
ATOM      3  C   UNL     1      -0.370  10.082 -38.459  1.00  0.00     0.053 C 
BRANCH   3   4
ATOM      4  C   UNL     1       0.002  11.444 -37.955  1.00  0.00     0.041 C 
ATOM      5  O   UNL     1       1.155  11.903 -38.165  1.00  0.00    -0.550 OA
ATOM      6  O   UNL     1      -0.915  12.190 -37.227  1.00  0.00    -0.550 OA
ENDBRANCH   3   4
ENDBRANCH   2   3
ENDBRANCH   1   2
BRANCH   1   7
ATOM      7  C   UNL     1      -3.871   9.345 -39.804  1.00  0.00     0.000 C 
BRANCH   7   8
ATOM      8  C   UNL     1      -4.998   8.859 -38.874  1.00  0.00    -0.000 C 
BRANCH   8   9
ATOM      9  C   UNL     1      -6.422   9.030 -39.430  1.00  0.00    -0.003 C 
ATOM     10  C   UNL     1      -7.055   7.712 -39.872  1.00  0.00     0.004 C 
ENDBRANCH   8   9
ENDBRANCH   7   8
ENDBRANCH   1   7
TORSDOF 6
ENDMDL
MODEL 4
REMARK VINA RESULT:    -5.075      4.472      5.977
REMARK INTER + INTRA:          -7.001
REMARK INTER:                  -6.847
REMARK INTRA:                  -0.154
REMARK UNBOUND:                -0.147
REMARK SMILES CCCCCCCC(=O)[O-]
REMARK SMILES IDX 5 1 6 2 7 3 8 4 9 5 10 6 4 7 3 8 2 9 1 10
REMARK H PARENT
REMARK Flexibility Score: inf
ROOT
ATOM      1  C   UNL     1      -2.363   9.005 -39.288  1.00  0.00     0.000 C 
ENDROOT
BRANCH   1   2
ATOM      2  C   UNL     1      -3.788   9.355 -39.758  1.00  0.00     0.006 C 
BRANCH   2   3
ATOM      3  C   UNL     1      -4.904   8.843 -38.833  1.00  0.00     0.053 C 
BRANCH   3   4
ATOM      4  C   UNL     1      -6.254   8.938 -39.477  1.00  0.00     0.041 C 
ATOM      5  O   UNL     1      -6.760  10.064 -39.723  1.00  0.00    -0.550 OA
ATOM      6  O   UNL     1      -6.964   7.782 -39.776  1.00  0.00    -0.550 OA
ENDBRANCH   3   4
ENDBRANCH   2   3
ENDBRANCH   1   2
BRANCH   1   7
ATOM      7  C   UNL     1      -1.818  10.003 -38.250  1.00  0.00     0.000 C 
BRANCH   7   8
ATOM      8  C   UNL     1      -0.291  10.184 -38.339  1.00  0.00    -0.000 C 
BRANCH   8   9
ATOM      9  C   UNL     1       0.223  11.582 -37.952  1.00  0.00    -0.003 C 
ATOM     10  C   UNL     1      -0.798  12.398 -37.160  1.00  0.00     0.004 C 
ENDBRANCH   8   9
ENDBRANCH   7   8
ENDBRANCH   1   7
TORSDOF 6
ENDMDL
MODEL 5
REMARK VINA RESULT:    -4.770      3.203      6.043
REMARK INTER + INTRA:          -6.590
REMARK INTER:                  -6.295
REMARK INTRA:                  -0.295
REMARK UNBOUND:                -0.147
REMARK SMILES CCCCCCCC(=O)[O-]
REMARK SMILES IDX 5 1 6 2 7 3 8 4 9 5 10 6 4 7 3 8 2 9 1 10
REMARK H PARENT
REMARK Flexibility Score: inf
ROOT
ATOM      1  C   UNL     1       0.534  11.053 -38.364  1.00  0.00     0.000 C 
ENDROOT
BRANCH   1   2
ATOM      2  C   UNL     1      -0.864  10.407 -38.307  1.00  0.00     0.006 C 
BRANCH   2   3
ATOM      3  C   UNL     1      -0.852   8.870 -38.281  1.00  0.00     0.053 C 
BRANCH   3   4
ATOM      4  C   UNL     1      -1.547   8.283 -39.472  1.00  0.00     0.041 C 
ATOM      5  O   UNL     1      -2.742   8.589 -39.722  1.00  0.00    -0.550 OA
ATOM      6  O   UNL     1      -0.883   7.375 -40.287  1.00  0.00    -0.550 OA
ENDBRANCH   3   4
ENDBRANCH   2   3
ENDBRANCH   1   2
BRANCH   1   7
ATOM      7  C   UNL     1       0.588  12.415 -37.648  1.00  0.00     0.000 C 
BRANCH   7   8
ATOM      8  C   UNL     1      -0.778  13.123 -37.606  1.00  0.00    -0.000 C 
BRANCH   8   9
ATOM      9  C   UNL     1      -1.310  13.430 -36.195  1.00  0.00    -0.003 C 
ATOM     10  C   UNL     1      -2.270  12.364 -35.672  1.00  0.00     0.004 C 
ENDBRANCH   8   9
ENDBRANCH   7   8
ENDBRANCH   1   7
TORSDOF 6
ENDMDL
MODEL 6
REMARK VINA RESULT:    -4.741      3.563      5.602
REMARK INTER + INTRA:          -6.551
REMARK INTER:                  -6.520
REMARK INTRA:                  -0.031
REMARK UNBOUND:                -0.147
REMARK SMILES CCCCCCCC(=O)[O-]
REMARK SMILES IDX 5 1 6 2 7 3 8 4 9 5 10 6 4 7 3 8 2 9 1 10
REMARK H PARENT
REMARK Flexibility Score: inf
ROOT
ATOM      1  C   UNL     1      -1.022   7.481 -40.107  1.00  0.00     0.000 C 
ENDROOT
BRANCH   1   2
ATOM      2  C   UNL     1       0.073   8.011 -41.053  1.00  0.00     0.006 C 
BRANCH   2   3
ATOM      3  C   UNL     1       0.470   7.035 -42.172  1.00  0.00     0.053 C 
BRANCH   3   4
ATOM      4  C   UNL     1       1.070   5.773 -41.629  1.00  0.00     0.041 C 
ATOM      5  O   UNL     1       2.311   5.576 -41.709  1.00  0.00    -0.550 OA
ATOM      6  O   UNL     1       0.253   4.803 -41.063  1.00  0.00    -0.550 OA
ENDBRANCH   3   4
ENDBRANCH   2   3
ENDBRANCH   1   2
BRANCH   1   7
ATOM      7  C   UNL     1      -1.711   8.603 -39.308  1.00  0.00     0.000 C 
BRANCH   7   8
ATOM      8  C   UNL     1      -0.787   9.240 -38.254  1.00  0.00    -0.000 C 
BRANCH   8   9
ATOM      9  C   UNL     1      -0.819  10.778 -38.204  1.00  0.00    -0.003 C 
ATOM     10  C   UNL     1       0.569  11.401 -38.064  1.00  0.00     0.004 C 
ENDBRANCH   8   9
ENDBRANCH   7   8
ENDBRANCH   1   7
TORSDOF 6
ENDMDL
MODEL 7
REMARK VINA RESULT:    -4.495      4.074      4.597
REMARK INTER + INTRA:          -6.218
REMARK INTER:                  -6.074
REMARK INTRA:                  -0.144
REMARK UNBOUND:                -0.147
REMARK SMILES CCCCCCCC(=O)[O-]
REMARK SMILES IDX 5 1 6 2 7 3 8 4 9 5 10 6 4 7 3 8 2 9 1 10
REMARK H PARENT
REMARK Flexibility Score: inf
ROOT
ATOM      1  C   UNL     1      -2.426   8.982 -38.641  1.00  0.00     0.000 C 
ENDROOT
BRANCH   1   2
ATOM      2  C   UNL     1      -3.717   8.989 -39.483  1.00  0.00     0.006 C 
BRANCH   2   3
ATOM      3  C   UNL     1      -5.011   8.892 -38.659  1.00  0.00     0.053 C 
BRANCH   3   4
ATOM      4  C   UNL     1      -6.233   8.981 -39.521  1.00  0.00     0.041 C 
ATOM      5  O   UNL     1      -6.764   7.934 -39.977  1.00  0.00    -0.550 OA
ATOM      6  O   UNL     1      -6.766  10.222 -39.846  1.00  0.00    -0.550 OA
ENDBRANCH   3   4
ENDBRANCH   2   3
ENDBRANCH   1   2
BRANCH   1   7
ATOM      7  C   UNL     1      -1.156   8.871 -39.504  1.00  0.00     0.000 C 
BRANCH   7   8
ATOM      8  C   UNL     1      -0.945   7.458 -40.079  1.00  0.00    -0.000 C 
BRANCH   8   9
ATOM      9  C   UNL     1      -0.006   7.383 -41.296  1.00  0.00    -0.003 C 
ATOM     10  C   UNL     1       0.519   5.974 -41.562  1.00  0.00     0.004 C 
ENDBRANCH   8   9
ENDBRANCH   7   8
ENDBRANCH   1   7
TORSDOF 6
ENDMDL
MODEL 8
REMARK VINA RESULT:    -4.397      3.267      4.191
REMARK INTER + INTRA:          -6.086
REMARK INTER:                  -5.907
REMARK INTRA:                  -0.179
REMARK UNBOUND:                -0.147
REMARK SMILES CCCCCCCC(=O)[O-]
REMARK SMILES IDX 5 1 6 2 7 3 8 4 9 5 10 6 4 7 3 8 2 9 1 10
REMARK H PARENT
REMARK Flexibility Score: inf
ROOT
ATOM      1  C   UNL     1      -0.606   9.898 -38.430  1.00  0.00     0.000 C 
ENDROOT
BRANCH   1   2
ATOM      2  C   UNL     1      -0.136  11.365 -38.433  1.00  0.00     0.006 C 
BRANCH   2   3
ATOM      3  C   UNL     1      -0.259  12.073 -37.074  1.00  0.00     0.053 C 
BRANCH   3   4
ATOM      4  C   UNL     1      -1.196  13.241 -37.133  1.00  0.00     0.041 C 
ATOM      5  O   UNL     1      -1.184  14.013 -38.128  1.00  0.00    -0.550 OA
ATOM      6  O   UNL     1      -2.058  13.495 -36.074  1.00  0.00    -0.550 OA
ENDBRANCH   3   4
ENDBRANCH   2   3
ENDBRANCH   1   2
BRANCH   1   7
ATOM      7  C   UNL     1      -2.125   9.761 -38.222  1.00  0.00     0.000 C 
BRANCH   7   8
ATOM      8  C   UNL     1      -2.814   8.968 -39.348  1.00  0.00    -0.000 C 
BRANCH   8   9
ATOM      9  C   UNL     1      -4.212   9.476 -39.741  1.00  0.00    -0.003 C 
ATOM     10  C   UNL     1      -5.340   8.770 -38.991  1.00  0.00     0.004 C 
ENDBRANCH   8   9
ENDBRANCH   7   8
ENDBRANCH   1   7
TORSDOF 6
ENDMDL
MODEL 9
REMARK VINA RESULT:    -4.356      1.831      2.564
REMARK INTER + INTRA:          -6.030
REMARK INTER:                  -5.900
REMARK INTRA:                  -0.130
REMARK UNBOUND:                -0.147
REMARK SMILES CCCCCCCC(=O)[O-]
REMARK SMILES IDX 5 1 6 2 7 3 8 4 9 5 10 6 4 7 3 8 2 9 1 10
REMARK H PARENT
REMARK Flexibility Score: inf
ROOT
ATOM      1  C   UNL     1      -0.033   7.538 -41.196  1.00  0.00     0.000 C 
ENDROOT
BRANCH   1   2
ATOM      2  C   UNL     1      -1.051   7.566 -40.040  1.00  0.00     0.006 C 
BRANCH   2   3
ATOM      3  C   UNL     1      -0.665   8.495 -38.878  1.00  0.00     0.053 C 
BRANCH   3   4
ATOM      4  C   UNL     1      -1.705   9.544 -38.628  1.00  0.00     0.041 C 
ATOM      5  O   UNL     1      -2.904   9.338 -38.955  1.00  0.00    -0.550 OA
ATOM      6  O   UNL     1      -1.345  10.760 -38.063  1.00  0.00    -0.550 OA
ENDBRANCH   3   4
ENDBRANCH   2   3
ENDBRANCH   1   2
BRANCH   1   7
ATOM      7  C   UNL     1       0.472   6.117 -41.509  1.00  0.00     0.000 C 
BRANCH   7   8
ATOM      8  C   UNL     1       1.889   6.106 -42.110  1.00  0.00    -0.000 C 
BRANCH   8   9
ATOM      9  C   UNL     1       2.809   4.987 -41.589  1.00  0.00    -0.003 C 
ATOM     10  C   UNL     1       4.275   5.407 -41.506  1.00  0.00     0.004 C 
ENDBRANCH   8   9
ENDBRANCH   7   8
ENDBRANCH   1   7
TORSDOF 6
ENDMDL
