MODEL 1
REMARK VINA RESULT:    -4.059      0.000      0.000
REMARK INTER + INTRA:          -6.161
REMARK INTER:                  -5.009
REMARK INTRA:                  -1.152
REMARK UNBOUND:                -1.152
REMARK SMILES CC(C)=CCC[C@@H](C)c1ccc(C)cc1
REMARK SMILES IDX 6 1 7 2 8 3 9 4 13 5 12 6 11 7 14 8 10 9 15 10 5 11 4 12
REMARK SMILES IDX 2 13 1 14 3 15
REMARK H PARENT
REMARK Flexibility Score: inf
ROOT
ATOM      1  C   UNL     1     -13.377   8.785  -3.993  1.00  0.00     0.012 C 
ENDROOT
BRANCH   1   2
ATOM      2  C   UNL     1     -13.207   9.453  -5.376  1.00  0.00     0.016 C 
ATOM      3  C   UNL     1     -14.460  10.232  -5.806  1.00  0.00     0.013 C 
BRANCH   2   4
ATOM      4  C   UNL     1     -11.991  10.363  -5.377  1.00  0.00    -0.045 A 
ATOM      5  C   UNL     1      -8.499  12.905  -5.399  1.00  0.00     0.044 C 
ATOM      6  C   UNL     1      -9.728  12.046  -5.400  1.00  0.00    -0.051 A 
ATOM      7  C   UNL     1     -10.478  11.885  -4.226  1.00  0.00     0.004 A 
ATOM      8  C   UNL     1     -10.099  11.342  -6.554  1.00  0.00     0.004 A 
ATOM      9  C   UNL     1     -11.603  11.055  -4.215  1.00  0.00     0.004 A 
ATOM     10  C   UNL     1     -11.223  10.513  -6.546  1.00  0.00     0.004 A 
ENDBRANCH   2   4
ENDBRANCH   1   2
BRANCH   1  11
ATOM     11  C   UNL     1     -13.055   7.283  -4.018  1.00  0.00     0.028 C 
BRANCH  11  12
ATOM     12  C   UNL     1     -12.402   6.900  -5.323  1.00  0.00    -0.028 C 
ATOM     13  C   UNL     1     -11.072   6.739  -5.493  1.00  0.00    -0.080 C 
ATOM     14  C   UNL     1     -10.567   6.313  -6.847  1.00  0.00     0.039 C 
ATOM     15  C   UNL     1     -10.085   6.990  -4.376  1.00  0.00     0.039 C 
ENDBRANCH  11  12
ENDBRANCH   1  11
TORSDOF 4
ENDMDL
MODEL 2
REMARK VINA RESULT:    -4.024      1.367      4.993
REMARK INTER + INTRA:          -6.118
REMARK INTER:                  -5.020
REMARK INTRA:                  -1.098
REMARK UNBOUND:                -1.152
REMARK SMILES CC(C)=CCC[C@@H](C)c1ccc(C)cc1
REMARK SMILES IDX 6 1 7 2 8 3 9 4 13 5 12 6 11 7 14 8 10 9 15 10 5 11 4 12
REMARK SMILES IDX 2 13 1 14 3 15
REMARK H PARENT
REMARK Flexibility Score: inf
ROOT
ATOM      1  C   UNL     1     -13.201  11.801  -6.847  1.00  0.00     0.012 C 
ENDROOT
BRANCH   1   2
ATOM      2  C   UNL     1     -13.771  11.044  -5.626  1.00  0.00     0.016 C 
ATOM      3  C   UNL     1     -15.302  10.931  -5.672  1.00  0.00     0.013 C 
BRANCH   2   4
ATOM      4  C   UNL     1     -13.140   9.668  -5.517  1.00  0.00    -0.045 A 
ATOM      5  C   UNL     1     -11.347   5.755  -5.145  1.00  0.00     0.044 C 
ATOM      6  C   UNL     1     -11.984   7.104  -5.299  1.00  0.00    -0.051 A 
ATOM      7  C   UNL     1     -11.338   8.112  -6.030  1.00  0.00     0.004 A 
ATOM      8  C   UNL     1     -13.196   7.391  -4.656  1.00  0.00     0.004 A 
ATOM      9  C   UNL     1     -11.913   9.381  -6.143  1.00  0.00     0.004 A 
ATOM     10  C   UNL     1     -13.772   8.659  -4.767  1.00  0.00     0.004 A 
ENDBRANCH   2   4
ENDBRANCH   1   2
BRANCH   1  11
ATOM     11  C   UNL     1     -12.519  13.122  -6.459  1.00  0.00     0.028 C 
BRANCH  11  12
ATOM     12  C   UNL     1     -11.020  12.956  -6.419  1.00  0.00    -0.028 C 
ATOM     13  C   UNL     1     -10.305  12.755  -5.290  1.00  0.00    -0.080 C 
ATOM     14  C   UNL     1      -8.815  12.564  -5.409  1.00  0.00     0.039 C 
ATOM     15  C   UNL     1     -10.952  12.734  -3.925  1.00  0.00     0.039 C 
ENDBRANCH  11  12
ENDBRANCH   1  11
TORSDOF 4
ENDMDL
MODEL 3
REMARK VINA RESULT:    -4.021      1.394      2.120
REMARK INTER + INTRA:          -6.114
REMARK INTER:                  -4.699
REMARK INTRA:                  -1.415
REMARK UNBOUND:                -1.152
REMARK SMILES CC(C)=CCC[C@@H](C)c1ccc(C)cc1
REMARK SMILES IDX 6 1 7 2 8 3 9 4 13 5 12 6 11 7 14 8 10 9 15 10 5 11 4 12
REMARK SMILES IDX 2 13 1 14 3 15
REMARK H PARENT
REMARK Flexibility Score: inf
ROOT
ATOM      1  C   UNL     1     -14.138  10.174  -5.642  1.00  0.00     0.012 C 
ENDROOT
BRANCH   1   2
ATOM      2  C   UNL     1     -13.956  11.700  -5.477  1.00  0.00     0.016 C 
ATOM      3  C   UNL     1     -14.663  12.241  -4.226  1.00  0.00     0.013 C 
BRANCH   2   4
ATOM      4  C   UNL     1     -12.480  12.055  -5.447  1.00  0.00    -0.045 A 
ATOM      5  C   UNL     1      -8.295  13.125  -5.355  1.00  0.00     0.044 C 
ATOM      6  C   UNL     1      -9.742  12.728  -5.373  1.00  0.00    -0.051 A 
ATOM      7  C   UNL     1     -10.272  12.043  -6.476  1.00  0.00     0.004 A 
ATOM      8  C   UNL     1     -10.591  13.098  -4.321  1.00  0.00     0.004 A 
ATOM      9  C   UNL     1     -11.628  11.705  -6.511  1.00  0.00     0.004 A 
ATOM     10  C   UNL     1     -11.946  12.761  -4.354  1.00  0.00     0.004 A 
ENDBRANCH   2   4
ENDBRANCH   1   2
BRANCH   1  11
ATOM     11  C   UNL     1     -13.553   9.378  -4.465  1.00  0.00     0.028 C 
BRANCH  11  12
ATOM     12  C   UNL     1     -12.738   8.211  -4.964  1.00  0.00    -0.028 C 
ATOM     13  C   UNL     1     -11.412   8.061  -4.756  1.00  0.00    -0.080 C 
ATOM     14  C   UNL     1     -10.738   6.819  -5.280  1.00  0.00     0.039 C 
ATOM     15  C   UNL     1     -10.591   9.105  -4.033  1.00  0.00     0.039 C 
ENDBRANCH  11  12
ENDBRANCH   1  11
TORSDOF 4
ENDMDL
MODEL 4
REMARK VINA RESULT:    -3.765      1.212      5.529
REMARK INTER + INTRA:          -5.797
REMARK INTER:                  -5.137
REMARK INTRA:                  -0.660
REMARK UNBOUND:                -1.152
REMARK SMILES CC(C)=CCC[C@@H](C)c1ccc(C)cc1
REMARK SMILES IDX 6 1 7 2 8 3 9 4 13 5 12 6 11 7 14 8 10 9 15 10 5 11 4 12
REMARK SMILES IDX 2 13 1 14 3 15
REMARK H PARENT
REMARK Flexibility Score: inf
ROOT
ATOM      1  C   UNL     1     -11.396  10.057  -6.514  1.00  0.00     0.012 C 
ENDROOT
BRANCH   1   2
ATOM      2  C   UNL     1     -12.418   9.672  -5.419  1.00  0.00     0.016 C 
ATOM      3  C   UNL     1     -13.838  10.153  -5.752  1.00  0.00     0.013 C 
BRANCH   2   4
ATOM      4  C   UNL     1     -12.407   8.171  -5.191  1.00  0.00    -0.045 A 
ATOM      5  C   UNL     1     -12.368   3.892  -4.602  1.00  0.00     0.044 C 
ATOM      6  C   UNL     1     -12.368   5.381  -4.780  1.00  0.00    -0.051 A 
ATOM      7  C   UNL     1     -13.475   6.140  -4.374  1.00  0.00     0.004 A 
ATOM      8  C   UNL     1     -11.293   6.018  -5.415  1.00  0.00     0.004 A 
ATOM      9  C   UNL     1     -13.493   7.524  -4.573  1.00  0.00     0.004 A 
ATOM     10  C   UNL     1     -11.309   7.400  -5.615  1.00  0.00     0.004 A 
ENDBRANCH   2   4
ENDBRANCH   1   2
BRANCH   1  11
ATOM     11  C   UNL     1     -11.338  11.572  -6.762  1.00  0.00     0.028 C 
BRANCH  11  12
ATOM     12  C   UNL     1      -9.934  12.089  -6.571  1.00  0.00    -0.028 C 
ATOM     13  C   UNL     1      -9.489  12.696  -5.448  1.00  0.00    -0.080 C 
ATOM     14  C   UNL     1      -8.046  13.125  -5.386  1.00  0.00     0.039 C 
ATOM     15  C   UNL     1     -10.398  12.969  -4.272  1.00  0.00     0.039 C 
ENDBRANCH  11  12
ENDBRANCH   1  11
TORSDOF 4
ENDMDL
MODEL 5
REMARK VINA RESULT:    -3.731      1.622      4.580
REMARK INTER + INTRA:          -5.756
REMARK INTER:                  -4.293
REMARK INTRA:                  -1.463
REMARK UNBOUND:                -1.152
REMARK SMILES CC(C)=CCC[C@@H](C)c1ccc(C)cc1
REMARK SMILES IDX 6 1 7 2 8 3 9 4 13 5 12 6 11 7 14 8 10 9 15 10 5 11 4 12
REMARK SMILES IDX 2 13 1 14 3 15
REMARK H PARENT
REMARK Flexibility Score: inf
ROOT
ATOM      1  C   UNL     1     -12.622  12.023  -7.097  1.00  0.00     0.012 C 
ENDROOT
BRANCH   1   2
ATOM      2  C   UNL     1     -11.232  11.918  -6.428  1.00  0.00     0.016 C 
ATOM      3  C   UNL     1     -10.988  13.044  -5.412  1.00  0.00     0.013 C 
BRANCH   2   4
ATOM      4  C   UNL     1     -11.065  10.562  -5.767  1.00  0.00    -0.045 A 
ATOM      5  C   UNL     1     -10.529   6.712  -3.883  1.00  0.00     0.044 C 
ATOM      6  C   UNL     1     -10.742   8.051  -4.524  1.00  0.00    -0.051 A 
ATOM      7  C   UNL     1     -11.338   8.142  -5.790  1.00  0.00     0.004 A 
ATOM      8  C   UNL     1     -10.285   9.217  -3.894  1.00  0.00     0.004 A 
ATOM      9  C   UNL     1     -11.503   9.386  -6.405  1.00  0.00     0.004 A 
ATOM     10  C   UNL     1     -10.449  10.462  -4.507  1.00  0.00     0.004 A 
ENDBRANCH   2   4
ENDBRANCH   1   2
BRANCH   1  11
ATOM     11  C   UNL     1     -13.737  12.361  -6.095  1.00  0.00     0.028 C 
BRANCH  11  12
ATOM     12  C   UNL     1     -14.849  11.345  -6.172  1.00  0.00    -0.028 C 
ATOM     13  C   UNL     1     -15.076  10.390  -5.244  1.00  0.00    -0.080 C 
ATOM     14  C   UNL     1     -16.253   9.468  -5.435  1.00  0.00     0.039 C 
ATOM     15  C   UNL     1     -14.178  10.212  -4.042  1.00  0.00     0.039 C 
ENDBRANCH  11  12
ENDBRANCH   1  11
TORSDOF 4
ENDMDL
MODEL 6
REMARK VINA RESULT:    -3.713      1.280      3.593
REMARK INTER + INTRA:          -5.734
REMARK INTER:                  -4.312
REMARK INTRA:                  -1.421
REMARK UNBOUND:                -1.152
REMARK SMILES CC(C)=CCC[C@@H](C)c1ccc(C)cc1
REMARK SMILES IDX 6 1 7 2 8 3 9 4 13 5 12 6 11 7 14 8 10 9 15 10 5 11 4 12
REMARK SMILES IDX 2 13 1 14 3 15
REMARK H PARENT
REMARK Flexibility Score: inf
ROOT
ATOM      1  C   UNL     1     -12.899   7.762  -4.992  1.00  0.00     0.012 C 
ENDROOT
BRANCH   1   2
ATOM      2  C   UNL     1     -11.448   7.960  -4.498  1.00  0.00     0.016 C 
ATOM      3  C   UNL     1     -10.527   6.803  -4.913  1.00  0.00     0.013 C 
BRANCH   2   4
ATOM      4  C   UNL     1     -10.896   9.283  -4.998  1.00  0.00    -0.045 A 
ATOM      5  C   UNL     1      -9.347  13.074  -6.374  1.00  0.00     0.044 C 
ATOM      6  C   UNL     1      -9.861  11.744  -5.908  1.00  0.00    -0.051 A 
ATOM      7  C   UNL     1     -10.733  11.001  -6.717  1.00  0.00     0.004 A 
ATOM      8  C   UNL     1      -9.529  11.264  -4.634  1.00  0.00     0.004 A 
ATOM      9  C   UNL     1     -11.243   9.779  -6.269  1.00  0.00     0.004 A 
ATOM     10  C   UNL     1     -10.037  10.043  -4.184  1.00  0.00     0.004 A 
ENDBRANCH   2   4
ENDBRANCH   1   2
BRANCH   1  11
ATOM     11  C   UNL     1     -13.927   8.500  -4.119  1.00  0.00     0.028 C 
BRANCH  11  12
ATOM     12  C   UNL     1     -14.680   9.523  -4.932  1.00  0.00    -0.028 C 
ATOM     13  C   UNL     1     -14.482  10.857  -4.853  1.00  0.00    -0.080 C 
ATOM     14  C   UNL     1     -15.282  11.757  -5.759  1.00  0.00     0.039 C 
ATOM     15  C   UNL     1     -13.502  11.465  -3.876  1.00  0.00     0.039 C 
ENDBRANCH  11  12
ENDBRANCH   1  11
TORSDOF 4
ENDMDL
MODEL 7
REMARK VINA RESULT:    -3.590      1.755      3.945
REMARK INTER + INTRA:          -5.581
REMARK INTER:                  -4.428
REMARK INTRA:                  -1.153
REMARK UNBOUND:                -1.152
REMARK SMILES CC(C)=CCC[C@@H](C)c1ccc(C)cc1
REMARK SMILES IDX 6 1 7 2 8 3 9 4 13 5 12 6 11 7 14 8 10 9 15 10 5 11 4 12
REMARK SMILES IDX 2 13 1 14 3 15
REMARK H PARENT
REMARK Flexibility Score: inf
ROOT
ATOM      1  C   UNL     1      -9.065  11.248  -4.652  1.00  0.00     0.012 C 
ENDROOT
BRANCH   1   2
ATOM      2  C   UNL     1      -9.613  12.616  -5.118  1.00  0.00     0.016 C 
ATOM      3  C   UNL     1      -8.962  13.091  -6.426  1.00  0.00     0.013 C 
BRANCH   2   4
ATOM      4  C   UNL     1     -11.122  12.557  -5.268  1.00  0.00    -0.045 A 
ATOM      5  C   UNL     1     -15.414  12.422  -5.745  1.00  0.00     0.044 C 
ATOM      6  C   UNL     1     -13.924  12.441  -5.568  1.00  0.00    -0.051 A 
ATOM      7  C   UNL     1     -13.360  12.937  -4.385  1.00  0.00     0.004 A 
ATOM      8  C   UNL     1     -13.083  12.028  -6.610  1.00  0.00     0.004 A 
ATOM      9  C   UNL     1     -11.971  12.990  -4.233  1.00  0.00     0.004 A 
ATOM     10  C   UNL     1     -11.695  12.080  -6.461  1.00  0.00     0.004 A 
ENDBRANCH   2   4
ENDBRANCH   1   2
BRANCH   1  11
ATOM     11  C   UNL     1     -10.105  10.427  -3.875  1.00  0.00     0.028 C 
BRANCH  11  12
ATOM     12  C   UNL     1     -10.406   9.134  -4.590  1.00  0.00    -0.028 C 
ATOM     13  C   UNL     1     -11.640   8.598  -4.713  1.00  0.00    -0.080 C 
ATOM     14  C   UNL     1     -11.794   7.318  -5.493  1.00  0.00     0.039 C 
ATOM     15  C   UNL     1     -12.856   9.235  -4.080  1.00  0.00     0.039 C 
ENDBRANCH  11  12
ENDBRANCH   1  11
TORSDOF 4
ENDMDL
MODEL 8
REMARK VINA RESULT:    -3.480      1.383      4.004
REMARK INTER + INTRA:          -5.446
REMARK INTER:                  -3.966
REMARK INTRA:                  -1.480
REMARK UNBOUND:                -1.152
REMARK SMILES CC(C)=CCC[C@@H](C)c1ccc(C)cc1
REMARK SMILES IDX 6 1 7 2 8 3 9 4 13 5 12 6 11 7 14 8 10 9 15 10 5 11 4 12
REMARK SMILES IDX 2 13 1 14 3 15
REMARK H PARENT
REMARK Flexibility Score: inf
ROOT
ATOM      1  C   UNL     1      -9.625  10.673  -4.862  1.00  0.00     0.012 C 
ENDROOT
BRANCH   1   2
ATOM      2  C   UNL     1     -10.415  12.002  -4.852  1.00  0.00     0.016 C 
ATOM      3  C   UNL     1      -9.869  13.013  -5.871  1.00  0.00     0.013 C 
BRANCH   2   4
ATOM      4  C   UNL     1     -11.890  11.741  -5.101  1.00  0.00    -0.045 A 
ATOM      5  C   UNL     1     -16.088  10.967  -5.761  1.00  0.00     0.044 C 
ATOM      6  C   UNL     1     -14.634  11.263  -5.544  1.00  0.00    -0.051 A 
ATOM      7  C   UNL     1     -13.687  10.900  -6.513  1.00  0.00     0.004 A 
ATOM      8  C   UNL     1     -14.200  11.842  -4.343  1.00  0.00     0.004 A 
ATOM      9  C   UNL     1     -12.327  11.141  -6.297  1.00  0.00     0.004 A 
ATOM     10  C   UNL     1     -12.842  12.083  -4.125  1.00  0.00     0.004 A 
ENDBRANCH   2   4
ENDBRANCH   1   2
BRANCH   1  11
ATOM     11  C   UNL     1     -10.191   9.641  -3.876  1.00  0.00     0.028 C 
BRANCH  11  12
ATOM     12  C   UNL     1     -10.504   8.345  -4.582  1.00  0.00    -0.028 C 
ATOM     13  C   UNL     1     -11.725   7.767  -4.613  1.00  0.00    -0.080 C 
ATOM     14  C   UNL     1     -11.896   6.491  -5.395  1.00  0.00     0.039 C 
ATOM     15  C   UNL     1     -12.907   8.354  -3.877  1.00  0.00     0.039 C 
ENDBRANCH  11  12
ENDBRANCH   1  11
TORSDOF 4
ENDMDL
