MODEL 1
REMARK VINA RESULT:    -4.763      0.000      0.000
REMARK INTER + INTRA:          -6.897
REMARK INTER:                  -6.294
REMARK INTRA:                  -0.603
REMARK UNBOUND:                -0.603
REMARK SMILES C=C[C@@H](O)CCCCC
REMARK SMILES IDX 6 1 7 2 8 3 9 4 5 5 3 6 2 7 1 8 4 9
REMARK H PARENT 4 10
REMARK Flexibility Score: inf
ROOT
ATOM      1  C   UNL     1     137.565 123.810 138.570  1.00  0.00     0.003 C 
ENDROOT
BRANCH   1   2
ATOM      2  C   UNL     1     136.935 122.813 137.585  1.00  0.00    -0.000 C 
BRANCH   2   3
ATOM      3  C   UNL     1     135.414 122.982 137.463  1.00  0.00    -0.003 C 
ATOM      4  C   UNL     1     134.980 124.378 137.899  1.00  0.00     0.004 C 
ENDBRANCH   2   3
ENDBRANCH   1   2
BRANCH   1   5
ATOM      5  C   UNL     1     137.988 123.146 139.895  1.00  0.00     0.036 C 
BRANCH   5   6
ATOM      6  C   UNL     1     137.006 123.431 141.050  1.00  0.00     0.136 C 
BRANCH   6   7
ATOM      7  C   UNL     1     135.934 122.375 141.151  1.00  0.00    -0.004 C 
ATOM      8  C   UNL     1     134.638 122.692 141.226  1.00  0.00     0.007 C 
ENDBRANCH   6   7
BRANCH   6   9
ATOM      9  O   UNL     1     137.696 123.505 142.272  1.00  0.00    -0.389 OA
ATOM     10  H   UNL     1     137.103 123.986 142.907  1.00  0.00     0.211 HD
ENDBRANCH   6   9
ENDBRANCH   5   6
ENDBRANCH   1   5
TORSDOF 6
ENDMDL
MODEL 2
REMARK VINA RESULT:    -4.611      2.246      4.382
REMARK INTER + INTRA:          -6.697
REMARK INTER:                  -6.294
REMARK INTRA:                  -0.403
REMARK UNBOUND:                -0.603
REMARK SMILES C=C[C@@H](O)CCCCC
REMARK SMILES IDX 6 1 7 2 8 3 9 4 5 5 3 6 2 7 1 8 4 9
REMARK H PARENT 4 10
REMARK Flexibility Score: inf
ROOT
ATOM      1  C   UNL     1     135.019 122.532 140.315  1.00  0.00     0.003 C 
ENDROOT
BRANCH   1   2
ATOM      2  C   UNL     1     134.990 123.008 141.776  1.00  0.00    -0.000 C 
BRANCH   2   3
ATOM      3  C   UNL     1     136.368 123.460 142.280  1.00  0.00    -0.003 C 
ATOM      4  C   UNL     1     137.484 122.658 141.618  1.00  0.00     0.004 C 
ENDBRANCH   2   3
ENDBRANCH   1   2
BRANCH   1   5
ATOM      5  C   UNL     1     134.861 123.690 139.312  1.00  0.00     0.036 C 
BRANCH   5   6
ATOM      6  C   UNL     1     135.232 123.289 137.869  1.00  0.00     0.136 C 
BRANCH   6   7
ATOM      7  C   UNL     1     136.636 122.744 137.779  1.00  0.00    -0.004 C 
ATOM      8  C   UNL     1     137.706 123.517 137.990  1.00  0.00     0.007 C 
ENDBRANCH   6   7
BRANCH   6   9
ATOM      9  O   UNL     1     134.333 122.325 137.383  1.00  0.00    -0.389 OA
ATOM     10  H   UNL     1     134.225 121.647 138.100  1.00  0.00     0.211 HD
ENDBRANCH   6   9
ENDBRANCH   5   6
ENDBRANCH   1   5
TORSDOF 6
ENDMDL
MODEL 3
REMARK VINA RESULT:    -4.595      2.286      4.383
REMARK INTER + INTRA:          -6.676
REMARK INTER:                  -6.408
REMARK INTRA:                  -0.268
REMARK UNBOUND:                -0.603
REMARK SMILES C=C[C@@H](O)CCCCC
REMARK SMILES IDX 6 1 7 2 8 3 9 4 5 5 3 6 2 7 1 8 4 9
REMARK H PARENT 4 10
REMARK Flexibility Score: inf
ROOT
ATOM      1  C   UNL     1     135.035 122.626 140.239  1.00  0.00     0.003 C 
ENDROOT
BRANCH   1   2
ATOM      2  C   UNL     1     135.862 122.933 141.497  1.00  0.00    -0.000 C 
BRANCH   2   3
ATOM      3  C   UNL     1     135.075 123.734 142.543  1.00  0.00    -0.003 C 
ATOM      4  C   UNL     1     133.631 123.251 142.632  1.00  0.00     0.004 C 
ENDBRANCH   2   3
ENDBRANCH   1   2
BRANCH   1   5
ATOM      5  C   UNL     1     135.014 123.803 139.244  1.00  0.00     0.036 C 
BRANCH   5   6
ATOM      6  C   UNL     1     135.258 123.360 137.786  1.00  0.00     0.136 C 
BRANCH   6   7
ATOM      7  C   UNL     1     136.657 122.830 137.586  1.00  0.00    -0.004 C 
ATOM      8  C   UNL     1     137.733 123.516 137.983  1.00  0.00     0.007 C 
ENDBRANCH   6   7
BRANCH   6   9
ATOM      9  O   UNL     1     134.334 122.371 137.413  1.00  0.00    -0.389 OA
ATOM     10  H   UNL     1     133.529 122.503 137.980  1.00  0.00     0.211 HD
ENDBRANCH   6   9
ENDBRANCH   5   6
ENDBRANCH   1   5
TORSDOF 6
ENDMDL
MODEL 4
REMARK VINA RESULT:    -4.524      1.798      2.822
REMARK INTER + INTRA:          -6.581
REMARK INTER:                  -6.087
REMARK INTRA:                  -0.494
REMARK UNBOUND:                -0.603
REMARK SMILES C=C[C@@H](O)CCCCC
REMARK SMILES IDX 6 1 7 2 8 3 9 4 5 5 3 6 2 7 1 8 4 9
REMARK H PARENT 4 10
REMARK Flexibility Score: inf
ROOT
ATOM      1  C   UNL     1     135.679 122.176 138.219  1.00  0.00     0.003 C 
ENDROOT
BRANCH   1   2
ATOM      2  C   UNL     1     136.803 122.950 137.513  1.00  0.00    -0.000 C 
BRANCH   2   3
ATOM      3  C   UNL     1     137.579 123.870 138.466  1.00  0.00    -0.003 C 
ATOM      4  C   UNL     1     138.695 123.110 139.176  1.00  0.00     0.004 C 
ENDBRANCH   2   3
ENDBRANCH   1   2
BRANCH   1   5
ATOM      5  C   UNL     1     134.954 123.024 139.282  1.00  0.00     0.036 C 
BRANCH   5   6
ATOM      6  C   UNL     1     134.998 122.390 140.688  1.00  0.00     0.136 C 
BRANCH   6   7
ATOM      7  C   UNL     1     135.515 123.356 141.725  1.00  0.00    -0.004 C 
ATOM      8  C   UNL     1     136.736 123.232 142.256  1.00  0.00     0.007 C 
ENDBRANCH   6   7
BRANCH   6   9
ATOM      9  O   UNL     1     133.719 121.950 141.067  1.00  0.00    -0.389 OA
ATOM     10  H   UNL     1     133.114 122.735 140.998  1.00  0.00     0.211 HD
ENDBRANCH   6   9
ENDBRANCH   5   6
ENDBRANCH   1   5
TORSDOF 6
ENDMDL
MODEL 5
REMARK VINA RESULT:    -4.418      1.289      2.541
REMARK INTER + INTRA:          -6.441
REMARK INTER:                  -5.916
REMARK INTRA:                  -0.525
REMARK UNBOUND:                -0.603
REMARK SMILES C=C[C@@H](O)CCCCC
REMARK SMILES IDX 6 1 7 2 8 3 9 4 5 5 3 6 2 7 1 8 4 9
REMARK H PARENT 4 10
REMARK Flexibility Score: inf
ROOT
ATOM      1  C   UNL     1     135.488 122.608 138.143  1.00  0.00     0.003 C 
ENDROOT
BRANCH   1   2
ATOM      2  C   UNL     1     136.874 122.667 137.480  1.00  0.00    -0.000 C 
BRANCH   2   3
ATOM      3  C   UNL     1     137.788 123.726 138.112  1.00  0.00    -0.003 C 
ATOM      4  C   UNL     1     138.750 123.093 139.113  1.00  0.00     0.004 C 
ENDBRANCH   2   3
ENDBRANCH   1   2
BRANCH   1   5
ATOM      5  C   UNL     1     135.074 123.953 138.770  1.00  0.00     0.036 C 
BRANCH   5   6
ATOM      6  C   UNL     1     134.882 123.868 140.299  1.00  0.00     0.136 C 
BRANCH   6   7
ATOM      7  C   UNL     1     135.418 122.575 140.862  1.00  0.00    -0.004 C 
ATOM      8  C   UNL     1     136.449 122.551 141.712  1.00  0.00     0.007 C 
ENDBRANCH   6   7
BRANCH   6   9
ATOM      9  O   UNL     1     135.522 124.946 140.933  1.00  0.00    -0.389 OA
ATOM     10  H   UNL     1     134.872 125.323 141.583  1.00  0.00     0.211 HD
ENDBRANCH   6   9
ENDBRANCH   5   6
ENDBRANCH   1   5
TORSDOF 6
ENDMDL
MODEL 6
REMARK VINA RESULT:    -4.410      1.339      3.454
REMARK INTER + INTRA:          -6.431
REMARK INTER:                  -6.000
REMARK INTRA:                  -0.430
REMARK UNBOUND:                -0.603
REMARK SMILES C=C[C@@H](O)CCCCC
REMARK SMILES IDX 6 1 7 2 8 3 9 4 5 5 3 6 2 7 1 8 4 9
REMARK H PARENT 4 10
REMARK Flexibility Score: inf
ROOT
ATOM      1  C   UNL     1     136.855 123.256 141.149  1.00  0.00     0.003 C 
ENDROOT
BRANCH   1   2
ATOM      2  C   UNL     1     135.721 122.224 141.048  1.00  0.00    -0.000 C 
BRANCH   2   3
ATOM      3  C   UNL     1     134.329 122.869 141.072  1.00  0.00    -0.003 C 
ATOM      4  C   UNL     1     133.862 123.113 142.504  1.00  0.00     0.004 C 
ENDBRANCH   2   3
ENDBRANCH   1   2
BRANCH   1   5
ATOM      5  C   UNL     1     137.908 123.089 140.036  1.00  0.00     0.036 C 
BRANCH   5   6
ATOM      6  C   UNL     1     137.583 123.914 138.773  1.00  0.00     0.136 C 
BRANCH   6   7
ATOM      7  C   UNL     1     136.937 123.072 137.701  1.00  0.00    -0.004 C 
ATOM      8  C   UNL     1     135.626 123.137 137.450  1.00  0.00     0.007 C 
ENDBRANCH   6   7
BRANCH   6   9
ATOM      9  O   UNL     1     136.731 124.984 139.094  1.00  0.00    -0.389 OA
ATOM     10  H   UNL     1     137.309 125.782 139.224  1.00  0.00     0.211 HD
ENDBRANCH   6   9
ENDBRANCH   5   6
ENDBRANCH   1   5
TORSDOF 6
ENDMDL
MODEL 7
REMARK VINA RESULT:    -4.316      2.614      4.670
REMARK INTER + INTRA:          -6.306
REMARK INTER:                  -6.103
REMARK INTRA:                  -0.203
REMARK UNBOUND:                -0.603
REMARK SMILES C=C[C@@H](O)CCCCC
REMARK SMILES IDX 6 1 7 2 8 3 9 4 5 5 3 6 2 7 1 8 4 9
REMARK H PARENT 4 10
REMARK Flexibility Score: inf
ROOT
ATOM      1  C   UNL     1     135.156 123.811 140.772  1.00  0.00     0.003 C 
ENDROOT
BRANCH   1   2
ATOM      2  C   UNL     1     136.008 123.537 142.022  1.00  0.00    -0.000 C 
BRANCH   2   3
ATOM      3  C   UNL     1     135.535 124.331 143.247  1.00  0.00    -0.003 C 
ATOM      4  C   UNL     1     136.695 124.626 144.192  1.00  0.00     0.004 C 
ENDBRANCH   2   3
ENDBRANCH   1   2
BRANCH   1   5
ATOM      5  C   UNL     1     135.160 122.629 139.783  1.00  0.00     0.036 C 
BRANCH   5   6
ATOM      6  C   UNL     1     135.259 123.080 138.310  1.00  0.00     0.136 C 
BRANCH   6   7
ATOM      7  C   UNL     1     136.619 122.790 137.724  1.00  0.00    -0.004 C 
ATOM      8  C   UNL     1     137.696 123.508 138.056  1.00  0.00     0.007 C 
ENDBRANCH   6   7
BRANCH   6   9
ATOM      9  O   UNL     1     134.278 122.438 137.536  1.00  0.00    -0.389 OA
ATOM     10  H   UNL     1     134.136 123.001 136.730  1.00  0.00     0.211 HD
ENDBRANCH   6   9
ENDBRANCH   5   6
ENDBRANCH   1   5
TORSDOF 6
ENDMDL
MODEL 8
REMARK VINA RESULT:    -4.251      2.287      3.050
REMARK INTER + INTRA:          -6.221
REMARK INTER:                  -5.909
REMARK INTRA:                  -0.311
REMARK UNBOUND:                -0.603
REMARK SMILES C=C[C@@H](O)CCCCC
REMARK SMILES IDX 6 1 7 2 8 3 9 4 5 5 3 6 2 7 1 8 4 9
REMARK H PARENT 4 10
REMARK Flexibility Score: inf
ROOT
ATOM      1  C   UNL     1     135.573 122.813 140.384  1.00  0.00     0.003 C 
ENDROOT
BRANCH   1   2
ATOM      2  C   UNL     1     135.529 122.477 138.885  1.00  0.00    -0.000 C 
BRANCH   2   3
ATOM      3  C   UNL     1     135.307 123.715 138.006  1.00  0.00    -0.003 C 
ATOM      4  C   UNL     1     136.069 124.919 138.550  1.00  0.00     0.004 C 
ENDBRANCH   2   3
ENDBRANCH   1   2
BRANCH   1   5
ATOM      5  C   UNL     1     134.266 122.443 141.112  1.00  0.00     0.036 C 
BRANCH   5   6
ATOM      6  C   UNL     1     134.108 123.166 142.466  1.00  0.00     0.136 C 
BRANCH   6   7
ATOM      7  C   UNL     1     134.888 124.456 142.509  1.00  0.00    -0.004 C 
ATOM      8  C   UNL     1     135.686 124.762 143.536  1.00  0.00     0.007 C 
ENDBRANCH   6   7
BRANCH   6   9
ATOM      9  O   UNL     1     132.753 123.439 142.719  1.00  0.00    -0.389 OA
ATOM     10  H   UNL     1     132.270 123.311 141.860  1.00  0.00     0.211 HD
ENDBRANCH   6   9
ENDBRANCH   5   6
ENDBRANCH   1   5
TORSDOF 6
ENDMDL
MODEL 9
REMARK VINA RESULT:    -4.238      2.251      3.332
REMARK INTER + INTRA:          -6.203
REMARK INTER:                  -5.675
REMARK INTRA:                  -0.529
REMARK UNBOUND:                -0.603
REMARK SMILES C=C[C@@H](O)CCCCC
REMARK SMILES IDX 6 1 7 2 8 3 9 4 5 5 3 6 2 7 1 8 4 9
REMARK H PARENT 4 10
REMARK Flexibility Score: inf
ROOT
ATOM      1  C   UNL     1     137.273 124.555 138.499  1.00  0.00     0.003 C 
ENDROOT
BRANCH   1   2
ATOM      2  C   UNL     1     137.944 123.200 138.775  1.00  0.00    -0.000 C 
BRANCH   2   3
ATOM      3  C   UNL     1     138.815 123.216 140.038  1.00  0.00    -0.003 C 
ATOM      4  C   UNL     1     138.009 122.808 141.267  1.00  0.00     0.004 C 
ENDBRANCH   2   3
ENDBRANCH   1   2
BRANCH   1   5
ATOM      5  C   UNL     1     135.735 124.459 138.472  1.00  0.00     0.036 C 
BRANCH   5   6
ATOM      6  C   UNL     1     135.218 123.026 138.718  1.00  0.00     0.136 C 
BRANCH   6   7
ATOM      7  C   UNL     1     134.542 122.894 140.060  1.00  0.00    -0.004 C 
ATOM      8  C   UNL     1     134.589 123.871 140.971  1.00  0.00     0.007 C 
ENDBRANCH   6   7
BRANCH   6   9
ATOM      9  O   UNL     1     134.316 122.652 137.709  1.00  0.00    -0.389 OA
ATOM     10  H   UNL     1     134.440 123.293 136.961  1.00  0.00     0.211 HD
ENDBRANCH   6   9
ENDBRANCH   5   6
ENDBRANCH   1   5
TORSDOF 6
ENDMDL
