MODEL 1
REMARK VINA RESULT:    13.950      0.000      0.000
REMARK INTER + INTRA:          23.303
REMARK INTER:                  23.736
REMARK INTRA:                  -0.433
REMARK UNBOUND:                -0.433
REMARK SMILES CCCCCCCCCCCCCC(=O)[O-]
REMARK SMILES IDX 8 1 9 2 10 3 11 4 12 5 13 6 14 7 15 8 16 9 7 10 6 11 5 12
REMARK SMILES IDX 4 13 3 14 2 15 1 16
REMARK H PARENT
REMARK Flexibility Score: inf
ROOT
ATOM      1  C   UNL     1      -6.126 -11.224  24.121  1.00  0.00     0.000 C 
ENDROOT
BRANCH   1   2
ATOM      2  C   UNL     1      -6.631 -12.426  24.932  1.00  0.00     0.000 C 
BRANCH   2   3
ATOM      3  C   UNL     1      -5.730 -13.649  24.718  1.00  0.00     0.000 C 
BRANCH   3   4
ATOM      4  C   UNL     1      -5.398 -14.328  26.052  1.00  0.00     0.000 C 
BRANCH   4   5
ATOM      5  C   UNL     1      -4.461 -15.523  25.844  1.00  0.00     0.006 C 
BRANCH   5   6
ATOM      6  C   UNL     1      -5.163 -16.839  26.194  1.00  0.00     0.053 C 
BRANCH   6   7
ATOM      7  C   UNL     1      -5.117 -17.782  25.033  1.00  0.00     0.041 C 
ATOM      8  O   UNL     1      -5.661 -18.914  25.116  1.00  0.00    -0.550 OA
ATOM      9  O   UNL     1      -4.431 -17.431  23.878  1.00  0.00    -0.550 OA
ENDBRANCH   6   7
ENDBRANCH   5   6
ENDBRANCH   4   5
ENDBRANCH   3   4
ENDBRANCH   2   3
ENDBRANCH   1   2
BRANCH   1  10
ATOM     10  C   UNL     1      -5.778 -10.011  25.004  1.00  0.00     0.000 C 
BRANCH  10  11
ATOM     11  C   UNL     1      -4.887  -8.947  24.331  1.00  0.00    -0.000 C 
BRANCH  11  12
ATOM     12  C   UNL     1      -3.567  -8.646  25.061  1.00  0.00    -0.000 C 
BRANCH  12  13
ATOM     13  C   UNL     1      -2.347  -8.682  24.129  1.00  0.00    -0.000 C 
BRANCH  13  14
ATOM     14  C   UNL     1      -1.130  -9.283  24.841  1.00  0.00    -0.000 C 
BRANCH  14  15
ATOM     15  C   UNL     1      -0.256  -8.185  25.459  1.00  0.00    -0.003 C 
ATOM     16  C   UNL     1       0.551  -8.722  26.638  1.00  0.00     0.004 C 
ENDBRANCH  14  15
ENDBRANCH  13  14
ENDBRANCH  12  13
ENDBRANCH  11  12
ENDBRANCH  10  11
ENDBRANCH   1  10
TORSDOF 12
ENDMDL
MODEL 2
REMARK VINA RESULT:    14.340      0.964      1.749
REMARK INTER + INTRA:          23.966
REMARK INTER:                  24.587
REMARK INTRA:                  -0.621
REMARK UNBOUND:                -0.433
REMARK SMILES CCCCCCCCCCCCCC(=O)[O-]
REMARK SMILES IDX 8 1 9 2 10 3 11 4 12 5 13 6 14 7 15 8 16 9 7 10 6 11 5 12
REMARK SMILES IDX 4 13 3 14 2 15 1 16
REMARK H PARENT
REMARK Flexibility Score: inf
ROOT
ATOM      1  C   UNL     1      -6.515 -12.644  24.106  1.00  0.00     0.000 C 
ENDROOT
BRANCH   1   2
ATOM      2  C   UNL     1      -6.121 -13.050  25.533  1.00  0.00     0.000 C 
BRANCH   2   3
ATOM      3  C   UNL     1      -5.140 -14.230  25.516  1.00  0.00     0.000 C 
BRANCH   3   4
ATOM      4  C   UNL     1      -5.294 -15.091  26.775  1.00  0.00     0.000 C 
BRANCH   4   5
ATOM      5  C   UNL     1      -5.051 -16.572  26.462  1.00  0.00     0.006 C 
BRANCH   5   6
ATOM      6  C   UNL     1      -4.395 -16.744  25.089  1.00  0.00     0.053 C 
BRANCH   6   7
ATOM      7  C   UNL     1      -5.061 -17.843  24.324  1.00  0.00     0.041 C 
ATOM      8  O   UNL     1      -5.153 -17.777  23.071  1.00  0.00    -0.550 OA
ATOM      9  O   UNL     1      -5.623 -18.919  24.999  1.00  0.00    -0.550 OA
ENDBRANCH   6   7
ENDBRANCH   5   6
ENDBRANCH   4   5
ENDBRANCH   3   4
ENDBRANCH   2   3
ENDBRANCH   1   2
BRANCH   1  10
ATOM     10  C   UNL     1      -6.180 -11.176  23.787  1.00  0.00     0.000 C 
BRANCH  10  11
ATOM     11  C   UNL     1      -5.891 -10.289  25.016  1.00  0.00    -0.000 C 
BRANCH  11  12
ATOM     12  C   UNL     1      -5.291  -8.908  24.698  1.00  0.00    -0.000 C 
BRANCH  12  13
ATOM     13  C   UNL     1      -3.778  -8.841  24.951  1.00  0.00    -0.000 C 
BRANCH  13  14
ATOM     14  C   UNL     1      -3.064  -8.097  23.817  1.00  0.00    -0.000 C 
BRANCH  14  15
ATOM     15  C   UNL     1      -1.571  -8.447  23.785  1.00  0.00    -0.003 C 
ATOM     16  C   UNL     1      -1.145  -9.160  25.066  1.00  0.00     0.004 C 
ENDBRANCH  14  15
ENDBRANCH  13  14
ENDBRANCH  12  13
ENDBRANCH  11  12
ENDBRANCH  10  11
ENDBRANCH   1  10
TORSDOF 12
ENDMDL
MODEL 3
REMARK VINA RESULT:    14.498      3.986      7.901
REMARK INTER + INTRA:          24.236
REMARK INTER:                  24.730
REMARK INTRA:                  -0.494
REMARK UNBOUND:                -0.433
REMARK SMILES CCCCCCCCCCCCCC(=O)[O-]
REMARK SMILES IDX 8 1 9 2 10 3 11 4 12 5 13 6 14 7 15 8 16 9 7 10 6 11 5 12
REMARK SMILES IDX 4 13 3 14 2 15 1 16
REMARK H PARENT
REMARK Flexibility Score: inf
ROOT
ATOM      1  C   UNL     1      -5.235 -10.558  24.068  1.00  0.00     0.000 C 
ENDROOT
BRANCH   1   2
ATOM      2  C   UNL     1      -5.121  -9.142  24.649  1.00  0.00     0.000 C 
BRANCH   2   3
ATOM      3  C   UNL     1      -3.680  -8.840  25.079  1.00  0.00     0.000 C 
BRANCH   3   4
ATOM      4  C   UNL     1      -2.768  -8.656  23.860  1.00  0.00     0.000 C 
BRANCH   4   5
ATOM      5  C   UNL     1      -1.332  -8.336  24.290  1.00  0.00     0.006 C 
BRANCH   5   6
ATOM      6  C   UNL     1      -0.909  -9.199  25.482  1.00  0.00     0.053 C 
BRANCH   6   7
ATOM      7  C   UNL     1       0.254  -8.580  26.190  1.00  0.00     0.041 C 
ATOM      8  O   UNL     1       0.860  -9.219  27.090  1.00  0.00    -0.550 OA
ATOM      9  O   UNL     1       0.638  -7.279  25.892  1.00  0.00    -0.550 OA
ENDBRANCH   6   7
ENDBRANCH   5   6
ENDBRANCH   4   5
ENDBRANCH   3   4
ENDBRANCH   2   3
ENDBRANCH   1   2
BRANCH   1  10
ATOM     10  C   UNL     1      -6.403 -11.360  24.670  1.00  0.00     0.000 C 
BRANCH  10  11
ATOM     11  C   UNL     1      -6.242 -12.893  24.613  1.00  0.00    -0.000 C 
BRANCH  11  12
ATOM     12  C   UNL     1      -5.956 -13.571  25.964  1.00  0.00    -0.000 C 
BRANCH  12  13
ATOM     13  C   UNL     1      -4.763 -14.536  25.908  1.00  0.00    -0.000 C 
BRANCH  13  14
ATOM     14  C   UNL     1      -5.189 -15.958  26.287  1.00  0.00    -0.000 C 
BRANCH  14  15
ATOM     15  C   UNL     1      -4.820 -16.955  25.181  1.00  0.00    -0.003 C 
ATOM     16  C   UNL     1      -5.422 -18.331  25.456  1.00  0.00     0.004 C 
ENDBRANCH  14  15
ENDBRANCH  13  14
ENDBRANCH  12  13
ENDBRANCH  11  12
ENDBRANCH  10  11
ENDBRANCH   1  10
TORSDOF 12
ENDMDL
MODEL 4
REMARK VINA RESULT:    14.955      3.349      7.749
REMARK INTER + INTRA:          25.013
REMARK INTER:                  25.614
REMARK INTRA:                  -0.601
REMARK UNBOUND:                -0.433
REMARK SMILES CCCCCCCCCCCCCC(=O)[O-]
REMARK SMILES IDX 8 1 9 2 10 3 11 4 12 5 13 6 14 7 15 8 16 9 7 10 6 11 5 12
REMARK SMILES IDX 4 13 3 14 2 15 1 16
REMARK H PARENT
REMARK Flexibility Score: inf
ROOT
ATOM      1  C   UNL     1      -6.118 -12.822  24.017  1.00  0.00     0.000 C 
ENDROOT
BRANCH   1   2
ATOM      2  C   UNL     1      -6.466 -11.340  23.820  1.00  0.00     0.000 C 
BRANCH   2   3
ATOM      3  C   UNL     1      -5.929 -10.491  24.979  1.00  0.00     0.000 C 
BRANCH   3   4
ATOM      4  C   UNL     1      -5.330  -9.176  24.467  1.00  0.00     0.000 C 
BRANCH   4   5
ATOM      5  C   UNL     1      -3.996  -8.872  25.158  1.00  0.00     0.006 C 
BRANCH   5   6
ATOM      6  C   UNL     1      -2.937  -8.438  24.141  1.00  0.00     0.053 C 
BRANCH   6   7
ATOM      7  C   UNL     1      -1.655  -9.174  24.374  1.00  0.00     0.041 C 
ATOM      8  O   UNL     1      -1.376 -10.192  23.688  1.00  0.00    -0.550 OA
ATOM      9  O   UNL     1      -0.792  -8.766  25.381  1.00  0.00    -0.550 OA
ENDBRANCH   6   7
ENDBRANCH   5   6
ENDBRANCH   4   5
ENDBRANCH   3   4
ENDBRANCH   2   3
ENDBRANCH   1   2
BRANCH   1  10
ATOM     10  C   UNL     1      -6.157 -13.254  25.494  1.00  0.00     0.000 C 
BRANCH  10  11
ATOM     11  C   UNL     1      -4.945 -14.085  25.965  1.00  0.00    -0.000 C 
BRANCH  11  12
ATOM     12  C   UNL     1      -5.285 -15.483  26.511  1.00  0.00    -0.000 C 
BRANCH  12  13
ATOM     13  C   UNL     1      -4.592 -16.612  25.734  1.00  0.00    -0.000 C 
BRANCH  13  14
ATOM     14  C   UNL     1      -5.336 -17.939  25.914  1.00  0.00    -0.000 C 
BRANCH  14  15
ATOM     15  C   UNL     1      -5.804 -18.495  24.564  1.00  0.00    -0.003 C 
ATOM     16  C   UNL     1      -5.129 -17.765  23.405  1.00  0.00     0.004 C 
ENDBRANCH  14  15
ENDBRANCH  13  14
ENDBRANCH  12  13
ENDBRANCH  11  12
ENDBRANCH  10  11
ENDBRANCH   1  10
TORSDOF 12
ENDMDL
MODEL 5
REMARK VINA RESULT:    15.381      3.932      6.804
REMARK INTER + INTRA:          25.737
REMARK INTER:                  26.208
REMARK INTRA:                  -0.470
REMARK UNBOUND:                -0.433
REMARK SMILES CCCCCCCCCCCCCC(=O)[O-]
REMARK SMILES IDX 8 1 9 2 10 3 11 4 12 5 13 6 14 7 15 8 16 9 7 10 6 11 5 12
REMARK SMILES IDX 4 13 3 14 2 15 1 16
REMARK H PARENT
REMARK Flexibility Score: inf
ROOT
ATOM      1  C   UNL     1      -6.091 -12.398  24.032  1.00  0.00     0.000 C 
ENDROOT
BRANCH   1   2
ATOM      2  C   UNL     1      -6.246 -13.196  25.334  1.00  0.00     0.000 C 
BRANCH   2   3
ATOM      3  C   UNL     1      -5.030 -14.100  25.571  1.00  0.00     0.000 C 
BRANCH   3   4
ATOM      4  C   UNL     1      -5.385 -15.267  26.501  1.00  0.00     0.000 C 
BRANCH   4   5
ATOM      5  C   UNL     1      -4.556 -16.511  26.164  1.00  0.00     0.006 C 
BRANCH   5   6
ATOM      6  C   UNL     1      -5.457 -17.724  25.921  1.00  0.00     0.053 C 
BRANCH   6   7
ATOM      7  C   UNL     1      -5.328 -18.199  24.508  1.00  0.00     0.041 C 
ATOM      8  O   UNL     1      -4.556 -17.606  23.709  1.00  0.00    -0.550 OA
ATOM      9  O   UNL     1      -6.095 -19.266  24.060  1.00  0.00    -0.550 OA
ENDBRANCH   6   7
ENDBRANCH   5   6
ENDBRANCH   4   5
ENDBRANCH   3   4
ENDBRANCH   2   3
ENDBRANCH   1   2
BRANCH   1  10
ATOM     10  C   UNL     1      -7.406 -12.281  23.241  1.00  0.00     0.000 C 
BRANCH  10  11
ATOM     11  C   UNL     1      -7.526 -13.227  22.028  1.00  0.00    -0.000 C 
BRANCH  11  12
ATOM     12  C   UNL     1      -8.758 -12.992  21.136  1.00  0.00    -0.000 C 
BRANCH  12  13
ATOM     13  C   UNL     1      -9.038 -14.163  20.183  1.00  0.00    -0.000 C 
BRANCH  13  14
ATOM     14  C   UNL     1      -8.433 -13.901  18.799  1.00  0.00    -0.000 C 
BRANCH  14  15
ATOM     15  C   UNL     1      -9.127 -14.750  17.727  1.00  0.00    -0.003 C 
ATOM     16  C   UNL     1     -10.300 -13.998  17.102  1.00  0.00     0.004 C 
ENDBRANCH  14  15
ENDBRANCH  13  14
ENDBRANCH  12  13
ENDBRANCH  11  12
ENDBRANCH  10  11
ENDBRANCH   1  10
TORSDOF 12
ENDMDL
