MODEL 1
REMARK VINA RESULT:    -3.815      0.000      0.000
REMARK INTER + INTRA:          -5.953
REMARK INTER:                  -5.377
REMARK INTRA:                  -0.576
REMARK UNBOUND:                -0.576
REMARK SMILES CCCCCCCCC(=O)[O-]
REMARK SMILES IDX 6 1 7 2 8 3 9 4 10 5 11 6 5 7 4 8 3 9 2 10 1 11
REMARK H PARENT
REMARK Flexibility Score: inf
ROOT
ATOM      1  C   UNL     1      -5.692  34.475  23.446  1.00  0.00     0.000 C 
ENDROOT
BRANCH   1   2
ATOM      2  C   UNL     1      -5.972  35.190  22.113  1.00  0.00     0.006 C 
BRANCH   2   3
ATOM      3  C   UNL     1      -4.703  35.351  21.265  1.00  0.00     0.053 C 
BRANCH   3   4
ATOM      4  C   UNL     1      -5.023  35.687  19.840  1.00  0.00     0.041 C 
ATOM      5  O   UNL     1      -5.421  34.791  19.050  1.00  0.00    -0.550 OA
ATOM      6  O   UNL     1      -4.911  36.998  19.393  1.00  0.00    -0.550 OA
ENDBRANCH   3   4
ENDBRANCH   2   3
ENDBRANCH   1   2
BRANCH   1   7
ATOM      7  C   UNL     1      -5.771  35.423  24.653  1.00  0.00     0.000 C 
BRANCH   7   8
ATOM      8  C   UNL     1      -6.125  36.863  24.253  1.00  0.00    -0.000 C 
BRANCH   8   9
ATOM      9  C   UNL     1      -5.009  37.834  24.657  1.00  0.00    -0.000 C 
BRANCH   9  10
ATOM     10  C   UNL     1      -5.076  39.125  23.832  1.00  0.00    -0.003 C 
ATOM     11  C   UNL     1      -5.069  38.824  22.337  1.00  0.00     0.004 C 
ENDBRANCH   9  10
ENDBRANCH   8   9
ENDBRANCH   7   8
ENDBRANCH   1   7
TORSDOF 7
ENDMDL
MODEL 2
REMARK VINA RESULT:    -3.651      2.398      3.612
REMARK INTER + INTRA:          -5.721
REMARK INTER:                  -5.122
REMARK INTRA:                  -0.599
REMARK UNBOUND:                -0.576
REMARK SMILES CCCCCCCCC(=O)[O-]
REMARK SMILES IDX 6 1 7 2 8 3 9 4 10 5 11 6 5 7 4 8 3 9 2 10 1 11
REMARK H PARENT
REMARK Flexibility Score: inf
ROOT
ATOM      1  C   UNL     1      -4.632  35.891  21.281  1.00  0.00     0.000 C 
ENDROOT
BRANCH   1   2
ATOM      2  C   UNL     1      -4.476  37.336  20.776  1.00  0.00     0.006 C 
BRANCH   2   3
ATOM      3  C   UNL     1      -5.738  38.174  21.023  1.00  0.00     0.053 C 
BRANCH   3   4
ATOM      4  C   UNL     1      -5.444  39.396  21.839  1.00  0.00     0.041 C 
ATOM      5  O   UNL     1      -6.068  40.468  21.626  1.00  0.00    -0.550 OA
ATOM      6  O   UNL     1      -4.500  39.340  22.857  1.00  0.00    -0.550 OA
ENDBRANCH   3   4
ENDBRANCH   2   3
ENDBRANCH   1   2
BRANCH   1   7
ATOM      7  C   UNL     1      -5.964  35.661  22.011  1.00  0.00     0.000 C 
BRANCH   7   8
ATOM      8  C   UNL     1      -5.878  34.547  23.065  1.00  0.00    -0.000 C 
BRANCH   8   9
ATOM      9  C   UNL     1      -6.036  35.117  24.479  1.00  0.00    -0.000 C 
BRANCH   9  10
ATOM     10  C   UNL     1      -5.944  36.647  24.470  1.00  0.00    -0.003 C 
ATOM     11  C   UNL     1      -5.048  37.153  25.595  1.00  0.00     0.004 C 
ENDBRANCH   9  10
ENDBRANCH   8   9
ENDBRANCH   7   8
ENDBRANCH   1   7
TORSDOF 7
ENDMDL
MODEL 3
REMARK VINA RESULT:    -3.484      2.786      4.302
REMARK INTER + INTRA:          -5.485
REMARK INTER:                  -4.991
REMARK INTRA:                  -0.494
REMARK UNBOUND:                -0.576
REMARK SMILES CCCCCCCCC(=O)[O-]
REMARK SMILES IDX 6 1 7 2 8 3 9 4 10 5 11 6 5 7 4 8 3 9 2 10 1 11
REMARK H PARENT
REMARK Flexibility Score: inf
ROOT
ATOM      1  C   UNL     1      -5.357  34.786  22.824  1.00  0.00     0.000 C 
ENDROOT
BRANCH   1   2
ATOM      2  C   UNL     1      -6.124  35.964  23.450  1.00  0.00     0.006 C 
BRANCH   2   3
ATOM      3  C   UNL     1      -5.817  36.124  24.945  1.00  0.00     0.053 C 
BRANCH   3   4
ATOM      4  C   UNL     1      -5.124  37.421  25.236  1.00  0.00     0.041 C 
ATOM      5  O   UNL     1      -4.518  37.587  26.326  1.00  0.00    -0.550 OA
ATOM      6  O   UNL     1      -5.124  38.436  24.287  1.00  0.00    -0.550 OA
ENDBRANCH   3   4
ENDBRANCH   2   3
ENDBRANCH   1   2
BRANCH   1   7
ATOM      7  C   UNL     1      -4.557  35.198  21.577  1.00  0.00     0.000 C 
BRANCH   7   8
ATOM      8  C   UNL     1      -5.459  35.561  20.388  1.00  0.00    -0.000 C 
BRANCH   8   9
ATOM      9  C   UNL     1      -5.049  36.908  19.780  1.00  0.00    -0.000 C 
BRANCH   9  10
ATOM     10  C   UNL     1      -4.741  37.936  20.875  1.00  0.00    -0.003 C 
ATOM     11  C   UNL     1      -5.860  38.964  20.996  1.00  0.00     0.004 C 
ENDBRANCH   9  10
ENDBRANCH   8   9
ENDBRANCH   7   8
ENDBRANCH   1   7
TORSDOF 7
ENDMDL
MODEL 4
REMARK VINA RESULT:    -3.346      2.814      4.145
REMARK INTER + INTRA:          -5.292
REMARK INTER:                  -4.784
REMARK INTRA:                  -0.508
REMARK UNBOUND:                -0.576
REMARK SMILES CCCCCCCCC(=O)[O-]
REMARK SMILES IDX 6 1 7 2 8 3 9 4 10 5 11 6 5 7 4 8 3 9 2 10 1 11
REMARK H PARENT
REMARK Flexibility Score: inf
ROOT
ATOM      1  C   UNL     1      -4.583  35.038  21.491  1.00  0.00     0.000 C 
ENDROOT
BRANCH   1   2
ATOM      2  C   UNL     1      -5.364  34.825  22.800  1.00  0.00     0.006 C 
BRANCH   2   3
ATOM      3  C   UNL     1      -6.066  36.106  23.268  1.00  0.00     0.053 C 
BRANCH   3   4
ATOM      4  C   UNL     1      -5.801  36.389  24.716  1.00  0.00     0.041 C 
ATOM      5  O   UNL     1      -5.310  37.493  25.068  1.00  0.00    -0.550 OA
ATOM      6  O   UNL     1      -6.125  35.441  25.679  1.00  0.00    -0.550 OA
ENDBRANCH   3   4
ENDBRANCH   2   3
ENDBRANCH   1   2
BRANCH   1   7
ATOM      7  C   UNL     1      -5.432  35.705  20.398  1.00  0.00     0.000 C 
BRANCH   7   8
ATOM      8  C   UNL     1      -4.776  36.971  19.827  1.00  0.00    -0.000 C 
BRANCH   8   9
ATOM      9  C   UNL     1      -5.424  38.234  20.408  1.00  0.00    -0.000 C 
BRANCH   9  10
ATOM     10  C   UNL     1      -4.652  38.734  21.635  1.00  0.00    -0.003 C 
ATOM     11  C   UNL     1      -5.421  39.836  22.357  1.00  0.00     0.004 C 
ENDBRANCH   9  10
ENDBRANCH   8   9
ENDBRANCH   7   8
ENDBRANCH   1   7
TORSDOF 7
ENDMDL
MODEL 5
REMARK VINA RESULT:    -3.271      1.787      2.438
REMARK INTER + INTRA:          -5.186
REMARK INTER:                  -4.886
REMARK INTRA:                  -0.300
REMARK UNBOUND:                -0.576
REMARK SMILES CCCCCCCCC(=O)[O-]
REMARK SMILES IDX 6 1 7 2 8 3 9 4 10 5 11 6 5 7 4 8 3 9 2 10 1 11
REMARK H PARENT
REMARK Flexibility Score: inf
ROOT
ATOM      1  C   UNL     1      -4.597  35.212  21.664  1.00  0.00     0.000 C 
ENDROOT
BRANCH   1   2
ATOM      2  C   UNL     1      -5.508  35.590  20.483  1.00  0.00     0.006 C 
BRANCH   2   3
ATOM      3  C   UNL     1      -5.001  36.829  19.734  1.00  0.00     0.053 C 
BRANCH   3   4
ATOM      4  C   UNL     1      -5.036  38.054  20.597  1.00  0.00     0.041 C 
ATOM      5  O   UNL     1      -4.071  38.322  21.359  1.00  0.00    -0.550 OA
ATOM      6  O   UNL     1      -6.125  38.915  20.536  1.00  0.00    -0.550 OA
ENDBRANCH   3   4
ENDBRANCH   2   3
ENDBRANCH   1   2
BRANCH   1   7
ATOM      7  C   UNL     1      -5.390  34.844  22.928  1.00  0.00     0.000 C 
BRANCH   7   8
ATOM      8  C   UNL     1      -6.081  36.058  23.568  1.00  0.00    -0.000 C 
BRANCH   8   9
ATOM      9  C   UNL     1      -5.938  36.029  25.094  1.00  0.00    -0.000 C 
BRANCH   9  10
ATOM     10  C   UNL     1      -5.139  37.238  25.595  1.00  0.00    -0.003 C 
ATOM     11  C   UNL     1      -5.024  38.309  24.515  1.00  0.00     0.004 C 
ENDBRANCH   9  10
ENDBRANCH   8   9
ENDBRANCH   7   8
ENDBRANCH   1   7
TORSDOF 7
ENDMDL
MODEL 6
REMARK VINA RESULT:    -3.232      1.858      3.197
REMARK INTER + INTRA:          -5.130
REMARK INTER:                  -4.701
REMARK INTRA:                  -0.430
REMARK UNBOUND:                -0.576
REMARK SMILES CCCCCCCCC(=O)[O-]
REMARK SMILES IDX 6 1 7 2 8 3 9 4 10 5 11 6 5 7 4 8 3 9 2 10 1 11
REMARK H PARENT
REMARK Flexibility Score: inf
ROOT
ATOM      1  C   UNL     1      -5.377  37.839  20.243  1.00  0.00     0.000 C 
ENDROOT
BRANCH   1   2
ATOM      2  C   UNL     1      -5.332  36.315  20.032  1.00  0.00     0.006 C 
BRANCH   2   3
ATOM      3  C   UNL     1      -6.022  35.553  21.172  1.00  0.00     0.053 C 
BRANCH   3   4
ATOM      4  C   UNL     1      -5.029  34.904  22.088  1.00  0.00     0.041 C 
ATOM      5  O   UNL     1      -5.412  34.372  23.163  1.00  0.00    -0.550 OA
ATOM      6  O   UNL     1      -3.685  34.863  21.739  1.00  0.00    -0.550 OA
ENDBRANCH   3   4
ENDBRANCH   2   3
ENDBRANCH   1   2
BRANCH   1   7
ATOM      7  C   UNL     1      -4.523  38.295  21.437  1.00  0.00     0.000 C 
BRANCH   7   8
ATOM      8  C   UNL     1      -5.209  39.385  22.275  1.00  0.00    -0.000 C 
BRANCH   8   9
ATOM      9  C   UNL     1      -5.001  39.137  23.774  1.00  0.00    -0.000 C 
BRANCH   9  10
ATOM     10  C   UNL     1      -5.365  37.696  24.149  1.00  0.00    -0.003 C 
ATOM     11  C   UNL     1      -4.985  37.390  25.595  1.00  0.00     0.004 C 
ENDBRANCH   9  10
ENDBRANCH   8   9
ENDBRANCH   7   8
ENDBRANCH   1   7
TORSDOF 7
ENDMDL
MODEL 7
REMARK VINA RESULT:    -3.230      1.258      3.074
REMARK INTER + INTRA:          -5.127
REMARK INTER:                  -4.939
REMARK INTRA:                  -0.188
REMARK UNBOUND:                -0.576
REMARK SMILES CCCCCCCCC(=O)[O-]
REMARK SMILES IDX 6 1 7 2 8 3 9 4 10 5 11 6 5 7 4 8 3 9 2 10 1 11
REMARK H PARENT
REMARK Flexibility Score: inf
ROOT
ATOM      1  C   UNL     1      -4.409  38.428  21.527  1.00  0.00     0.000 C 
ENDROOT
BRANCH   1   2
ATOM      2  C   UNL     1      -5.501  37.965  20.546  1.00  0.00     0.006 C 
BRANCH   2   3
ATOM      3  C   UNL     1      -4.994  36.879  19.587  1.00  0.00     0.053 C 
BRANCH   3   4
ATOM      4  C   UNL     1      -5.140  35.507  20.173  1.00  0.00     0.041 C 
ATOM      5  O   UNL     1      -5.984  34.702  19.700  1.00  0.00    -0.550 OA
ATOM      6  O   UNL     1      -4.321  35.110  21.223  1.00  0.00    -0.550 OA
ENDBRANCH   3   4
ENDBRANCH   2   3
ENDBRANCH   1   2
BRANCH   1   7
ATOM      7  C   UNL     1      -4.989  39.107  22.778  1.00  0.00     0.000 C 
BRANCH   7   8
ATOM      8  C   UNL     1      -4.960  38.197  24.014  1.00  0.00    -0.000 C 
BRANCH   8   9
ATOM      9  C   UNL     1      -5.748  36.906  23.763  1.00  0.00    -0.000 C 
BRANCH   9  10
ATOM     10  C   UNL     1      -5.640  35.953  24.960  1.00  0.00    -0.003 C 
ATOM     11  C   UNL     1      -6.125  34.553  24.595  1.00  0.00     0.004 C 
ENDBRANCH   9  10
ENDBRANCH   8   9
ENDBRANCH   7   8
ENDBRANCH   1   7
TORSDOF 7
ENDMDL
MODEL 8
REMARK VINA RESULT:    -3.084      1.902      3.954
REMARK INTER + INTRA:          -4.922
REMARK INTER:                  -4.524
REMARK INTRA:                  -0.398
REMARK UNBOUND:                -0.576
REMARK SMILES CCCCCCCCC(=O)[O-]
REMARK SMILES IDX 6 1 7 2 8 3 9 4 10 5 11 6 5 7 4 8 3 9 2 10 1 11
REMARK H PARENT
REMARK Flexibility Score: inf
ROOT
ATOM      1  C   UNL     1      -6.086  36.859  23.690  1.00  0.00     0.000 C 
ENDROOT
BRANCH   1   2
ATOM      2  C   UNL     1      -5.088  37.719  24.484  1.00  0.00     0.006 C 
BRANCH   2   3
ATOM      3  C   UNL     1      -5.127  39.193  24.057  1.00  0.00     0.053 C 
BRANCH   3   4
ATOM      4  C   UNL     1      -5.005  39.345  22.571  1.00  0.00     0.041 C 
ATOM      5  O   UNL     1      -5.866  39.999  21.927  1.00  0.00    -0.550 OA
ATOM      6  O   UNL     1      -3.923  38.787  21.902  1.00  0.00    -0.550 OA
ENDBRANCH   3   4
ENDBRANCH   2   3
ENDBRANCH   1   2
BRANCH   1   7
ATOM      7  C   UNL     1      -5.768  35.357  23.772  1.00  0.00     0.000 C 
BRANCH   7   8
ATOM      8  C   UNL     1      -5.696  34.690  22.391  1.00  0.00    -0.000 C 
BRANCH   8   9
ATOM      9  C   UNL     1      -4.629  35.357  21.514  1.00  0.00    -0.000 C 
BRANCH   9  10
ATOM     10  C   UNL     1      -5.112  35.491  20.065  1.00  0.00    -0.003 C 
ATOM     11  C   UNL     1      -5.120  36.950  19.619  1.00  0.00     0.004 C 
ENDBRANCH   9  10
ENDBRANCH   8   9
ENDBRANCH   7   8
ENDBRANCH   1   7
TORSDOF 7
ENDMDL
