MODEL 1
REMARK VINA RESULT:    -6.162      0.000      0.000
REMARK INTER + INTRA:         -10.132
REMARK INTER:                  -8.683
REMARK INTRA:                  -1.449
REMARK UNBOUND:                -1.449
REMARK SMILES COc1c(O[C@H]2O[C@H](C(=O)[O-])[C@H](O)[C@@H](O)[C@H]2O)cc(O)c2c(=O)cc(-c3ccccc3)oc12
REMARK SMILES IDX 5 1 6 2 8 3 12 4 7 5 14 6 16 7 9 8 10 9 11 10 13 11 15 13
REMARK SMILES IDX 17 15 4 17 3 18 18 19 33 20 19 21 21 22 32 23 22 24 25 25
REMARK SMILES IDX 24 26 23 27 2 28 1 29 20 30 26 32 27 33 31 34 28 35 30 36
REMARK SMILES IDX 29 37
REMARK H PARENT 13 12 15 14 17 16 20 31
REMARK Flexibility Score: inf
ROOT
ATOM      1  O   UNL     1       1.657  13.988  33.978  1.00  0.00    -0.458 OA
ENDROOT
BRANCH   1   2
ATOM      2  C   UNL     1       1.487  15.007  34.975  1.00  0.00     0.339 C 
ATOM      3  C   UNL     1       3.714  15.724  34.754  1.00  0.00     0.199 C 
ATOM      4  C   UNL     1       3.322  17.099  34.173  1.00  0.00     0.180 C 
ATOM      5  O   UNL     1       2.717  15.243  35.644  1.00  0.00    -0.328 OA
ATOM      6  C   UNL     1       1.967  16.985  33.448  1.00  0.00     0.181 C 
ATOM      7  C   UNL     1       0.931  16.320  34.374  1.00  0.00     0.214 C 
BRANCH   3   8
ATOM      8  C   UNL     1       5.023  15.822  35.485  1.00  0.00     0.073 C 
ATOM      9  O   UNL     1       6.003  15.111  35.138  1.00  0.00    -0.547 OA
ATOM     10  O   UNL     1       5.143  16.668  36.580  1.00  0.00    -0.547 OA
ENDBRANCH   3   8
BRANCH   4  11
ATOM     11  O   UNL     1       3.232  18.046  35.209  1.00  0.00    -0.387 OA
ATOM     12  H   UNL     1       3.611  18.892  34.857  1.00  0.00     0.211 HD
ENDBRANCH   4  11
BRANCH   6  13
ATOM     13  O   UNL     1       2.107  16.233  32.269  1.00  0.00    -0.387 OA
ATOM     14  H   UNL     1       2.169  15.279  32.542  1.00  0.00     0.211 HD
ENDBRANCH   6  13
BRANCH   7  15
ATOM     15  O   UNL     1      -0.263  16.076  33.676  1.00  0.00    -0.384 OA
ATOM     16  H   UNL     1      -0.993  16.495  34.202  1.00  0.00     0.211 HD
ENDBRANCH   7  15
ENDBRANCH   1   2
BRANCH   1  17
ATOM     17  C   UNL     1       1.178  12.667  34.027  1.00  0.00     0.172 A 
ATOM     18  C   UNL     1       2.081  11.663  34.396  1.00  0.00     0.205 A 
ATOM     19  C   UNL     1      -0.152  12.334  33.728  1.00  0.00     0.097 A 
ATOM     20  C   UNL     1       1.642  10.318  34.488  1.00  0.00     0.188 A 
ATOM     21  C   UNL     1      -0.597  11.013  33.774  1.00  0.00     0.134 A 
ATOM     22  C   UNL     1       0.286   9.985  34.207  1.00  0.00     0.111 A 
ATOM     23  O   UNL     1       2.499   9.361  34.836  1.00  0.00    -0.452 OA
ATOM     24  C   UNL     1      -0.105   8.640  34.407  1.00  0.00     0.197 A 
ATOM     25  C   UNL     1       2.172   8.078  34.957  1.00  0.00     0.138 A 
ATOM     26  C   UNL     1       0.845   7.687  34.761  1.00  0.00     0.100 A 
ATOM     27  O   UNL     1      -1.306   8.273  34.311  1.00  0.00    -0.289 OA
BRANCH  18  28
ATOM     28  O   UNL     1       3.403  12.075  34.656  1.00  0.00    -0.490 OA
ATOM     29  C   UNL     1       4.042  12.131  35.925  1.00  0.00     0.278 C 
ENDBRANCH  18  28
BRANCH  21  30
ATOM     30  O   UNL     1      -1.910  10.784  33.351  1.00  0.00    -0.507 OA
ATOM     31  H   UNL     1      -2.169  10.482  32.424  1.00  0.00     0.293 HD
ENDBRANCH  21  30
BRANCH  25  32
ATOM     32  C   UNL     1       3.223   7.094  35.314  1.00  0.00     0.017 A 
ATOM     33  C   UNL     1       3.069   5.744  34.953  1.00  0.00     0.012 A 
ATOM     34  C   UNL     1       4.365   7.477  36.045  1.00  0.00     0.012 A 
ATOM     35  C   UNL     1       4.042   4.802  35.300  1.00  0.00     0.001 A 
ATOM     36  C   UNL     1       5.334   6.530  36.390  1.00  0.00     0.001 A 
ATOM     37  C   UNL     1       5.175   5.194  36.015  1.00  0.00     0.000 A 
ENDBRANCH  25  32
ENDBRANCH   1  17
TORSDOF 9
ENDMDL
MODEL 2
REMARK VINA RESULT:    -6.123      3.597     10.102
REMARK INTER + INTRA:         -10.077
REMARK INTER:                  -8.611
REMARK INTRA:                  -1.465
REMARK UNBOUND:                -1.449
REMARK SMILES COc1c(O[C@H]2O[C@H](C(=O)[O-])[C@H](O)[C@@H](O)[C@H]2O)cc(O)c2c(=O)cc(-c3ccccc3)oc12
REMARK SMILES IDX 5 1 6 2 8 3 12 4 7 5 14 6 16 7 9 8 10 9 11 10 13 11 15 13
REMARK SMILES IDX 17 15 4 17 3 18 18 19 33 20 19 21 21 22 32 23 22 24 25 25
REMARK SMILES IDX 24 26 23 27 2 28 1 29 20 30 26 32 27 33 31 34 28 35 30 36
REMARK SMILES IDX 29 37
REMARK H PARENT 13 12 15 14 17 16 20 31
REMARK Flexibility Score: inf
ROOT
ATOM      1  O   UNL     1      -1.697  11.204  34.019  1.00  0.00    -0.458 OA
ENDROOT
BRANCH   1   2
ATOM      2  C   UNL     1      -1.518  10.188  35.017  1.00  0.00     0.339 C 
ATOM      3  C   UNL     1      -3.747   9.472  34.821  1.00  0.00     0.199 C 
ATOM      4  C   UNL     1      -3.361   8.094  34.242  1.00  0.00     0.180 C 
ATOM      5  O   UNL     1      -2.741   9.956  35.700  1.00  0.00    -0.328 OA
ATOM      6  C   UNL     1      -2.013   8.205  33.503  1.00  0.00     0.181 C 
ATOM      7  C   UNL     1      -0.968   8.873  34.415  1.00  0.00     0.214 C 
BRANCH   3   8
ATOM      8  C   UNL     1      -5.049   9.376  35.565  1.00  0.00     0.073 C 
ATOM      9  O   UNL     1      -6.054  10.029  35.180  1.00  0.00    -0.547 OA
ATOM     10  O   UNL     1      -5.135   8.600  36.714  1.00  0.00    -0.547 OA
ENDBRANCH   3   8
BRANCH   4  11
ATOM     11  O   UNL     1      -3.261   7.151  35.280  1.00  0.00    -0.387 OA
ATOM     12  H   UNL     1      -3.655   6.307  34.939  1.00  0.00     0.211 HD
ENDBRANCH   4  11
BRANCH   6  13
ATOM     13  O   UNL     1      -2.165   8.953  32.323  1.00  0.00    -0.387 OA
ATOM     14  H   UNL     1      -1.261   9.037  31.917  1.00  0.00     0.211 HD
ENDBRANCH   6  13
BRANCH   7  15
ATOM     15  O   UNL     1       0.219   9.115  33.705  1.00  0.00    -0.384 OA
ATOM     16  H   UNL     1       0.912   8.519  34.093  1.00  0.00     0.211 HD
ENDBRANCH   7  15
ENDBRANCH   1   2
BRANCH   1  17
ATOM     17  C   UNL     1      -1.215  12.525  34.056  1.00  0.00     0.172 A 
ATOM     18  C   UNL     1      -2.114  13.533  34.423  1.00  0.00     0.205 A 
ATOM     19  C   UNL     1       0.113  12.852  33.749  1.00  0.00     0.097 A 
ATOM     20  C   UNL     1      -1.671  14.877  34.504  1.00  0.00     0.188 A 
ATOM     21  C   UNL     1       0.562  14.172  33.784  1.00  0.00     0.134 A 
ATOM     22  C   UNL     1      -0.317  15.205  34.214  1.00  0.00     0.111 A 
ATOM     23  O   UNL     1      -2.526  15.839  34.850  1.00  0.00    -0.452 OA
ATOM     24  C   UNL     1       0.079  16.550  34.404  1.00  0.00     0.197 A 
ATOM     25  C   UNL     1      -2.195  17.121  34.961  1.00  0.00     0.138 A 
ATOM     26  C   UNL     1      -0.868  17.508  34.756  1.00  0.00     0.100 A 
ATOM     27  O   UNL     1       1.279  16.914  34.299  1.00  0.00    -0.289 OA
BRANCH  18  28
ATOM     28  O   UNL     1      -3.436  13.125  34.692  1.00  0.00    -0.490 OA
ATOM     29  C   UNL     1      -4.074  13.095  35.963  1.00  0.00     0.278 C 
ENDBRANCH  18  28
BRANCH  21  30
ATOM     30  O   UNL     1       1.873  14.396  33.353  1.00  0.00    -0.507 OA
ATOM     31  H   UNL     1       2.170  14.384  32.389  1.00  0.00     0.293 HD
ENDBRANCH  21  30
BRANCH  25  32
ATOM     32  C   UNL     1      -3.242  18.110  35.316  1.00  0.00     0.017 A 
ATOM     33  C   UNL     1      -3.084  19.458  34.949  1.00  0.00     0.012 A 
ATOM     34  C   UNL     1      -4.383  17.734  36.051  1.00  0.00     0.012 A 
ATOM     35  C   UNL     1      -4.054  20.405  35.295  1.00  0.00     0.001 A 
ATOM     36  C   UNL     1      -5.349  18.685  36.394  1.00  0.00     0.001 A 
ATOM     37  C   UNL     1      -5.186  20.019  36.015  1.00  0.00     0.000 A 
ENDBRANCH  25  32
ENDBRANCH   1  17
TORSDOF 9
ENDMDL
MODEL 3
REMARK VINA RESULT:    -5.813      3.874      5.637
REMARK INTER + INTRA:          -9.641
REMARK INTER:                  -8.195
REMARK INTRA:                  -1.445
REMARK UNBOUND:                -1.449
REMARK SMILES COc1c(O[C@H]2O[C@H](C(=O)[O-])[C@H](O)[C@@H](O)[C@H]2O)cc(O)c2c(=O)cc(-c3ccccc3)oc12
REMARK SMILES IDX 5 1 6 2 8 3 12 4 7 5 14 6 16 7 9 8 10 9 11 10 13 11 15 13
REMARK SMILES IDX 17 15 4 17 3 18 18 19 33 20 19 21 21 22 32 23 22 24 25 25
REMARK SMILES IDX 24 26 23 27 2 28 1 29 20 30 26 32 27 33 31 34 28 35 30 36
REMARK SMILES IDX 29 37
REMARK H PARENT 13 12 15 14 17 16 20 31
REMARK Flexibility Score: inf
ROOT
ATOM      1  O   UNL     1      -1.058  12.514  34.127  1.00  0.00    -0.458 OA
ENDROOT
BRANCH   1   2
ATOM      2  C   UNL     1      -0.387  13.596  34.791  1.00  0.00     0.339 C 
ATOM      3  C   UNL     1       1.726  12.638  34.418  1.00  0.00     0.199 C 
ATOM      4  C   UNL     1       2.182  13.763  33.465  1.00  0.00     0.180 C 
ATOM      5  O   UNL     1       0.814  13.130  35.389  1.00  0.00    -0.328 OA
ATOM      6  C   UNL     1       0.952  14.386  32.776  1.00  0.00     0.181 C 
ATOM      7  C   UNL     1      -0.099  14.777  33.833  1.00  0.00     0.214 C 
BRANCH   3   8
ATOM      8  C   UNL     1       2.912  12.035  35.115  1.00  0.00     0.073 C 
ATOM      9  O   UNL     1       4.057  12.096  34.595  1.00  0.00    -0.547 OA
ATOM     10  O   UNL     1       2.741  11.365  36.320  1.00  0.00    -0.547 OA
ENDBRANCH   3   8
BRANCH   4  11
ATOM     11  O   UNL     1       2.875  14.749  34.188  1.00  0.00    -0.387 OA
ATOM     12  H   UNL     1       3.583  14.283  34.703  1.00  0.00     0.211 HD
ENDBRANCH   4  11
BRANCH   6  13
ATOM     13  O   UNL     1       0.393  13.476  31.861  1.00  0.00    -0.387 OA
ATOM     14  H   UNL     1       0.104  14.005  31.071  1.00  0.00     0.211 HD
ENDBRANCH   6  13
BRANCH   7  15
ATOM     15  O   UNL     1      -1.282  15.206  33.210  1.00  0.00    -0.384 OA
ATOM     16  H   UNL     1      -1.134  15.132  32.231  1.00  0.00     0.211 HD
ENDBRANCH   7  15
ENDBRANCH   1   2
BRANCH   1  17
ATOM     17  C   UNL     1      -2.310  11.965  34.454  1.00  0.00     0.172 A 
ATOM     18  C   UNL     1      -2.364  10.593  34.728  1.00  0.00     0.205 A 
ATOM     19  C   UNL     1      -3.479  12.736  34.518  1.00  0.00     0.097 A 
ATOM     20  C   UNL     1      -3.597   9.995  35.091  1.00  0.00     0.188 A 
ATOM     21  C   UNL     1      -4.711  12.163  34.834  1.00  0.00     0.134 A 
ATOM     22  C   UNL     1      -4.779  10.784  35.177  1.00  0.00     0.111 A 
ATOM     23  O   UNL     1      -3.653   8.690  35.349  1.00  0.00    -0.452 OA
ATOM     24  C   UNL     1      -5.955  10.141  35.633  1.00  0.00     0.197 A 
ATOM     25  C   UNL     1      -4.761   8.049  35.705  1.00  0.00     0.138 A 
ATOM     26  C   UNL     1      -5.946   8.770  35.875  1.00  0.00     0.100 A 
ATOM     27  O   UNL     1      -7.016  10.777  35.866  1.00  0.00    -0.289 OA
BRANCH  18  28
ATOM     28  O   UNL     1      -1.151   9.884  34.618  1.00  0.00    -0.490 OA
ATOM     29  C   UNL     1      -0.287   9.509  35.684  1.00  0.00     0.278 C 
ENDBRANCH  18  28
BRANCH  21  30
ATOM     30  O   UNL     1      -5.826  13.003  34.760  1.00  0.00    -0.507 OA
ATOM     31  H   UNL     1      -6.580  12.898  34.098  1.00  0.00     0.293 HD
ENDBRANCH  21  30
BRANCH  25  32
ATOM     32  C   UNL     1      -4.710   6.584  35.931  1.00  0.00     0.017 A 
ATOM     33  C   UNL     1      -5.594   5.738  35.239  1.00  0.00     0.012 A 
ATOM     34  C   UNL     1      -3.812   6.018  36.857  1.00  0.00     0.012 A 
ATOM     35  C   UNL     1      -5.571   4.357  35.456  1.00  0.00     0.001 A 
ATOM     36  C   UNL     1      -3.794   4.637  37.071  1.00  0.00     0.001 A 
ATOM     37  C   UNL     1      -4.670   3.806  36.369  1.00  0.00     0.000 A 
ENDBRANCH  25  32
ENDBRANCH   1  17
TORSDOF 9
ENDMDL
MODEL 4
REMARK VINA RESULT:    -5.758      3.151      8.679
REMARK INTER + INTRA:          -9.563
REMARK INTER:                  -8.123
REMARK INTRA:                  -1.440
REMARK UNBOUND:                -1.449
REMARK SMILES COc1c(O[C@H]2O[C@H](C(=O)[O-])[C@H](O)[C@@H](O)[C@H]2O)cc(O)c2c(=O)cc(-c3ccccc3)oc12
REMARK SMILES IDX 5 1 6 2 8 3 12 4 7 5 14 6 16 7 9 8 10 9 11 10 13 11 15 13
REMARK SMILES IDX 17 15 4 17 3 18 18 19 33 20 19 21 21 22 32 23 22 24 25 25
REMARK SMILES IDX 24 26 23 27 2 28 1 29 20 30 26 32 27 33 31 34 28 35 30 36
REMARK SMILES IDX 29 37
REMARK H PARENT 13 12 15 14 17 16 20 31
REMARK Flexibility Score: inf
ROOT
ATOM      1  O   UNL     1       1.061  12.665  34.147  1.00  0.00    -0.458 OA
ENDROOT
BRANCH   1   2
ATOM      2  C   UNL     1       0.402  11.558  34.780  1.00  0.00     0.339 C 
ATOM      3  C   UNL     1      -1.720  12.508  34.440  1.00  0.00     0.199 C 
ATOM      4  C   UNL     1      -2.168  11.408  33.455  1.00  0.00     0.180 C 
ATOM      5  O   UNL     1      -0.801  11.995  35.394  1.00  0.00    -0.328 OA
ATOM      6  C   UNL     1      -0.934  10.816  32.746  1.00  0.00     0.181 C 
ATOM      7  C   UNL     1       0.122  10.404  33.788  1.00  0.00     0.214 C 
BRANCH   3   8
ATOM      8  C   UNL     1      -2.910  13.079  35.157  1.00  0.00     0.073 C 
ATOM      9  O   UNL     1      -2.779  13.602  36.295  1.00  0.00    -0.547 OA
ATOM     10  O   UNL     1      -4.173  12.990  34.584  1.00  0.00    -0.547 OA
ENDBRANCH   3   8
BRANCH   4  11
ATOM     11  O   UNL     1      -2.851  10.394  34.150  1.00  0.00    -0.387 OA
ATOM     12  H   UNL     1      -2.771  10.605  35.116  1.00  0.00     0.211 HD
ENDBRANCH   4  11
BRANCH   6  13
ATOM     13  O   UNL     1      -0.386  11.757  31.857  1.00  0.00    -0.387 OA
ATOM     14  H   UNL     1      -0.622  12.656  32.208  1.00  0.00     0.211 HD
ENDBRANCH   6  13
BRANCH   7  15
ATOM     15  O   UNL     1       1.308  10.003  33.151  1.00  0.00    -0.384 OA
ATOM     16  H   UNL     1       1.650   9.217  33.651  1.00  0.00     0.211 HD
ENDBRANCH   7  15
ENDBRANCH   1   2
BRANCH   1  17
ATOM     17  C   UNL     1       2.315  13.208  34.479  1.00  0.00     0.172 A 
ATOM     18  C   UNL     1       2.374  14.578  34.760  1.00  0.00     0.205 A 
ATOM     19  C   UNL     1       3.482  12.432  34.542  1.00  0.00     0.097 A 
ATOM     20  C   UNL     1       3.609  15.170  35.128  1.00  0.00     0.188 A 
ATOM     21  C   UNL     1       4.714  12.999  34.864  1.00  0.00     0.134 A 
ATOM     22  C   UNL     1       4.787  14.376  35.214  1.00  0.00     0.111 A 
ATOM     23  O   UNL     1       3.668  16.473  35.392  1.00  0.00    -0.452 OA
ATOM     24  C   UNL     1       5.964  15.012  35.676  1.00  0.00     0.197 A 
ATOM     25  C   UNL     1       4.779  17.108  35.755  1.00  0.00     0.138 A 
ATOM     26  C   UNL     1       5.960  16.381  35.924  1.00  0.00     0.100 A 
ATOM     27  O   UNL     1       7.022  14.370  35.909  1.00  0.00    -0.289 OA
BRANCH  18  28
ATOM     28  O   UNL     1       1.164  15.292  34.650  1.00  0.00    -0.490 OA
ATOM     29  C   UNL     1       0.249  15.579  35.701  1.00  0.00     0.278 C 
ENDBRANCH  18  28
BRANCH  21  30
ATOM     30  O   UNL     1       5.827  12.155  34.790  1.00  0.00    -0.507 OA
ATOM     31  H   UNL     1       6.784  12.469  34.747  1.00  0.00     0.293 HD
ENDBRANCH  21  30
BRANCH  25  32
ATOM     32  C   UNL     1       4.732  18.572  35.987  1.00  0.00     0.017 A 
ATOM     33  C   UNL     1       3.816  19.105  36.910  1.00  0.00     0.012 A 
ATOM     34  C   UNL     1       5.566  19.453  35.269  1.00  0.00     0.012 A 
ATOM     35  C   UNL     1       3.747  20.486  37.124  1.00  0.00     0.001 A 
ATOM     36  C   UNL     1       5.492  20.832  35.487  1.00  0.00     0.001 A 
ATOM     37  C   UNL     1       4.586  21.348  36.416  1.00  0.00     0.000 A 
ENDBRANCH  25  32
ENDBRANCH   1  17
TORSDOF 9
ENDMDL
MODEL 5
REMARK VINA RESULT:    -5.738      4.441      7.287
REMARK INTER + INTRA:          -9.535
REMARK INTER:                  -8.192
REMARK INTRA:                  -1.343
REMARK UNBOUND:                -1.449
REMARK SMILES COc1c(O[C@H]2O[C@H](C(=O)[O-])[C@H](O)[C@@H](O)[C@H]2O)cc(O)c2c(=O)cc(-c3ccccc3)oc12
REMARK SMILES IDX 5 1 6 2 8 3 12 4 7 5 14 6 16 7 9 8 10 9 11 10 13 11 15 13
REMARK SMILES IDX 17 15 4 17 3 18 18 19 33 20 19 21 21 22 32 23 22 24 25 25
REMARK SMILES IDX 24 26 23 27 2 28 1 29 20 30 26 32 27 33 31 34 28 35 30 36
REMARK SMILES IDX 29 37
REMARK H PARENT 13 12 15 14 17 16 20 31
REMARK Flexibility Score: inf
ROOT
ATOM      1  O   UNL     1      -0.686  12.489  33.966  1.00  0.00    -0.458 OA
ENDROOT
BRANCH   1   2
ATOM      2  C   UNL     1      -0.144  13.547  34.771  1.00  0.00     0.339 C 
ATOM      3  C   UNL     1       2.063  12.846  34.369  1.00  0.00     0.199 C 
ATOM      4  C   UNL     1       2.427  14.112  33.565  1.00  0.00     0.180 C 
ATOM      5  O   UNL     1       1.082  13.133  35.356  1.00  0.00    -0.328 OA
ATOM      6  C   UNL     1       1.158  14.689  32.907  1.00  0.00     0.181 C 
ATOM      7  C   UNL     1       0.048  14.852  33.963  1.00  0.00     0.214 C 
BRANCH   3   8
ATOM      8  C   UNL     1       3.286  12.284  35.035  1.00  0.00     0.073 C 
ATOM      9  O   UNL     1       3.183  11.603  36.089  1.00  0.00    -0.547 OA
ATOM     10  O   UNL     1       4.546  12.556  34.515  1.00  0.00    -0.547 OA
ENDBRANCH   3   8
BRANCH   4  11
ATOM     11  O   UNL     1       3.000  15.071  34.419  1.00  0.00    -0.387 OA
ATOM     12  H   UNL     1       3.161  14.621  35.288  1.00  0.00     0.211 HD
ENDBRANCH   4  11
BRANCH   6  13
ATOM     13  O   UNL     1       0.716  13.842  31.877  1.00  0.00    -0.387 OA
ATOM     14  H   UNL     1      -0.052  13.325  32.238  1.00  0.00     0.211 HD
ENDBRANCH   6  13
BRANCH   7  15
ATOM     15  O   UNL     1      -1.156  15.234  33.351  1.00  0.00    -0.384 OA
ATOM     16  H   UNL     1      -1.785  14.472  33.455  1.00  0.00     0.211 HD
ENDBRANCH   7  15
ENDBRANCH   1   2
BRANCH   1  17
ATOM     17  C   UNL     1      -1.558  11.468  34.384  1.00  0.00     0.172 A 
ATOM     18  C   UNL     1      -2.912  11.792  34.531  1.00  0.00     0.205 A 
ATOM     19  C   UNL     1      -1.121  10.161  34.646  1.00  0.00     0.097 A 
ATOM     20  C   UNL     1      -3.838  10.792  34.923  1.00  0.00     0.188 A 
ATOM     21  C   UNL     1      -2.006   9.171  35.070  1.00  0.00     0.134 A 
ATOM     22  C   UNL     1      -3.396   9.461  35.167  1.00  0.00     0.111 A 
ATOM     23  O   UNL     1      -5.126  11.099  35.068  1.00  0.00    -0.452 OA
ATOM     24  C   UNL     1      -4.386   8.495  35.464  1.00  0.00     0.197 A 
ATOM     25  C   UNL     1      -6.062  10.224  35.421  1.00  0.00     0.138 A 
ATOM     26  C   UNL     1      -5.714   8.885  35.611  1.00  0.00     0.100 A 
ATOM     27  O   UNL     1      -4.113   7.270  35.568  1.00  0.00    -0.289 OA
BRANCH  18  28
ATOM     28  O   UNL     1      -3.267  13.131  34.274  1.00  0.00    -0.490 OA
ATOM     29  C   UNL     1      -3.756  14.077  35.217  1.00  0.00     0.278 C 
ENDBRANCH  18  28
BRANCH  21  30
ATOM     30  O   UNL     1      -1.444   7.936  35.407  1.00  0.00    -0.507 OA
ATOM     31  H   UNL     1      -0.457   7.729  35.382  1.00  0.00     0.293 HD
ENDBRANCH  21  30
BRANCH  25  32
ATOM     32  C   UNL     1      -7.461  10.690  35.588  1.00  0.00     0.017 A 
ATOM     33  C   UNL     1      -8.046  10.700  36.866  1.00  0.00     0.012 A 
ATOM     34  C   UNL     1      -8.235  11.091  34.481  1.00  0.00     0.012 A 
ATOM     35  C   UNL     1      -9.371  11.117  37.036  1.00  0.00     0.001 A 
ATOM     36  C   UNL     1      -9.558  11.507  34.657  1.00  0.00     0.001 A 
ATOM     37  C   UNL     1     -10.125  11.523  35.933  1.00  0.00     0.000 A 
ENDBRANCH  25  32
ENDBRANCH   1  17
TORSDOF 9
ENDMDL
MODEL 6
REMARK VINA RESULT:    -5.729      4.910     10.355
REMARK INTER + INTRA:          -9.522
REMARK INTER:                  -8.255
REMARK INTRA:                  -1.268
REMARK UNBOUND:                -1.449
REMARK SMILES COc1c(O[C@H]2O[C@H](C(=O)[O-])[C@H](O)[C@@H](O)[C@H]2O)cc(O)c2c(=O)cc(-c3ccccc3)oc12
REMARK SMILES IDX 5 1 6 2 8 3 12 4 7 5 14 6 16 7 9 8 10 9 11 10 13 11 15 13
REMARK SMILES IDX 17 15 4 17 3 18 18 19 33 20 19 21 21 22 32 23 22 24 25 25
REMARK SMILES IDX 24 26 23 27 2 28 1 29 20 30 26 32 27 33 31 34 28 35 30 36
REMARK SMILES IDX 29 37
REMARK H PARENT 13 12 15 14 17 16 20 31
REMARK Flexibility Score: inf
ROOT
ATOM      1  O   UNL     1      -1.955  13.703  34.372  1.00  0.00    -0.458 OA
ENDROOT
BRANCH   1   2
ATOM      2  C   UNL     1      -1.146  12.728  35.047  1.00  0.00     0.339 C 
ATOM      3  C   UNL     1      -1.598  11.092  33.422  1.00  0.00     0.199 C 
ATOM      4  C   UNL     1      -0.140  11.042  32.919  1.00  0.00     0.180 C 
ATOM      5  O   UNL     1      -1.651  11.423  34.802  1.00  0.00    -0.328 OA
ATOM      6  C   UNL     1       0.539  12.402  33.169  1.00  0.00     0.181 C 
ATOM      7  C   UNL     1       0.343  12.825  34.637  1.00  0.00     0.214 C 
BRANCH   3   8
ATOM      8  C   UNL     1      -2.268   9.765  33.206  1.00  0.00     0.073 C 
ATOM      9  O   UNL     1      -2.036   9.094  32.167  1.00  0.00    -0.547 OA
ATOM     10  O   UNL     1      -3.186   9.293  34.136  1.00  0.00    -0.547 OA
ENDBRANCH   3   8
BRANCH   4  11
ATOM     11  O   UNL     1       0.562  10.026  33.593  1.00  0.00    -0.387 OA
ATOM     12  H   UNL     1       0.014   9.772  34.379  1.00  0.00     0.211 HD
ENDBRANCH   4  11
BRANCH   6  13
ATOM     13  O   UNL     1       0.001  13.380  32.315  1.00  0.00    -0.387 OA
ATOM     14  H   UNL     1       0.671  14.111  32.256  1.00  0.00     0.211 HD
ENDBRANCH   6  13
BRANCH   7  15
ATOM     15  O   UNL     1       0.826  14.128  34.840  1.00  0.00    -0.384 OA
ATOM     16  H   UNL     1       0.824  14.575  33.954  1.00  0.00     0.211 HD
ENDBRANCH   7  15
ENDBRANCH   1   2
BRANCH   1  17
ATOM     17  C   UNL     1      -2.975  14.493  34.933  1.00  0.00     0.172 A 
ATOM     18  C   UNL     1      -2.749  15.872  35.026  1.00  0.00     0.205 A 
ATOM     19  C   UNL     1      -4.187  13.953  35.386  1.00  0.00     0.097 A 
ATOM     20  C   UNL     1      -3.755  16.717  35.557  1.00  0.00     0.188 A 
ATOM     21  C   UNL     1      -5.176  14.758  35.948  1.00  0.00     0.134 A 
ATOM     22  C   UNL     1      -4.994  16.169  35.996  1.00  0.00     0.111 A 
ATOM     23  O   UNL     1      -3.542  18.028  35.650  1.00  0.00    -0.452 OA
ATOM     24  C   UNL     1      -5.987  17.079  36.429  1.00  0.00     0.197 A 
ATOM     25  C   UNL     1      -4.432  18.893  36.125  1.00  0.00     0.138 A 
ATOM     26  C   UNL     1      -5.695  18.437  36.512  1.00  0.00     0.100 A 
ATOM     27  O   UNL     1      -7.156  16.706  36.714  1.00  0.00    -0.289 OA
BRANCH  18  28
ATOM     28  O   UNL     1      -1.497  16.333  34.572  1.00  0.00    -0.490 OA
ATOM     29  C   UNL     1      -0.548  17.087  35.317  1.00  0.00     0.278 C 
ENDBRANCH  18  28
BRANCH  21  30
ATOM     30  O   UNL     1      -6.295  14.100  36.466  1.00  0.00    -0.507 OA
ATOM     31  H   UNL     1      -6.655  13.223  36.122  1.00  0.00     0.293 HD
ENDBRANCH  21  30
BRANCH  25  32
ATOM     32  C   UNL     1      -4.068  20.328  36.216  1.00  0.00     0.017 A 
ATOM     33  C   UNL     1      -2.872  20.707  36.851  1.00  0.00     0.012 A 
ATOM     34  C   UNL     1      -4.918  21.332  35.711  1.00  0.00     0.012 A 
ATOM     35  C   UNL     1      -2.525  22.058  36.962  1.00  0.00     0.001 A 
ATOM     36  C   UNL     1      -4.566  22.680  35.826  1.00  0.00     0.001 A 
ATOM     37  C   UNL     1      -3.370  23.043  36.448  1.00  0.00     0.000 A 
ENDBRANCH  25  32
ENDBRANCH   1  17
TORSDOF 9
ENDMDL
MODEL 7
REMARK VINA RESULT:    -5.676      3.230      5.772
REMARK INTER + INTRA:          -9.447
REMARK INTER:                  -8.282
REMARK INTRA:                  -1.166
REMARK UNBOUND:                -1.449
REMARK SMILES COc1c(O[C@H]2O[C@H](C(=O)[O-])[C@H](O)[C@@H](O)[C@H]2O)cc(O)c2c(=O)cc(-c3ccccc3)oc12
REMARK SMILES IDX 5 1 6 2 8 3 12 4 7 5 14 6 16 7 9 8 10 9 11 10 13 11 15 13
REMARK SMILES IDX 17 15 4 17 3 18 18 19 33 20 19 21 21 22 32 23 22 24 25 25
REMARK SMILES IDX 24 26 23 27 2 28 1 29 20 30 26 32 27 33 31 34 28 35 30 36
REMARK SMILES IDX 29 37
REMARK H PARENT 13 12 15 14 17 16 20 31
REMARK Flexibility Score: inf
ROOT
ATOM      1  O   UNL     1       0.286  14.678  33.849  1.00  0.00    -0.458 OA
ENDROOT
BRANCH   1   2
ATOM      2  C   UNL     1       0.706  15.506  34.944  1.00  0.00     0.339 C 
ATOM      3  C   UNL     1       2.973  15.009  34.572  1.00  0.00     0.199 C 
ATOM      4  C   UNL     1       3.327  16.453  34.158  1.00  0.00     0.180 C 
ATOM      5  O   UNL     1       1.905  14.995  35.509  1.00  0.00    -0.328 OA
ATOM      6  C   UNL     1       2.082  17.139  33.561  1.00  0.00     0.181 C 
ATOM      7  C   UNL     1       0.887  16.983  34.520  1.00  0.00     0.214 C 
BRANCH   3   8
ATOM      8  C   UNL     1       4.170  14.333  35.176  1.00  0.00     0.073 C 
ATOM      9  O   UNL     1       5.285  14.918  35.208  1.00  0.00    -0.547 OA
ATOM     10  O   UNL     1       4.062  13.036  35.663  1.00  0.00    -0.547 OA
ENDBRANCH   3   8
BRANCH   4  11
ATOM     11  O   UNL     1       3.779  17.173  35.277  1.00  0.00    -0.387 OA
ATOM     12  H   UNL     1       4.156  16.510  35.912  1.00  0.00     0.211 HD
ENDBRANCH   4  11
BRANCH   6  13
ATOM     13  O   UNL     1       1.768  16.577  32.312  1.00  0.00    -0.387 OA
ATOM     14  H   UNL     1       1.927  17.283  31.631  1.00  0.00     0.211 HD
ENDBRANCH   6  13
BRANCH   7  15
ATOM     15  O   UNL     1      -0.286  17.472  33.924  1.00  0.00    -0.384 OA
ATOM     16  H   UNL     1      -1.034  17.250  34.538  1.00  0.00     0.211 HD
ENDBRANCH   7  15
ENDBRANCH   1   2
BRANCH   1  17
ATOM     17  C   UNL     1      -0.182  13.354  33.918  1.00  0.00     0.172 A 
ATOM     18  C   UNL     1      -1.514  13.158  34.300  1.00  0.00     0.205 A 
ATOM     19  C   UNL     1       0.627  12.250  33.615  1.00  0.00     0.097 A 
ATOM     20  C   UNL     1      -2.045  11.844  34.358  1.00  0.00     0.188 A 
ATOM     21  C   UNL     1       0.140  10.946  33.703  1.00  0.00     0.134 A 
ATOM     22  C   UNL     1      -1.228  10.726  34.030  1.00  0.00     0.111 A 
ATOM     23  O   UNL     1      -3.310  11.654  34.726  1.00  0.00    -0.452 OA
ATOM     24  C   UNL     1      -1.846   9.453  34.020  1.00  0.00     0.197 A 
ATOM     25  C   UNL     1      -3.892  10.460  34.797  1.00  0.00     0.138 A 
ATOM     26  C   UNL     1      -3.171   9.322  34.425  1.00  0.00     0.100 A 
ATOM     27  O   UNL     1      -1.245   8.422  33.619  1.00  0.00    -0.289 OA
BRANCH  18  28
ATOM     28  O   UNL     1      -2.254  14.316  34.612  1.00  0.00    -0.490 OA
ATOM     29  C   UNL     1      -2.663  14.740  35.906  1.00  0.00     0.278 C 
ENDBRANCH  18  28
BRANCH  21  30
ATOM     30  O   UNL     1       1.064   9.920  33.487  1.00  0.00    -0.507 OA
ATOM     31  H   UNL     1       1.670   9.534  34.196  1.00  0.00     0.293 HD
ENDBRANCH  21  30
BRANCH  25  32
ATOM     32  C   UNL     1      -5.299  10.368  35.256  1.00  0.00     0.017 A 
ATOM     33  C   UNL     1      -5.825   9.126  35.652  1.00  0.00     0.012 A 
ATOM     34  C   UNL     1      -6.139  11.498  35.270  1.00  0.00     0.012 A 
ATOM     35  C   UNL     1      -7.157   9.020  36.068  1.00  0.00     0.001 A 
ATOM     36  C   UNL     1      -7.469  11.386  35.686  1.00  0.00     0.001 A 
ATOM     37  C   UNL     1      -7.977  10.149  36.087  1.00  0.00     0.000 A 
ENDBRANCH  25  32
ENDBRANCH   1  17
TORSDOF 9
ENDMDL
MODEL 8
REMARK VINA RESULT:    -5.634      2.591      7.809
REMARK INTER + INTRA:          -9.388
REMARK INTER:                  -8.212
REMARK INTRA:                  -1.176
REMARK UNBOUND:                -1.449
REMARK SMILES COc1c(O[C@H]2O[C@H](C(=O)[O-])[C@H](O)[C@@H](O)[C@H]2O)cc(O)c2c(=O)cc(-c3ccccc3)oc12
REMARK SMILES IDX 5 1 6 2 8 3 12 4 7 5 14 6 16 7 9 8 10 9 11 10 13 11 15 13
REMARK SMILES IDX 17 15 4 17 3 18 18 19 33 20 19 21 21 22 32 23 22 24 25 25
REMARK SMILES IDX 24 26 23 27 2 28 1 29 20 30 26 32 27 33 31 34 28 35 30 36
REMARK SMILES IDX 29 37
REMARK H PARENT 13 12 15 14 17 16 20 31
REMARK Flexibility Score: inf
ROOT
ATOM      1  O   UNL     1      -0.134  10.481  33.885  1.00  0.00    -0.458 OA
ENDROOT
BRANCH   1   2
ATOM      2  C   UNL     1      -0.544   9.648  34.981  1.00  0.00     0.339 C 
ATOM      3  C   UNL     1      -2.820  10.053  34.558  1.00  0.00     0.199 C 
ATOM      4  C   UNL     1      -3.110   8.593  34.151  1.00  0.00     0.180 C 
ATOM      5  O   UNL     1      -1.772  10.118  35.516  1.00  0.00    -0.328 OA
ATOM      6  C   UNL     1      -1.828   7.950  33.587  1.00  0.00     0.181 C 
ATOM      7  C   UNL     1      -0.659   8.161  34.568  1.00  0.00     0.214 C 
BRANCH   3   8
ATOM      8  C   UNL     1      -4.054  10.688  35.132  1.00  0.00     0.073 C 
ATOM      9  O   UNL     1      -4.007  11.846  35.622  1.00  0.00    -0.547 OA
ATOM     10  O   UNL     1      -5.248   9.977  35.165  1.00  0.00    -0.547 OA
ENDBRANCH   3   8
BRANCH   4  11
ATOM     11  O   UNL     1      -3.556   7.866  35.269  1.00  0.00    -0.387 OA
ATOM     12  H   UNL     1      -2.923   7.113  35.394  1.00  0.00     0.211 HD
ENDBRANCH   4  11
BRANCH   6  13
ATOM     13  O   UNL     1      -1.510   8.512  32.338  1.00  0.00    -0.387 OA
ATOM     14  H   UNL     1      -0.519   8.573  32.294  1.00  0.00     0.211 HD
ENDBRANCH   6  13
BRANCH   7  15
ATOM     15  O   UNL     1       0.544   7.712  34.000  1.00  0.00    -0.384 OA
ATOM     16  H   UNL     1       1.060   8.522  33.746  1.00  0.00     0.211 HD
ENDBRANCH   7  15
ENDBRANCH   1   2
BRANCH   1  17
ATOM     17  C   UNL     1       0.280  11.823  33.950  1.00  0.00     0.172 A 
ATOM     18  C   UNL     1       1.603  12.075  34.334  1.00  0.00     0.205 A 
ATOM     19  C   UNL     1      -0.573  12.892  33.642  1.00  0.00     0.097 A 
ATOM     20  C   UNL     1       2.079  13.409  34.388  1.00  0.00     0.188 A 
ATOM     21  C   UNL     1      -0.139  14.215  33.725  1.00  0.00     0.134 A 
ATOM     22  C   UNL     1       1.218  14.492  34.053  1.00  0.00     0.111 A 
ATOM     23  O   UNL     1       3.335  13.653  34.757  1.00  0.00    -0.452 OA
ATOM     24  C   UNL     1       1.783  15.789  34.040  1.00  0.00     0.197 A 
ATOM     25  C   UNL     1       3.867  14.869  34.825  1.00  0.00     0.138 A 
ATOM     26  C   UNL     1       3.101  15.975  34.447  1.00  0.00     0.100 A 
ATOM     27  O   UNL     1       1.142  16.793  33.633  1.00  0.00    -0.289 OA
BRANCH  18  28
ATOM     28  O   UNL     1       2.388  10.949  34.651  1.00  0.00    -0.490 OA
ATOM     29  C   UNL     1       2.814  10.548  35.948  1.00  0.00     0.278 C 
ENDBRANCH  18  28
BRANCH  21  30
ATOM     30  O   UNL     1      -1.104  15.202  33.503  1.00  0.00    -0.507 OA
ATOM     31  H   UNL     1      -0.947  16.193  33.612  1.00  0.00     0.293 HD
ENDBRANCH  21  30
BRANCH  25  32
ATOM     32  C   UNL     1       5.269  15.020  35.286  1.00  0.00     0.017 A 
ATOM     33  C   UNL     1       5.738  16.281  35.694  1.00  0.00     0.012 A 
ATOM     34  C   UNL     1       6.159  13.929  35.290  1.00  0.00     0.012 A 
ATOM     35  C   UNL     1       7.063  16.443  36.112  1.00  0.00     0.001 A 
ATOM     36  C   UNL     1       7.482  14.097  35.709  1.00  0.00     0.001 A 
ATOM     37  C   UNL     1       7.933  15.352  36.122  1.00  0.00     0.000 A 
ENDBRANCH  25  32
ENDBRANCH   1  17
TORSDOF 9
ENDMDL
MODEL 9
REMARK VINA RESULT:    -5.611      2.755      7.955
REMARK INTER + INTRA:          -9.355
REMARK INTER:                  -7.863
REMARK INTRA:                  -1.493
REMARK UNBOUND:                -1.449
REMARK SMILES COc1c(O[C@H]2O[C@H](C(=O)[O-])[C@H](O)[C@@H](O)[C@H]2O)cc(O)c2c(=O)cc(-c3ccccc3)oc12
REMARK SMILES IDX 5 1 6 2 8 3 12 4 7 5 14 6 16 7 9 8 10 9 11 10 13 11 15 13
REMARK SMILES IDX 17 15 4 17 3 18 18 19 33 20 19 21 21 22 32 23 22 24 25 25
REMARK SMILES IDX 24 26 23 27 2 28 1 29 20 30 26 32 27 33 31 34 28 35 30 36
REMARK SMILES IDX 29 37
REMARK H PARENT 13 12 15 14 17 16 20 31
REMARK Flexibility Score: inf
ROOT
ATOM      1  O   UNL     1       1.038  11.100  34.202  1.00  0.00    -0.458 OA
ENDROOT
BRANCH   1   2
ATOM      2  C   UNL     1       0.024  10.584  35.077  1.00  0.00     0.339 C 
ATOM      3  C   UNL     1      -1.544  12.176  34.351  1.00  0.00     0.199 C 
ATOM      4  C   UNL     1      -2.458  11.125  33.688  1.00  0.00     0.180 C 
ATOM      5  O   UNL     1      -0.859  11.625  35.467  1.00  0.00    -0.328 OA
ATOM      6  C   UNL     1      -1.616   9.910  33.252  1.00  0.00     0.181 C 
ATOM      7  C   UNL     1      -0.759   9.415  34.432  1.00  0.00     0.214 C 
BRANCH   3   8
ATOM      8  C   UNL     1      -2.354  13.358  34.803  1.00  0.00     0.073 C 
ATOM      9  O   UNL     1      -3.575  13.446  34.507  1.00  0.00    -0.547 OA
ATOM     10  O   UNL     1      -1.745  14.385  35.513  1.00  0.00    -0.547 OA
ENDBRANCH   3   8
BRANCH   4  11
ATOM     11  O   UNL     1      -3.452  10.716  34.595  1.00  0.00    -0.387 OA
ATOM     12  H   UNL     1      -4.132  11.438  34.620  1.00  0.00     0.211 HD
ENDBRANCH   4  11
BRANCH   6  13
ATOM     13  O   UNL     1      -0.786  10.256  32.171  1.00  0.00    -0.387 OA
ATOM     14  H   UNL     1      -1.239   9.936  31.347  1.00  0.00     0.211 HD
ENDBRANCH   6  13
BRANCH   7  15
ATOM     15  O   UNL     1       0.121   8.407  34.009  1.00  0.00    -0.384 OA
ATOM     16  H   UNL     1       0.856   8.856  33.514  1.00  0.00     0.211 HD
ENDBRANCH   7  15
ENDBRANCH   1   2
BRANCH   1  17
ATOM     17  C   UNL     1       2.336  11.509  34.557  1.00  0.00     0.172 A 
ATOM     18  C   UNL     1       2.578  12.885  34.653  1.00  0.00     0.205 A 
ATOM     19  C   UNL     1       3.370  10.599  34.817  1.00  0.00     0.097 A 
ATOM     20  C   UNL     1       3.862  13.349  35.034  1.00  0.00     0.188 A 
ATOM     21  C   UNL     1       4.651  11.032  35.156  1.00  0.00     0.134 A 
ATOM     22  C   UNL     1       4.904  12.423  35.320  1.00  0.00     0.111 A 
ATOM     23  O   UNL     1       4.097  14.657  35.123  1.00  0.00    -0.452 OA
ATOM     24  C   UNL     1       6.132  12.952  35.784  1.00  0.00     0.197 A 
ATOM     25  C   UNL     1       5.264  15.180  35.483  1.00  0.00     0.138 A 
ATOM     26  C   UNL     1       6.314  14.331  35.843  1.00  0.00     0.100 A 
ATOM     27  O   UNL     1       7.069  12.213  36.185  1.00  0.00    -0.289 OA
BRANCH  18  28
ATOM     28  O   UNL     1       1.495  13.734  34.351  1.00  0.00    -0.490 OA
ATOM     29  C   UNL     1       1.237  14.374  33.107  1.00  0.00     0.278 C 
ENDBRANCH  18  28
BRANCH  21  30
ATOM     30  O   UNL     1       5.630  10.042  35.285  1.00  0.00    -0.507 OA
ATOM     31  H   UNL     1       6.279   9.974  36.054  1.00  0.00     0.293 HD
ENDBRANCH  21  30
BRANCH  25  32
ATOM     32  C   UNL     1       5.419  16.655  35.510  1.00  0.00     0.017 A 
ATOM     33  C   UNL     1       6.667  17.221  35.825  1.00  0.00     0.012 A 
ATOM     34  C   UNL     1       4.327  17.509  35.262  1.00  0.00     0.012 A 
ATOM     35  C   UNL     1       6.823  18.610  35.874  1.00  0.00     0.001 A 
ATOM     36  C   UNL     1       4.489  18.897  35.312  1.00  0.00     0.001 A 
ATOM     37  C   UNL     1       5.736  19.448  35.615  1.00  0.00     0.000 A 
ENDBRANCH  25  32
ENDBRANCH   1  17
TORSDOF 9
ENDMDL
