MODEL 1
REMARK VINA RESULT:    -6.360      0.000      0.000
REMARK INTER + INTRA:          -7.161
REMARK INTER:                  -6.918
REMARK INTRA:                  -0.242
REMARK UNBOUND:                -0.242
REMARK SMILES CC(C)c1cc2c(cc1O)[C@@]1(C)CCCC(C)(C)[C@@H]1CC2=O
REMARK SMILES IDX 4 1 9 2 8 3 7 4 6 5 5 6 21 7 22 8 20 9 19 10 11 11 13 12
REMARK SMILES IDX 14 13 15 14 16 15 17 16 18 17 12 18 2 19 1 20 3 21 10 22
REMARK H PARENT 10 23
REMARK Flexibility Score: inf
ROOT
ATOM      1  C   UNL     1     -12.725   5.697 -16.069  1.00  0.00    -0.003 A 
ATOM      2  C   UNL     1     -13.411   6.908 -16.299  1.00  0.00     0.119 A 
ATOM      3  C   UNL     1     -13.078   8.052 -15.564  1.00  0.00     0.051 A 
ATOM      4  C   UNL     1     -12.069   8.031 -14.580  1.00  0.00    -0.027 A 
ATOM      5  C   UNL     1     -11.324   6.838 -14.412  1.00  0.00     0.022 A 
ATOM      6  C   UNL     1     -11.673   5.685 -15.138  1.00  0.00     0.020 A 
ATOM      7  C   UNL     1     -10.168   6.796 -13.487  1.00  0.00     0.163 C 
ATOM      8  O   UNL     1      -9.516   5.729 -13.325  1.00  0.00    -0.294 OA
ATOM      9  C   UNL     1      -9.717   8.032 -12.777  1.00  0.00     0.086 C 
ATOM     10  C   UNL     1     -10.913   8.967 -12.501  1.00  0.00     0.013 C 
ATOM     11  C   UNL     1     -11.708   9.323 -13.815  1.00  0.00    -0.003 C 
ATOM     12  C   UNL     1     -13.023  10.092 -13.420  1.00  0.00     0.012 C 
ATOM     13  C   UNL     1     -12.991  10.816 -12.063  1.00  0.00     0.001 C 
ATOM     14  C   UNL     1     -11.599  11.346 -11.722  1.00  0.00     0.007 C 
ATOM     15  C   UNL     1     -10.557  10.198 -11.564  1.00  0.00    -0.031 C 
ATOM     16  C   UNL     1      -9.144  10.777 -11.838  1.00  0.00     0.011 C 
ATOM     17  C   UNL     1     -10.576   9.729 -10.085  1.00  0.00     0.011 C 
ATOM     18  C   UNL     1     -10.875  10.185 -14.798  1.00  0.00     0.017 C 
ENDROOT
BRANCH   1  19
ATOM     19  C   UNL     1     -13.043   4.421 -16.838  1.00  0.00     0.017 C 
ATOM     20  C   UNL     1     -13.369   3.260 -15.890  1.00  0.00     0.012 C 
ATOM     21  C   UNL     1     -11.932   4.047 -17.828  1.00  0.00     0.012 C 
ENDBRANCH   1  19
BRANCH   2  22
ATOM     22  O   UNL     1     -14.420   6.982 -17.259  1.00  0.00    -0.508 OA
ATOM     23  H   UNL     1     -14.246   6.777 -18.235  1.00  0.00     0.293 HD
ENDBRANCH   2  22
TORSDOF 2
ENDMDL
MODEL 2
REMARK VINA RESULT:    -5.460     17.053     19.565
REMARK INTER + INTRA:          -6.182
REMARK INTER:                  -5.934
REMARK INTRA:                  -0.247
REMARK UNBOUND:                -0.242
REMARK SMILES CC(C)c1cc2c(cc1O)[C@@]1(C)CCCC(C)(C)[C@@H]1CC2=O
REMARK SMILES IDX 4 1 9 2 8 3 7 4 6 5 5 6 21 7 22 8 20 9 19 10 11 11 13 12
REMARK SMILES IDX 14 13 15 14 16 15 17 16 18 17 12 18 2 19 1 20 3 21 10 22
REMARK H PARENT 10 23
REMARK Flexibility Score: inf
ROOT
ATOM      1  C   UNL     1     -27.804  12.503 -26.005  1.00  0.00    -0.003 A 
ATOM      2  C   UNL     1     -27.541  12.929 -24.686  1.00  0.00     0.119 A 
ATOM      3  C   UNL     1     -27.369  11.985 -23.666  1.00  0.00     0.051 A 
ATOM      4  C   UNL     1     -27.460  10.601 -23.917  1.00  0.00    -0.027 A 
ATOM      5  C   UNL     1     -27.639  10.174 -25.256  1.00  0.00     0.022 A 
ATOM      6  C   UNL     1     -27.829  11.125 -26.275  1.00  0.00     0.020 A 
ATOM      7  C   UNL     1     -27.611   8.733 -25.597  1.00  0.00     0.163 C 
ATOM      8  O   UNL     1     -27.786   8.354 -26.786  1.00  0.00    -0.294 OA
ATOM      9  C   UNL     1     -27.314   7.709 -24.549  1.00  0.00     0.086 C 
ATOM     10  C   UNL     1     -27.816   8.182 -23.169  1.00  0.00     0.013 C 
ATOM     11  C   UNL     1     -27.231   9.591 -22.771  1.00  0.00    -0.003 C 
ATOM     12  C   UNL     1     -27.955  10.092 -21.468  1.00  0.00     0.012 C 
ATOM     13  C   UNL     1     -28.567   8.995 -20.580  1.00  0.00     0.001 C 
ATOM     14  C   UNL     1     -27.757   7.700 -20.619  1.00  0.00     0.007 C 
ATOM     15  C   UNL     1     -27.734   7.066 -22.043  1.00  0.00    -0.031 C 
ATOM     16  C   UNL     1     -26.467   6.179 -22.164  1.00  0.00     0.011 C 
ATOM     17  C   UNL     1     -28.961   6.126 -22.173  1.00  0.00     0.011 C 
ATOM     18  C   UNL     1     -25.698   9.552 -22.534  1.00  0.00     0.017 C 
ENDROOT
BRANCH   1  19
ATOM     19  C   UNL     1     -27.998  13.483 -27.154  1.00  0.00     0.017 C 
ATOM     20  C   UNL     1     -29.084  13.002 -28.125  1.00  0.00     0.012 C 
ATOM     21  C   UNL     1     -26.684  13.791 -27.885  1.00  0.00     0.012 C 
ENDBRANCH   1  19
BRANCH   2  22
ATOM     22  O   UNL     1     -27.444  14.287 -24.383  1.00  0.00    -0.508 OA
ATOM     23  H   UNL     1     -28.256  14.840 -24.139  1.00  0.00     0.293 HD
ENDBRANCH   2  22
TORSDOF 2
ENDMDL
MODEL 3
REMARK VINA RESULT:    -5.390     17.056     18.345
REMARK INTER + INTRA:          -6.106
REMARK INTER:                  -6.108
REMARK INTRA:                   0.003
REMARK UNBOUND:                -0.242
REMARK SMILES CC(C)c1cc2c(cc1O)[C@@]1(C)CCCC(C)(C)[C@@H]1CC2=O
REMARK SMILES IDX 4 1 9 2 8 3 7 4 6 5 5 6 21 7 22 8 20 9 19 10 11 11 13 12
REMARK SMILES IDX 14 13 15 14 16 15 17 16 18 17 12 18 2 19 1 20 3 21 10 22
REMARK H PARENT 10 23
REMARK Flexibility Score: inf
ROOT
ATOM      1  C   UNL     1     -28.334   3.109 -20.027  1.00  0.00    -0.003 A 
ATOM      2  C   UNL     1     -28.000   2.934 -21.386  1.00  0.00     0.119 A 
ATOM      3  C   UNL     1     -27.746   4.048 -22.194  1.00  0.00     0.051 A 
ATOM      4  C   UNL     1     -27.825   5.362 -21.688  1.00  0.00    -0.027 A 
ATOM      5  C   UNL     1     -28.076   5.531 -20.304  1.00  0.00     0.022 A 
ATOM      6  C   UNL     1     -28.348   4.411 -19.499  1.00  0.00     0.020 A 
ATOM      7  C   UNL     1     -28.040   6.879 -19.692  1.00  0.00     0.163 C 
ATOM      8  O   UNL     1     -28.281   7.031 -18.464  1.00  0.00    -0.294 OA
ATOM      9  C   UNL     1     -27.659   8.074 -20.505  1.00  0.00     0.086 C 
ATOM     10  C   UNL     1     -28.084   7.889 -21.976  1.00  0.00     0.013 C 
ATOM     11  C   UNL     1     -27.505   6.564 -22.604  1.00  0.00    -0.003 C 
ATOM     12  C   UNL     1     -28.158   6.343 -24.018  1.00  0.00     0.012 C 
ATOM     13  C   UNL     1     -28.691   7.609 -24.712  1.00  0.00     0.001 C 
ATOM     14  C   UNL     1     -27.859   8.846 -24.378  1.00  0.00     0.007 C 
ATOM     15  C   UNL     1     -27.911   9.196 -22.861  1.00  0.00    -0.031 C 
ATOM     16  C   UNL     1     -26.637  10.004 -22.500  1.00  0.00     0.011 C 
ATOM     17  C   UNL     1     -29.124  10.132 -22.622  1.00  0.00     0.011 C 
ATOM     18  C   UNL     1     -25.960   6.599 -22.742  1.00  0.00     0.017 C 
ENDROOT
BRANCH   1  19
ATOM     19  C   UNL     1     -28.619   1.935 -19.100  1.00  0.00     0.017 C 
ATOM     20  C   UNL     1     -29.113   2.409 -17.728  1.00  0.00     0.012 C 
ATOM     21  C   UNL     1     -27.416   0.990 -18.971  1.00  0.00     0.012 C 
ENDBRANCH   1  19
BRANCH   2  22
ATOM     22  O   UNL     1     -27.912   1.657 -21.938  1.00  0.00    -0.508 OA
ATOM     23  H   UNL     1     -28.238   1.454 -22.875  1.00  0.00     0.293 HD
ENDBRANCH   2  22
TORSDOF 2
ENDMDL
MODEL 4
REMARK VINA RESULT:    -5.209      6.243      7.785
REMARK INTER + INTRA:          -5.908
REMARK INTER:                  -5.746
REMARK INTRA:                  -0.162
REMARK UNBOUND:                -0.242
REMARK SMILES CC(C)c1cc2c(cc1O)[C@@]1(C)CCCC(C)(C)[C@@H]1CC2=O
REMARK SMILES IDX 4 1 9 2 8 3 7 4 6 5 5 6 21 7 22 8 20 9 19 10 11 11 13 12
REMARK SMILES IDX 14 13 15 14 16 15 17 16 18 17 12 18 2 19 1 20 3 21 10 22
REMARK H PARENT 10 23
REMARK Flexibility Score: inf
ROOT
ATOM      1  C   UNL     1     -17.199   3.255 -13.163  1.00  0.00    -0.003 A 
ATOM      2  C   UNL     1     -17.445   3.354 -11.778  1.00  0.00     0.119 A 
ATOM      3  C   UNL     1     -16.427   3.061 -10.863  1.00  0.00     0.051 A 
ATOM      4  C   UNL     1     -15.145   2.656 -11.287  1.00  0.00    -0.027 A 
ATOM      5  C   UNL     1     -14.875   2.641 -12.678  1.00  0.00     0.022 A 
ATOM      6  C   UNL     1     -15.905   2.917 -13.594  1.00  0.00     0.020 A 
ATOM      7  C   UNL     1     -13.511   2.351 -13.177  1.00  0.00     0.163 C 
ATOM      8  O   UNL     1     -13.276   2.321 -14.415  1.00  0.00    -0.294 OA
ATOM      9  C   UNL     1     -12.379   2.149 -12.222  1.00  0.00     0.086 C 
ATOM     10  C   UNL     1     -12.884   1.527 -10.904  1.00  0.00     0.013 C 
ATOM     11  C   UNL     1     -14.039   2.375 -10.247  1.00  0.00    -0.003 C 
ATOM     12  C   UNL     1     -14.639   1.566  -9.038  1.00  0.00     0.012 C 
ATOM     13  C   UNL     1     -13.705   0.520  -8.405  1.00  0.00     0.001 C 
ATOM     14  C   UNL     1     -12.238   0.946  -8.458  1.00  0.00     0.007 C 
ATOM     15  C   UNL     1     -11.719   1.082  -9.921  1.00  0.00    -0.031 C 
ATOM     16  C   UNL     1     -10.518   2.064  -9.925  1.00  0.00     0.011 C 
ATOM     17  C   UNL     1     -11.178  -0.299 -10.371  1.00  0.00     0.011 C 
ATOM     18  C   UNL     1     -13.550   3.762  -9.755  1.00  0.00     0.017 C 
ENDROOT
BRANCH   1  19
ATOM     19  C   UNL     1     -18.266   3.562 -14.205  1.00  0.00     0.017 C 
ATOM     20  C   UNL     1     -19.315   2.445 -14.280  1.00  0.00     0.012 C 
ATOM     21  C   UNL     1     -17.664   3.864 -15.584  1.00  0.00     0.012 C 
ENDBRANCH   1  19
BRANCH   2  22
ATOM     22  O   UNL     1     -18.696   3.747 -11.304  1.00  0.00    -0.508 OA
ATOM     23  H   UNL     1     -19.522   3.725 -11.890  1.00  0.00     0.293 HD
ENDBRANCH   2  22
TORSDOF 2
ENDMDL
MODEL 5
REMARK VINA RESULT:    -5.158      6.472      8.883
REMARK INTER + INTRA:          -5.852
REMARK INTER:                  -5.646
REMARK INTRA:                  -0.206
REMARK UNBOUND:                -0.242
REMARK SMILES CC(C)c1cc2c(cc1O)[C@@]1(C)CCCC(C)(C)[C@@H]1CC2=O
REMARK SMILES IDX 4 1 9 2 8 3 7 4 6 5 5 6 21 7 22 8 20 9 19 10 11 11 13 12
REMARK SMILES IDX 14 13 15 14 16 15 17 16 18 17 12 18 2 19 1 20 3 21 10 22
REMARK H PARENT 10 23
REMARK Flexibility Score: inf
ROOT
ATOM      1  C   UNL     1     -13.493  -0.669  -8.894  1.00  0.00    -0.003 A 
ATOM      2  C   UNL     1     -12.100  -0.838  -8.748  1.00  0.00     0.119 A 
ATOM      3  C   UNL     1     -11.216  -0.023  -9.465  1.00  0.00     0.051 A 
ATOM      4  C   UNL     1     -11.681   0.971 -10.350  1.00  0.00    -0.027 A 
ATOM      5  C   UNL     1     -13.077   1.196 -10.431  1.00  0.00     0.022 A 
ATOM      6  C   UNL     1     -13.962   0.364  -9.723  1.00  0.00     0.020 A 
ATOM      7  C   UNL     1     -13.614   2.312 -11.243  1.00  0.00     0.163 C 
ATOM      8  O   UNL     1     -14.858   2.501 -11.326  1.00  0.00    -0.294 OA
ATOM      9  C   UNL     1     -12.691   3.269 -11.926  1.00  0.00     0.086 C 
ATOM     10  C   UNL     1     -11.378   2.565 -12.326  1.00  0.00     0.013 C 
ATOM     11  C   UNL     1     -10.673   1.872 -11.099  1.00  0.00    -0.003 C 
ATOM     12  C   UNL     1      -9.472   1.003 -11.626  1.00  0.00     0.012 C 
ATOM     13  C   UNL     1      -8.888   1.426 -12.985  1.00  0.00     0.001 C 
ATOM     14  C   UNL     1      -8.963   2.937 -13.202  1.00  0.00     0.007 C 
ATOM     15  C   UNL     1     -10.433   3.451 -13.245  1.00  0.00    -0.031 C 
ATOM     16  C   UNL     1     -10.440   4.950 -12.849  1.00  0.00     0.011 C 
ATOM     17  C   UNL     1     -10.932   3.366 -14.712  1.00  0.00     0.011 C 
ATOM     18  C   UNL     1     -10.157   2.896 -10.055  1.00  0.00     0.017 C 
ENDROOT
BRANCH   1  19
ATOM     19  C   UNL     1     -14.502  -1.524  -8.139  1.00  0.00     0.017 C 
ATOM     20  C   UNL     1     -14.675  -2.899  -8.795  1.00  0.00     0.012 C 
ATOM     21  C   UNL     1     -15.849  -0.811  -7.958  1.00  0.00     0.012 C 
ENDBRANCH   1  19
BRANCH   2  22
ATOM     22  O   UNL     1     -11.588  -1.809  -7.888  1.00  0.00    -0.508 OA
ATOM     23  H   UNL     1     -10.942  -1.577  -7.143  1.00  0.00     0.293 HD
ENDBRANCH   2  22
TORSDOF 2
ENDMDL
MODEL 6
REMARK VINA RESULT:    -4.916      5.199      7.046
REMARK INTER + INTRA:          -5.589
REMARK INTER:                  -5.349
REMARK INTRA:                  -0.240
REMARK UNBOUND:                -0.242
REMARK SMILES CC(C)c1cc2c(cc1O)[C@@]1(C)CCCC(C)(C)[C@@H]1CC2=O
REMARK SMILES IDX 4 1 9 2 8 3 7 4 6 5 5 6 21 7 22 8 20 9 19 10 11 11 13 12
REMARK SMILES IDX 14 13 15 14 16 15 17 16 18 17 12 18 2 19 1 20 3 21 10 22
REMARK H PARENT 10 23
REMARK Flexibility Score: inf
ROOT
ATOM      1  C   UNL     1     -13.062   2.906 -14.544  1.00  0.00    -0.003 A 
ATOM      2  C   UNL     1     -14.062   2.529 -13.622  1.00  0.00     0.119 A 
ATOM      3  C   UNL     1     -13.715   2.215 -12.303  1.00  0.00     0.051 A 
ATOM      4  C   UNL     1     -12.377   2.255 -11.861  1.00  0.00    -0.027 A 
ATOM      5  C   UNL     1     -11.387   2.716 -12.764  1.00  0.00     0.022 A 
ATOM      6  C   UNL     1     -11.736   3.013 -14.093  1.00  0.00     0.020 A 
ATOM      7  C   UNL     1      -9.988   2.903 -12.316  1.00  0.00     0.163 C 
ATOM      8  O   UNL     1      -9.105   3.298 -13.125  1.00  0.00    -0.294 OA
ATOM      9  C   UNL     1      -9.612   2.687 -10.886  1.00  0.00     0.086 C 
ATOM     10  C   UNL     1     -10.504   1.603 -10.247  1.00  0.00     0.013 C 
ATOM     11  C   UNL     1     -12.039   1.933 -10.388  1.00  0.00    -0.003 C 
ATOM     12  C   UNL     1     -12.873   0.687  -9.912  1.00  0.00     0.012 C 
ATOM     13  C   UNL     1     -12.157  -0.261  -8.934  1.00  0.00     0.001 C 
ATOM     14  C   UNL     1     -11.192   0.480  -8.010  1.00  0.00     0.007 C 
ATOM     15  C   UNL     1     -10.031   1.160  -8.797  1.00  0.00    -0.031 C 
ATOM     16  C   UNL     1      -9.492   2.342  -7.951  1.00  0.00     0.011 C 
ATOM     17  C   UNL     1      -8.875   0.135  -8.934  1.00  0.00     0.011 C 
ATOM     18  C   UNL     1     -12.455   3.183  -9.570  1.00  0.00     0.017 C 
ENDROOT
BRANCH   1  19
ATOM     19  C   UNL     1     -13.380   3.261 -15.991  1.00  0.00     0.017 C 
ATOM     20  C   UNL     1     -12.231   2.873 -16.929  1.00  0.00     0.012 C 
ATOM     21  C   UNL     1     -13.770   4.736 -16.156  1.00  0.00     0.012 C 
ENDBRANCH   1  19
BRANCH   2  22
ATOM     22  O   UNL     1     -15.400   2.470 -14.009  1.00  0.00    -0.508 OA
ATOM     23  H   UNL     1     -15.980   1.665 -13.808  1.00  0.00     0.293 HD
ENDBRANCH   2  22
TORSDOF 2
ENDMDL
MODEL 7
REMARK VINA RESULT:    -4.776     17.239     19.406
REMARK INTER + INTRA:          -5.438
REMARK INTER:                  -5.260
REMARK INTRA:                  -0.178
REMARK UNBOUND:                -0.242
REMARK SMILES CC(C)c1cc2c(cc1O)[C@@]1(C)CCCC(C)(C)[C@@H]1CC2=O
REMARK SMILES IDX 4 1 9 2 8 3 7 4 6 5 5 6 21 7 22 8 20 9 19 10 11 11 13 12
REMARK SMILES IDX 14 13 15 14 16 15 17 16 18 17 12 18 2 19 1 20 3 21 10 22
REMARK H PARENT 10 23
REMARK Flexibility Score: inf
ROOT
ATOM      1  C   UNL     1     -27.161   7.018 -23.091  1.00  0.00    -0.003 A 
ATOM      2  C   UNL     1     -26.641   8.046 -22.277  1.00  0.00     0.119 A 
ATOM      3  C   UNL     1     -26.690   9.376 -22.711  1.00  0.00     0.051 A 
ATOM      4  C   UNL     1     -27.242   9.726 -23.960  1.00  0.00    -0.027 A 
ATOM      5  C   UNL     1     -27.840   8.704 -24.737  1.00  0.00     0.022 A 
ATOM      6  C   UNL     1     -27.773   7.367 -24.306  1.00  0.00     0.020 A 
ATOM      7  C   UNL     1     -28.550   9.032 -25.995  1.00  0.00     0.163 C 
ATOM      8  O   UNL     1     -29.068   8.119 -26.693  1.00  0.00    -0.294 OA
ATOM      9  C   UNL     1     -28.719  10.453 -26.424  1.00  0.00     0.086 C 
ATOM     10  C   UNL     1     -27.529  11.311 -25.946  1.00  0.00     0.013 C 
ATOM     11  C   UNL     1     -27.307  11.209 -24.388  1.00  0.00    -0.003 C 
ATOM     12  C   UNL     1     -25.958  11.929 -24.019  1.00  0.00     0.012 C 
ATOM     13  C   UNL     1     -25.480  13.002 -25.012  1.00  0.00     0.001 C 
ATOM     14  C   UNL     1     -26.645  13.736 -25.676  1.00  0.00     0.007 C 
ATOM     15  C   UNL     1     -27.522  12.782 -26.542  1.00  0.00    -0.031 C 
ATOM     16  C   UNL     1     -28.943  13.393 -26.657  1.00  0.00     0.011 C 
ATOM     17  C   UNL     1     -26.926  12.745 -27.973  1.00  0.00     0.011 C 
ATOM     18  C   UNL     1     -28.472  11.838 -23.581  1.00  0.00     0.017 C 
ENDROOT
BRANCH   1  19
ATOM     19  C   UNL     1     -27.137   5.554 -22.671  1.00  0.00     0.017 C 
ATOM     20  C   UNL     1     -27.262   4.620 -23.881  1.00  0.00     0.012 C 
ATOM     21  C   UNL     1     -28.193   5.239 -21.603  1.00  0.00     0.012 C 
ENDBRANCH   1  19
BRANCH   2  22
ATOM     22  O   UNL     1     -26.081   7.754 -21.034  1.00  0.00    -0.508 OA
ATOM     23  H   UNL     1     -25.147   7.371 -20.944  1.00  0.00     0.293 HD
ENDBRANCH   2  22
TORSDOF 2
ENDMDL
MODEL 8
REMARK VINA RESULT:    -4.770      2.714      3.795
REMARK INTER + INTRA:          -5.431
REMARK INTER:                  -5.228
REMARK INTRA:                  -0.203
REMARK UNBOUND:                -0.242
REMARK SMILES CC(C)c1cc2c(cc1O)[C@@]1(C)CCCC(C)(C)[C@@H]1CC2=O
REMARK SMILES IDX 4 1 9 2 8 3 7 4 6 5 5 6 21 7 22 8 20 9 19 10 11 11 13 12
REMARK SMILES IDX 14 13 15 14 16 15 17 16 18 17 12 18 2 19 1 20 3 21 10 22
REMARK H PARENT 10 23
REMARK Flexibility Score: inf
ROOT
ATOM      1  C   UNL     1     -10.326   3.664 -12.594  1.00  0.00    -0.003 A 
ATOM      2  C   UNL     1     -10.103   4.327 -13.820  1.00  0.00     0.119 A 
ATOM      3  C   UNL     1     -10.133   5.725 -13.875  1.00  0.00     0.051 A 
ATOM      4  C   UNL     1     -10.392   6.505 -12.729  1.00  0.00    -0.027 A 
ATOM      5  C   UNL     1     -10.530   5.841 -11.486  1.00  0.00     0.022 A 
ATOM      6  C   UNL     1     -10.517   4.436 -11.437  1.00  0.00     0.020 A 
ATOM      7  C   UNL     1     -10.673   6.615 -10.231  1.00  0.00     0.163 C 
ATOM      8  O   UNL     1     -10.812   6.023  -9.127  1.00  0.00    -0.294 OA
ATOM      9  C   UNL     1     -10.592   8.108 -10.244  1.00  0.00     0.086 C 
ATOM     10  C   UNL     1     -11.124   8.669 -11.580  1.00  0.00     0.013 C 
ATOM     11  C   UNL     1     -10.384   8.047 -12.825  1.00  0.00    -0.003 C 
ATOM     12  C   UNL     1     -11.126   8.502 -14.136  1.00  0.00     0.012 C 
ATOM     13  C   UNL     1     -11.942   9.802 -14.024  1.00  0.00     0.001 C 
ATOM     14  C   UNL     1     -11.313  10.798 -13.051  1.00  0.00     0.007 C 
ATOM     15  C   UNL     1     -11.274  10.249 -11.593  1.00  0.00    -0.031 C 
ATOM     16  C   UNL     1     -10.134  10.970 -10.829  1.00  0.00     0.011 C 
ATOM     17  C   UNL     1     -12.604  10.636 -10.896  1.00  0.00     0.011 C 
ATOM     18  C   UNL     1      -8.892   8.464 -12.898  1.00  0.00     0.017 C 
ENDROOT
BRANCH   1  19
ATOM     19  C   UNL     1     -10.303   2.146 -12.473  1.00  0.00     0.017 C 
ATOM     20  C   UNL     1     -11.124   1.667 -11.269  1.00  0.00     0.012 C 
ATOM     21  C   UNL     1      -8.875   1.586 -12.442  1.00  0.00     0.012 C 
ENDBRANCH   1  19
BRANCH   2  22
ATOM     22  O   UNL     1      -9.846   3.603 -14.983  1.00  0.00    -0.508 OA
ATOM     23  H   UNL     1      -9.587   2.624 -14.959  1.00  0.00     0.293 HD
ENDBRANCH   2  22
TORSDOF 2
ENDMDL
MODEL 9
REMARK VINA RESULT:    -4.741      3.047      7.052
REMARK INTER + INTRA:          -5.400
REMARK INTER:                  -5.237
REMARK INTRA:                  -0.162
REMARK UNBOUND:                -0.242
REMARK SMILES CC(C)c1cc2c(cc1O)[C@@]1(C)CCCC(C)(C)[C@@H]1CC2=O
REMARK SMILES IDX 4 1 9 2 8 3 7 4 6 5 5 6 21 7 22 8 20 9 19 10 11 11 13 12
REMARK SMILES IDX 14 13 15 14 16 15 17 16 18 17 12 18 2 19 1 20 3 21 10 22
REMARK H PARENT 10 23
REMARK Flexibility Score: inf
ROOT
ATOM      1  C   UNL     1      -9.912   5.104 -10.324  1.00  0.00    -0.003 A 
ATOM      2  C   UNL     1     -10.044   3.726 -10.596  1.00  0.00     0.119 A 
ATOM      3  C   UNL     1     -10.535   3.302 -11.837  1.00  0.00     0.051 A 
ATOM      4  C   UNL     1     -10.915   4.221 -12.835  1.00  0.00    -0.027 A 
ATOM      5  C   UNL     1     -10.702   5.600 -12.592  1.00  0.00     0.022 A 
ATOM      6  C   UNL     1     -10.226   6.024 -11.338  1.00  0.00     0.020 A 
ATOM      7  C   UNL     1     -10.960   6.601 -13.652  1.00  0.00     0.163 C 
ATOM      8  O   UNL     1     -10.784   7.829 -13.429  1.00  0.00    -0.294 OA
ATOM      9  C   UNL     1     -11.373   6.168 -15.022  1.00  0.00     0.086 C 
ATOM     10  C   UNL     1     -12.191   4.862 -14.956  1.00  0.00     0.013 C 
ATOM     11  C   UNL     1     -11.421   3.711 -14.203  1.00  0.00    -0.003 C 
ATOM     12  C   UNL     1     -12.400   2.499 -13.990  1.00  0.00     0.012 C 
ATOM     13  C   UNL     1     -13.580   2.412 -14.975  1.00  0.00     0.001 C 
ATOM     14  C   UNL     1     -13.215   2.936 -16.363  1.00  0.00     0.007 C 
ATOM     15  C   UNL     1     -12.850   4.451 -16.341  1.00  0.00    -0.031 C 
ATOM     16  C   UNL     1     -11.936   4.752 -17.557  1.00  0.00     0.011 C 
ATOM     17  C   UNL     1     -14.155   5.265 -16.541  1.00  0.00     0.011 C 
ATOM     18  C   UNL     1     -10.162   3.236 -14.975  1.00  0.00     0.017 C 
ENDROOT
BRANCH   1  19
ATOM     19  C   UNL     1      -9.383   5.625  -8.994  1.00  0.00     0.017 C 
ATOM     20  C   UNL     1     -10.422   5.469  -7.877  1.00  0.00     0.012 C 
ATOM     21  C   UNL     1      -8.876   7.070  -9.096  1.00  0.00     0.012 C 
ENDBRANCH   1  19
BRANCH   2  22
ATOM     22  O   UNL     1      -9.685   2.775  -9.643  1.00  0.00    -0.508 OA
ATOM     23  H   UNL     1     -10.243   2.610  -8.814  1.00  0.00     0.293 HD
ENDBRANCH   2  22
TORSDOF 2
ENDMDL
