MODEL 1
REMARK VINA RESULT:    -3.012      0.000      0.000
REMARK INTER + INTRA:          -3.403
REMARK INTER:                  -3.365
REMARK INTRA:                  -0.038
REMARK UNBOUND:                -0.038
REMARK SMILES CCCC(=O)[O-]
REMARK SMILES IDX 3 1 4 2 5 3 6 4 2 5 1 6
REMARK H PARENT
REMARK Flexibility Score: inf
ROOT
ATOM      1  C   UNL     1     133.254 123.452 133.792  1.00  0.00     0.052 C 
ENDROOT
BRANCH   1   2
ATOM      2  C   UNL     1     133.301 124.333 135.002  1.00  0.00     0.041 C 
ATOM      3  O   UNL     1     133.694 123.874 136.106  1.00  0.00    -0.550 OA
ATOM      4  O   UNL     1     132.876 125.654 134.917  1.00  0.00    -0.550 OA
ENDBRANCH   1   2
BRANCH   1   5
ATOM      5  C   UNL     1     131.896 122.753 133.649  1.00  0.00     0.003 C 
ATOM      6  C   UNL     1     131.928 121.310 134.151  1.00  0.00     0.004 C 
ENDBRANCH   1   5
TORSDOF 2
ENDMDL
MODEL 2
REMARK VINA RESULT:    -2.928      2.131      3.485
REMARK INTER + INTRA:          -3.308
REMARK INTER:                  -3.297
REMARK INTRA:                  -0.012
REMARK UNBOUND:                -0.038
REMARK SMILES CCCC(=O)[O-]
REMARK SMILES IDX 3 1 4 2 5 3 6 4 2 5 1 6
REMARK H PARENT
REMARK Flexibility Score: inf
ROOT
ATOM      1  C   UNL     1     132.111 125.226 134.702  1.00  0.00     0.052 C 
ENDROOT
BRANCH   1   2
ATOM      2  C   UNL     1     133.222 124.234 134.859  1.00  0.00     0.041 C 
ATOM      3  O   UNL     1     133.699 123.653 133.850  1.00  0.00    -0.550 OA
ATOM      4  O   UNL     1     133.706 123.925 136.125  1.00  0.00    -0.550 OA
ENDBRANCH   1   2
BRANCH   1   5
ATOM      5  C   UNL     1     132.462 126.578 135.336  1.00  0.00     0.003 C 
ATOM      6  C   UNL     1     131.226 127.317 135.851  1.00  0.00     0.004 C 
ENDBRANCH   1   5
TORSDOF 2
ENDMDL
MODEL 3
REMARK VINA RESULT:    -2.828      2.263      3.082
REMARK INTER + INTRA:          -3.197
REMARK INTER:                  -3.137
REMARK INTRA:                  -0.060
REMARK UNBOUND:                -0.038
REMARK SMILES CCCC(=O)[O-]
REMARK SMILES IDX 3 1 4 2 5 3 6 4 2 5 1 6
REMARK H PARENT
REMARK Flexibility Score: inf
ROOT
ATOM      1  C   UNL     1     132.224 123.084 133.465  1.00  0.00     0.052 C 
ENDROOT
BRANCH   1   2
ATOM      2  C   UNL     1     131.788 122.024 134.429  1.00  0.00     0.041 C 
ATOM      3  O   UNL     1     132.440 120.952 134.530  1.00  0.00    -0.550 OA
ATOM      4  O   UNL     1     130.640 122.207 135.192  1.00  0.00    -0.550 OA
ENDBRANCH   1   2
BRANCH   1   5
ATOM      5  C   UNL     1     133.557 123.719 133.882  1.00  0.00     0.003 C 
ATOM      6  C   UNL     1     133.395 124.701 135.043  1.00  0.00     0.004 C 
ENDBRANCH   1   5
TORSDOF 2
ENDMDL
MODEL 4
REMARK VINA RESULT:    -2.820      2.130      3.367
REMARK INTER + INTRA:          -3.188
REMARK INTER:                  -3.157
REMARK INTRA:                  -0.031
REMARK UNBOUND:                -0.038
REMARK SMILES CCCC(=O)[O-]
REMARK SMILES IDX 3 1 4 2 5 3 6 4 2 5 1 6
REMARK H PARENT
REMARK Flexibility Score: inf
ROOT
ATOM      1  C   UNL     1     131.849 124.469 134.569  1.00  0.00     0.052 C 
ENDROOT
BRANCH   1   2
ATOM      2  C   UNL     1     132.919 123.509 134.149  1.00  0.00     0.041 C 
ATOM      3  O   UNL     1     134.043 123.936 133.778  1.00  0.00    -0.550 OA
ATOM      4  O   UNL     1     132.661 122.143 134.134  1.00  0.00    -0.550 OA
ENDBRANCH   1   2
BRANCH   1   5
ATOM      5  C   UNL     1     132.400 125.571 135.483  1.00  0.00     0.003 C 
ATOM      6  C   UNL     1     132.021 126.971 134.999  1.00  0.00     0.004 C 
ENDBRANCH   1   5
TORSDOF 2
ENDMDL
MODEL 5
REMARK VINA RESULT:    -2.631     14.309     14.879
REMARK INTER + INTRA:          -2.977
REMARK INTER:                  -2.962
REMARK INTRA:                  -0.015
REMARK UNBOUND:                -0.038
REMARK SMILES CCCC(=O)[O-]
REMARK SMILES IDX 3 1 4 2 5 3 6 4 2 5 1 6
REMARK H PARENT
REMARK Flexibility Score: inf
ROOT
ATOM      1  C   UNL     1     131.038 121.638 119.802  1.00  0.00     0.052 C 
ENDROOT
BRANCH   1   2
ATOM      2  C   UNL     1     131.247 122.882 120.611  1.00  0.00     0.041 C 
ATOM      3  O   UNL     1     130.277 123.422 121.203  1.00  0.00    -0.550 OA
ATOM      4  O   UNL     1     132.508 123.463 120.680  1.00  0.00    -0.550 OA
ENDBRANCH   1   2
BRANCH   1   5
ATOM      5  C   UNL     1     129.549 121.369 119.548  1.00  0.00     0.003 C 
ATOM      6  C   UNL     1     129.293 120.793 118.155  1.00  0.00     0.004 C 
ENDBRANCH   1   5
TORSDOF 2
ENDMDL
MODEL 6
REMARK VINA RESULT:    -2.620     14.307     14.868
REMARK INTER + INTRA:          -2.965
REMARK INTER:                  -2.915
REMARK INTRA:                  -0.050
REMARK UNBOUND:                -0.038
REMARK SMILES CCCC(=O)[O-]
REMARK SMILES IDX 3 1 4 2 5 3 6 4 2 5 1 6
REMARK H PARENT
REMARK Flexibility Score: inf
ROOT
ATOM      1  C   UNL     1     132.254 121.518 120.690  1.00  0.00     0.052 C 
ENDROOT
BRANCH   1   2
ATOM      2  C   UNL     1     131.202 120.771 119.930  1.00  0.00     0.041 C 
ATOM      3  O   UNL     1     130.496 119.906 120.510  1.00  0.00    -0.550 OA
ATOM      4  O   UNL     1     131.026 121.006 118.571  1.00  0.00    -0.550 OA
ENDBRANCH   1   2
BRANCH   1   5
ATOM      5  C   UNL     1     131.984 123.028 120.701  1.00  0.00     0.003 C 
ATOM      6  C   UNL     1     130.545 123.359 121.096  1.00  0.00     0.004 C 
ENDBRANCH   1   5
TORSDOF 2
ENDMDL
MODEL 7
REMARK VINA RESULT:    -2.532     13.986     14.210
REMARK INTER + INTRA:          -2.867
REMARK INTER:                  -2.860
REMARK INTRA:                  -0.007
REMARK UNBOUND:                -0.038
REMARK SMILES CCCC(=O)[O-]
REMARK SMILES IDX 3 1 4 2 5 3 6 4 2 5 1 6
REMARK H PARENT
REMARK Flexibility Score: inf
ROOT
ATOM      1  C   UNL     1     131.264 121.616 120.056  1.00  0.00     0.052 C 
ENDROOT
BRANCH   1   2
ATOM      2  C   UNL     1     131.378 122.980 120.662  1.00  0.00     0.041 C 
ATOM      3  O   UNL     1     130.368 123.536 121.166  1.00  0.00    -0.550 OA
ATOM      4  O   UNL     1     132.595 123.653 120.639  1.00  0.00    -0.550 OA
ENDBRANCH   1   2
BRANCH   1   5
ATOM      5  C   UNL     1     132.448 120.720 120.443  1.00  0.00     0.003 C 
ATOM      6  C   UNL     1     132.014 119.291 120.769  1.00  0.00     0.004 C 
ENDBRANCH   1   5
TORSDOF 2
ENDMDL
MODEL 8
REMARK VINA RESULT:    -2.519     18.439     19.066
REMARK INTER + INTRA:          -2.852
REMARK INTER:                  -2.813
REMARK INTRA:                  -0.039
REMARK UNBOUND:                -0.038
REMARK SMILES CCCC(=O)[O-]
REMARK SMILES IDX 3 1 4 2 5 3 6 4 2 5 1 6
REMARK H PARENT
REMARK Flexibility Score: inf
ROOT
ATOM      1  C   UNL     1     126.999 129.879 118.780  1.00  0.00     0.052 C 
ENDROOT
BRANCH   1   2
ATOM      2  C   UNL     1     125.740 129.862 117.969  1.00  0.00     0.041 C 
ATOM      3  O   UNL     1     124.690 129.354 118.440  1.00  0.00    -0.550 OA
ATOM      4  O   UNL     1     125.737 130.378 116.678  1.00  0.00    -0.550 OA
ENDBRANCH   1   2
BRANCH   1   5
ATOM      5  C   UNL     1     127.292 131.273 119.348  1.00  0.00     0.003 C 
ATOM      6  C   UNL     1     128.383 132.003 118.562  1.00  0.00     0.004 C 
ENDBRANCH   1   5
TORSDOF 2
ENDMDL
MODEL 9
REMARK VINA RESULT:    -2.509     14.126     14.698
REMARK INTER + INTRA:          -2.841
REMARK INTER:                  -2.791
REMARK INTRA:                  -0.050
REMARK UNBOUND:                -0.038
REMARK SMILES CCCC(=O)[O-]
REMARK SMILES IDX 3 1 4 2 5 3 6 4 2 5 1 6
REMARK H PARENT
REMARK Flexibility Score: inf
ROOT
ATOM      1  C   UNL     1     131.031 121.207 119.463  1.00  0.00     0.052 C 
ENDROOT
BRANCH   1   2
ATOM      2  C   UNL     1     132.016 120.499 120.342  1.00  0.00     0.041 C 
ATOM      3  O   UNL     1     133.222 120.858 120.358  1.00  0.00    -0.550 OA
ATOM      4  O   UNL     1     131.607 119.419 121.116  1.00  0.00    -0.550 OA
ENDBRANCH   1   2
BRANCH   1   5
ATOM      5  C   UNL     1     130.047 122.055 120.279  1.00  0.00     0.003 C 
ATOM      6  C   UNL     1     130.733 123.229 120.978  1.00  0.00     0.004 C 
ENDBRANCH   1   5
TORSDOF 2
ENDMDL
