MODEL 1
REMARK VINA RESULT:    -4.791      0.000      0.000
REMARK INTER + INTRA:          -7.868
REMARK INTER:                  -7.311
REMARK INTRA:                  -0.556
REMARK UNBOUND:                -0.556
REMARK SMILES O=C([O-])CCCCCCCCC(=O)[O-]
REMARK SMILES IDX 7 1 6 2 5 3 4 4 2 5 1 6 3 7 8 8 9 9 10 10 11 11 12 12 13 13
REMARK SMILES IDX 14 14
REMARK H PARENT
REMARK Flexibility Score: inf
ROOT
ATOM      1  C   UNL     1      16.528 -12.599  21.932  1.00  0.00     0.000 C 
ENDROOT
BRANCH   1   2
ATOM      2  C   UNL     1      17.657 -11.626  21.571  1.00  0.00     0.000 C 
BRANCH   2   3
ATOM      3  C   UNL     1      18.864 -12.377  20.989  1.00  0.00     0.006 C 
BRANCH   3   4
ATOM      4  C   UNL     1      19.659 -13.124  22.069  1.00  0.00     0.053 C 
BRANCH   4   5
ATOM      5  C   UNL     1      21.135 -12.935  21.899  1.00  0.00     0.041 C 
ATOM      6  O   UNL     1      21.907 -13.050  22.887  1.00  0.00    -0.550 OA
ATOM      7  O   UNL     1      21.661 -12.664  20.643  1.00  0.00    -0.550 OA
ENDBRANCH   4   5
ENDBRANCH   3   4
ENDBRANCH   2   3
ENDBRANCH   1   2
BRANCH   1   8
ATOM      8  C   UNL     1      16.060 -12.387  23.377  1.00  0.00     0.000 C 
BRANCH   8   9
ATOM      9  C   UNL     1      14.527 -12.370  23.463  1.00  0.00     0.000 C 
BRANCH   9  10
ATOM     10  C   UNL     1      13.860 -11.721  22.236  1.00  0.00     0.006 C 
BRANCH  10  11
ATOM     11  C   UNL     1      13.257 -10.333  22.514  1.00  0.00     0.053 C 
BRANCH  11  12
ATOM     12  C   UNL     1      14.064  -9.224  21.910  1.00  0.00     0.041 C 
ATOM     13  O   UNL     1      15.304  -9.160  22.115  1.00  0.00    -0.550 OA
ATOM     14  O   UNL     1      13.442  -8.241  21.150  1.00  0.00    -0.550 OA
ENDBRANCH  11  12
ENDBRANCH  10  11
ENDBRANCH   9  10
ENDBRANCH   8   9
ENDBRANCH   1   8
TORSDOF 9
ENDMDL
MODEL 2
REMARK VINA RESULT:    -4.209      1.971      3.158
REMARK INTER + INTRA:          -6.980
REMARK INTER:                  -6.474
REMARK INTRA:                  -0.506
REMARK UNBOUND:                -0.556
REMARK SMILES O=C([O-])CCCCCCCCC(=O)[O-]
REMARK SMILES IDX 7 1 6 2 5 3 4 4 2 5 1 6 3 7 8 8 9 9 10 10 11 11 12 12 13 13
REMARK SMILES IDX 14 14
REMARK H PARENT
REMARK Flexibility Score: inf
ROOT
ATOM      1  C   UNL     1      13.902 -12.581  22.669  1.00  0.00     0.000 C 
ENDROOT
BRANCH   1   2
ATOM      2  C   UNL     1      14.663 -12.390  23.985  1.00  0.00     0.000 C 
BRANCH   2   3
ATOM      3  C   UNL     1      16.165 -12.644  23.793  1.00  0.00     0.006 C 
BRANCH   3   4
ATOM      4  C   UNL     1      16.506 -13.053  22.354  1.00  0.00     0.053 C 
BRANCH   4   5
ATOM      5  C   UNL     1      17.587 -12.193  21.775  1.00  0.00     0.041 C 
ATOM      6  O   UNL     1      18.741 -12.662  21.592  1.00  0.00    -0.550 OA
ATOM      7  O   UNL     1      17.311 -10.882  21.408  1.00  0.00    -0.550 OA
ENDBRANCH   4   5
ENDBRANCH   3   4
ENDBRANCH   2   3
ENDBRANCH   1   2
BRANCH   1   8
ATOM      8  C   UNL     1      13.261 -11.265  22.208  1.00  0.00     0.000 C 
BRANCH   8   9
ATOM      9  C   UNL     1      13.553 -11.000  20.724  1.00  0.00     0.000 C 
BRANCH   9  10
ATOM     10  C   UNL     1      13.789  -9.511  20.411  1.00  0.00     0.006 C 
BRANCH  10  11
ATOM     11  C   UNL     1      13.747  -8.599  21.650  1.00  0.00     0.053 C 
BRANCH  11  12
ATOM     12  C   UNL     1      15.087  -8.459  22.306  1.00  0.00     0.041 C 
ATOM     13  O   UNL     1      15.360  -9.130  23.336  1.00  0.00    -0.550 OA
ATOM     14  O   UNL     1      16.022  -7.563  21.804  1.00  0.00    -0.550 OA
ENDBRANCH  11  12
ENDBRANCH  10  11
ENDBRANCH   9  10
ENDBRANCH   8   9
ENDBRANCH   1   8
TORSDOF 9
ENDMDL
MODEL 3
REMARK VINA RESULT:    -4.049     15.306     16.286
REMARK INTER + INTRA:          -6.735
REMARK INTER:                  -6.404
REMARK INTRA:                  -0.331
REMARK UNBOUND:                -0.556
REMARK SMILES O=C([O-])CCCCCCCCC(=O)[O-]
REMARK SMILES IDX 7 1 6 2 5 3 4 4 2 5 1 6 3 7 8 8 9 9 10 10 11 11 12 12 13 13
REMARK SMILES IDX 14 14
REMARK H PARENT
REMARK Flexibility Score: inf
ROOT
ATOM      1  C   UNL     1      13.971  -7.524  38.990  1.00  0.00     0.000 C 
ENDROOT
BRANCH   1   2
ATOM      2  C   UNL     1      15.373  -7.996  38.590  1.00  0.00     0.000 C 
BRANCH   2   3
ATOM      3  C   UNL     1      15.399  -9.516  38.367  1.00  0.00     0.006 C 
BRANCH   3   4
ATOM      4  C   UNL     1      16.779 -10.122  38.656  1.00  0.00     0.053 C 
BRANCH   4   5
ATOM      5  C   UNL     1      17.645 -10.135  37.434  1.00  0.00     0.041 C 
ATOM      6  O   UNL     1      18.849  -9.773  37.506  1.00  0.00    -0.550 OA
ATOM      7  O   UNL     1      17.130 -10.577  36.222  1.00  0.00    -0.550 OA
ENDBRANCH   4   5
ENDBRANCH   3   4
ENDBRANCH   2   3
ENDBRANCH   1   2
BRANCH   1   8
ATOM      8  C   UNL     1      13.865  -5.995  38.923  1.00  0.00     0.000 C 
BRANCH   8   9
ATOM      9  C   UNL     1      12.412  -5.553  38.698  1.00  0.00     0.000 C 
BRANCH   9  10
ATOM     10  C   UNL     1      11.911  -5.827  37.268  1.00  0.00     0.006 C 
BRANCH  10  11
ATOM     11  C   UNL     1      11.239  -4.615  36.599  1.00  0.00     0.053 C 
BRANCH  11  12
ATOM     12  C   UNL     1      12.041  -4.071  35.456  1.00  0.00     0.041 C 
ATOM     13  O   UNL     1      11.550  -4.041  34.297  1.00  0.00    -0.550 OA
ATOM     14  O   UNL     1      13.342  -3.629  35.661  1.00  0.00    -0.550 OA
ENDBRANCH  11  12
ENDBRANCH  10  11
ENDBRANCH   9  10
ENDBRANCH   8   9
ENDBRANCH   1   8
TORSDOF 9
ENDMDL
MODEL 4
REMARK VINA RESULT:    -3.903     15.478     17.482
REMARK INTER + INTRA:          -6.514
REMARK INTER:                  -6.155
REMARK INTRA:                  -0.358
REMARK UNBOUND:                -0.556
REMARK SMILES O=C([O-])CCCCCCCCC(=O)[O-]
REMARK SMILES IDX 7 1 6 2 5 3 4 4 2 5 1 6 3 7 8 8 9 9 10 10 11 11 12 12 13 13
REMARK SMILES IDX 14 14
REMARK H PARENT
REMARK Flexibility Score: inf
ROOT
ATOM      1  C   UNL     1      12.247  -8.019  38.688  1.00  0.00     0.000 C 
ENDROOT
BRANCH   1   2
ATOM      2  C   UNL     1      12.133  -6.554  39.125  1.00  0.00     0.000 C 
BRANCH   2   3
ATOM      3  C   UNL     1      13.053  -5.656  38.285  1.00  0.00     0.006 C 
BRANCH   3   4
ATOM      4  C   UNL     1      12.268  -4.783  37.296  1.00  0.00     0.053 C 
BRANCH   4   5
ATOM      5  C   UNL     1      13.167  -3.842  36.554  1.00  0.00     0.041 C 
ATOM      6  O   UNL     1      12.686  -3.027  35.724  1.00  0.00    -0.550 OA
ATOM      7  O   UNL     1      14.534  -3.846  36.802  1.00  0.00    -0.550 OA
ENDBRANCH   4   5
ENDBRANCH   3   4
ENDBRANCH   2   3
ENDBRANCH   1   2
BRANCH   1   8
ATOM      8  C   UNL     1      13.711  -8.476  38.671  1.00  0.00     0.000 C 
BRANCH   8   9
ATOM      9  C   UNL     1      13.810 -10.008  38.691  1.00  0.00     0.000 C 
BRANCH   9  10
ATOM     10  C   UNL     1      15.250 -10.523  38.511  1.00  0.00     0.006 C 
BRANCH  10  11
ATOM     11  C   UNL     1      16.236  -9.456  38.004  1.00  0.00     0.053 C 
BRANCH  11  12
ATOM     12  C   UNL     1      17.410 -10.051  37.289  1.00  0.00     0.041 C 
ATOM     13  O   UNL     1      18.582  -9.782  37.664  1.00  0.00    -0.550 OA
ATOM     14  O   UNL     1      17.215 -10.875  36.187  1.00  0.00    -0.550 OA
ENDBRANCH  11  12
ENDBRANCH  10  11
ENDBRANCH   9  10
ENDBRANCH   8   9
ENDBRANCH   1   8
TORSDOF 9
ENDMDL
MODEL 5
REMARK VINA RESULT:    -3.836     15.316     16.665
REMARK INTER + INTRA:          -6.411
REMARK INTER:                  -5.335
REMARK INTRA:                  -1.076
REMARK UNBOUND:                -0.556
REMARK SMILES O=C([O-])CCCCCCCCC(=O)[O-]
REMARK SMILES IDX 7 1 6 2 5 3 4 4 2 5 1 6 3 7 8 8 9 9 10 10 11 11 12 12 13 13
REMARK SMILES IDX 14 14
REMARK H PARENT
REMARK Flexibility Score: inf
ROOT
ATOM      1  C   UNL     1      11.239  -6.485  36.810  1.00  0.00     0.000 C 
ENDROOT
BRANCH   1   2
ATOM      2  C   UNL     1      10.253  -5.437  37.340  1.00  0.00     0.000 C 
BRANCH   2   3
ATOM      3  C   UNL     1      10.750  -4.015  37.043  1.00  0.00     0.006 C 
BRANCH   3   4
ATOM      4  C   UNL     1      11.632  -3.958  35.788  1.00  0.00     0.053 C 
BRANCH   4   5
ATOM      5  C   UNL     1      12.895  -3.190  36.033  1.00  0.00     0.041 C 
ATOM      6  O   UNL     1      14.013  -3.761  35.940  1.00  0.00    -0.550 OA
ATOM      7  O   UNL     1      12.837  -1.835  36.334  1.00  0.00    -0.550 OA
ENDBRANCH   4   5
ENDBRANCH   3   4
ENDBRANCH   2   3
ENDBRANCH   1   2
BRANCH   1   8
ATOM      8  C   UNL     1      10.504  -7.604  36.061  1.00  0.00     0.000 C 
BRANCH   8   9
ATOM      9  C   UNL     1      10.639  -7.431  34.542  1.00  0.00     0.000 C 
BRANCH   9  10
ATOM     10  C   UNL     1       9.303  -7.106  33.849  1.00  0.00     0.006 C 
BRANCH  10  11
ATOM     11  C   UNL     1       9.100  -5.610  33.554  1.00  0.00     0.053 C 
BRANCH  11  12
ATOM     12  C   UNL     1       8.081  -4.979  34.455  1.00  0.00     0.041 C 
ATOM     13  O   UNL     1       7.968  -3.726  34.502  1.00  0.00    -0.550 OA
ATOM     14  O   UNL     1       7.280  -5.771  35.268  1.00  0.00    -0.550 OA
ENDBRANCH  11  12
ENDBRANCH  10  11
ENDBRANCH   9  10
ENDBRANCH   8   9
ENDBRANCH   1   8
TORSDOF 9
ENDMDL
MODEL 6
REMARK VINA RESULT:    -3.802     15.542     16.553
REMARK INTER + INTRA:          -6.359
REMARK INTER:                  -5.888
REMARK INTRA:                  -0.471
REMARK UNBOUND:                -0.556
REMARK SMILES O=C([O-])CCCCCCCCC(=O)[O-]
REMARK SMILES IDX 7 1 6 2 5 3 4 4 2 5 1 6 3 7 8 8 9 9 10 10 11 11 12 12 13 13
REMARK SMILES IDX 14 14
REMARK H PARENT
REMARK Flexibility Score: inf
ROOT
ATOM      1  C   UNL     1      13.837  -9.588  38.751  1.00  0.00     0.000 C 
ENDROOT
BRANCH   1   2
ATOM      2  C   UNL     1      14.356 -11.030  38.709  1.00  0.00     0.000 C 
BRANCH   2   3
ATOM      3  C   UNL     1      15.881 -11.071  38.890  1.00  0.00     0.006 C 
BRANCH   3   4
ATOM      4  C   UNL     1      16.563  -9.800  38.365  1.00  0.00     0.053 C 
BRANCH   4   5
ATOM      5  C   UNL     1      17.599 -10.115  37.330  1.00  0.00     0.041 C 
ATOM      6  O   UNL     1      18.797  -9.772  37.508  1.00  0.00    -0.550 OA
ATOM      7  O   UNL     1      17.246 -10.815  36.184  1.00  0.00    -0.550 OA
ENDBRANCH   4   5
ENDBRANCH   3   4
ENDBRANCH   2   3
ENDBRANCH   1   2
BRANCH   1   8
ATOM      8  C   UNL     1      12.308  -9.557  38.867  1.00  0.00     0.000 C 
BRANCH   8   9
ATOM      9  C   UNL     1      11.772  -8.129  38.691  1.00  0.00     0.000 C 
BRANCH   9  10
ATOM     10  C   UNL     1      12.887  -7.072  38.590  1.00  0.00     0.006 C 
BRANCH  10  11
ATOM     11  C   UNL     1      12.385  -5.622  38.698  1.00  0.00     0.053 C 
BRANCH  11  12
ATOM     12  C   UNL     1      12.157  -4.991  37.358  1.00  0.00     0.041 C 
ATOM     13  O   UNL     1      13.030  -4.232  36.860  1.00  0.00    -0.550 OA
ATOM     14  O   UNL     1      10.968  -5.211  36.674  1.00  0.00    -0.550 OA
ENDBRANCH  11  12
ENDBRANCH  10  11
ENDBRANCH   9  10
ENDBRANCH   8   9
ENDBRANCH   1   8
TORSDOF 9
ENDMDL
MODEL 7
REMARK VINA RESULT:    -3.743     15.578     16.664
REMARK INTER + INTRA:          -6.269
REMARK INTER:                  -5.793
REMARK INTRA:                  -0.476
REMARK UNBOUND:                -0.556
REMARK SMILES O=C([O-])CCCCCCCCC(=O)[O-]
REMARK SMILES IDX 7 1 6 2 5 3 4 4 2 5 1 6 3 7 8 8 9 9 10 10 11 11 12 12 13 13
REMARK SMILES IDX 14 14
REMARK H PARENT
REMARK Flexibility Score: inf
ROOT
ATOM      1  C   UNL     1      14.188  -6.382  38.828  1.00  0.00     0.000 C 
ENDROOT
BRANCH   1   2
ATOM      2  C   UNL     1      13.347  -7.661  38.740  1.00  0.00     0.000 C 
BRANCH   2   3
ATOM      3  C   UNL     1      14.243  -8.905  38.656  1.00  0.00     0.006 C 
BRANCH   3   4
ATOM      4  C   UNL     1      15.691  -8.553  38.285  1.00  0.00     0.053 C 
BRANCH   4   5
ATOM      5  C   UNL     1      16.577  -9.761  38.307  1.00  0.00     0.041 C 
ATOM      6  O   UNL     1      17.622  -9.794  37.606  1.00  0.00    -0.550 OA
ATOM      7  O   UNL     1      16.263 -10.839  39.125  1.00  0.00    -0.550 OA
ENDBRANCH   4   5
ENDBRANCH   3   4
ENDBRANCH   2   3
ENDBRANCH   1   2
BRANCH   1   8
ATOM      8  C   UNL     1      13.480  -5.208  38.142  1.00  0.00     0.000 C 
BRANCH   8   9
ATOM      9  C   UNL     1      11.959  -5.416  38.124  1.00  0.00     0.000 C 
BRANCH   9  10
ATOM     10  C   UNL     1      11.213  -4.350  37.300  1.00  0.00     0.006 C 
BRANCH  10  11
ATOM     11  C   UNL     1      11.385  -4.502  35.779  1.00  0.00     0.053 C 
BRANCH  11  12
ATOM     12  C   UNL     1      10.511  -5.577  35.206  1.00  0.00     0.041 C 
ATOM     13  O   UNL     1       9.269  -5.396  35.106  1.00  0.00    -0.550 OA
ATOM     14  O   UNL     1      11.061  -6.791  34.814  1.00  0.00    -0.550 OA
ENDBRANCH  11  12
ENDBRANCH  10  11
ENDBRANCH   9  10
ENDBRANCH   8   9
ENDBRANCH   1   8
TORSDOF 9
ENDMDL
MODEL 8
REMARK VINA RESULT:    -3.737     14.716     16.925
REMARK INTER + INTRA:          -6.259
REMARK INTER:                  -5.361
REMARK INTRA:                  -0.897
REMARK UNBOUND:                -0.556
REMARK SMILES O=C([O-])CCCCCCCCC(=O)[O-]
REMARK SMILES IDX 7 1 6 2 5 3 4 4 2 5 1 6 3 7 8 8 9 9 10 10 11 11 12 12 13 13
REMARK SMILES IDX 14 14
REMARK H PARENT
REMARK Flexibility Score: inf
ROOT
ATOM      1  C   UNL     1       7.855  -3.477  36.095  1.00  0.00     0.000 C 
ENDROOT
BRANCH   1   2
ATOM      2  C   UNL     1       8.642  -3.998  37.303  1.00  0.00     0.000 C 
BRANCH   2   3
ATOM      3  C   UNL     1      10.024  -3.333  37.387  1.00  0.00     0.006 C 
BRANCH   3   4
ATOM      4  C   UNL     1      11.153  -4.285  36.967  1.00  0.00     0.053 C 
BRANCH   4   5
ATOM      5  C   UNL     1      11.952  -3.728  35.829  1.00  0.00     0.041 C 
ATOM      6  O   UNL     1      11.986  -4.329  34.723  1.00  0.00    -0.550 OA
ATOM      7  O   UNL     1      12.634  -2.527  35.981  1.00  0.00    -0.550 OA
ENDBRANCH   4   5
ENDBRANCH   3   4
ENDBRANCH   2   3
ENDBRANCH   1   2
BRANCH   1   8
ATOM      8  C   UNL     1       7.582  -4.601  35.088  1.00  0.00     0.000 C 
BRANCH   8   9
ATOM      9  C   UNL     1       8.554  -4.526  33.902  1.00  0.00     0.000 C 
BRANCH   9  10
ATOM     10  C   UNL     1       8.939  -5.910  33.348  1.00  0.00     0.006 C 
BRANCH  10  11
ATOM     11  C   UNL     1       8.957  -7.025  34.409  1.00  0.00     0.053 C 
BRANCH  11  12
ATOM     12  C   UNL     1      10.299  -7.681  34.532  1.00  0.00     0.041 C 
ATOM     13  O   UNL     1      11.018  -7.464  35.542  1.00  0.00    -0.550 OA
ATOM     14  O   UNL     1      10.771  -8.503  33.517  1.00  0.00    -0.550 OA
ENDBRANCH  11  12
ENDBRANCH  10  11
ENDBRANCH   9  10
ENDBRANCH   8   9
ENDBRANCH   1   8
TORSDOF 9
ENDMDL
MODEL 9
REMARK VINA RESULT:    -3.657     15.061     16.696
REMARK INTER + INTRA:          -6.138
REMARK INTER:                  -5.020
REMARK INTRA:                  -1.118
REMARK UNBOUND:                -0.556
REMARK SMILES O=C([O-])CCCCCCCCC(=O)[O-]
REMARK SMILES IDX 7 1 6 2 5 3 4 4 2 5 1 6 3 7 8 8 9 9 10 10 11 11 12 12 13 13
REMARK SMILES IDX 14 14
REMARK H PARENT
REMARK Flexibility Score: inf
ROOT
ATOM      1  C   UNL     1       8.535  -6.620  34.088  1.00  0.00     0.000 C 
ENDROOT
BRANCH   1   2
ATOM      2  C   UNL     1       9.007  -5.250  33.588  1.00  0.00     0.000 C 
BRANCH   2   3
ATOM      3  C   UNL     1       9.721  -4.474  34.704  1.00  0.00     0.006 C 
BRANCH   3   4
ATOM      4  C   UNL     1      11.222  -4.308  34.428  1.00  0.00     0.053 C 
BRANCH   4   5
ATOM      5  C   UNL     1      11.944  -3.742  35.612  1.00  0.00     0.041 C 
ATOM      6  O   UNL     1      11.297  -3.316  36.604  1.00  0.00    -0.550 OA
ATOM      7  O   UNL     1      13.332  -3.715  35.632  1.00  0.00    -0.550 OA
ENDBRANCH   4   5
ENDBRANCH   3   4
ENDBRANCH   2   3
ENDBRANCH   1   2
BRANCH   1   8
ATOM      8  C   UNL     1       9.371  -7.749  33.471  1.00  0.00     0.000 C 
BRANCH   8   9
ATOM      9  C   UNL     1      10.501  -8.178  34.418  1.00  0.00     0.000 C 
BRANCH   9  10
ATOM     10  C   UNL     1      10.116  -8.072  35.905  1.00  0.00     0.006 C 
BRANCH  10  11
ATOM     11  C   UNL     1      11.209  -7.448  36.790  1.00  0.00     0.053 C 
BRANCH  11  12
ATOM     12  C   UNL     1      10.651  -6.507  37.815  1.00  0.00     0.041 C 
ATOM     13  O   UNL     1       9.427  -6.213  37.803  1.00  0.00    -0.550 OA
ATOM     14  O   UNL     1      11.487  -5.929  38.762  1.00  0.00    -0.550 OA
ENDBRANCH  11  12
ENDBRANCH  10  11
ENDBRANCH   9  10
ENDBRANCH   8   9
ENDBRANCH   1   8
TORSDOF 9
ENDMDL
