MODEL 1
REMARK VINA RESULT:    -3.086      0.000      0.000
REMARK INTER + INTRA:          -3.457
REMARK INTER:                  -3.447
REMARK INTRA:                  -0.010
REMARK UNBOUND:                -0.010
REMARK SMILES CCCC(=O)[O-]
REMARK SMILES IDX 3 1 4 2 5 3 6 4 2 5 1 6
REMARK H PARENT
REMARK Flexibility Score: inf
ROOT
ATOM      1  C   UNL     1      43.507 -12.350 -43.645  1.00  0.00     0.052 C 
ENDROOT
BRANCH   1   2
ATOM      2  C   UNL     1      42.528 -11.966 -44.712  1.00  0.00     0.041 C 
ATOM      3  O   UNL     1      42.898 -11.887 -45.912  1.00  0.00    -0.550 OA
ATOM      4  O   UNL     1      41.199 -11.728 -44.385  1.00  0.00    -0.550 OA
ENDBRANCH   1   2
BRANCH   1   5
ATOM      5  C   UNL     1      43.382 -11.452 -42.407  1.00  0.00     0.003 C 
ATOM      6  C   UNL     1      43.921 -12.123 -41.144  1.00  0.00     0.004 C 
ENDBRANCH   1   5
TORSDOF 2
ENDMDL
MODEL 2
REMARK VINA RESULT:    -3.063      2.288      3.222
REMARK INTER + INTRA:          -3.432
REMARK INTER:                  -3.366
REMARK INTRA:                  -0.066
REMARK UNBOUND:                -0.010
REMARK SMILES CCCC(=O)[O-]
REMARK SMILES IDX 3 1 4 2 5 3 6 4 2 5 1 6
REMARK H PARENT
REMARK Flexibility Score: inf
ROOT
ATOM      1  C   UNL     1      40.703 -11.970 -44.793  1.00  0.00     0.052 C 
ENDROOT
BRANCH   1   2
ATOM      2  C   UNL     1      42.198 -11.960 -44.869  1.00  0.00     0.041 C 
ATOM      3  O   UNL     1      42.886 -12.048 -43.819  1.00  0.00    -0.550 OA
ATOM      4  O   UNL     1      42.833 -11.888 -46.103  1.00  0.00    -0.550 OA
ENDBRANCH   1   2
BRANCH   1   5
ATOM      5  C   UNL     1      40.173 -10.879 -43.853  1.00  0.00     0.003 C 
ATOM      6  C   UNL     1      40.401  -9.473 -44.406  1.00  0.00     0.004 C 
ENDBRANCH   1   5
TORSDOF 2
ENDMDL
MODEL 3
REMARK VINA RESULT:    -3.061      2.164      3.014
REMARK INTER + INTRA:          -3.429
REMARK INTER:                  -3.368
REMARK INTRA:                  -0.060
REMARK UNBOUND:                -0.010
REMARK SMILES CCCC(=O)[O-]
REMARK SMILES IDX 3 1 4 2 5 3 6 4 2 5 1 6
REMARK H PARENT
REMARK Flexibility Score: inf
ROOT
ATOM      1  C   UNL     1      41.004 -11.835 -44.689  1.00  0.00     0.052 C 
ENDROOT
BRANCH   1   2
ATOM      2  C   UNL     1      40.717 -10.517 -44.037  1.00  0.00     0.041 C 
ATOM      3  O   UNL     1      40.246 -10.478 -42.870  1.00  0.00    -0.550 OA
ATOM      4  O   UNL     1      41.001  -9.332 -44.704  1.00  0.00    -0.550 OA
ENDBRANCH   1   2
BRANCH   1   5
ATOM      5  C   UNL     1      42.465 -11.939 -45.143  1.00  0.00     0.003 C 
ATOM      6  C   UNL     1      43.416 -12.234 -43.984  1.00  0.00     0.004 C 
ENDBRANCH   1   5
TORSDOF 2
ENDMDL
MODEL 4
REMARK VINA RESULT:    -3.058      2.370      3.523
REMARK INTER + INTRA:          -3.426
REMARK INTER:                  -3.408
REMARK INTRA:                  -0.018
REMARK UNBOUND:                -0.010
REMARK SMILES CCCC(=O)[O-]
REMARK SMILES IDX 3 1 4 2 5 3 6 4 2 5 1 6
REMARK H PARENT
REMARK Flexibility Score: inf
ROOT
ATOM      1  C   UNL     1      43.532 -12.264 -43.364  1.00  0.00     0.052 C 
ENDROOT
BRANCH   1   2
ATOM      2  C   UNL     1      43.593 -11.524 -42.063  1.00  0.00     0.041 C 
ATOM      3  O   UNL     1      43.050 -10.394 -41.950  1.00  0.00    -0.550 OA
ATOM      4  O   UNL     1      44.220 -12.098 -40.964  1.00  0.00    -0.550 OA
ENDBRANCH   1   2
BRANCH   1   5
ATOM      5  C   UNL     1      42.358 -11.793 -44.232  1.00  0.00     0.003 C 
ATOM      6  C   UNL     1      42.656 -11.908 -45.726  1.00  0.00     0.004 C 
ENDBRANCH   1   5
TORSDOF 2
ENDMDL
MODEL 5
REMARK VINA RESULT:    -3.051     10.039     10.361
REMARK INTER + INTRA:          -3.418
REMARK INTER:                  -3.389
REMARK INTRA:                  -0.030
REMARK UNBOUND:                -0.010
REMARK SMILES CCCC(=O)[O-]
REMARK SMILES IDX 3 1 4 2 5 3 6 4 2 5 1 6
REMARK H PARENT
REMARK Flexibility Score: inf
ROOT
ATOM      1  C   UNL     1      41.165 -21.743 -44.611  1.00  0.00     0.052 C 
ENDROOT
BRANCH   1   2
ATOM      2  C   UNL     1      40.019 -22.608 -45.038  1.00  0.00     0.041 C 
ATOM      3  O   UNL     1      39.315 -22.282 -46.029  1.00  0.00    -0.550 OA
ATOM      4  O   UNL     1      39.751 -23.793 -44.364  1.00  0.00    -0.550 OA
ENDBRANCH   1   2
BRANCH   1   5
ATOM      5  C   UNL     1      40.711 -20.312 -44.297  1.00  0.00     0.003 C 
ATOM      6  C   UNL     1      41.530 -19.263 -45.048  1.00  0.00     0.004 C 
ENDBRANCH   1   5
TORSDOF 2
ENDMDL
MODEL 6
REMARK VINA RESULT:    -3.024      3.607      4.270
REMARK INTER + INTRA:          -3.388
REMARK INTER:                  -3.358
REMARK INTRA:                  -0.029
REMARK UNBOUND:                -0.010
REMARK SMILES CCCC(=O)[O-]
REMARK SMILES IDX 3 1 4 2 5 3 6 4 2 5 1 6
REMARK H PARENT
REMARK Flexibility Score: inf
ROOT
ATOM      1  C   UNL     1      40.247 -10.655 -43.602  1.00  0.00     0.052 C 
ENDROOT
BRANCH   1   2
ATOM      2  C   UNL     1      40.345  -9.282 -44.191  1.00  0.00     0.041 C 
ATOM      3  O   UNL     1      41.294  -8.520 -43.867  1.00  0.00    -0.550 OA
ATOM      4  O   UNL     1      39.408  -8.854 -45.123  1.00  0.00    -0.550 OA
ENDBRANCH   1   2
BRANCH   1   5
ATOM      5  C   UNL     1      40.385 -11.745 -44.672  1.00  0.00     0.003 C 
ATOM      6  C   UNL     1      39.035 -12.337 -45.078  1.00  0.00     0.004 C 
ENDBRANCH   1   5
TORSDOF 2
ENDMDL
MODEL 7
REMARK VINA RESULT:    -2.959      4.637      5.357
REMARK INTER + INTRA:          -3.315
REMARK INTER:                  -3.309
REMARK INTRA:                  -0.006
REMARK UNBOUND:                -0.010
REMARK SMILES CCCC(=O)[O-]
REMARK SMILES IDX 3 1 4 2 5 3 6 4 2 5 1 6
REMARK H PARENT
REMARK Flexibility Score: inf
ROOT
ATOM      1  C   UNL     1      44.937 -11.731 -39.804  1.00  0.00     0.052 C 
ENDROOT
BRANCH   1   2
ATOM      2  C   UNL     1      46.040 -12.716 -39.563  1.00  0.00     0.041 C 
ATOM      3  O   UNL     1      47.230 -12.414 -39.841  1.00  0.00    -0.550 OA
ATOM      4  O   UNL     1      45.758 -13.954 -38.999  1.00  0.00    -0.550 OA
ENDBRANCH   1   2
BRANCH   1   5
ATOM      5  C   UNL     1      44.153 -12.057 -41.081  1.00  0.00     0.003 C 
ATOM      6  C   UNL     1      43.526 -10.815 -41.713  1.00  0.00     0.004 C 
ENDBRANCH   1   5
TORSDOF 2
ENDMDL
MODEL 8
REMARK VINA RESULT:    -2.897      3.668      4.247
REMARK INTER + INTRA:          -3.246
REMARK INTER:                  -3.241
REMARK INTRA:                  -0.006
REMARK UNBOUND:                -0.010
REMARK SMILES CCCC(=O)[O-]
REMARK SMILES IDX 3 1 4 2 5 3 6 4 2 5 1 6
REMARK H PARENT
REMARK Flexibility Score: inf
ROOT
ATOM      1  C   UNL     1      40.491 -10.331 -42.864  1.00  0.00     0.052 C 
ENDROOT
BRANCH   1   2
ATOM      2  C   UNL     1      41.495  -9.232 -42.695  1.00  0.00     0.041 C 
ATOM      3  O   UNL     1      42.554  -9.438 -42.047  1.00  0.00    -0.550 OA
ATOM      4  O   UNL     1      41.277  -7.992 -43.282  1.00  0.00    -0.550 OA
ENDBRANCH   1   2
BRANCH   1   5
ATOM      5  C   UNL     1      40.099 -10.523 -44.335  1.00  0.00     0.003 C 
ATOM      6  C   UNL     1      39.676 -11.960 -44.642  1.00  0.00     0.004 C 
ENDBRANCH   1   5
TORSDOF 2
ENDMDL
MODEL 9
REMARK VINA RESULT:    -2.894      3.399      3.976
REMARK INTER + INTRA:          -3.243
REMARK INTER:                  -3.237
REMARK INTRA:                  -0.006
REMARK UNBOUND:                -0.010
REMARK SMILES CCCC(=O)[O-]
REMARK SMILES IDX 3 1 4 2 5 3 6 4 2 5 1 6
REMARK H PARENT
REMARK Flexibility Score: inf
ROOT
ATOM      1  C   UNL     1      44.616 -12.077 -40.713  1.00  0.00     0.052 C 
ENDROOT
BRANCH   1   2
ATOM      2  C   UNL     1      43.502 -11.078 -40.785  1.00  0.00     0.041 C 
ATOM      3  O   UNL     1      43.585 -10.093 -41.565  1.00  0.00    -0.550 OA
ATOM      4  O   UNL     1      42.358 -11.254 -40.017  1.00  0.00    -0.550 OA
ENDBRANCH   1   2
BRANCH   1   5
ATOM      5  C   UNL     1      45.433 -11.926 -39.423  1.00  0.00     0.003 C 
ATOM      6  C   UNL     1      46.876 -12.403 -39.588  1.00  0.00     0.004 C 
ENDBRANCH   1   5
TORSDOF 2
ENDMDL
