MODEL 1
REMARK VINA RESULT:    -4.116      0.000      0.000
REMARK INTER + INTRA:          -6.601
REMARK INTER:                  -6.281
REMARK INTRA:                  -0.320
REMARK UNBOUND:                -0.320
REMARK SMILES CC1=CCC[C@H](C)C(=O)C[C@H](C(C)C)C(=O)C1
REMARK SMILES IDX 8 1 9 2 6 3 7 4 5 5 4 6 3 7 2 8 1 9 10 11 11 12 15 13 16 14
REMARK SMILES IDX 17 15 12 17 13 18 14 19
REMARK H PARENT
REMARK Flexibility Score: 70.00
ROOT
ATOM      1  C   UNL     1     -12.419 -19.048  29.235  1.00  0.00     0.136 C 
ATOM      2  O   UNL     1     -13.146 -19.682  28.485  1.00  0.00    -0.299 OA
ENDROOT
BRANCH   1   3
ATOM      3  C   UNL     1     -12.151 -19.595  30.627  1.00  0.00     0.053 C 
ATOM      4  C   UNL     1     -10.736 -19.223  31.081  1.00  0.00     0.016 C 
BRANCH   3   5
ATOM      5  C   UNL     1     -13.199 -19.129  31.658  1.00  0.00     0.015 C 
BRANCH   5   6
ATOM      6  C   UNL     1     -12.696 -17.936  32.492  1.00  0.00     0.028 C 
BRANCH   6   7
ATOM      7  C   UNL     1     -13.643 -16.763  32.469  1.00  0.00    -0.028 C 
ATOM      8  C   UNL     1     -13.613 -15.740  31.576  1.00  0.00    -0.070 CG0
ATOM      9  C   UNL     1     -14.701 -14.696  31.636  1.00  0.00     0.039 C 
ATOM     10  G   UNL     1     -12.480 -15.497  30.586  1.00  0.00     0.000 G0
ENDBRANCH   6   7
ENDBRANCH   5   6
ENDBRANCH   3   5
ENDBRANCH   1   3
BRANCH   1  11
ATOM     11  C   UNL     1     -11.763 -17.786  28.721  1.00  0.00     0.087 C 
BRANCH  11  12
ATOM     12  C   UNL     1     -12.792 -16.732  28.222  1.00  0.00     0.066 C 
BRANCH  12  13
ATOM     13  C   UNL     1     -12.904 -15.507  29.126  1.00  0.00     0.140 C 
ATOM     14  O   UNL     1     -13.239 -14.443  28.625  1.00  0.00    -0.299 OA
BRANCH  13  15
ATOM     15  C   UNL     1     -12.476 -15.519  30.575  1.00  0.00     0.106 CG0
ATOM     16  G   UNL     1     -13.616 -15.731  31.563  1.00  0.00     0.000 G0
ENDBRANCH  13  15
ENDBRANCH  12  13
BRANCH  12  17
ATOM     17  C   UNL     1     -12.586 -16.312  26.729  1.00  0.00    -0.006 C 
ATOM     18  C   UNL     1     -11.408 -17.015  26.032  1.00  0.00     0.008 C 
ATOM     19  C   UNL     1     -13.869 -16.517  25.906  1.00  0.00     0.008 C 
ENDBRANCH  12  17
ENDBRANCH  11  12
ENDBRANCH   1  11
TORSDOF 1
ENDMDL
MODEL 2
REMARK VINA RESULT:    -4.026      1.887      4.786
REMARK INTER + INTRA:          -6.464
REMARK INTER:                  -6.715
REMARK INTRA:                   0.250
REMARK UNBOUND:                -0.320
REMARK SMILES CC1=CCC[C@H](C)C(=O)C[C@H](C(C)C)C(=O)C1
REMARK SMILES IDX 8 1 9 2 6 3 7 4 5 5 4 6 3 7 2 8 1 9 10 11 11 12 15 13 16 14
REMARK SMILES IDX 17 15 12 17 13 18 14 19
REMARK H PARENT
REMARK Flexibility Score: 70.00
ROOT
ATOM      1  C   UNL     1     -13.065 -15.292  28.869  1.00  0.00     0.136 C 
ATOM      2  O   UNL     1     -13.801 -14.423  28.426  1.00  0.00    -0.299 OA
ENDROOT
BRANCH   1   3
ATOM      3  C   UNL     1     -12.758 -16.500  28.002  1.00  0.00     0.053 C 
ATOM      4  C   UNL     1     -13.504 -16.399  26.667  1.00  0.00     0.016 C 
BRANCH   3   5
ATOM      5  C   UNL     1     -11.246 -16.695  27.772  1.00  0.00     0.015 C 
BRANCH   5   6
ATOM      6  C   UNL     1     -10.652 -17.759  28.713  1.00  0.00     0.028 C 
BRANCH   6   7
ATOM      7  C   UNL     1     -11.645 -18.828  29.092  1.00  0.00    -0.028 C 
ATOM      8  C   UNL     1     -12.073 -19.099  30.352  1.00  0.00    -0.070 CG0
ATOM      9  C   UNL     1     -13.149 -20.140  30.542  1.00  0.00     0.039 C 
ATOM     10  G   UNL     1     -11.453 -18.513  31.614  1.00  0.00     0.000 G0
ENDBRANCH   6   7
ENDBRANCH   5   6
ENDBRANCH   3   5
ENDBRANCH   1   3
BRANCH   1  11
ATOM     11  C   UNL     1     -12.438 -15.091  30.232  1.00  0.00     0.087 C 
BRANCH  11  12
ATOM     12  C   UNL     1     -12.786 -16.232  31.230  1.00  0.00     0.066 C 
BRANCH  12  13
ATOM     13  C   UNL     1     -11.569 -17.005  31.729  1.00  0.00     0.140 C 
ATOM     14  O   UNL     1     -10.598 -16.373  32.120  1.00  0.00    -0.299 OA
BRANCH  13  15
ATOM     15  C   UNL     1     -11.456 -18.508  31.622  1.00  0.00     0.106 CG0
ATOM     16  G   UNL     1     -12.069 -19.094  30.356  1.00  0.00     0.000 G0
ENDBRANCH  13  15
ENDBRANCH  12  13
BRANCH  12  17
ATOM     17  C   UNL     1     -13.686 -15.769  32.422  1.00  0.00    -0.006 C 
ATOM     18  C   UNL     1     -14.740 -14.712  32.045  1.00  0.00     0.008 C 
ATOM     19  C   UNL     1     -14.375 -16.963  33.104  1.00  0.00     0.008 C 
ENDBRANCH  12  17
ENDBRANCH  11  12
ENDBRANCH   1  11
TORSDOF 1
ENDMDL
MODEL 3
REMARK VINA RESULT:    -3.775      2.048      4.032
REMARK INTER + INTRA:          -6.081
REMARK INTER:                  -6.563
REMARK INTRA:                   0.482
REMARK UNBOUND:                -0.320
REMARK SMILES CC1=CCC[C@H](C)C(=O)C[C@H](C(C)C)C(=O)C1
REMARK SMILES IDX 8 1 9 2 6 3 7 4 5 5 4 6 3 7 2 8 1 9 10 11 11 12 15 13 16 14
REMARK SMILES IDX 17 15 12 17 13 18 14 19
REMARK H PARENT
REMARK Flexibility Score: 70.00
ROOT
ATOM      1  C   UNL     1     -12.059 -17.033  28.168  1.00  0.00     0.136 C 
ATOM      2  O   UNL     1     -11.345 -17.750  27.482  1.00  0.00    -0.299 OA
ENDROOT
BRANCH   1   3
ATOM      3  C   UNL     1     -11.791 -15.538  28.186  1.00  0.00     0.053 C 
ATOM      4  C   UNL     1     -13.007 -14.787  28.737  1.00  0.00     0.016 C 
BRANCH   3   5
ATOM      5  C   UNL     1     -10.517 -15.174  28.975  1.00  0.00     0.015 C 
BRANCH   5   6
ATOM      6  C   UNL     1     -10.045 -16.331  29.875  1.00  0.00     0.028 C 
BRANCH   6   7
ATOM      7  C   UNL     1     -10.067 -15.981  31.341  1.00  0.00    -0.028 C 
ATOM      8  C   UNL     1     -11.163 -16.007  32.144  1.00  0.00    -0.070 CG0
ATOM      9  C   UNL     1     -10.988 -15.722  33.615  1.00  0.00     0.039 C 
ATOM     10  G   UNL     1     -12.591 -16.184  31.643  1.00  0.00     0.000 G0
ENDBRANCH   6   7
ENDBRANCH   5   6
ENDBRANCH   3   5
ENDBRANCH   1   3
BRANCH   1  11
ATOM     11  C   UNL     1     -13.219 -17.657  28.913  1.00  0.00     0.087 C 
BRANCH  11  12
ATOM     12  C   UNL     1     -12.773 -18.423  30.191  1.00  0.00     0.066 C 
BRANCH  12  13
ATOM     13  C   UNL     1     -13.000 -17.646  31.485  1.00  0.00     0.140 C 
ATOM     14  O   UNL     1     -13.640 -18.179  32.379  1.00  0.00    -0.299 OA
BRANCH  13  15
ATOM     15  C   UNL     1     -12.600 -16.198  31.649  1.00  0.00     0.106 CG0
ATOM     16  G   UNL     1     -11.174 -15.994  32.149  1.00  0.00     0.000 G0
ENDBRANCH  13  15
ENDBRANCH  12  13
BRANCH  12  17
ATOM     17  C   UNL     1     -13.362 -19.869  30.293  1.00  0.00    -0.006 C 
ATOM     18  C   UNL     1     -13.613 -20.546  28.934  1.00  0.00     0.008 C 
ATOM     19  C   UNL     1     -12.478 -20.776  31.166  1.00  0.00     0.008 C 
ENDBRANCH  12  17
ENDBRANCH  11  12
ENDBRANCH   1  11
TORSDOF 1
ENDMDL
MODEL 4
REMARK VINA RESULT:    -3.754      2.322      4.294
REMARK INTER + INTRA:          -6.050
REMARK INTER:                  -6.254
REMARK INTRA:                   0.204
REMARK UNBOUND:                -0.320
REMARK SMILES CC1=CCC[C@H](C)C(=O)C[C@H](C(C)C)C(=O)C1
REMARK SMILES IDX 8 1 9 2 6 3 7 4 5 5 4 6 3 7 2 8 1 9 10 11 11 12 15 13 16 14
REMARK SMILES IDX 17 15 12 17 13 18 14 19
REMARK H PARENT
REMARK Flexibility Score: 70.00
ROOT
ATOM      1  C   UNL     1     -13.446 -15.349  31.017  1.00  0.00     0.136 C 
ATOM      2  O   UNL     1     -14.362 -14.545  30.923  1.00  0.00    -0.299 OA
ENDROOT
BRANCH   1   3
ATOM      3  C   UNL     1     -13.206 -16.028  32.354  1.00  0.00     0.053 C 
ATOM      4  C   UNL     1     -13.584 -15.088  33.504  1.00  0.00     0.016 C 
BRANCH   3   5
ATOM      5  C   UNL     1     -13.950 -17.372  32.478  1.00  0.00     0.015 C 
BRANCH   5   6
ATOM      6  C   UNL     1     -13.086 -18.556  32.006  1.00  0.00     0.028 C 
BRANCH   6   7
ATOM      7  C   UNL     1     -13.653 -19.249  30.792  1.00  0.00    -0.028 C 
ATOM      8  C   UNL     1     -12.945 -19.633  29.699  1.00  0.00    -0.070 CG0
ATOM      9  C   UNL     1     -13.654 -20.406  28.614  1.00  0.00     0.039 C 
ATOM     10  G   UNL     1     -11.501 -19.232  29.426  1.00  0.00     0.000 G0
ENDBRANCH   6   7
ENDBRANCH   5   6
ENDBRANCH   3   5
ENDBRANCH   1   3
BRANCH   1  11
ATOM     11  C   UNL     1     -12.639 -15.684  29.782  1.00  0.00     0.087 C 
BRANCH  11  12
ATOM     12  C   UNL     1     -11.456 -16.648  30.077  1.00  0.00     0.066 C 
BRANCH  12  13
ATOM     13  C   UNL     1     -11.310 -17.773  29.056  1.00  0.00     0.140 C 
ATOM     14  O   UNL     1     -11.147 -17.476  27.882  1.00  0.00    -0.299 OA
BRANCH  13  15
ATOM     15  C   UNL     1     -11.507 -19.228  29.411  1.00  0.00     0.106 CG0
ATOM     16  G   UNL     1     -12.951 -19.611  29.713  1.00  0.00     0.000 G0
ENDBRANCH  13  15
ENDBRANCH  12  13
BRANCH  12  17
ATOM     17  C   UNL     1     -10.093 -15.916  30.306  1.00  0.00    -0.006 C 
ATOM     18  C   UNL     1      -9.901 -14.655  29.445  1.00  0.00     0.008 C 
ATOM     19  C   UNL     1      -9.885 -15.565  31.789  1.00  0.00     0.008 C 
ENDBRANCH  12  17
ENDBRANCH  11  12
ENDBRANCH   1  11
TORSDOF 1
ENDMDL
MODEL 5
REMARK VINA RESULT:    -3.721      1.739      3.913
REMARK INTER + INTRA:          -5.998
REMARK INTER:                  -6.738
REMARK INTRA:                   0.739
REMARK UNBOUND:                -0.320
REMARK SMILES CC1=CCC[C@H](C)C(=O)C[C@H](C(C)C)C(=O)C1
REMARK SMILES IDX 8 1 9 2 6 3 7 4 5 5 4 6 3 7 2 8 1 9 10 11 11 12 15 13 16 14
REMARK SMILES IDX 17 15 12 17 13 18 14 19
REMARK H PARENT
REMARK Flexibility Score: 70.00
ROOT
ATOM      1  C   UNL     1     -11.071 -18.527  30.947  1.00  0.00     0.136 C 
ATOM      2  O   UNL     1     -10.160 -18.511  30.132  1.00  0.00    -0.299 OA
ENDROOT
BRANCH   1   3
ATOM      3  C   UNL     1     -11.976 -19.745  31.007  1.00  0.00     0.053 C 
ATOM      4  C   UNL     1     -12.998 -19.593  32.139  1.00  0.00     0.016 C 
BRANCH   3   5
ATOM      5  C   UNL     1     -12.682 -20.025  29.665  1.00  0.00     0.015 C 
BRANCH   5   6
ATOM      6  C   UNL     1     -13.365 -18.766  29.099  1.00  0.00     0.028 C 
BRANCH   6   7
ATOM      7  C   UNL     1     -12.710 -18.260  27.839  1.00  0.00    -0.028 C 
ATOM      8  C   UNL     1     -12.187 -17.019  27.663  1.00  0.00    -0.070 CG0
ATOM      9  C   UNL     1     -11.477 -16.710  26.368  1.00  0.00     0.039 C 
ATOM     10  G   UNL     1     -12.372 -15.863  28.639  1.00  0.00     0.000 G0
ENDBRANCH   6   7
ENDBRANCH   5   6
ENDBRANCH   3   5
ENDBRANCH   1   3
BRANCH   1  11
ATOM     11  C   UNL     1     -11.213 -17.364  31.905  1.00  0.00     0.087 C 
BRANCH  11  12
ATOM     12  C   UNL     1     -11.864 -16.115  31.246  1.00  0.00     0.066 C 
BRANCH  12  13
ATOM     13  C   UNL     1     -11.408 -15.869  29.810  1.00  0.00     0.140 C 
ATOM     14  O   UNL     1     -10.245 -15.548  29.617  1.00  0.00    -0.299 OA
BRANCH  13  15
ATOM     15  C   UNL     1     -12.364 -15.857  28.640  1.00  0.00     0.106 CG0
ATOM     16  G   UNL     1     -12.177 -17.014  27.666  1.00  0.00     0.000 G0
ENDBRANCH  13  15
ENDBRANCH  12  13
BRANCH  12  17
ATOM     17  C   UNL     1     -13.425 -16.093  31.351  1.00  0.00    -0.006 C 
ATOM     18  C   UNL     1     -13.964 -16.307  32.776  1.00  0.00     0.008 C 
ATOM     19  C   UNL     1     -14.010 -14.796  30.768  1.00  0.00     0.008 C 
ENDBRANCH  12  17
ENDBRANCH  11  12
ENDBRANCH   1  11
TORSDOF 1
ENDMDL
MODEL 6
REMARK VINA RESULT:    -3.694      2.231      3.708
REMARK INTER + INTRA:          -5.958
REMARK INTER:                  -6.691
REMARK INTRA:                   0.733
REMARK UNBOUND:                -0.320
REMARK SMILES CC1=CCC[C@H](C)C(=O)C[C@H](C(C)C)C(=O)C1
REMARK SMILES IDX 8 1 9 2 6 3 7 4 5 5 4 6 3 7 2 8 1 9 10 11 11 12 15 13 16 14
REMARK SMILES IDX 17 15 12 17 13 18 14 19
REMARK H PARENT
REMARK Flexibility Score: 70.00
ROOT
ATOM      1  C   UNL     1     -12.291 -16.177  31.871  1.00  0.00     0.136 C 
ATOM      2  O   UNL     1     -12.658 -15.850  32.990  1.00  0.00    -0.299 OA
ENDROOT
BRANCH   1   3
ATOM      3  C   UNL     1     -10.985 -16.938  31.723  1.00  0.00     0.053 C 
ATOM      4  C   UNL     1      -9.939 -16.392  32.701  1.00  0.00     0.016 C 
BRANCH   3   5
ATOM      5  C   UNL     1     -11.163 -18.459  31.903  1.00  0.00     0.015 C 
BRANCH   5   6
ATOM      6  C   UNL     1     -12.645 -18.875  31.870  1.00  0.00     0.028 C 
BRANCH   6   7
ATOM      7  C   UNL     1     -12.929 -19.950  30.852  1.00  0.00    -0.028 C 
ATOM      8  C   UNL     1     -13.242 -19.740  29.547  1.00  0.00    -0.070 CG0
ATOM      9  C   UNL     1     -13.398 -20.936  28.640  1.00  0.00     0.039 C 
ATOM     10  G   UNL     1     -13.570 -18.377  28.950  1.00  0.00     0.000 G0
ENDBRANCH   6   7
ENDBRANCH   5   6
ENDBRANCH   3   5
ENDBRANCH   1   3
BRANCH   1  11
ATOM     11  C   UNL     1     -13.187 -15.870  30.691  1.00  0.00     0.087 C 
BRANCH  11  12
ATOM     12  C   UNL     1     -12.455 -16.005  29.326  1.00  0.00     0.066 C 
BRANCH  12  13
ATOM     13  C   UNL     1     -12.416 -17.432  28.788  1.00  0.00     0.140 C 
ATOM     14  O   UNL     1     -11.448 -17.778  28.125  1.00  0.00    -0.299 OA
BRANCH  13  15
ATOM     15  C   UNL     1     -13.583 -18.384  28.910  1.00  0.00     0.106 CG0
ATOM     16  G   UNL     1     -13.236 -19.723  29.549  1.00  0.00     0.000 G0
ENDBRANCH  13  15
ENDBRANCH  12  13
BRANCH  12  17
ATOM     17  C   UNL     1     -12.969 -15.007  28.236  1.00  0.00    -0.006 C 
ATOM     18  C   UNL     1     -13.566 -15.685  26.991  1.00  0.00     0.008 C 
ATOM     19  C   UNL     1     -13.988 -14.013  28.820  1.00  0.00     0.008 C 
ENDBRANCH  12  17
ENDBRANCH  11  12
ENDBRANCH   1  11
TORSDOF 1
ENDMDL
MODEL 7
REMARK VINA RESULT:    -3.443      1.951      3.672
REMARK INTER + INTRA:          -5.575
REMARK INTER:                  -5.726
REMARK INTRA:                   0.151
REMARK UNBOUND:                -0.320
REMARK SMILES CC1=CCC[C@H](C)C(=O)C[C@H](C(C)C)C(=O)C1
REMARK SMILES IDX 8 1 9 2 6 3 7 4 5 5 4 6 3 7 2 8 1 9 10 11 11 12 15 13 16 14
REMARK SMILES IDX 17 15 12 17 13 18 14 19
REMARK H PARENT
REMARK Flexibility Score: 70.00
ROOT
ATOM      1  C   UNL     1     -12.143 -15.711  30.093  1.00  0.00     0.136 C 
ATOM      2  O   UNL     1     -12.802 -15.363  31.061  1.00  0.00    -0.299 OA
ENDROOT
BRANCH   1   3
ATOM      3  C   UNL     1     -10.648 -15.922  30.264  1.00  0.00     0.053 C 
ATOM      4  C   UNL     1      -9.879 -14.681  29.799  1.00  0.00     0.016 C 
BRANCH   3   5
ATOM      5  C   UNL     1     -10.265 -16.294  31.711  1.00  0.00     0.015 C 
BRANCH   5   6
ATOM      6  C   UNL     1      -9.988 -17.800  31.865  1.00  0.00     0.028 C 
BRANCH   6   7
ATOM      7  C   UNL     1     -11.248 -18.618  32.002  1.00  0.00    -0.028 C 
ATOM      8  C   UNL     1     -11.849 -19.316  31.004  1.00  0.00    -0.070 CG0
ATOM      9  C   UNL     1     -13.052 -20.164  31.338  1.00  0.00     0.039 C 
ATOM     10  G   UNL     1     -11.470 -19.209  29.532  1.00  0.00     0.000 G0
ENDBRANCH   6   7
ENDBRANCH   5   6
ENDBRANCH   3   5
ENDBRANCH   1   3
BRANCH   1  11
ATOM     11  C   UNL     1     -12.854 -15.983  28.785  1.00  0.00     0.087 C 
BRANCH  11  12
ATOM     12  C   UNL     1     -12.235 -17.173  27.998  1.00  0.00     0.066 C 
BRANCH  12  13
ATOM     13  C   UNL     1     -12.484 -18.533  28.642  1.00  0.00     0.140 C 
ATOM     14  O   UNL     1     -13.599 -19.027  28.548  1.00  0.00    -0.299 OA
BRANCH  13  15
ATOM     15  C   UNL     1     -11.462 -19.223  29.515  1.00  0.00     0.106 CG0
ATOM     16  G   UNL     1     -11.860 -19.331  30.982  1.00  0.00     0.000 G0
ENDBRANCH  13  15
ENDBRANCH  12  13
BRANCH  12  17
ATOM     17  C   UNL     1     -12.620 -17.189  26.482  1.00  0.00    -0.006 C 
ATOM     18  C   UNL     1     -13.736 -16.200  26.103  1.00  0.00     0.008 C 
ATOM     19  C   UNL     1     -11.393 -16.950  25.587  1.00  0.00     0.008 C 
ENDBRANCH  12  17
ENDBRANCH  11  12
ENDBRANCH   1  11
TORSDOF 1
ENDMDL
MODEL 8
REMARK VINA RESULT:    -3.337      1.847      4.239
REMARK INTER + INTRA:          -5.414
REMARK INTER:                  -5.872
REMARK INTRA:                   0.458
REMARK UNBOUND:                -0.320
REMARK SMILES CC1=CCC[C@H](C)C(=O)C[C@H](C(C)C)C(=O)C1
REMARK SMILES IDX 8 1 9 2 6 3 7 4 5 5 4 6 3 7 2 8 1 9 10 11 11 12 15 13 16 14
REMARK SMILES IDX 17 15 12 17 13 18 14 19
REMARK H PARENT
REMARK Flexibility Score: 70.00
ROOT
ATOM      1  C   UNL     1     -12.720 -18.752  31.080  1.00  0.00     0.136 C 
ATOM      2  O   UNL     1     -12.142 -19.311  32.001  1.00  0.00    -0.299 OA
ENDROOT
BRANCH   1   3
ATOM      3  C   UNL     1     -12.592 -19.329  29.681  1.00  0.00     0.053 C 
ATOM      4  C   UNL     1     -13.210 -20.730  29.625  1.00  0.00     0.016 C 
BRANCH   3   5
ATOM      5  C   UNL     1     -13.210 -18.414  28.605  1.00  0.00     0.015 C 
BRANCH   5   6
ATOM      6  C   UNL     1     -12.178 -17.996  27.541  1.00  0.00     0.028 C 
BRANCH   6   7
ATOM      7  C   UNL     1     -11.105 -17.090  28.090  1.00  0.00    -0.028 C 
ATOM      8  C   UNL     1     -11.317 -15.928  28.761  1.00  0.00    -0.070 CG0
ATOM      9  C   UNL     1     -10.128 -15.194  29.330  1.00  0.00     0.039 C 
ATOM     10  G   UNL     1     -12.672 -15.238  28.876  1.00  0.00     0.000 G0
ENDBRANCH   6   7
ENDBRANCH   5   6
ENDBRANCH   3   5
ENDBRANCH   1   3
BRANCH   1  11
ATOM     11  C   UNL     1     -13.592 -17.554  31.387  1.00  0.00     0.087 C 
BRANCH  11  12
ATOM     12  C   UNL     1     -12.807 -16.212  31.354  1.00  0.00     0.066 C 
BRANCH  12  13
ATOM     13  C   UNL     1     -13.277 -15.251  30.266  1.00  0.00     0.140 C 
ATOM     14  O   UNL     1     -14.249 -14.545  30.494  1.00  0.00    -0.299 OA
BRANCH  13  15
ATOM     15  C   UNL     1     -12.690 -15.243  28.874  1.00  0.00     0.106 CG0
ATOM     16  G   UNL     1     -11.327 -15.915  28.764  1.00  0.00     0.000 G0
ENDBRANCH  13  15
ENDBRANCH  12  13
BRANCH  12  17
ATOM     17  C   UNL     1     -12.732 -15.497  32.743  1.00  0.00    -0.006 C 
ATOM     18  C   UNL     1     -13.939 -15.765  33.659  1.00  0.00     0.008 C 
ATOM     19  C   UNL     1     -11.432 -15.848  33.487  1.00  0.00     0.008 C 
ENDBRANCH  12  17
ENDBRANCH  11  12
ENDBRANCH   1  11
TORSDOF 1
ENDMDL
MODEL 9
REMARK VINA RESULT:    -3.135      2.220      4.571
REMARK INTER + INTRA:          -5.105
REMARK INTER:                  -6.097
REMARK INTRA:                   0.992
REMARK UNBOUND:                -0.320
REMARK SMILES CC1=CCC[C@H](C)C(=O)C[C@H](C(C)C)C(=O)C1
REMARK SMILES IDX 8 1 9 2 6 3 7 4 5 5 4 6 3 7 2 8 1 9 10 11 11 12 15 13 16 14
REMARK SMILES IDX 17 15 12 17 13 18 14 19
REMARK H PARENT
REMARK Flexibility Score: 70.00
ROOT
ATOM      1  C   UNL     1     -12.172 -16.248  32.053  1.00  0.00     0.136 C 
ATOM      2  O   UNL     1     -12.684 -16.617  33.100  1.00  0.00    -0.299 OA
ENDROOT
BRANCH   1   3
ATOM      3  C   UNL     1     -10.703 -15.862  32.055  1.00  0.00     0.053 C 
ATOM      4  C   UNL     1     -10.002 -16.445  33.287  1.00  0.00     0.016 C 
BRANCH   3   5
ATOM      5  C   UNL     1      -9.978 -16.284  30.761  1.00  0.00     0.015 C 
BRANCH   5   6
ATOM      6  C   UNL     1     -10.479 -15.496  29.536  1.00  0.00     0.028 C 
BRANCH   6   7
ATOM      7  C   UNL     1     -10.319 -16.257  28.244  1.00  0.00    -0.028 C 
ATOM      8  C   UNL     1     -11.333 -16.692  27.452  1.00  0.00    -0.070 CG0
ATOM      9  C   UNL     1     -10.993 -17.352  26.139  1.00  0.00     0.039 C 
ATOM     10  G   UNL     1     -12.804 -16.673  27.852  1.00  0.00     0.000 G0
ENDBRANCH   6   7
ENDBRANCH   5   6
ENDBRANCH   3   5
ENDBRANCH   1   3
BRANCH   1  11
ATOM     11  C   UNL     1     -13.005 -16.260  30.790  1.00  0.00     0.087 C 
BRANCH  11  12
ATOM     12  C   UNL     1     -13.288 -17.697  30.267  1.00  0.00     0.066 C 
BRANCH  12  13
ATOM     13  C   UNL     1     -13.244 -17.818  28.746  1.00  0.00     0.140 C 
ATOM     14  O   UNL     1     -13.446 -18.914  28.244  1.00  0.00    -0.299 OA
BRANCH  13  15
ATOM     15  C   UNL     1     -12.816 -16.680  27.849  1.00  0.00     0.106 CG0
ATOM     16  G   UNL     1     -11.343 -16.710  27.458  1.00  0.00     0.000 G0
ENDBRANCH  13  15
ENDBRANCH  12  13
BRANCH  12  17
ATOM     17  C   UNL     1     -12.404 -18.796  30.944  1.00  0.00    -0.006 C 
ATOM     18  C   UNL     1     -13.193 -20.013  31.458  1.00  0.00     0.008 C 
ATOM     19  C   UNL     1     -11.279 -19.268  30.008  1.00  0.00     0.008 C 
ENDBRANCH  12  17
ENDBRANCH  11  12
ENDBRANCH   1  11
TORSDOF 1
ENDMDL
