MODEL 1
REMARK VINA RESULT:    -3.241      0.000      0.000
REMARK INTER + INTRA:          -3.911
REMARK INTER:                  -3.809
REMARK INTRA:                  -0.102
REMARK UNBOUND:                -0.102
REMARK SMILES CCCCC(=O)[O-]
REMARK SMILES IDX 4 1 5 2 6 3 7 4 3 5 2 6 1 7
REMARK H PARENT
REMARK Flexibility Score: inf
ROOT
ATOM      1  C   UNL     1      19.995  20.147  47.784  1.00  0.00     0.053 C 
ENDROOT
BRANCH   1   2
ATOM      2  C   UNL     1      18.577  20.348  47.344  1.00  0.00     0.041 C 
ATOM      3  O   UNL     1      17.954  19.418  46.768  1.00  0.00    -0.550 OA
ATOM      4  O   UNL     1      17.934  21.552  47.600  1.00  0.00    -0.550 OA
ENDBRANCH   1   2
BRANCH   1   5
ATOM      5  C   UNL     1      20.761  19.223  46.827  1.00  0.00     0.006 C 
BRANCH   5   6
ATOM      6  C   UNL     1      21.328  17.988  47.542  1.00  0.00    -0.003 C 
ATOM      7  C   UNL     1      20.479  16.751  47.261  1.00  0.00     0.004 C 
ENDBRANCH   5   6
ENDBRANCH   1   5
TORSDOF 3
ENDMDL
MODEL 2
REMARK VINA RESULT:    -3.212      1.416      1.761
REMARK INTER + INTRA:          -3.877
REMARK INTER:                  -3.818
REMARK INTRA:                  -0.060
REMARK UNBOUND:                -0.102
REMARK SMILES CCCCC(=O)[O-]
REMARK SMILES IDX 4 1 5 2 6 3 7 4 3 5 2 6 1 7
REMARK H PARENT
REMARK Flexibility Score: inf
ROOT
ATOM      1  C   UNL     1      21.014  19.124  46.837  1.00  0.00     0.053 C 
ENDROOT
BRANCH   1   2
ATOM      2  C   UNL     1      20.120  20.272  47.197  1.00  0.00     0.041 C 
ATOM      3  O   UNL     1      19.638  21.007  46.295  1.00  0.00    -0.550 OA
ATOM      4  O   UNL     1      19.793  20.509  48.526  1.00  0.00    -0.550 OA
ENDBRANCH   1   2
BRANCH   1   5
ATOM      5  C   UNL     1      21.204  18.161  48.016  1.00  0.00     0.006 C 
BRANCH   5   6
ATOM      6  C   UNL     1      21.019  16.694  47.602  1.00  0.00    -0.003 C 
ATOM      7  C   UNL     1      19.717  16.499  46.831  1.00  0.00     0.004 C 
ENDBRANCH   5   6
ENDBRANCH   1   5
TORSDOF 3
ENDMDL
MODEL 3
REMARK VINA RESULT:    -3.201      0.141      1.230
REMARK INTER + INTRA:          -3.865
REMARK INTER:                  -3.758
REMARK INTRA:                  -0.107
REMARK UNBOUND:                -0.102
REMARK SMILES CCCCC(=O)[O-]
REMARK SMILES IDX 4 1 5 2 6 3 7 4 3 5 2 6 1 7
REMARK H PARENT
REMARK Flexibility Score: inf
ROOT
ATOM      1  C   UNL     1      20.035  20.126  47.771  1.00  0.00     0.053 C 
ENDROOT
BRANCH   1   2
ATOM      2  C   UNL     1      18.624  20.319  47.303  1.00  0.00     0.041 C 
ATOM      3  O   UNL     1      18.006  21.382  47.575  1.00  0.00    -0.550 OA
ATOM      4  O   UNL     1      18.005  19.338  46.539  1.00  0.00    -0.550 OA
ENDBRANCH   1   2
BRANCH   1   5
ATOM      5  C   UNL     1      20.812  19.172  46.855  1.00  0.00     0.006 C 
BRANCH   5   6
ATOM      6  C   UNL     1      21.257  17.898  47.588  1.00  0.00    -0.003 C 
ATOM      7  C   UNL     1      20.381  16.708  47.204  1.00  0.00     0.004 C 
ENDBRANCH   5   6
ENDBRANCH   1   5
TORSDOF 3
ENDMDL
MODEL 4
REMARK VINA RESULT:    -3.182      1.946      2.879
REMARK INTER + INTRA:          -3.842
REMARK INTER:                  -3.759
REMARK INTRA:                  -0.083
REMARK UNBOUND:                -0.102
REMARK SMILES CCCCC(=O)[O-]
REMARK SMILES IDX 4 1 5 2 6 3 7 4 3 5 2 6 1 7
REMARK H PARENT
REMARK Flexibility Score: inf
ROOT
ATOM      1  C   UNL     1      20.647  19.490  46.538  1.00  0.00     0.053 C 
ENDROOT
BRANCH   1   2
ATOM      2  C   UNL     1      19.557  19.662  45.523  1.00  0.00     0.041 C 
ATOM      3  O   UNL     1      18.770  18.712  45.273  1.00  0.00    -0.550 OA
ATOM      4  O   UNL     1      19.392  20.882  44.880  1.00  0.00    -0.550 OA
ENDBRANCH   1   2
BRANCH   1   5
ATOM      5  C   UNL     1      20.081  19.274  47.948  1.00  0.00     0.006 C 
BRANCH   5   6
ATOM      6  C   UNL     1      19.316  20.502  48.461  1.00  0.00    -0.003 C 
ATOM      7  C   UNL     1      19.831  20.940  49.829  1.00  0.00     0.004 C 
ENDBRANCH   5   6
ENDBRANCH   1   5
TORSDOF 3
ENDMDL
MODEL 5
REMARK VINA RESULT:    -3.164      1.183      1.463
REMARK INTER + INTRA:          -3.821
REMARK INTER:                  -3.776
REMARK INTRA:                  -0.045
REMARK UNBOUND:                -0.102
REMARK SMILES CCCCC(=O)[O-]
REMARK SMILES IDX 4 1 5 2 6 3 7 4 3 5 2 6 1 7
REMARK H PARENT
REMARK Flexibility Score: inf
ROOT
ATOM      1  C   UNL     1      19.866  19.823  45.856  1.00  0.00     0.053 C 
ENDROOT
BRANCH   1   2
ATOM      2  C   UNL     1      18.929  20.799  46.500  1.00  0.00     0.041 C 
ATOM      3  O   UNL     1      18.708  20.742  47.739  1.00  0.00    -0.550 OA
ATOM      4  O   UNL     1      18.326  21.791  45.738  1.00  0.00    -0.550 OA
ENDBRANCH   1   2
BRANCH   1   5
ATOM      5  C   UNL     1      20.894  19.277  46.856  1.00  0.00     0.006 C 
BRANCH   5   6
ATOM      6  C   UNL     1      20.626  17.811  47.222  1.00  0.00    -0.003 C 
ATOM      7  C   UNL     1      21.782  17.224  48.027  1.00  0.00     0.004 C 
ENDBRANCH   5   6
ENDBRANCH   1   5
TORSDOF 3
ENDMDL
MODEL 6
REMARK VINA RESULT:    -3.109      1.165      1.383
REMARK INTER + INTRA:          -3.757
REMARK INTER:                  -3.704
REMARK INTRA:                  -0.053
REMARK UNBOUND:                -0.102
REMARK SMILES CCCCC(=O)[O-]
REMARK SMILES IDX 4 1 5 2 6 3 7 4 3 5 2 6 1 7
REMARK H PARENT
REMARK Flexibility Score: inf
ROOT
ATOM      1  C   UNL     1      19.823  19.837  45.612  1.00  0.00     0.053 C 
ENDROOT
BRANCH   1   2
ATOM      2  C   UNL     1      18.516  20.370  46.116  1.00  0.00     0.041 C 
ATOM      3  O   UNL     1      17.496  20.349  45.377  1.00  0.00    -0.550 OA
ATOM      4  O   UNL     1      18.417  20.857  47.413  1.00  0.00    -0.550 OA
ENDBRANCH   1   2
BRANCH   1   5
ATOM      5  C   UNL     1      20.747  19.417  46.762  1.00  0.00     0.006 C 
BRANCH   5   6
ATOM      6  C   UNL     1      20.504  17.966  47.200  1.00  0.00    -0.003 C 
ATOM      7  C   UNL     1      21.706  17.410  47.959  1.00  0.00     0.004 C 
ENDBRANCH   5   6
ENDBRANCH   1   5
TORSDOF 3
ENDMDL
MODEL 7
REMARK VINA RESULT:    -3.105      2.493      3.886
REMARK INTER + INTRA:          -3.752
REMARK INTER:                  -3.672
REMARK INTRA:                  -0.080
REMARK UNBOUND:                -0.102
REMARK SMILES CCCCC(=O)[O-]
REMARK SMILES IDX 4 1 5 2 6 3 7 4 3 5 2 6 1 7
REMARK H PARENT
REMARK Flexibility Score: inf
ROOT
ATOM      1  C   UNL     1      21.103  17.954  47.925  1.00  0.00     0.053 C 
ENDROOT
BRANCH   1   2
ATOM      2  C   UNL     1      20.680  16.623  47.381  1.00  0.00     0.041 C 
ATOM      3  O   UNL     1      19.695  16.541  46.601  1.00  0.00    -0.550 OA
ATOM      4  O   UNL     1      21.396  15.479  47.709  1.00  0.00    -0.550 OA
ENDBRANCH   1   2
BRANCH   1   5
ATOM      5  C   UNL     1      21.011  19.058  46.862  1.00  0.00     0.006 C 
BRANCH   5   6
ATOM      6  C   UNL     1      20.107  20.216  47.306  1.00  0.00    -0.003 C 
ATOM      7  C   UNL     1      19.863  20.179  48.812  1.00  0.00     0.004 C 
ENDBRANCH   5   6
ENDBRANCH   1   5
TORSDOF 3
ENDMDL
MODEL 8
REMARK VINA RESULT:    -3.073      2.541      3.787
REMARK INTER + INTRA:          -3.714
REMARK INTER:                  -3.615
REMARK INTRA:                  -0.099
REMARK UNBOUND:                -0.102
REMARK SMILES CCCCC(=O)[O-]
REMARK SMILES IDX 4 1 5 2 6 3 7 4 3 5 2 6 1 7
REMARK H PARENT
REMARK Flexibility Score: inf
ROOT
ATOM      1  C   UNL     1      20.771  18.089  47.903  1.00  0.00     0.053 C 
ENDROOT
BRANCH   1   2
ATOM      2  C   UNL     1      20.563  16.725  47.318  1.00  0.00     0.041 C 
ATOM      3  O   UNL     1      21.340  15.781  47.620  1.00  0.00    -0.550 OA
ATOM      4  O   UNL     1      19.493  16.490  46.465  1.00  0.00    -0.550 OA
ENDBRANCH   1   2
BRANCH   1   5
ATOM      5  C   UNL     1      21.113  19.124  46.824  1.00  0.00     0.006 C 
BRANCH   5   6
ATOM      6  C   UNL     1      19.933  20.058  46.520  1.00  0.00    -0.003 C 
ATOM      7  C   UNL     1      19.547  19.995  45.045  1.00  0.00     0.004 C 
ENDBRANCH   5   6
ENDBRANCH   1   5
TORSDOF 3
ENDMDL
MODEL 9
REMARK VINA RESULT:    -2.952      2.968      4.058
REMARK INTER + INTRA:          -3.571
REMARK INTER:                  -3.474
REMARK INTRA:                  -0.097
REMARK UNBOUND:                -0.102
REMARK SMILES CCCCC(=O)[O-]
REMARK SMILES IDX 4 1 5 2 6 3 7 4 3 5 2 6 1 7
REMARK H PARENT
REMARK Flexibility Score: inf
ROOT
ATOM      1  C   UNL     1      20.638  17.609  47.289  1.00  0.00     0.053 C 
ENDROOT
BRANCH   1   2
ATOM      2  C   UNL     1      21.455  16.971  48.370  1.00  0.00     0.041 C 
ATOM      3  O   UNL     1      22.442  16.246  48.075  1.00  0.00    -0.550 OA
ATOM      4  O   UNL     1      21.147  17.204  49.705  1.00  0.00    -0.550 OA
ENDBRANCH   1   2
BRANCH   1   5
ATOM      5  C   UNL     1      21.133  19.025  46.963  1.00  0.00     0.006 C 
BRANCH   5   6
ATOM      6  C   UNL     1      20.042  20.084  47.176  1.00  0.00    -0.003 C 
ATOM      7  C   UNL     1      19.840  20.376  48.661  1.00  0.00     0.004 C 
ENDBRANCH   5   6
ENDBRANCH   1   5
TORSDOF 3
ENDMDL
