MODEL 1
REMARK VINA RESULT:    -3.444      0.000      0.000
REMARK INTER + INTRA:          -4.148
REMARK INTER:                  -4.048
REMARK INTRA:                  -0.100
REMARK UNBOUND:                -0.100
REMARK SMILES CCCCC(=O)[O-]
REMARK SMILES IDX 4 1 5 2 6 3 7 4 3 5 2 6 1 7
REMARK H PARENT
REMARK Flexibility Score: inf
ROOT
ATOM      1  C   UNL     1      12.992  12.993 162.368  1.00  0.00     0.053 C 
ENDROOT
BRANCH   1   2
ATOM      2  C   UNL     1      11.713  13.057 163.142  1.00  0.00     0.041 C 
ATOM      3  O   UNL     1      10.614  12.843 162.568  1.00  0.00    -0.550 OA
ATOM      4  O   UNL     1      11.740  13.306 164.508  1.00  0.00    -0.550 OA
ENDBRANCH   1   2
BRANCH   1   5
ATOM      5  C   UNL     1      13.362  14.379 161.828  1.00  0.00     0.006 C 
BRANCH   5   6
ATOM      6  C   UNL     1      14.384  15.068 162.738  1.00  0.00    -0.003 C 
ATOM      7  C   UNL     1      15.434  14.079 163.237  1.00  0.00     0.004 C 
ENDBRANCH   5   6
ENDBRANCH   1   5
TORSDOF 3
ENDMDL
MODEL 2
REMARK VINA RESULT:    -3.424      2.328      3.322
REMARK INTER + INTRA:          -4.124
REMARK INTER:                  -4.033
REMARK INTRA:                  -0.092
REMARK UNBOUND:                -0.100
REMARK SMILES CCCCC(=O)[O-]
REMARK SMILES IDX 4 1 5 2 6 3 7 4 3 5 2 6 1 7
REMARK H PARENT
REMARK Flexibility Score: inf
ROOT
ATOM      1  C   UNL     1      13.610  13.342 162.615  1.00  0.00     0.053 C 
ENDROOT
BRANCH   1   2
ATOM      2  C   UNL     1      13.845  14.703 162.039  1.00  0.00     0.041 C 
ATOM      3  O   UNL     1      13.604  14.926 160.824  1.00  0.00    -0.550 OA
ATOM      4  O   UNL     1      14.284  15.737 162.855  1.00  0.00    -0.550 OA
ENDBRANCH   1   2
BRANCH   1   5
ATOM      5  C   UNL     1      12.323  12.734 162.047  1.00  0.00     0.006 C 
BRANCH   5   6
ATOM      6  C   UNL     1      11.119  13.069 162.934  1.00  0.00    -0.003 C 
ATOM      7  C   UNL     1      11.478  12.966 164.414  1.00  0.00     0.004 C 
ENDBRANCH   5   6
ENDBRANCH   1   5
TORSDOF 3
ENDMDL
MODEL 3
REMARK VINA RESULT:    -3.419      0.267      1.235
REMARK INTER + INTRA:          -4.119
REMARK INTER:                  -4.016
REMARK INTRA:                  -0.102
REMARK UNBOUND:                -0.100
REMARK SMILES CCCCC(=O)[O-]
REMARK SMILES IDX 4 1 5 2 6 3 7 4 3 5 2 6 1 7
REMARK H PARENT
REMARK Flexibility Score: inf
ROOT
ATOM      1  C   UNL     1      12.831  12.924 162.303  1.00  0.00     0.053 C 
ENDROOT
BRANCH   1   2
ATOM      2  C   UNL     1      11.568  13.017 163.100  1.00  0.00     0.041 C 
ATOM      3  O   UNL     1      11.613  13.044 164.357  1.00  0.00    -0.550 OA
ATOM      4  O   UNL     1      10.343  13.121 162.452  1.00  0.00    -0.550 OA
ENDBRANCH   1   2
BRANCH   1   5
ATOM      5  C   UNL     1      13.220  14.300 161.753  1.00  0.00     0.006 C 
BRANCH   5   6
ATOM      6  C   UNL     1      14.294  14.958 162.627  1.00  0.00    -0.003 C 
ATOM      7  C   UNL     1      15.172  13.910 163.304  1.00  0.00     0.004 C 
ENDBRANCH   5   6
ENDBRANCH   1   5
TORSDOF 3
ENDMDL
MODEL 4
REMARK VINA RESULT:    -3.416      1.759      2.981
REMARK INTER + INTRA:          -4.115
REMARK INTER:                  -4.003
REMARK INTRA:                  -0.112
REMARK UNBOUND:                -0.100
REMARK SMILES CCCCC(=O)[O-]
REMARK SMILES IDX 4 1 5 2 6 3 7 4 3 5 2 6 1 7
REMARK H PARENT
REMARK Flexibility Score: inf
ROOT
ATOM      1  C   UNL     1      12.950  13.680 163.329  1.00  0.00     0.053 C 
ENDROOT
BRANCH   1   2
ATOM      2  C   UNL     1      11.778  13.696 164.258  1.00  0.00     0.041 C 
ATOM      3  O   UNL     1      11.374  12.627 164.786  1.00  0.00    -0.550 OA
ATOM      4  O   UNL     1      11.160  14.898 164.578  1.00  0.00    -0.550 OA
ENDBRANCH   1   2
BRANCH   1   5
ATOM      5  C   UNL     1      12.673  12.765 162.132  1.00  0.00     0.006 C 
BRANCH   5   6
ATOM      6  C   UNL     1      11.388  13.183 161.407  1.00  0.00    -0.003 C 
ATOM      7  C   UNL     1      10.478  11.984 161.162  1.00  0.00     0.004 C 
ENDBRANCH   5   6
ENDBRANCH   1   5
TORSDOF 3
ENDMDL
MODEL 5
REMARK VINA RESULT:    -3.408      2.317      3.825
REMARK INTER + INTRA:          -4.105
REMARK INTER:                  -3.990
REMARK INTRA:                  -0.115
REMARK UNBOUND:                -0.100
REMARK SMILES CCCCC(=O)[O-]
REMARK SMILES IDX 4 1 5 2 6 3 7 4 3 5 2 6 1 7
REMARK H PARENT
REMARK Flexibility Score: inf
ROOT
ATOM      1  C   UNL     1      12.976  13.226 162.146  1.00  0.00     0.053 C 
ENDROOT
BRANCH   1   2
ATOM      2  C   UNL     1      13.113  14.616 161.609  1.00  0.00     0.041 C 
ATOM      3  O   UNL     1      13.101  15.602 162.392  1.00  0.00    -0.550 OA
ATOM      4  O   UNL     1      13.301  14.820 160.248  1.00  0.00    -0.550 OA
ENDBRANCH   1   2
BRANCH   1   5
ATOM      5  C   UNL     1      11.725  13.113 163.025  1.00  0.00     0.006 C 
BRANCH   5   6
ATOM      6  C   UNL     1      10.452  13.112 162.171  1.00  0.00    -0.003 C 
ATOM      7  C   UNL     1      10.455  11.954 161.178  1.00  0.00     0.004 C 
ENDBRANCH   5   6
ENDBRANCH   1   5
TORSDOF 3
ENDMDL
MODEL 6
REMARK VINA RESULT:    -3.399      2.293      3.612
REMARK INTER + INTRA:          -4.095
REMARK INTER:                  -3.978
REMARK INTRA:                  -0.117
REMARK UNBOUND:                -0.100
REMARK SMILES CCCCC(=O)[O-]
REMARK SMILES IDX 4 1 5 2 6 3 7 4 3 5 2 6 1 7
REMARK H PARENT
REMARK Flexibility Score: inf
ROOT
ATOM      1  C   UNL     1      13.014  13.073 162.168  1.00  0.00     0.053 C 
ENDROOT
BRANCH   1   2
ATOM      2  C   UNL     1      13.333  14.443 161.659  1.00  0.00     0.041 C 
ATOM      3  O   UNL     1      13.096  14.745 160.460  1.00  0.00    -0.550 OA
ATOM      4  O   UNL     1      13.848  15.403 162.521  1.00  0.00    -0.550 OA
ENDBRANCH   1   2
BRANCH   1   5
ATOM      5  C   UNL     1      11.802  13.117 163.103  1.00  0.00     0.006 C 
BRANCH   5   6
ATOM      6  C   UNL     1      10.492  13.126 162.306  1.00  0.00    -0.003 C 
ATOM      7  C   UNL     1      10.474  12.011 161.264  1.00  0.00     0.004 C 
ENDBRANCH   5   6
ENDBRANCH   1   5
TORSDOF 3
ENDMDL
MODEL 7
REMARK VINA RESULT:    -3.399      2.330      2.767
REMARK INTER + INTRA:          -4.094
REMARK INTER:                  -3.972
REMARK INTRA:                  -0.122
REMARK UNBOUND:                -0.100
REMARK SMILES CCCCC(=O)[O-]
REMARK SMILES IDX 4 1 5 2 6 3 7 4 3 5 2 6 1 7
REMARK H PARENT
REMARK Flexibility Score: inf
ROOT
ATOM      1  C   UNL     1      12.025  13.648 161.668  1.00  0.00     0.053 C 
ENDROOT
BRANCH   1   2
ATOM      2  C   UNL     1      12.492  14.910 161.013  1.00  0.00     0.041 C 
ATOM      3  O   UNL     1      11.973  16.014 161.322  1.00  0.00    -0.550 OA
ATOM      4  O   UNL     1      13.533  14.872 160.094  1.00  0.00    -0.550 OA
ENDBRANCH   1   2
BRANCH   1   5
ATOM      5  C   UNL     1      13.184  12.964 162.399  1.00  0.00     0.006 C 
BRANCH   5   6
ATOM      6  C   UNL     1      13.811  13.903 163.436  1.00  0.00    -0.003 C 
ATOM      7  C   UNL     1      15.326  13.975 163.270  1.00  0.00     0.004 C 
ENDBRANCH   5   6
ENDBRANCH   1   5
TORSDOF 3
ENDMDL
MODEL 8
REMARK VINA RESULT:    -3.315      1.877      2.477
REMARK INTER + INTRA:          -3.996
REMARK INTER:                  -3.937
REMARK INTRA:                  -0.059
REMARK UNBOUND:                -0.100
REMARK SMILES CCCCC(=O)[O-]
REMARK SMILES IDX 4 1 5 2 6 3 7 4 3 5 2 6 1 7
REMARK H PARENT
REMARK Flexibility Score: inf
ROOT
ATOM      1  C   UNL     1      13.764  14.498 163.082  1.00  0.00     0.053 C 
ENDROOT
BRANCH   1   2
ATOM      2  C   UNL     1      13.129  13.949 161.844  1.00  0.00     0.041 C 
ATOM      3  O   UNL     1      13.103  14.634 160.789  1.00  0.00    -0.550 OA
ATOM      4  O   UNL     1      12.608  12.661 161.842  1.00  0.00    -0.550 OA
ENDBRANCH   1   2
BRANCH   1   5
ATOM      5  C   UNL     1      15.134  13.851 163.314  1.00  0.00     0.006 C 
BRANCH   5   6
ATOM      6  C   UNL     1      16.231  14.599 162.548  1.00  0.00    -0.003 C 
ATOM      7  C   UNL     1      17.548  13.830 162.579  1.00  0.00     0.004 C 
ENDBRANCH   5   6
ENDBRANCH   1   5
TORSDOF 3
ENDMDL
MODEL 9
REMARK VINA RESULT:    -3.301      1.696      2.207
REMARK INTER + INTRA:          -3.980
REMARK INTER:                  -3.957
REMARK INTRA:                  -0.023
REMARK UNBOUND:                -0.100
REMARK SMILES CCCCC(=O)[O-]
REMARK SMILES IDX 4 1 5 2 6 3 7 4 3 5 2 6 1 7
REMARK H PARENT
REMARK Flexibility Score: inf
ROOT
ATOM      1  C   UNL     1      11.433  13.065 162.878  1.00  0.00     0.053 C 
ENDROOT
BRANCH   1   2
ATOM      2  C   UNL     1      10.282  12.995 161.924  1.00  0.00     0.041 C 
ATOM      3  O   UNL     1       9.451  13.939 161.864  1.00  0.00    -0.550 OA
ATOM      4  O   UNL     1      10.153  11.909 161.069  1.00  0.00    -0.550 OA
ENDBRANCH   1   2
BRANCH   1   5
ATOM      5  C   UNL     1      12.757  12.855 162.136  1.00  0.00     0.006 C 
BRANCH   5   6
ATOM      6  C   UNL     1      13.919  13.514 162.889  1.00  0.00    -0.003 C 
ATOM      7  C   UNL     1      14.154  14.940 162.402  1.00  0.00     0.004 C 
ENDBRANCH   5   6
ENDBRANCH   1   5
TORSDOF 3
ENDMDL
