MODEL 1
REMARK VINA RESULT:    -5.962      0.000      0.000
REMARK INTER + INTRA:          -7.546
REMARK INTER:                  -7.182
REMARK INTRA:                  -0.364
REMARK UNBOUND:                -0.364
REMARK SMILES CCCCc1oc(O)c2ccccc12
REMARK SMILES IDX 4 1 5 2 7 3 6 4 9 5 14 6 10 7 13 8 11 9 12 10 8 11 3 13 2 14
REMARK SMILES IDX 1 15
REMARK H PARENT 8 12
REMARK Flexibility Score: inf
ROOT
ATOM      1  C   UNL     1       3.441   1.731 -54.413  1.00  0.00     0.076 C 
ENDROOT
BRANCH   1   2
ATOM      2  C   UNL     1       4.157   2.550 -55.444  1.00  0.00     0.116 A 
ATOM      3  C   UNL     1       4.882   4.271 -56.497  1.00  0.00     0.290 A 
ATOM      4  O   UNL     1       4.197   3.871 -55.443  1.00  0.00    -0.430 OA
ATOM      5  C   UNL     1       5.303   3.180 -57.220  1.00  0.00     0.066 A 
ATOM      6  C   UNL     1       4.839   2.079 -56.552  1.00  0.00     0.027 A 
ATOM      7  C   UNL     1       6.039   3.074 -58.398  1.00  0.00     0.016 A 
ATOM      8  C   UNL     1       5.076   0.785 -57.018  1.00  0.00     0.012 A 
ATOM      9  C   UNL     1       6.298   1.782 -58.892  1.00  0.00     0.001 A 
ATOM     10  C   UNL     1       5.818   0.643 -58.206  1.00  0.00     0.001 A 
BRANCH   3  11
ATOM     11  O   UNL     1       5.128   5.601 -56.815  1.00  0.00    -0.480 OA
ATOM     12  H   UNL     1       5.926   5.853 -57.386  1.00  0.00     0.297 HD
ENDBRANCH   3  11
ENDBRANCH   1   2
BRANCH   1  13
ATOM     13  C   UNL     1       4.042   1.970 -53.026  1.00  0.00     0.008 C 
BRANCH  13  14
ATOM     14  C   UNL     1       5.458   1.392 -52.933  1.00  0.00    -0.003 C 
ATOM     15  C   UNL     1       5.860   1.147 -51.482  1.00  0.00     0.004 C 
ENDBRANCH  13  14
ENDBRANCH   1  13
TORSDOF 4
ENDMDL
MODEL 2
REMARK VINA RESULT:    -5.910      3.271      5.294
REMARK INTER + INTRA:          -7.483
REMARK INTER:                  -7.001
REMARK INTRA:                  -0.482
REMARK UNBOUND:                -0.364
REMARK SMILES CCCCc1oc(O)c2ccccc12
REMARK SMILES IDX 4 1 5 2 7 3 6 4 9 5 14 6 10 7 13 8 11 9 12 10 8 11 3 13 2 14
REMARK SMILES IDX 1 15
REMARK H PARENT 8 12
REMARK Flexibility Score: inf
ROOT
ATOM      1  C   UNL     1       4.504   1.538 -56.494  1.00  0.00     0.076 C 
ENDROOT
BRANCH   1   2
ATOM      2  C   UNL     1       4.110   0.107 -56.696  1.00  0.00     0.116 A 
ATOM      3  C   UNL     1       2.867  -1.631 -56.874  1.00  0.00     0.290 A 
ATOM      4  O   UNL     1       2.860  -0.323 -56.697  1.00  0.00    -0.430 OA
ATOM      5  C   UNL     1       4.161  -2.079 -56.987  1.00  0.00     0.066 A 
ATOM      6  C   UNL     1       4.959  -0.972 -56.871  1.00  0.00     0.027 A 
ATOM      7  C   UNL     1       4.689  -3.354 -57.173  1.00  0.00     0.016 A 
ATOM      8  C   UNL     1       6.350  -1.061 -56.930  1.00  0.00     0.012 A 
ATOM      9  C   UNL     1       6.090  -3.477 -57.239  1.00  0.00     0.001 A 
ATOM     10  C   UNL     1       6.916  -2.336 -57.117  1.00  0.00     0.001 A 
BRANCH   3  11
ATOM     11  O   UNL     1       1.725  -2.422 -56.929  1.00  0.00    -0.480 OA
ATOM     12  H   UNL     1       1.736  -3.304 -57.424  1.00  0.00     0.297 HD
ENDBRANCH   3  11
ENDBRANCH   1   2
BRANCH   1  13
ATOM     13  C   UNL     1       3.978   2.407 -57.639  1.00  0.00     0.008 C 
BRANCH  13  14
ATOM     14  C   UNL     1       4.797   2.187 -58.916  1.00  0.00    -0.003 C 
ATOM     15  C   UNL     1       6.227   2.693 -58.747  1.00  0.00     0.004 C 
ENDBRANCH  13  14
ENDBRANCH   1  13
TORSDOF 4
ENDMDL
MODEL 3
REMARK VINA RESULT:    -5.854      2.867      4.807
REMARK INTER + INTRA:          -7.416
REMARK INTER:                  -6.899
REMARK INTRA:                  -0.518
REMARK UNBOUND:                -0.364
REMARK SMILES CCCCc1oc(O)c2ccccc12
REMARK SMILES IDX 4 1 5 2 7 3 6 4 9 5 14 6 10 7 13 8 11 9 12 10 8 11 3 13 2 14
REMARK SMILES IDX 1 15
REMARK H PARENT 8 12
REMARK Flexibility Score: inf
ROOT
ATOM      1  C   UNL     1       5.166  -1.460 -57.428  1.00  0.00     0.076 C 
ENDROOT
BRANCH   1   2
ATOM      2  C   UNL     1       5.094  -0.372 -56.400  1.00  0.00     0.116 A 
ATOM      3  C   UNL     1       5.564   0.779 -54.653  1.00  0.00     0.290 A 
ATOM      4  O   UNL     1       5.919  -0.269 -55.373  1.00  0.00    -0.430 OA
ATOM      5  C   UNL     1       4.466   1.382 -55.220  1.00  0.00     0.066 A 
ATOM      6  C   UNL     1       4.161   0.649 -56.335  1.00  0.00     0.027 A 
ATOM      7  C   UNL     1       3.722   2.497 -54.842  1.00  0.00     0.016 A 
ATOM      8  C   UNL     1       3.082   0.976 -57.155  1.00  0.00     0.012 A 
ATOM      9  C   UNL     1       2.627   2.856 -55.651  1.00  0.00     0.001 A 
ATOM     10  C   UNL     1       2.309   2.098 -56.802  1.00  0.00     0.001 A 
BRANCH   3  11
ATOM     11  O   UNL     1       6.212   1.192 -53.495  1.00  0.00    -0.480 OA
ATOM     12  H   UNL     1       6.046   2.116 -53.117  1.00  0.00     0.297 HD
ENDBRANCH   3  11
ENDBRANCH   1   2
BRANCH   1  13
ATOM     13  C   UNL     1       4.309  -2.656 -57.005  1.00  0.00     0.008 C 
BRANCH  13  14
ATOM     14  C   UNL     1       3.096  -2.817 -57.928  1.00  0.00    -0.003 C 
ATOM     15  C   UNL     1       1.790  -2.661 -57.154  1.00  0.00     0.004 C 
ENDBRANCH  13  14
ENDBRANCH   1  13
TORSDOF 4
ENDMDL
MODEL 4
REMARK VINA RESULT:    -5.853      3.478      5.258
REMARK INTER + INTRA:          -7.415
REMARK INTER:                  -7.055
REMARK INTRA:                  -0.360
REMARK UNBOUND:                -0.364
REMARK SMILES CCCCc1oc(O)c2ccccc12
REMARK SMILES IDX 4 1 5 2 7 3 6 4 9 5 14 6 10 7 13 8 11 9 12 10 8 11 3 13 2 14
REMARK SMILES IDX 1 15
REMARK H PARENT 8 12
REMARK Flexibility Score: inf
ROOT
ATOM      1  C   UNL     1       3.247   1.036 -56.097  1.00  0.00     0.076 C 
ENDROOT
BRANCH   1   2
ATOM      2  C   UNL     1       4.196  -0.087 -56.385  1.00  0.00     0.116 A 
ATOM      3  C   UNL     1       6.042  -1.127 -56.714  1.00  0.00     0.290 A 
ATOM      4  O   UNL     1       5.511   0.040 -56.402  1.00  0.00    -0.430 OA
ATOM      5  C   UNL     1       5.046  -2.053 -56.914  1.00  0.00     0.066 A 
ATOM      6  C   UNL     1       3.865  -1.392 -56.708  1.00  0.00     0.027 A 
ATOM      7  C   UNL     1       5.088  -3.401 -57.263  1.00  0.00     0.016 A 
ATOM      8  C   UNL     1       2.633  -2.034 -56.840  1.00  0.00     0.012 A 
ATOM      9  C   UNL     1       3.861  -4.077 -57.401  1.00  0.00     0.001 A 
ATOM     10  C   UNL     1       2.640  -3.397 -57.191  1.00  0.00     0.001 A 
BRANCH   3  11
ATOM     11  O   UNL     1       7.407  -1.365 -56.823  1.00  0.00    -0.480 OA
ATOM     12  H   UNL     1       7.944  -0.935 -57.565  1.00  0.00     0.297 HD
ENDBRANCH   3  11
ENDBRANCH   1   2
BRANCH   1  13
ATOM     13  C   UNL     1       3.656   2.294 -56.867  1.00  0.00     0.008 C 
BRANCH  13  14
ATOM     14  C   UNL     1       3.717   2.020 -58.374  1.00  0.00    -0.003 C 
ATOM     15  C   UNL     1       5.091   2.364 -58.941  1.00  0.00     0.004 C 
ENDBRANCH  13  14
ENDBRANCH   1  13
TORSDOF 4
ENDMDL
MODEL 5
REMARK VINA RESULT:    -5.835      2.483      3.304
REMARK INTER + INTRA:          -7.393
REMARK INTER:                  -7.178
REMARK INTRA:                  -0.214
REMARK UNBOUND:                -0.364
REMARK SMILES CCCCc1oc(O)c2ccccc12
REMARK SMILES IDX 4 1 5 2 7 3 6 4 9 5 14 6 10 7 13 8 11 9 12 10 8 11 3 13 2 14
REMARK SMILES IDX 1 15
REMARK H PARENT 8 12
REMARK Flexibility Score: inf
ROOT
ATOM      1  C   UNL     1       4.670   1.974 -52.811  1.00  0.00     0.076 C 
ENDROOT
BRANCH   1   2
ATOM      2  C   UNL     1       4.858   1.364 -54.167  1.00  0.00     0.116 A 
ATOM      3  C   UNL     1       5.709   0.181 -55.740  1.00  0.00     0.290 A 
ATOM      4  O   UNL     1       5.809   0.495 -54.462  1.00  0.00    -0.430 OA
ATOM      5  C   UNL     1       4.662   0.869 -56.307  1.00  0.00     0.066 A 
ATOM      6  C   UNL     1       4.117   1.627 -55.306  1.00  0.00     0.027 A 
ATOM      7  C   UNL     1       4.160   0.889 -57.606  1.00  0.00     0.016 A 
ATOM      8  C   UNL     1       3.028   2.469 -55.534  1.00  0.00     0.012 A 
ATOM      9  C   UNL     1       3.059   1.726 -57.868  1.00  0.00     0.001 A 
ATOM     10  C   UNL     1       2.497   2.513 -56.836  1.00  0.00     0.001 A 
BRANCH   3  11
ATOM     11  O   UNL     1       6.548  -0.710 -56.398  1.00  0.00    -0.480 OA
ATOM     12  H   UNL     1       6.763  -1.610 -55.987  1.00  0.00     0.297 HD
ENDBRANCH   3  11
ENDBRANCH   1   2
BRANCH   1  13
ATOM     13  C   UNL     1       5.555   1.271 -51.779  1.00  0.00     0.008 C 
BRANCH  13  14
ATOM     14  C   UNL     1       6.589   2.239 -51.192  1.00  0.00    -0.003 C 
ATOM     15  C   UNL     1       5.936   3.222 -50.224  1.00  0.00     0.004 C 
ENDBRANCH  13  14
ENDBRANCH   1  13
TORSDOF 4
ENDMDL
MODEL 6
REMARK VINA RESULT:    -5.808      2.703      3.058
REMARK INTER + INTRA:          -7.360
REMARK INTER:                  -7.101
REMARK INTRA:                  -0.259
REMARK UNBOUND:                -0.364
REMARK SMILES CCCCc1oc(O)c2ccccc12
REMARK SMILES IDX 4 1 5 2 7 3 6 4 9 5 14 6 10 7 13 8 11 9 12 10 8 11 3 13 2 14
REMARK SMILES IDX 1 15
REMARK H PARENT 8 12
REMARK Flexibility Score: inf
ROOT
ATOM      1  C   UNL     1       5.972   1.549 -52.893  1.00  0.00     0.076 C 
ENDROOT
BRANCH   1   2
ATOM      2  C   UNL     1       4.838   1.577 -53.870  1.00  0.00     0.116 A 
ATOM      3  C   UNL     1       3.021   2.196 -54.827  1.00  0.00     0.290 A 
ATOM      4  O   UNL     1       3.866   2.473 -53.852  1.00  0.00    -0.430 OA
ATOM      5  C   UNL     1       3.445   1.078 -55.507  1.00  0.00     0.066 A 
ATOM      6  C   UNL     1       4.603   0.678 -54.897  1.00  0.00     0.027 A 
ATOM      7  C   UNL     1       2.905   0.392 -56.591  1.00  0.00     0.016 A 
ATOM      8  C   UNL     1       5.308  -0.446 -55.328  1.00  0.00     0.012 A 
ATOM      9  C   UNL     1       3.594  -0.746 -57.052  1.00  0.00     0.001 A 
ATOM     10  C   UNL     1       4.789  -1.163 -56.423  1.00  0.00     0.001 A 
BRANCH   3  11
ATOM     11  O   UNL     1       1.877   2.933 -55.107  1.00  0.00    -0.480 OA
ATOM     12  H   UNL     1       1.858   3.932 -54.945  1.00  0.00     0.297 HD
ENDBRANCH   3  11
ENDBRANCH   1   2
BRANCH   1  13
ATOM     13  C   UNL     1       5.513   0.966 -51.554  1.00  0.00     0.008 C 
BRANCH  13  14
ATOM     14  C   UNL     1       6.238   1.641 -50.384  1.00  0.00    -0.003 C 
ATOM     15  C   UNL     1       6.105   3.159 -50.455  1.00  0.00     0.004 C 
ENDBRANCH  13  14
ENDBRANCH   1  13
TORSDOF 4
ENDMDL
MODEL 7
REMARK VINA RESULT:    -5.740      2.381      4.029
REMARK INTER + INTRA:          -7.278
REMARK INTER:                  -6.751
REMARK INTRA:                  -0.528
REMARK UNBOUND:                -0.364
REMARK SMILES CCCCc1oc(O)c2ccccc12
REMARK SMILES IDX 4 1 5 2 7 3 6 4 9 5 14 6 10 7 13 8 11 9 12 10 8 11 3 13 2 14
REMARK SMILES IDX 1 15
REMARK H PARENT 8 12
REMARK Flexibility Score: inf
ROOT
ATOM      1  C   UNL     1       4.182  -1.122 -57.515  1.00  0.00     0.076 C 
ENDROOT
BRANCH   1   2
ATOM      2  C   UNL     1       3.996   0.114 -56.688  1.00  0.00     0.116 A 
ATOM      3  C   UNL     1       3.316   1.393 -55.107  1.00  0.00     0.290 A 
ATOM      4  O   UNL     1       3.302   0.155 -55.564  1.00  0.00    -0.430 OA
ATOM      5  C   UNL     1       4.036   2.195 -55.960  1.00  0.00     0.066 A 
ATOM      6  C   UNL     1       4.470   1.383 -56.972  1.00  0.00     0.027 A 
ATOM      7  C   UNL     1       4.332   3.556 -55.927  1.00  0.00     0.016 A 
ATOM      8  C   UNL     1       5.232   1.875 -58.033  1.00  0.00     0.012 A 
ATOM      9  C   UNL     1       5.101   4.083 -56.981  1.00  0.00     0.001 A 
ATOM     10  C   UNL     1       5.548   3.246 -58.029  1.00  0.00     0.001 A 
BRANCH   3  11
ATOM     11  O   UNL     1       2.686   1.806 -53.939  1.00  0.00    -0.480 OA
ATOM     12  H   UNL     1       1.701   2.039 -53.943  1.00  0.00     0.297 HD
ENDBRANCH   3  11
ENDBRANCH   1   2
BRANCH   1  13
ATOM     13  C   UNL     1       5.093  -2.118 -56.793  1.00  0.00     0.008 C 
BRANCH  13  14
ATOM     14  C   UNL     1       6.555  -1.660 -56.840  1.00  0.00    -0.003 C 
ATOM     15  C   UNL     1       7.010  -1.418 -58.276  1.00  0.00     0.004 C 
ENDBRANCH  13  14
ENDBRANCH   1  13
TORSDOF 4
ENDMDL
MODEL 8
REMARK VINA RESULT:    -5.687      1.960      3.333
REMARK INTER + INTRA:          -7.215
REMARK INTER:                  -6.841
REMARK INTRA:                  -0.374
REMARK UNBOUND:                -0.364
REMARK SMILES CCCCc1oc(O)c2ccccc12
REMARK SMILES IDX 4 1 5 2 7 3 6 4 9 5 14 6 10 7 13 8 11 9 12 10 8 11 3 13 2 14
REMARK SMILES IDX 1 15
REMARK H PARENT 8 12
REMARK Flexibility Score: inf
ROOT
ATOM      1  C   UNL     1       3.900  -0.650 -55.605  1.00  0.00     0.076 C 
ENDROOT
BRANCH   1   2
ATOM      2  C   UNL     1       4.124   0.819 -55.795  1.00  0.00     0.116 A 
ATOM      3  C   UNL     1       3.990   2.933 -55.465  1.00  0.00     0.290 A 
ATOM      4  O   UNL     1       3.626   1.752 -55.002  1.00  0.00    -0.430 OA
ATOM      5  C   UNL     1       4.747   2.775 -56.602  1.00  0.00     0.066 A 
ATOM      6  C   UNL     1       4.832   1.426 -56.818  1.00  0.00     0.027 A 
ATOM      7  C   UNL     1       5.350   3.699 -57.452  1.00  0.00     0.016 A 
ATOM      8  C   UNL     1       5.528   0.900 -57.907  1.00  0.00     0.012 A 
ATOM      9  C   UNL     1       6.062   3.200 -58.559  1.00  0.00     0.001 A 
ATOM     10  C   UNL     1       6.149   1.807 -58.785  1.00  0.00     0.001 A 
BRANCH   3  11
ATOM     11  O   UNL     1       3.646   4.146 -54.880  1.00  0.00    -0.480 OA
ATOM     12  H   UNL     1       3.550   4.979 -55.446  1.00  0.00     0.297 HD
ENDBRANCH   3  11
ENDBRANCH   1   2
BRANCH   1  13
ATOM     13  C   UNL     1       3.006  -1.205 -56.718  1.00  0.00     0.008 C 
BRANCH  13  14
ATOM     14  C   UNL     1       3.370  -2.658 -57.041  1.00  0.00    -0.003 C 
ATOM     15  C   UNL     1       4.622  -2.733 -57.910  1.00  0.00     0.004 C 
ENDBRANCH  13  14
ENDBRANCH   1  13
TORSDOF 4
ENDMDL
MODEL 9
REMARK VINA RESULT:    -5.646      2.412      4.421
REMARK INTER + INTRA:          -7.166
REMARK INTER:                  -6.637
REMARK INTRA:                  -0.529
REMARK UNBOUND:                -0.364
REMARK SMILES CCCCc1oc(O)c2ccccc12
REMARK SMILES IDX 4 1 5 2 7 3 6 4 9 5 14 6 10 7 13 8 11 9 12 10 8 11 3 13 2 14
REMARK SMILES IDX 1 15
REMARK H PARENT 8 12
REMARK Flexibility Score: inf
ROOT
ATOM      1  C   UNL     1       3.559  -1.904 -56.644  1.00  0.00     0.076 C 
ENDROOT
BRANCH   1   2
ATOM      2  C   UNL     1       3.564  -0.413 -56.496  1.00  0.00     0.116 A 
ATOM      3  C   UNL     1       3.271   1.657 -56.973  1.00  0.00     0.290 A 
ATOM      4  O   UNL     1       3.090   0.422 -57.403  1.00  0.00    -0.430 OA
ATOM      5  C   UNL     1       3.890   1.635 -55.745  1.00  0.00     0.066 A 
ATOM      6  C   UNL     1       4.080   0.315 -55.438  1.00  0.00     0.027 A 
ATOM      7  C   UNL     1       4.298   2.659 -54.893  1.00  0.00     0.016 A 
ATOM      8  C   UNL     1       4.700  -0.080 -54.252  1.00  0.00     0.012 A 
ATOM      9  C   UNL     1       4.924   2.293 -53.687  1.00  0.00     0.001 A 
ATOM     10  C   UNL     1       5.124   0.931 -53.368  1.00  0.00     0.001 A 
BRANCH   3  11
ATOM     11  O   UNL     1       2.892   2.796 -57.672  1.00  0.00    -0.480 OA
ATOM     12  H   UNL     1       1.914   2.982 -57.857  1.00  0.00     0.297 HD
ENDBRANCH   3  11
ENDBRANCH   1   2
BRANCH   1  13
ATOM     13  C   UNL     1       4.624  -2.346 -57.651  1.00  0.00     0.008 C 
BRANCH  13  14
ATOM     14  C   UNL     1       5.974  -2.570 -56.961  1.00  0.00    -0.003 C 
ATOM     15  C   UNL     1       7.003  -1.538 -57.415  1.00  0.00     0.004 C 
ENDBRANCH  13  14
ENDBRANCH   1  13
TORSDOF 4
ENDMDL
