MODEL 1
REMARK VINA RESULT:    -3.412      0.000      0.000
REMARK INTER + INTRA:          -4.122
REMARK INTER:                  -4.011
REMARK INTRA:                  -0.111
REMARK UNBOUND:                -0.111
REMARK SMILES CCCCC(=O)[O-]
REMARK SMILES IDX 4 1 5 2 6 3 7 4 3 5 2 6 1 7
REMARK H PARENT
REMARK Flexibility Score: inf
ROOT
ATOM      1  C   UNL     1      11.256  39.894   1.638  1.00  0.00     0.053 C 
ENDROOT
BRANCH   1   2
ATOM      2  C   UNL     1      11.756  39.227   2.880  1.00  0.00     0.041 C 
ATOM      3  O   UNL     1      11.241  39.499   3.996  1.00  0.00    -0.550 OA
ATOM      4  O   UNL     1      12.824  38.341   2.812  1.00  0.00    -0.550 OA
ENDBRANCH   1   2
BRANCH   1   5
ATOM      5  C   UNL     1      10.736  38.849   0.642  1.00  0.00     0.006 C 
BRANCH   5   6
ATOM      6  C   UNL     1       9.534  38.063   1.186  1.00  0.00    -0.003 C 
ATOM      7  C   UNL     1       9.545  36.595   0.758  1.00  0.00     0.004 C 
ENDBRANCH   5   6
ENDBRANCH   1   5
TORSDOF 3
ENDMDL
MODEL 2
REMARK VINA RESULT:    -3.357      2.423      3.565
REMARK INTER + INTRA:          -4.056
REMARK INTER:                  -4.010
REMARK INTRA:                  -0.046
REMARK UNBOUND:                -0.111
REMARK SMILES CCCCC(=O)[O-]
REMARK SMILES IDX 4 1 5 2 6 3 7 4 3 5 2 6 1 7
REMARK H PARENT
REMARK Flexibility Score: inf
ROOT
ATOM      1  C   UNL     1      10.965  38.225   1.332  1.00  0.00     0.053 C 
ENDROOT
BRANCH   1   2
ATOM      2  C   UNL     1       9.654  37.633   0.920  1.00  0.00     0.041 C 
ATOM      3  O   UNL     1       8.606  38.330   0.955  1.00  0.00    -0.550 OA
ATOM      4  O   UNL     1       9.581  36.298   0.546  1.00  0.00    -0.550 OA
ENDBRANCH   1   2
BRANCH   1   5
ATOM      5  C   UNL     1      11.005  39.722   0.995  1.00  0.00     0.006 C 
BRANCH   5   6
ATOM      6  C   UNL     1      12.001  40.497   1.871  1.00  0.00    -0.003 C 
ATOM      7  C   UNL     1      11.996  40.028   3.327  1.00  0.00     0.004 C 
ENDBRANCH   5   6
ENDBRANCH   1   5
TORSDOF 3
ENDMDL
MODEL 3
REMARK VINA RESULT:    -3.318      2.594      3.499
REMARK INTER + INTRA:          -4.010
REMARK INTER:                  -3.926
REMARK INTRA:                  -0.084
REMARK UNBOUND:                -0.111
REMARK SMILES CCCCC(=O)[O-]
REMARK SMILES IDX 4 1 5 2 6 3 7 4 3 5 2 6 1 7
REMARK H PARENT
REMARK Flexibility Score: inf
ROOT
ATOM      1  C   UNL     1      11.094  38.389   1.395  1.00  0.00     0.053 C 
ENDROOT
BRANCH   1   2
ATOM      2  C   UNL     1       9.795  37.776   0.973  1.00  0.00     0.041 C 
ATOM      3  O   UNL     1       8.748  38.474   0.941  1.00  0.00    -0.550 OA
ATOM      4  O   UNL     1       9.732  36.424   0.662  1.00  0.00    -0.550 OA
ENDBRANCH   1   2
BRANCH   1   5
ATOM      5  C   UNL     1      11.009  39.919   1.332  1.00  0.00     0.006 C 
BRANCH   5   6
ATOM      6  C   UNL     1      11.407  40.475  -0.044  1.00  0.00    -0.003 C 
ATOM      7  C   UNL     1      10.419  41.517  -0.569  1.00  0.00     0.004 C 
ENDBRANCH   5   6
ENDBRANCH   1   5
TORSDOF 3
ENDMDL
MODEL 4
REMARK VINA RESULT:    -3.273      2.648      3.095
REMARK INTER + INTRA:          -3.958
REMARK INTER:                  -3.854
REMARK INTRA:                  -0.104
REMARK UNBOUND:                -0.111
REMARK SMILES CCCCC(=O)[O-]
REMARK SMILES IDX 4 1 5 2 6 3 7 4 3 5 2 6 1 7
REMARK H PARENT
REMARK Flexibility Score: inf
ROOT
ATOM      1  C   UNL     1      11.368  40.307   1.337  1.00  0.00     0.053 C 
ENDROOT
BRANCH   1   2
ATOM      2  C   UNL     1      10.988  40.639  -0.072  1.00  0.00     0.041 C 
ATOM      3  O   UNL     1      11.682  40.212  -1.032  1.00  0.00    -0.550 OA
ATOM      4  O   UNL     1       9.898  41.461  -0.323  1.00  0.00    -0.550 OA
ENDBRANCH   1   2
BRANCH   1   5
ATOM      5  C   UNL     1      11.177  38.808   1.602  1.00  0.00     0.006 C 
BRANCH   5   6
ATOM      6  C   UNL     1       9.754  38.328   1.277  1.00  0.00    -0.003 C 
ATOM      7  C   UNL     1       9.724  36.901   0.727  1.00  0.00     0.004 C 
ENDBRANCH   5   6
ENDBRANCH   1   5
TORSDOF 3
ENDMDL
MODEL 5
REMARK VINA RESULT:    -3.067      2.139      3.525
REMARK INTER + INTRA:          -3.715
REMARK INTER:                  -3.630
REMARK INTRA:                  -0.085
REMARK UNBOUND:                -0.111
REMARK SMILES CCCCC(=O)[O-]
REMARK SMILES IDX 4 1 5 2 6 3 7 4 3 5 2 6 1 7
REMARK H PARENT
REMARK Flexibility Score: inf
ROOT
ATOM      1  C   UNL     1      11.474  39.363   1.678  1.00  0.00     0.053 C 
ENDROOT
BRANCH   1   2
ATOM      2  C   UNL     1      10.369  38.508   1.144  1.00  0.00     0.041 C 
ATOM      3  O   UNL     1      10.535  37.267   1.013  1.00  0.00    -0.550 OA
ATOM      4  O   UNL     1       9.172  39.089   0.743  1.00  0.00    -0.550 OA
ENDBRANCH   1   2
BRANCH   1   5
ATOM      5  C   UNL     1      11.349  39.509   3.201  1.00  0.00     0.006 C 
BRANCH   5   6
ATOM      6  C   UNL     1      12.622  39.069   3.941  1.00  0.00    -0.003 C 
ATOM      7  C   UNL     1      13.459  38.073   3.137  1.00  0.00     0.004 C 
ENDBRANCH   5   6
ENDBRANCH   1   5
TORSDOF 3
ENDMDL
MODEL 6
REMARK VINA RESULT:    -3.028      2.587      3.608
REMARK INTER + INTRA:          -3.670
REMARK INTER:                  -3.631
REMARK INTRA:                  -0.039
REMARK UNBOUND:                -0.111
REMARK SMILES CCCCC(=O)[O-]
REMARK SMILES IDX 4 1 5 2 6 3 7 4 3 5 2 6 1 7
REMARK H PARENT
REMARK Flexibility Score: inf
ROOT
ATOM      1  C   UNL     1       9.786  39.644   0.703  1.00  0.00     0.053 C 
ENDROOT
BRANCH   1   2
ATOM      2  C   UNL     1       9.864  38.216   1.144  1.00  0.00     0.041 C 
ATOM      3  O   UNL     1      10.978  37.632   1.205  1.00  0.00    -0.550 OA
ATOM      4  O   UNL     1       8.703  37.515   1.439  1.00  0.00    -0.550 OA
ENDBRANCH   1   2
BRANCH   1   5
ATOM      5  C   UNL     1      11.168  40.143   0.260  1.00  0.00     0.006 C 
BRANCH   5   6
ATOM      6  C   UNL     1      11.090  41.428  -0.578  1.00  0.00    -0.003 C 
ATOM      7  C   UNL     1       9.655  41.910  -0.788  1.00  0.00     0.004 C 
ENDBRANCH   5   6
ENDBRANCH   1   5
TORSDOF 3
ENDMDL
MODEL 7
REMARK VINA RESULT:    -3.015     10.275     10.871
REMARK INTER + INTRA:          -3.654
REMARK INTER:                  -3.542
REMARK INTRA:                  -0.112
REMARK UNBOUND:                -0.111
REMARK SMILES CCCCC(=O)[O-]
REMARK SMILES IDX 4 1 5 2 6 3 7 4 3 5 2 6 1 7
REMARK H PARENT
REMARK Flexibility Score: inf
ROOT
ATOM      1  C   UNL     1       6.054  39.321  -7.149  1.00  0.00     0.053 C 
ENDROOT
BRANCH   1   2
ATOM      2  C   UNL     1       4.684  39.751  -7.567  1.00  0.00     0.041 C 
ATOM      3  O   UNL     1       4.319  40.946  -7.409  1.00  0.00    -0.550 OA
ATOM      4  O   UNL     1       3.791  38.822  -8.085  1.00  0.00    -0.550 OA
ENDBRANCH   1   2
BRANCH   1   5
ATOM      5  C   UNL     1       5.981  38.026  -6.328  1.00  0.00     0.006 C 
BRANCH   5   6
ATOM      6  C   UNL     1       5.298  38.229  -4.967  1.00  0.00    -0.003 C 
ATOM      7  C   UNL     1       4.417  37.045  -4.566  1.00  0.00     0.004 C 
ENDBRANCH   5   6
ENDBRANCH   1   5
TORSDOF 3
ENDMDL
MODEL 8
REMARK VINA RESULT:    -2.919      8.573      9.426
REMARK INTER + INTRA:          -3.542
REMARK INTER:                  -3.496
REMARK INTRA:                  -0.045
REMARK UNBOUND:                -0.111
REMARK SMILES CCCCC(=O)[O-]
REMARK SMILES IDX 4 1 5 2 6 3 7 4 3 5 2 6 1 7
REMARK H PARENT
REMARK Flexibility Score: inf
ROOT
ATOM      1  C   UNL     1      11.790  32.565   7.972  1.00  0.00     0.053 C 
ENDROOT
BRANCH   1   2
ATOM      2  C   UNL     1      10.892  33.751   7.811  1.00  0.00     0.041 C 
ATOM      3  O   UNL     1      11.279  34.893   8.175  1.00  0.00    -0.550 OA
ATOM      4  O   UNL     1       9.609  33.589   7.304  1.00  0.00    -0.550 OA
ENDBRANCH   1   2
BRANCH   1   5
ATOM      5  C   UNL     1      12.386  32.535   9.386  1.00  0.00     0.006 C 
BRANCH   5   6
ATOM      6  C   UNL     1      13.922  32.498   9.377  1.00  0.00    -0.003 C 
ATOM      7  C   UNL     1      14.504  31.829  10.622  1.00  0.00     0.004 C 
ENDBRANCH   5   6
ENDBRANCH   1   5
TORSDOF 3
ENDMDL
MODEL 9
REMARK VINA RESULT:    -2.894      9.273      9.988
REMARK INTER + INTRA:          -3.512
REMARK INTER:                  -3.469
REMARK INTRA:                  -0.043
REMARK UNBOUND:                -0.111
REMARK SMILES CCCCC(=O)[O-]
REMARK SMILES IDX 4 1 5 2 6 3 7 4 3 5 2 6 1 7
REMARK H PARENT
REMARK Flexibility Score: inf
ROOT
ATOM      1  C   UNL     1       5.216  38.228  -4.942  1.00  0.00     0.053 C 
ENDROOT
BRANCH   1   2
ATOM      2  C   UNL     1       4.577  36.932  -4.550  1.00  0.00     0.041 C 
ATOM      3  O   UNL     1       3.339  36.879  -4.326  1.00  0.00    -0.550 OA
ATOM      4  O   UNL     1       5.356  35.795  -4.383  1.00  0.00    -0.550 OA
ENDBRANCH   1   2
BRANCH   1   5
ATOM      5  C   UNL     1       6.010  38.059  -6.243  1.00  0.00     0.006 C 
BRANCH   5   6
ATOM      6  C   UNL     1       5.989  39.325  -7.115  1.00  0.00    -0.003 C 
ATOM      7  C   UNL     1       4.628  40.021  -7.112  1.00  0.00     0.004 C 
ENDBRANCH   5   6
ENDBRANCH   1   5
TORSDOF 3
ENDMDL
