MODEL 1
REMARK VINA RESULT:    -4.649      0.000      0.000
REMARK INTER + INTRA:          -5.056
REMARK INTER:                  -5.056
REMARK INTRA:                   0.000
REMARK UNBOUND:                 0.000
REMARK SMILES Cc1cc(O)c2c(c1)C(=O)c1cc(O)cc(O)c1C2=O
REMARK SMILES IDX 1 1 2 2 8 3 7 4 6 5 4 6 3 7 19 8 20 9 18 10 11 11 9 12 10 13
REMARK SMILES IDX 12 14 13 15 15 16 16 17 5 18 17 20 14 22
REMARK H PARENT 5 19 17 21 14 23
REMARK Flexibility Score: inf
ROOT
ATOM      1  C   UNL     1     -17.979 -23.111   9.124  1.00  0.00     0.044 C 
ATOM      2  C   UNL     1     -17.535 -22.637   7.772  1.00  0.00    -0.047 A 
ATOM      3  C   UNL     1     -17.633 -23.485   6.662  1.00  0.00     0.016 A 
ATOM      4  C   UNL     1     -17.261 -23.036   5.384  1.00  0.00     0.038 A 
ATOM      5  C   UNL     1     -16.810 -21.709   5.207  1.00  0.00     0.076 A 
ATOM      6  C   UNL     1     -16.671 -20.869   6.342  1.00  0.00     0.127 A 
ATOM      7  C   UNL     1     -17.065 -21.331   7.601  1.00  0.00     0.050 A 
ATOM      8  C   UNL     1     -16.568 -21.228   3.822  1.00  0.00     0.201 C 
ATOM      9  O   UNL     1     -16.733 -20.010   3.543  1.00  0.00    -0.288 OA
ATOM     10  C   UNL     1     -16.320 -22.209   2.733  1.00  0.00     0.076 A 
ATOM     11  C   UNL     1     -16.773 -23.535   2.914  1.00  0.00     0.041 A 
ATOM     12  C   UNL     1     -17.338 -23.951   4.220  1.00  0.00     0.194 C 
ATOM     13  O   UNL     1     -17.860 -25.093   4.346  1.00  0.00    -0.289 OA
ATOM     14  C   UNL     1     -16.681 -24.455   1.855  1.00  0.00     0.059 A 
ATOM     15  C   UNL     1     -16.131 -24.073   0.629  1.00  0.00     0.120 A 
ATOM     16  C   UNL     1     -15.646 -22.776   0.461  1.00  0.00     0.093 A 
ATOM     17  C   UNL     1     -15.708 -21.847   1.504  1.00  0.00     0.131 A 
ENDROOT
BRANCH   6  18
ATOM     18  O   UNL     1     -16.118 -19.589   6.271  1.00  0.00    -0.507 OA
ATOM     19  H   UNL     1     -16.510 -18.840   5.716  1.00  0.00     0.293 HD
ENDBRANCH   6  18
BRANCH  17  20
ATOM     20  O   UNL     1     -15.120 -20.598   1.291  1.00  0.00    -0.507 OA
ATOM     21  H   UNL     1     -15.443 -19.747   1.729  1.00  0.00     0.293 HD
ENDBRANCH  17  20
BRANCH  15  22
ATOM     22  O   UNL     1     -16.050 -24.979  -0.426  1.00  0.00    -0.508 OA
ATOM     23  H   UNL     1     -15.799 -24.684  -1.362  1.00  0.00     0.293 HD
ENDBRANCH  15  22
TORSDOF 3
ENDMDL
