MODEL 1
REMARK VINA RESULT:    -7.497      0.000      0.000
REMARK INTER + INTRA:          -9.597
REMARK INTER:                  -9.250
REMARK INTRA:                  -0.347
REMARK UNBOUND:                -0.347
REMARK SMILES COc1cc(-c2oc3cc(O)cc(O)c3c(=O)c2O)ccc1O
REMARK SMILES IDX 6 1 18 2 16 3 17 4 15 5 13 6 12 7 10 8 9 9 8 10 7 11 5 12
REMARK SMILES IDX 3 13 22 14 4 15 21 16 20 17 2 18 1 19 23 20 19 22 14 24
REMARK SMILES IDX 11 26
REMARK H PARENT 23 21 19 23 14 25 11 27
REMARK Flexibility Score: inf
ROOT
ATOM      1  C   UNL     1      -2.150  -0.067  10.992  1.00  0.00     0.180 A 
ATOM      2  C   UNL     1      -2.235   1.082  11.801  1.00  0.00     0.208 A 
ATOM      3  C   UNL     1      -2.094   2.345  11.204  1.00  0.00     0.238 A 
ATOM      4  O   UNL     1      -2.157   3.381  11.920  1.00  0.00    -0.285 OA
ATOM      5  C   UNL     1      -1.891   2.438   9.811  1.00  0.00     0.111 A 
ATOM      6  C   UNL     1      -1.743   3.672   9.131  1.00  0.00     0.134 A 
ATOM      7  C   UNL     1      -1.554   3.680   7.741  1.00  0.00     0.093 A 
ATOM      8  C   UNL     1      -1.510   2.486   7.019  1.00  0.00     0.123 A 
ATOM      9  C   UNL     1      -1.656   1.264   7.687  1.00  0.00     0.094 A 
ATOM     10  C   UNL     1      -1.843   1.233   9.072  1.00  0.00     0.146 A 
ATOM     11  O   UNL     1      -1.973   0.060   9.679  1.00  0.00    -0.452 OA
ENDROOT
BRANCH   1  12
ATOM     12  C   UNL     1      -2.270  -1.433  11.551  1.00  0.00     0.025 A 
ATOM     13  C   UNL     1      -3.615  -3.262  12.462  1.00  0.00     0.161 A 
ATOM     14  C   UNL     1      -2.442  -4.012  12.661  1.00  0.00     0.157 A 
ATOM     15  C   UNL     1      -3.519  -1.967  11.912  1.00  0.00     0.062 A 
ATOM     16  C   UNL     1      -1.199  -3.470  12.324  1.00  0.00     0.051 A 
ATOM     17  C   UNL     1      -1.111  -2.188  11.779  1.00  0.00     0.016 A 
BRANCH  13  18
ATOM     18  O   UNL     1      -4.849  -3.827  12.822  1.00  0.00    -0.493 OA
ATOM     19  C   UNL     1      -5.633  -3.414  13.937  1.00  0.00     0.278 C 
ENDBRANCH  13  18
BRANCH  14  20
ATOM     20  O   UNL     1      -2.491  -5.298  13.200  1.00  0.00    -0.504 OA
ATOM     21  H   UNL     1      -2.191  -6.113  12.680  1.00  0.00     0.293 HD
ENDBRANCH  14  20
ENDBRANCH   1  12
BRANCH   2  22
ATOM     22  O   UNL     1      -2.486   0.964  13.171  1.00  0.00    -0.502 OA
ATOM     23  H   UNL     1      -1.767   0.702  13.834  1.00  0.00     0.293 HD
ENDBRANCH   2  22
BRANCH   6  24
ATOM     24  O   UNL     1      -1.783   4.882   9.823  1.00  0.00    -0.507 OA
ATOM     25  H   UNL     1      -2.507   5.570   9.652  1.00  0.00     0.293 HD
ENDBRANCH   6  24
BRANCH   8  26
ATOM     26  O   UNL     1      -1.322   2.522   5.640  1.00  0.00    -0.508 OA
ATOM     27  H   UNL     1      -0.536   2.060   5.199  1.00  0.00     0.293 HD
ENDBRANCH   8  26
TORSDOF 6
ENDMDL
MODEL 2
REMARK VINA RESULT:    -7.440      2.708      3.790
REMARK INTER + INTRA:          -9.527
REMARK INTER:                  -9.165
REMARK INTRA:                  -0.361
REMARK UNBOUND:                -0.347
REMARK SMILES COc1cc(-c2oc3cc(O)cc(O)c3c(=O)c2O)ccc1O
REMARK SMILES IDX 6 1 18 2 16 3 17 4 15 5 13 6 12 7 10 8 9 9 8 10 7 11 5 12
REMARK SMILES IDX 3 13 22 14 4 15 21 16 20 17 2 18 1 19 23 20 19 22 14 24
REMARK SMILES IDX 11 26
REMARK H PARENT 23 21 19 23 14 25 11 27
REMARK Flexibility Score: inf
ROOT
ATOM      1  C   UNL     1      -3.413  -1.187   9.250  1.00  0.00     0.180 A 
ATOM      2  C   UNL     1      -2.166  -1.840   9.203  1.00  0.00     0.208 A 
ATOM      3  C   UNL     1      -1.066  -1.163   8.651  1.00  0.00     0.238 A 
ATOM      4  O   UNL     1       0.053  -1.741   8.594  1.00  0.00    -0.285 OA
ATOM      5  C   UNL     1      -1.226   0.155   8.177  1.00  0.00     0.111 A 
ATOM      6  C   UNL     1      -0.168   0.907   7.611  1.00  0.00     0.134 A 
ATOM      7  C   UNL     1      -0.405   2.218   7.170  1.00  0.00     0.093 A 
ATOM      8  C   UNL     1      -1.675   2.790   7.283  1.00  0.00     0.123 A 
ATOM      9  C   UNL     1      -2.723   2.051   7.842  1.00  0.00     0.094 A 
ATOM     10  C   UNL     1      -2.508   0.742   8.286  1.00  0.00     0.146 A 
ATOM     11  O   UNL     1      -3.522   0.062   8.807  1.00  0.00    -0.452 OA
ENDROOT
BRANCH   1  12
ATOM     12  C   UNL     1      -4.622  -1.841   9.799  1.00  0.00     0.025 A 
ATOM     13  C   UNL     1      -5.977  -2.590  11.694  1.00  0.00     0.161 A 
ATOM     14  C   UNL     1      -6.908  -3.143  10.797  1.00  0.00     0.157 A 
ATOM     15  C   UNL     1      -4.830  -1.946  11.187  1.00  0.00     0.062 A 
ATOM     16  C   UNL     1      -6.688  -3.059   9.419  1.00  0.00     0.051 A 
ATOM     17  C   UNL     1      -5.551  -2.420   8.923  1.00  0.00     0.016 A 
BRANCH  13  18
ATOM     18  O   UNL     1      -6.218  -2.700  13.074  1.00  0.00    -0.493 OA
ATOM     19  C   UNL     1      -5.566  -3.626  13.937  1.00  0.00     0.278 C 
ENDBRANCH  13  18
BRANCH  14  20
ATOM     20  O   UNL     1      -8.058  -3.785  11.257  1.00  0.00    -0.504 OA
ATOM     21  H   UNL     1      -8.582  -4.433  10.681  1.00  0.00     0.293 HD
ENDBRANCH  14  20
ENDBRANCH   1  12
BRANCH   2  22
ATOM     22  O   UNL     1      -2.023  -3.128   9.725  1.00  0.00    -0.502 OA
ATOM     23  H   UNL     1      -2.757  -3.823   9.664  1.00  0.00     0.293 HD
ENDBRANCH   2  22
BRANCH   6  24
ATOM     24  O   UNL     1       1.111   0.366   7.483  1.00  0.00    -0.507 OA
ATOM     25  H   UNL     1       1.382  -0.482   7.968  1.00  0.00     0.293 HD
ENDBRANCH   6  24
BRANCH   8  26
ATOM     26  O   UNL     1      -1.884   4.093   6.839  1.00  0.00    -0.508 OA
ATOM     27  H   UNL     1      -1.993   4.307   5.855  1.00  0.00     0.293 HD
ENDBRANCH   8  26
TORSDOF 6
ENDMDL
MODEL 3
REMARK VINA RESULT:    -7.380      2.645      3.741
REMARK INTER + INTRA:          -9.453
REMARK INTER:                  -9.113
REMARK INTRA:                  -0.339
REMARK UNBOUND:                -0.347
REMARK SMILES COc1cc(-c2oc3cc(O)cc(O)c3c(=O)c2O)ccc1O
REMARK SMILES IDX 6 1 18 2 16 3 17 4 15 5 13 6 12 7 10 8 9 9 8 10 7 11 5 12
REMARK SMILES IDX 3 13 22 14 4 15 21 16 20 17 2 18 1 19 23 20 19 22 14 24
REMARK SMILES IDX 11 26
REMARK H PARENT 23 21 19 23 14 25 11 27
REMARK Flexibility Score: inf
ROOT
ATOM      1  C   UNL     1      -4.233   0.773  10.508  1.00  0.00     0.180 A 
ATOM      2  C   UNL     1      -5.200   0.572   9.504  1.00  0.00     0.208 A 
ATOM      3  C   UNL     1      -4.909   0.977   8.192  1.00  0.00     0.238 A 
ATOM      4  O   UNL     1      -5.771   0.811   7.286  1.00  0.00    -0.285 OA
ATOM      5  C   UNL     1      -3.656   1.555   7.903  1.00  0.00     0.111 A 
ATOM      6  C   UNL     1      -3.284   1.987   6.606  1.00  0.00     0.134 A 
ATOM      7  C   UNL     1      -2.013   2.545   6.398  1.00  0.00     0.093 A 
ATOM      8  C   UNL     1      -1.111   2.680   7.455  1.00  0.00     0.123 A 
ATOM      9  C   UNL     1      -1.474   2.254   8.738  1.00  0.00     0.094 A 
ATOM     10  C   UNL     1      -2.736   1.698   8.967  1.00  0.00     0.146 A 
ATOM     11  O   UNL     1      -3.056   1.308  10.195  1.00  0.00    -0.452 OA
ENDROOT
BRANCH   1  12
ATOM     12  C   UNL     1      -4.473   0.389  11.918  1.00  0.00     0.025 A 
ATOM     13  C   UNL     1      -4.678  -1.307  13.670  1.00  0.00     0.161 A 
ATOM     14  C   UNL     1      -4.990  -0.297  14.597  1.00  0.00     0.157 A 
ATOM     15  C   UNL     1      -4.428  -0.956  12.327  1.00  0.00     0.062 A 
ATOM     16  C   UNL     1      -5.058   1.037  14.184  1.00  0.00     0.051 A 
ATOM     17  C   UNL     1      -4.808   1.378  12.854  1.00  0.00     0.016 A 
BRANCH  13  18
ATOM     18  O   UNL     1      -4.629  -2.640  14.111  1.00  0.00    -0.493 OA
ATOM     19  C   UNL     1      -5.630  -3.617  13.845  1.00  0.00     0.278 C 
ENDBRANCH  13  18
BRANCH  14  20
ATOM     20  O   UNL     1      -5.242  -0.600  15.935  1.00  0.00    -0.504 OA
ATOM     21  H   UNL     1      -6.135  -0.958  16.250  1.00  0.00     0.293 HD
ENDBRANCH  14  20
ENDBRANCH   1  12
BRANCH   2  22
ATOM     22  O   UNL     1      -6.414  -0.050   9.807  1.00  0.00    -0.502 OA
ATOM     23  H   UNL     1      -6.468  -1.013  10.118  1.00  0.00     0.293 HD
ENDBRANCH   2  22
BRANCH   6  24
ATOM     24  O   UNL     1      -4.161   1.866   5.529  1.00  0.00    -0.507 OA
ATOM     25  H   UNL     1      -5.142   2.108   5.610  1.00  0.00     0.293 HD
ENDBRANCH   6  24
BRANCH   8  26
ATOM     26  O   UNL     1       0.144   3.236   7.222  1.00  0.00    -0.508 OA
ATOM     27  H   UNL     1       0.315   3.846   6.431  1.00  0.00     0.293 HD
ENDBRANCH   8  26
TORSDOF 6
ENDMDL
MODEL 4
REMARK VINA RESULT:    -7.348      1.236      2.255
REMARK INTER + INTRA:          -9.413
REMARK INTER:                  -9.021
REMARK INTRA:                  -0.392
REMARK UNBOUND:                -0.347
REMARK SMILES COc1cc(-c2oc3cc(O)cc(O)c3c(=O)c2O)ccc1O
REMARK SMILES IDX 6 1 18 2 16 3 17 4 15 5 13 6 12 7 10 8 9 9 8 10 7 11 5 12
REMARK SMILES IDX 3 13 22 14 4 15 21 16 20 17 2 18 1 19 23 20 19 22 14 24
REMARK SMILES IDX 11 26
REMARK H PARENT 23 21 19 23 14 25 11 27
REMARK Flexibility Score: inf
ROOT
ATOM      1  C   UNL     1      -3.682   0.224  10.919  1.00  0.00     0.180 A 
ATOM      2  C   UNL     1      -3.123   1.295  11.642  1.00  0.00     0.208 A 
ATOM      3  C   UNL     1      -2.489   2.331  10.938  1.00  0.00     0.238 A 
ATOM      4  O   UNL     1      -1.975   3.290  11.575  1.00  0.00    -0.285 OA
ATOM      5  C   UNL     1      -2.443   2.289   9.529  1.00  0.00     0.111 A 
ATOM      6  C   UNL     1      -1.827   3.296   8.745  1.00  0.00     0.134 A 
ATOM      7  C   UNL     1      -1.832   3.186   7.346  1.00  0.00     0.093 A 
ATOM      8  C   UNL     1      -2.437   2.096   6.718  1.00  0.00     0.123 A 
ATOM      9  C   UNL     1      -3.047   1.099   7.488  1.00  0.00     0.094 A 
ATOM     10  C   UNL     1      -3.052   1.188   8.883  1.00  0.00     0.146 A 
ATOM     11  O   UNL     1      -3.633   0.226   9.589  1.00  0.00    -0.452 OA
ENDROOT
BRANCH   1  12
ATOM     12  C   UNL     1      -4.350  -0.914  11.590  1.00  0.00     0.025 A 
ATOM     13  C   UNL     1      -4.299  -3.167  12.545  1.00  0.00     0.161 A 
ATOM     14  C   UNL     1      -5.675  -3.072  12.816  1.00  0.00     0.157 A 
ATOM     15  C   UNL     1      -3.644  -2.084  11.924  1.00  0.00     0.062 A 
ATOM     16  C   UNL     1      -6.381  -1.919  12.463  1.00  0.00     0.051 A 
ATOM     17  C   UNL     1      -5.727  -0.850  11.849  1.00  0.00     0.016 A 
BRANCH  13  18
ATOM     18  O   UNL     1      -3.617  -4.343  12.900  1.00  0.00    -0.493 OA
ATOM     19  C   UNL     1      -2.239  -4.589  12.639  1.00  0.00     0.278 C 
ENDBRANCH  13  18
BRANCH  14  20
ATOM     20  O   UNL     1      -6.362  -4.119  13.432  1.00  0.00    -0.504 OA
ATOM     21  H   UNL     1      -7.122  -3.958  14.082  1.00  0.00     0.293 HD
ENDBRANCH  14  20
ENDBRANCH   1  12
BRANCH   2  22
ATOM     22  O   UNL     1      -3.226   1.337  13.035  1.00  0.00    -0.502 OA
ATOM     23  H   UNL     1      -2.455   1.617  13.628  1.00  0.00     0.293 HD
ENDBRANCH   2  22
BRANCH   6  24
ATOM     24  O   UNL     1      -1.214   4.397   9.342  1.00  0.00    -0.507 OA
ATOM     25  H   UNL     1      -1.042   4.436  10.339  1.00  0.00     0.293 HD
ENDBRANCH   6  24
BRANCH   8  26
ATOM     26  O   UNL     1      -2.428   2.012   5.328  1.00  0.00    -0.508 OA
ATOM     27  H   UNL     1      -2.593   1.135   4.848  1.00  0.00     0.293 HD
ENDBRANCH   8  26
TORSDOF 6
ENDMDL
MODEL 5
REMARK VINA RESULT:    -7.347      2.067      3.195
REMARK INTER + INTRA:          -9.412
REMARK INTER:                  -9.038
REMARK INTRA:                  -0.374
REMARK UNBOUND:                -0.347
REMARK SMILES COc1cc(-c2oc3cc(O)cc(O)c3c(=O)c2O)ccc1O
REMARK SMILES IDX 6 1 18 2 16 3 17 4 15 5 13 6 12 7 10 8 9 9 8 10 7 11 5 12
REMARK SMILES IDX 3 13 22 14 4 15 21 16 20 17 2 18 1 19 23 20 19 22 14 24
REMARK SMILES IDX 11 26
REMARK H PARENT 23 21 19 23 14 25 11 27
REMARK Flexibility Score: inf
ROOT
ATOM      1  C   UNL     1      -2.722  -0.791  10.669  1.00  0.00     0.180 A 
ATOM      2  C   UNL     1      -1.678  -1.508  10.054  1.00  0.00     0.208 A 
ATOM      3  C   UNL     1      -0.914  -0.874   9.060  1.00  0.00     0.238 A 
ATOM      4  O   UNL     1       0.017  -1.509   8.495  1.00  0.00    -0.285 OA
ATOM      5  C   UNL     1      -1.193   0.464   8.715  1.00  0.00     0.111 A 
ATOM      6  C   UNL     1      -0.468   1.176   7.728  1.00  0.00     0.134 A 
ATOM      7  C   UNL     1      -0.801   2.510   7.448  1.00  0.00     0.093 A 
ATOM      8  C   UNL     1      -1.840   3.145   8.132  1.00  0.00     0.123 A 
ATOM      9  C   UNL     1      -2.559   2.446   9.108  1.00  0.00     0.094 A 
ATOM     10  C   UNL     1      -2.245   1.115   9.401  1.00  0.00     0.146 A 
ATOM     11  O   UNL     1      -2.947   0.475  10.328  1.00  0.00    -0.452 OA
ENDROOT
BRANCH   1  12
ATOM     12  C   UNL     1      -3.583  -1.396  11.711  1.00  0.00     0.025 A 
ATOM     13  C   UNL     1      -5.658  -2.493  12.402  1.00  0.00     0.161 A 
ATOM     14  C   UNL     1      -5.207  -2.485  13.734  1.00  0.00     0.157 A 
ATOM     15  C   UNL     1      -4.842  -1.939  11.395  1.00  0.00     0.062 A 
ATOM     16  C   UNL     1      -3.966  -1.925  14.050  1.00  0.00     0.051 A 
ATOM     17  C   UNL     1      -3.162  -1.378  13.048  1.00  0.00     0.016 A 
BRANCH  13  18
ATOM     18  O   UNL     1      -6.914  -3.052  12.116  1.00  0.00    -0.493 OA
ATOM     19  C   UNL     1      -7.520  -3.063  10.828  1.00  0.00     0.278 C 
ENDBRANCH  13  18
BRANCH  14  20
ATOM     20  O   UNL     1      -5.981  -3.026  14.761  1.00  0.00    -0.504 OA
ATOM     21  H   UNL     1      -6.720  -2.503  15.214  1.00  0.00     0.293 HD
ENDBRANCH  14  20
ENDBRANCH   1  12
BRANCH   2  22
ATOM     22  O   UNL     1      -1.390  -2.816  10.450  1.00  0.00    -0.502 OA
ATOM     23  H   UNL     1      -0.926  -3.478   9.840  1.00  0.00     0.293 HD
ENDBRANCH   2  22
BRANCH   6  24
ATOM     24  O   UNL     1       0.575   0.571   7.027  1.00  0.00    -0.507 OA
ATOM     25  H   UNL     1       1.021   1.025   6.239  1.00  0.00     0.293 HD
ENDBRANCH   6  24
BRANCH   8  26
ATOM     26  O   UNL     1      -2.150   4.469   7.836  1.00  0.00    -0.508 OA
ATOM     27  H   UNL     1      -1.440   5.192   7.830  1.00  0.00     0.293 HD
ENDBRANCH   8  26
TORSDOF 6
ENDMDL
MODEL 6
REMARK VINA RESULT:    -7.274      2.420      3.146
REMARK INTER + INTRA:          -9.322
REMARK INTER:                  -8.931
REMARK INTRA:                  -0.391
REMARK UNBOUND:                -0.347
REMARK SMILES COc1cc(-c2oc3cc(O)cc(O)c3c(=O)c2O)ccc1O
REMARK SMILES IDX 6 1 18 2 16 3 17 4 15 5 13 6 12 7 10 8 9 9 8 10 7 11 5 12
REMARK SMILES IDX 3 13 22 14 4 15 21 16 20 17 2 18 1 19 23 20 19 22 14 24
REMARK SMILES IDX 11 26
REMARK H PARENT 23 21 19 23 14 25 11 27
REMARK Flexibility Score: inf
ROOT
ATOM      1  C   UNL     1      -3.812  -0.676   9.873  1.00  0.00     0.180 A 
ATOM      2  C   UNL     1      -4.839  -0.272   8.997  1.00  0.00     0.208 A 
ATOM      3  C   UNL     1      -4.533   0.626   7.962  1.00  0.00     0.238 A 
ATOM      4  O   UNL     1      -5.446   1.003   7.178  1.00  0.00    -0.285 OA
ATOM      5  C   UNL     1      -3.209   1.087   7.809  1.00  0.00     0.111 A 
ATOM      6  C   UNL     1      -2.818   1.990   6.790  1.00  0.00     0.134 A 
ATOM      7  C   UNL     1      -1.477   2.395   6.698  1.00  0.00     0.093 A 
ATOM      8  C   UNL     1      -0.524   1.918   7.600  1.00  0.00     0.123 A 
ATOM      9  C   UNL     1      -0.906   1.025   8.608  1.00  0.00     0.094 A 
ATOM     10  C   UNL     1      -2.237   0.611   8.719  1.00  0.00     0.146 A 
ATOM     11  O   UNL     1      -2.572  -0.231   9.688  1.00  0.00    -0.452 OA
ENDROOT
BRANCH   1  12
ATOM     12  C   UNL     1      -4.060  -1.605  10.999  1.00  0.00     0.025 A 
ATOM     13  C   UNL     1      -4.577  -2.026  13.353  1.00  0.00     0.161 A 
ATOM     14  C   UNL     1      -4.469  -3.409  13.119  1.00  0.00     0.157 A 
ATOM     15  C   UNL     1      -4.363  -1.129  12.287  1.00  0.00     0.062 A 
ATOM     16  C   UNL     1      -4.144  -3.880  11.844  1.00  0.00     0.051 A 
ATOM     17  C   UNL     1      -3.935  -2.986  10.793  1.00  0.00     0.016 A 
BRANCH  13  18
ATOM     18  O   UNL     1      -4.892  -1.581  14.648  1.00  0.00    -0.493 OA
ATOM     19  C   UNL     1      -4.887  -0.217  15.057  1.00  0.00     0.278 C 
ENDBRANCH  13  18
BRANCH  14  20
ATOM     20  O   UNL     1      -4.675  -4.332  14.145  1.00  0.00    -0.504 OA
ATOM     21  H   UNL     1      -4.017  -4.451  14.905  1.00  0.00     0.293 HD
ENDBRANCH  14  20
ENDBRANCH   1  12
BRANCH   2  22
ATOM     22  O   UNL     1      -6.131  -0.783   9.141  1.00  0.00    -0.502 OA
ATOM     23  H   UNL     1      -6.410  -1.673   8.745  1.00  0.00     0.293 HD
ENDBRANCH   2  22
BRANCH   6  24
ATOM     24  O   UNL     1      -3.745   2.485   5.873  1.00  0.00    -0.507 OA
ATOM     25  H   UNL     1      -3.481   3.144   5.150  1.00  0.00     0.293 HD
ENDBRANCH   6  24
BRANCH   8  26
ATOM     26  O   UNL     1       0.799   2.335   7.486  1.00  0.00    -0.508 OA
ATOM     27  H   UNL     1       1.534   1.930   8.054  1.00  0.00     0.293 HD
ENDBRANCH   8  26
TORSDOF 6
ENDMDL
MODEL 7
REMARK VINA RESULT:    -7.156      2.337      7.359
REMARK INTER + INTRA:          -9.176
REMARK INTER:                  -8.790
REMARK INTRA:                  -0.386
REMARK UNBOUND:                -0.347
REMARK SMILES COc1cc(-c2oc3cc(O)cc(O)c3c(=O)c2O)ccc1O
REMARK SMILES IDX 6 1 18 2 16 3 17 4 15 5 13 6 12 7 10 8 9 9 8 10 7 11 5 12
REMARK SMILES IDX 3 13 22 14 4 15 21 16 20 17 2 18 1 19 23 20 19 22 14 24
REMARK SMILES IDX 11 26
REMARK H PARENT 23 21 19 23 14 25 11 27
REMARK Flexibility Score: inf
ROOT
ATOM      1  C   UNL     1      -3.174  -0.240   9.638  1.00  0.00     0.180 A 
ATOM      2  C   UNL     1      -3.645  -1.537   9.354  1.00  0.00     0.208 A 
ATOM      3  C   UNL     1      -4.152  -2.319  10.404  1.00  0.00     0.238 A 
ATOM      4  O   UNL     1      -4.568  -3.485  10.164  1.00  0.00    -0.285 OA
ATOM      5  C   UNL     1      -4.199  -1.787  11.709  1.00  0.00     0.111 A 
ATOM      6  C   UNL     1      -4.699  -2.508  12.821  1.00  0.00     0.134 A 
ATOM      7  C   UNL     1      -4.721  -1.905  14.088  1.00  0.00     0.093 A 
ATOM      8  C   UNL     1      -4.254  -0.600  14.264  1.00  0.00     0.123 A 
ATOM      9  C   UNL     1      -3.759   0.116  13.169  1.00  0.00     0.094 A 
ATOM     10  C   UNL     1      -3.727  -0.467  11.899  1.00  0.00     0.146 A 
ATOM     11  O   UNL     1      -3.247   0.233  10.879  1.00  0.00    -0.452 OA
ENDROOT
BRANCH   1  12
ATOM     12  C   UNL     1      -2.607   0.637   8.588  1.00  0.00     0.025 A 
ATOM     13  C   UNL     1      -0.734   1.381   7.201  1.00  0.00     0.161 A 
ATOM     14  C   UNL     1      -1.561   2.364   6.629  1.00  0.00     0.157 A 
ATOM     15  C   UNL     1      -1.264   0.525   8.188  1.00  0.00     0.062 A 
ATOM     16  C   UNL     1      -2.889   2.490   7.045  1.00  0.00     0.051 A 
ATOM     17  C   UNL     1      -3.408   1.639   8.021  1.00  0.00     0.016 A 
BRANCH  13  18
ATOM     18  O   UNL     1       0.601   1.286   6.773  1.00  0.00    -0.493 OA
ATOM     19  C   UNL     1       1.497   0.245   7.147  1.00  0.00     0.278 C 
ENDBRANCH  13  18
BRANCH  14  20
ATOM     20  O   UNL     1      -1.078   3.230   5.648  1.00  0.00    -0.504 OA
ATOM     21  H   UNL     1      -0.108   3.230   5.357  1.00  0.00     0.293 HD
ENDBRANCH  14  20
ENDBRANCH   1  12
BRANCH   2  22
ATOM     22  O   UNL     1      -3.634  -2.021   8.043  1.00  0.00    -0.502 OA
ATOM     23  H   UNL     1      -2.983  -1.682   7.345  1.00  0.00     0.293 HD
ENDBRANCH   2  22
BRANCH   6  24
ATOM     24  O   UNL     1      -5.173  -3.812  12.678  1.00  0.00    -0.507 OA
ATOM     25  H   UNL     1      -5.787  -4.075  11.917  1.00  0.00     0.293 HD
ENDBRANCH   6  24
BRANCH   8  26
ATOM     26  O   UNL     1      -4.287  -0.025  15.532  1.00  0.00    -0.508 OA
ATOM     27  H   UNL     1      -5.019   0.621  15.803  1.00  0.00     0.293 HD
ENDBRANCH   8  26
TORSDOF 6
ENDMDL
MODEL 8
REMARK VINA RESULT:    -7.143      1.872      6.936
REMARK INTER + INTRA:          -9.161
REMARK INTER:                  -8.769
REMARK INTRA:                  -0.392
REMARK UNBOUND:                -0.347
REMARK SMILES COc1cc(-c2oc3cc(O)cc(O)c3c(=O)c2O)ccc1O
REMARK SMILES IDX 6 1 18 2 16 3 17 4 15 5 13 6 12 7 10 8 9 9 8 10 7 11 5 12
REMARK SMILES IDX 3 13 22 14 4 15 21 16 20 17 2 18 1 19 23 20 19 22 14 24
REMARK SMILES IDX 11 26
REMARK H PARENT 23 21 19 23 14 25 11 27
REMARK Flexibility Score: inf
ROOT
ATOM      1  C   UNL     1      -2.718  -0.106  10.263  1.00  0.00     0.180 A 
ATOM      2  C   UNL     1      -2.091  -0.676  11.388  1.00  0.00     0.208 A 
ATOM      3  C   UNL     1      -2.839  -1.513  12.231  1.00  0.00     0.238 A 
ATOM      4  O   UNL     1      -2.291  -2.021  13.247  1.00  0.00    -0.285 OA
ATOM      5  C   UNL     1      -4.190  -1.781  11.926  1.00  0.00     0.111 A 
ATOM      6  C   UNL     1      -5.011  -2.616  12.722  1.00  0.00     0.134 A 
ATOM      7  C   UNL     1      -6.345  -2.841  12.346  1.00  0.00     0.093 A 
ATOM      8  C   UNL     1      -6.871  -2.250  11.195  1.00  0.00     0.123 A 
ATOM      9  C   UNL     1      -6.063  -1.424  10.406  1.00  0.00     0.094 A 
ATOM     10  C   UNL     1      -4.732  -1.186  10.764  1.00  0.00     0.146 A 
ATOM     11  O   UNL     1      -3.990  -0.394  10.000  1.00  0.00    -0.452 OA
ENDROOT
BRANCH   1  12
ATOM     12  C   UNL     1      -2.001   0.800   9.339  1.00  0.00     0.025 A 
ATOM     13  C   UNL     1      -1.219   3.030   8.704  1.00  0.00     0.161 A 
ATOM     14  C   UNL     1      -0.677   2.493   7.523  1.00  0.00     0.157 A 
ATOM     15  C   UNL     1      -1.888   2.177   9.605  1.00  0.00     0.062 A 
ATOM     16  C   UNL     1      -0.811   1.129   7.248  1.00  0.00     0.051 A 
ATOM     17  C   UNL     1      -1.473   0.289   8.144  1.00  0.00     0.016 A 
BRANCH  13  18
ATOM     18  O   UNL     1      -1.080   4.406   8.949  1.00  0.00    -0.493 OA
ATOM     19  C   UNL     1      -1.788   5.125   9.953  1.00  0.00     0.278 C 
ENDBRANCH  13  18
BRANCH  14  20
ATOM     20  O   UNL     1      -0.004   3.301   6.606  1.00  0.00    -0.504 OA
ATOM     21  H   UNL     1      -0.244   4.276   6.467  1.00  0.00     0.293 HD
ENDBRANCH  14  20
ENDBRANCH   1  12
BRANCH   2  22
ATOM     22  O   UNL     1      -0.738  -0.435  11.639  1.00  0.00    -0.502 OA
ATOM     23  H   UNL     1      -0.027  -1.145  11.511  1.00  0.00     0.293 HD
ENDBRANCH   2  22
BRANCH   6  24
ATOM     24  O   UNL     1      -4.517  -3.222  13.877  1.00  0.00    -0.507 OA
ATOM     25  H   UNL     1      -3.741  -3.873  13.847  1.00  0.00     0.293 HD
ENDBRANCH   6  24
BRANCH   8  26
ATOM     26  O   UNL     1      -8.197  -2.490  10.844  1.00  0.00    -0.508 OA
ATOM     27  H   UNL     1      -8.449  -3.228  10.199  1.00  0.00     0.293 HD
ENDBRANCH   8  26
TORSDOF 6
ENDMDL
MODEL 9
REMARK VINA RESULT:    -6.855      1.878      7.140
REMARK INTER + INTRA:          -8.805
REMARK INTER:                  -8.406
REMARK INTRA:                  -0.399
REMARK UNBOUND:                -0.347
REMARK SMILES COc1cc(-c2oc3cc(O)cc(O)c3c(=O)c2O)ccc1O
REMARK SMILES IDX 6 1 18 2 16 3 17 4 15 5 13 6 12 7 10 8 9 9 8 10 7 11 5 12
REMARK SMILES IDX 3 13 22 14 4 15 21 16 20 17 2 18 1 19 23 20 19 22 14 24
REMARK SMILES IDX 11 26
REMARK H PARENT 23 21 19 23 14 25 11 27
REMARK Flexibility Score: inf
ROOT
ATOM      1  C   UNL     1      -3.440   0.307  10.054  1.00  0.00     0.180 A 
ATOM      2  C   UNL     1      -4.729   0.542  10.573  1.00  0.00     0.208 A 
ATOM      3  C   UNL     1      -5.309  -0.423  11.412  1.00  0.00     0.238 A 
ATOM      4  O   UNL     1      -6.466  -0.229  11.874  1.00  0.00    -0.285 OA
ATOM      5  C   UNL     1      -4.587  -1.592  11.732  1.00  0.00     0.111 A 
ATOM      6  C   UNL     1      -5.098  -2.611  12.573  1.00  0.00     0.134 A 
ATOM      7  C   UNL     1      -4.314  -3.740  12.852  1.00  0.00     0.093 A 
ATOM      8  C   UNL     1      -3.034  -3.871  12.310  1.00  0.00     0.123 A 
ATOM      9  C   UNL     1      -2.524  -2.867  11.479  1.00  0.00     0.094 A 
ATOM     10  C   UNL     1      -3.290  -1.735  11.187  1.00  0.00     0.146 A 
ATOM     11  O   UNL     1      -2.784  -0.800  10.391  1.00  0.00    -0.452 OA
ENDROOT
BRANCH   1  12
ATOM     12  C   UNL     1      -2.770   1.268   9.149  1.00  0.00     0.025 A 
ATOM     13  C   UNL     1      -2.313   2.136   6.908  1.00  0.00     0.161 A 
ATOM     14  C   UNL     1      -1.431   3.080   7.464  1.00  0.00     0.157 A 
ATOM     15  C   UNL     1      -2.974   1.226   7.758  1.00  0.00     0.062 A 
ATOM     16  C   UNL     1      -1.212   3.105   8.844  1.00  0.00     0.051 A 
ATOM     17  C   UNL     1      -1.870   2.202   9.681  1.00  0.00     0.016 A 
BRANCH  13  18
ATOM     18  O   UNL     1      -2.505   2.126   5.516  1.00  0.00    -0.493 OA
ATOM     19  C   UNL     1      -3.776   2.126   4.875  1.00  0.00     0.278 C 
ENDBRANCH  13  18
BRANCH  14  20
ATOM     20  O   UNL     1      -0.759   4.000   6.660  1.00  0.00    -0.504 OA
ATOM     21  H   UNL     1       0.233   4.178   6.755  1.00  0.00     0.293 HD
ENDBRANCH  14  20
ENDBRANCH   1  12
BRANCH   2  22
ATOM     22  O   UNL     1      -5.401   1.731  10.280  1.00  0.00    -0.502 OA
ATOM     23  H   UNL     1      -6.234   1.756   9.704  1.00  0.00     0.293 HD
ENDBRANCH   2  22
BRANCH   6  24
ATOM     24  O   UNL     1      -6.373  -2.510  13.131  1.00  0.00    -0.507 OA
ATOM     25  H   UNL     1      -6.778  -1.615  13.377  1.00  0.00     0.293 HD
ENDBRANCH   6  24
BRANCH   8  26
ATOM     26  O   UNL     1      -2.275  -5.002  12.603  1.00  0.00    -0.508 OA
ATOM     27  H   UNL     1      -1.276  -4.945  12.758  1.00  0.00     0.293 HD
ENDBRANCH   8  26
TORSDOF 6
ENDMDL
