MODEL 1
REMARK VINA RESULT:    -7.424      0.000      0.000
REMARK INTER + INTRA:         -11.330
REMARK INTER:                 -10.245
REMARK INTRA:                  -1.085
REMARK UNBOUND:                -1.085
REMARK SMILES C=C(CC[C@@H](C(=O)[O-])[C@H]1CC[C@]2(C)C3=C(CC[C@]12C)[C@@]1(C)CC[C@H](O)C(C)(C)[C@H]1CC3)C(C)C
REMARK SMILES IDX 4 1 5 2 6 3 7 4 8 5 9 6 10 7 18 8 11 9 12 10 17 11 19 12
REMARK SMILES IDX 13 13 14 14 16 15 15 16 31 17 20 18 30 19 29 20 22 21 21 22
REMARK SMILES IDX 26 23 23 24 24 25 27 26 28 27 25 28 3 30 2 31 1 32 32 33
REMARK SMILES IDX 33 34 34 35
REMARK H PARENT 25 29
REMARK Flexibility Score: inf
ROOT
ATOM      1  C   UNL     1     173.032 176.757 179.965  1.00  0.00     0.014 C 
ENDROOT
BRANCH   1   2
ATOM      2  C   UNL     1     172.014 177.899 180.266  1.00  0.00     0.039 C 
BRANCH   2   3
ATOM      3  C   UNL     1     172.486 179.235 179.734  1.00  0.00     0.045 C 
ATOM      4  O   UNL     1     171.647 180.125 179.432  1.00  0.00    -0.550 OA
ATOM      5  O   UNL     1     173.838 179.535 179.633  1.00  0.00    -0.550 OA
ENDBRANCH   2   3
BRANCH   2   6
ATOM      6  C   UNL     1     170.517 177.532 179.928  1.00  0.00     0.004 C 
ATOM      7  C   UNL     1     170.426 176.299 179.022  1.00  0.00     0.006 C 
ATOM      8  C   UNL     1     169.407 177.346 181.046  1.00  0.00    -0.020 C 
ATOM      9  C   UNL     1     168.993 175.828 179.110  1.00  0.00     0.012 C 
ATOM     10  C   UNL     1     168.561 176.063 180.571  1.00  0.00    -0.006 C 
ATOM     11  C   UNL     1     168.510 178.626 181.120  1.00  0.00     0.012 C 
ATOM     12  C   UNL     1     169.998 177.195 182.475  1.00  0.00     0.012 C 
ATOM     13  C   UNL     1     168.954 174.786 181.383  1.00  0.00     0.017 C 
ATOM     14  C   UNL     1     167.014 176.267 180.570  1.00  0.00    -0.064 C 
ATOM     15  C   UNL     1     167.427 178.637 180.058  1.00  0.00     0.032 C 
ATOM     16  C   UNL     1     166.469 177.491 180.318  1.00  0.00    -0.064 C 
ATOM     17  C   UNL     1     166.112 175.066 180.743  1.00  0.00     0.032 C 
ATOM     18  C   UNL     1     164.935 177.771 180.265  1.00  0.00    -0.008 C 
ATOM     19  C   UNL     1     164.771 175.229 180.047  1.00  0.00     0.009 C 
ATOM     20  C   UNL     1     164.038 176.487 180.567  1.00  0.00     0.007 C 
ATOM     21  C   UNL     1     164.655 178.311 178.830  1.00  0.00     0.014 C 
ATOM     22  C   UNL     1     164.664 178.863 181.344  1.00  0.00     0.016 C 
ATOM     23  C   UNL     1     162.514 176.553 180.061  1.00  0.00    -0.006 C 
ATOM     24  C   UNL     1     163.177 178.485 178.498  1.00  0.00     0.033 C 
ATOM     25  C   UNL     1     162.442 177.146 178.618  1.00  0.00     0.120 C 
ATOM     26  C   UNL     1     161.859 175.137 180.019  1.00  0.00     0.014 C 
ATOM     27  C   UNL     1     161.619 177.374 181.041  1.00  0.00     0.014 C 
BRANCH  25  28
ATOM     28  O   UNL     1     161.116 177.259 178.158  1.00  0.00    -0.393 OA
ATOM     29  H   UNL     1     161.133 177.555 177.210  1.00  0.00     0.210 HD
ENDBRANCH  25  28
ENDBRANCH   2   6
ENDBRANCH   1   2
BRANCH   1  30
ATOM     30  C   UNL     1     173.957 176.404 181.147  1.00  0.00     0.031 C 
BRANCH  30  31
ATOM     31  C   UNL     1     175.391 176.099 180.756  1.00  0.00    -0.075 C 
ATOM     32  C   UNL     1     175.715 174.845 180.375  1.00  0.00     0.008 C 
BRANCH  31  33
ATOM     33  C   UNL     1     176.402 177.236 180.651  1.00  0.00     0.008 C 
ATOM     34  C   UNL     1     176.378 178.164 181.877  1.00  0.00     0.012 C 
ATOM     35  C   UNL     1     177.817 176.681 180.430  1.00  0.00     0.012 C 
ENDBRANCH  31  33
ENDBRANCH  30  31
ENDBRANCH   1  30
TORSDOF 7
ENDMDL
MODEL 2
REMARK VINA RESULT:    -7.422      2.445      9.926
REMARK INTER + INTRA:         -11.328
REMARK INTER:                 -10.183
REMARK INTRA:                  -1.144
REMARK UNBOUND:                -1.085
REMARK SMILES C=C(CC[C@@H](C(=O)[O-])[C@H]1CC[C@]2(C)C3=C(CC[C@]12C)[C@@]1(C)CC[C@H](O)C(C)(C)[C@H]1CC3)C(C)C
REMARK SMILES IDX 4 1 5 2 6 3 7 4 8 5 9 6 10 7 18 8 11 9 12 10 17 11 19 12
REMARK SMILES IDX 13 13 14 14 16 15 15 16 31 17 20 18 30 19 29 20 22 21 21 22
REMARK SMILES IDX 26 23 23 24 24 25 27 26 28 27 25 28 3 30 2 31 1 32 32 33
REMARK SMILES IDX 33 34 34 35
REMARK H PARENT 25 29
REMARK Flexibility Score: inf
ROOT
ATOM      1  C   UNL     1     166.176 177.269 179.778  1.00  0.00     0.014 C 
ENDROOT
BRANCH   1   2
ATOM      2  C   UNL     1     167.329 176.452 180.437  1.00  0.00     0.039 C 
BRANCH   2   3
ATOM      3  C   UNL     1     167.077 174.961 180.373  1.00  0.00     0.045 C 
ATOM      4  O   UNL     1     166.245 174.428 181.156  1.00  0.00    -0.550 OA
ATOM      5  O   UNL     1     167.695 174.164 179.418  1.00  0.00    -0.550 OA
ENDBRANCH   2   3
BRANCH   2   6
ATOM      6  C   UNL     1     168.774 176.909 179.996  1.00  0.00     0.004 C 
ATOM      7  C   UNL     1     168.768 178.325 179.410  1.00  0.00     0.006 C 
ATOM      8  C   UNL     1     170.029 176.833 180.964  1.00  0.00    -0.020 C 
ATOM      9  C   UNL     1     170.208 178.778 179.414  1.00  0.00     0.012 C 
ATOM     10  C   UNL     1     170.829 178.202 180.702  1.00  0.00    -0.006 C 
ATOM     11  C   UNL     1     170.901 175.584 180.604  1.00  0.00     0.012 C 
ATOM     12  C   UNL     1     169.640 176.626 182.454  1.00  0.00     0.012 C 
ATOM     13  C   UNL     1     170.577 179.240 181.843  1.00  0.00     0.017 C 
ATOM     14  C   UNL     1     172.357 178.025 180.441  1.00  0.00    -0.064 C 
ATOM     15  C   UNL     1     171.830 175.844 179.433  1.00  0.00     0.032 C 
ATOM     16  C   UNL     1     172.838 176.904 179.829  1.00  0.00    -0.064 C 
ATOM     17  C   UNL     1     173.300 179.159 180.774  1.00  0.00     0.032 C 
ATOM     18  C   UNL     1     174.344 176.665 179.502  1.00  0.00    -0.008 C 
ATOM     19  C   UNL     1     174.530 179.185 179.883  1.00  0.00     0.009 C 
ATOM     20  C   UNL     1     175.301 177.849 179.979  1.00  0.00     0.007 C 
ATOM     21  C   UNL     1     174.416 176.490 177.954  1.00  0.00     0.014 C 
ATOM     22  C   UNL     1     174.736 175.347 180.238  1.00  0.00     0.016 C 
ATOM     23  C   UNL     1     176.741 177.926 179.269  1.00  0.00    -0.006 C 
ATOM     24  C   UNL     1     175.832 176.420 177.391  1.00  0.00     0.033 C 
ATOM     25  C   UNL     1     176.604 177.700 177.730  1.00  0.00     0.120 C 
ATOM     26  C   UNL     1     177.413 179.318 179.481  1.00  0.00     0.014 C 
ATOM     27  C   UNL     1     177.742 176.904 179.891  1.00  0.00     0.014 C 
BRANCH  25  28
ATOM     28  O   UNL     1     177.853 177.718 177.079  1.00  0.00    -0.393 OA
ATOM     29  H   UNL     1     178.060 178.653 176.815  1.00  0.00     0.210 HD
ENDBRANCH  25  28
ENDBRANCH   2   6
ENDBRANCH   1   2
BRANCH   1  30
ATOM     30  C   UNL     1     165.102 177.762 180.769  1.00  0.00     0.031 C 
BRANCH  30  31
ATOM     31  C   UNL     1     164.795 179.246 180.678  1.00  0.00    -0.075 C 
ATOM     32  C   UNL     1     165.818 180.125 180.629  1.00  0.00     0.008 C 
BRANCH  31  33
ATOM     33  C   UNL     1     163.355 179.708 180.488  1.00  0.00     0.008 C 
ATOM     34  C   UNL     1     162.829 179.435 179.068  1.00  0.00     0.012 C 
ATOM     35  C   UNL     1     162.436 179.055 181.531  1.00  0.00     0.012 C 
ENDBRANCH  31  33
ENDBRANCH  30  31
ENDBRANCH   1  30
TORSDOF 7
ENDMDL
MODEL 3
REMARK VINA RESULT:    -7.178      2.174      3.536
REMARK INTER + INTRA:         -10.991
REMARK INTER:                  -9.450
REMARK INTRA:                  -1.541
REMARK UNBOUND:                -1.085
REMARK SMILES C=C(CC[C@@H](C(=O)[O-])[C@H]1CC[C@]2(C)C3=C(CC[C@]12C)[C@@]1(C)CC[C@H](O)C(C)(C)[C@H]1CC3)C(C)C
REMARK SMILES IDX 4 1 5 2 6 3 7 4 8 5 9 6 10 7 18 8 11 9 12 10 17 11 19 12
REMARK SMILES IDX 13 13 14 14 16 15 15 16 31 17 20 18 30 19 29 20 22 21 21 22
REMARK SMILES IDX 26 23 23 24 24 25 27 26 28 27 25 28 3 30 2 31 1 32 32 33
REMARK SMILES IDX 33 34 34 35
REMARK H PARENT 25 29
REMARK Flexibility Score: inf
ROOT
ATOM      1  C   UNL     1     173.703 176.204 181.502  1.00  0.00     0.014 C 
ENDROOT
BRANCH   1   2
ATOM      2  C   UNL     1     172.589 175.333 180.844  1.00  0.00     0.039 C 
BRANCH   2   3
ATOM      3  C   UNL     1     172.741 173.866 181.184  1.00  0.00     0.045 C 
ATOM      4  O   UNL     1     171.727 173.182 181.489  1.00  0.00    -0.550 OA
ATOM      5  O   UNL     1     173.972 173.229 181.101  1.00  0.00    -0.550 OA
ENDBRANCH   2   3
BRANCH   2   6
ATOM      6  C   UNL     1     171.133 175.916 181.016  1.00  0.00     0.004 C 
ATOM      7  C   UNL     1     171.079 177.000 182.097  1.00  0.00     0.006 C 
ATOM      8  C   UNL     1     170.279 176.461 179.795  1.00  0.00    -0.020 C 
ATOM      9  C   UNL     1     169.776 177.734 181.880  1.00  0.00     0.012 C 
ATOM     10  C   UNL     1     169.575 177.795 180.353  1.00  0.00    -0.006 C 
ATOM     11  C   UNL     1     169.219 175.391 179.369  1.00  0.00     0.012 C 
ATOM     12  C   UNL     1     171.127 176.705 178.516  1.00  0.00     0.012 C 
ATOM     13  C   UNL     1     170.300 179.082 179.840  1.00  0.00     0.017 C 
ATOM     14  C   UNL     1     168.040 177.880 180.090  1.00  0.00    -0.064 C 
ATOM     15  C   UNL     1     167.978 175.426 180.242  1.00  0.00     0.032 C 
ATOM     16  C   UNL     1     167.273 176.753 180.044  1.00  0.00    -0.064 C 
ATOM     17  C   UNL     1     167.382 179.238 179.995  1.00  0.00     0.032 C 
ATOM     18  C   UNL     1     165.729 176.755 179.820  1.00  0.00    -0.008 C 
ATOM     19  C   UNL     1     165.931 179.225 180.446  1.00  0.00     0.009 C 
ATOM     20  C   UNL     1     165.112 178.211 179.615  1.00  0.00     0.007 C 
ATOM     21  C   UNL     1     165.120 176.074 181.084  1.00  0.00     0.014 C 
ATOM     22  C   UNL     1     165.483 175.897 178.542  1.00  0.00     0.016 C 
ATOM     23  C   UNL     1     163.532 178.353 179.871  1.00  0.00    -0.006 C 
ATOM     24  C   UNL     1     163.598 176.127 181.159  1.00  0.00     0.033 C 
ATOM     25  C   UNL     1     163.116 177.582 181.163  1.00  0.00     0.120 C 
ATOM     26  C   UNL     1     163.111 179.844 180.059  1.00  0.00     0.014 C 
ATOM     27  C   UNL     1     162.705 177.860 178.643  1.00  0.00     0.014 C 
BRANCH  25  28
ATOM     28  O   UNL     1     161.728 177.649 181.396  1.00  0.00    -0.393 OA
ATOM     29  H   UNL     1     161.285 176.921 180.886  1.00  0.00     0.210 HD
ENDBRANCH  25  28
ENDBRANCH   2   6
ENDBRANCH   1   2
BRANCH   1  30
ATOM     30  C   UNL     1     174.477 177.098 180.512  1.00  0.00     0.031 C 
BRANCH  30  31
ATOM     31  C   UNL     1     174.782 178.492 181.028  1.00  0.00    -0.075 C 
ATOM     32  C   UNL     1     173.775 179.384 181.140  1.00  0.00     0.008 C 
BRANCH  31  33
ATOM     33  C   UNL     1     176.177 178.814 181.552  1.00  0.00     0.008 C 
ATOM     34  C   UNL     1     177.101 177.585 181.566  1.00  0.00     0.012 C 
ATOM     35  C   UNL     1     176.812 179.949 180.737  1.00  0.00     0.012 C 
ENDBRANCH  31  33
ENDBRANCH  30  31
ENDBRANCH   1  30
TORSDOF 7
ENDMDL
MODEL 4
REMARK VINA RESULT:    -7.112      1.982      9.902
REMARK INTER + INTRA:         -10.899
REMARK INTER:                  -9.808
REMARK INTRA:                  -1.091
REMARK UNBOUND:                -1.085
REMARK SMILES C=C(CC[C@@H](C(=O)[O-])[C@H]1CC[C@]2(C)C3=C(CC[C@]12C)[C@@]1(C)CC[C@H](O)C(C)(C)[C@H]1CC3)C(C)C
REMARK SMILES IDX 4 1 5 2 6 3 7 4 8 5 9 6 10 7 18 8 11 9 12 10 17 11 19 12
REMARK SMILES IDX 13 13 14 14 16 15 15 16 31 17 20 18 30 19 29 20 22 21 21 22
REMARK SMILES IDX 26 23 23 24 24 25 27 26 28 27 25 28 3 30 2 31 1 32 32 33
REMARK SMILES IDX 33 34 34 35
REMARK H PARENT 25 29
REMARK Flexibility Score: inf
ROOT
ATOM      1  C   UNL     1     165.731 178.528 180.739  1.00  0.00     0.014 C 
ENDROOT
BRANCH   1   2
ATOM      2  C   UNL     1     166.650 177.772 179.731  1.00  0.00     0.039 C 
BRANCH   2   3
ATOM      3  C   UNL     1     166.159 177.906 178.306  1.00  0.00     0.045 C 
ATOM      4  O   UNL     1     166.625 177.157 177.406  1.00  0.00    -0.550 OA
ATOM      5  O   UNL     1     165.147 178.795 177.971  1.00  0.00    -0.550 OA
ENDBRANCH   2   3
BRANCH   2   6
ATOM      6  C   UNL     1     168.191 178.043 179.939  1.00  0.00     0.004 C 
ATOM      7  C   UNL     1     168.471 178.738 181.275  1.00  0.00     0.006 C 
ATOM      8  C   UNL     1     169.288 176.906 179.790  1.00  0.00    -0.020 C 
ATOM      9  C   UNL     1     169.951 178.571 181.525  1.00  0.00     0.012 C 
ATOM     10  C   UNL     1     170.311 177.166 181.003  1.00  0.00    -0.006 C 
ATOM     11  C   UNL     1     170.002 177.037 178.403  1.00  0.00     0.012 C 
ATOM     12  C   UNL     1     168.688 175.473 179.791  1.00  0.00     0.012 C 
ATOM     13  C   UNL     1     170.074 176.160 182.176  1.00  0.00     0.017 C 
ATOM     14  C   UNL     1     171.816 177.195 180.592  1.00  0.00    -0.064 C 
ATOM     15  C   UNL     1     171.100 178.084 178.413  1.00  0.00     0.032 C 
ATOM     16  C   UNL     1     172.197 177.639 179.360  1.00  0.00    -0.064 C 
ATOM     17  C   UNL     1     172.868 176.828 181.615  1.00  0.00     0.032 C 
ATOM     18  C   UNL     1     173.680 177.732 178.885  1.00  0.00    -0.008 C 
ATOM     19  C   UNL     1     174.191 177.537 181.382  1.00  0.00     0.009 C 
ATOM     20  C   UNL     1     174.734 177.224 179.969  1.00  0.00     0.007 C 
ATOM     21  C   UNL     1     173.920 179.235 178.546  1.00  0.00     0.014 C 
ATOM     22  C   UNL     1     173.774 176.842 177.607  1.00  0.00     0.016 C 
ATOM     23  C   UNL     1     176.248 177.730 179.776  1.00  0.00    -0.006 C 
ATOM     24  C   UNL     1     175.369 179.586 178.226  1.00  0.00     0.033 C 
ATOM     25  C   UNL     1     176.275 179.249 179.415  1.00  0.00     0.120 C 
ATOM     26  C   UNL     1     177.088 177.541 181.076  1.00  0.00     0.014 C 
ATOM     27  C   UNL     1     176.998 176.892 178.694  1.00  0.00     0.014 C 
BRANCH  25  28
ATOM     28  O   UNL     1     177.585 179.718 179.196  1.00  0.00    -0.393 OA
ATOM     29  H   UNL     1     178.131 179.523 180.002  1.00  0.00     0.210 HD
ENDBRANCH  25  28
ENDBRANCH   2   6
ENDBRANCH   1   2
BRANCH   1  30
ATOM     30  C   UNL     1     164.630 177.652 181.371  1.00  0.00     0.031 C 
BRANCH  30  31
ATOM     31  C   UNL     1     163.214 178.088 181.043  1.00  0.00    -0.075 C 
ATOM     32  C   UNL     1     162.763 179.267 181.521  1.00  0.00     0.008 C 
BRANCH  31  33
ATOM     33  C   UNL     1     162.381 177.271 180.061  1.00  0.00     0.008 C 
ATOM     34  C   UNL     1     161.348 176.374 180.765  1.00  0.00     0.012 C 
ATOM     35  C   UNL     1     161.686 178.190 179.047  1.00  0.00     0.012 C 
ENDBRANCH  31  33
ENDBRANCH  30  31
ENDBRANCH   1  30
TORSDOF 7
ENDMDL
MODEL 5
REMARK VINA RESULT:    -7.093      6.266     10.705
REMARK INTER + INTRA:         -10.874
REMARK INTER:                  -9.787
REMARK INTRA:                  -1.086
REMARK UNBOUND:                -1.085
REMARK SMILES C=C(CC[C@@H](C(=O)[O-])[C@H]1CC[C@]2(C)C3=C(CC[C@]12C)[C@@]1(C)CC[C@H](O)C(C)(C)[C@H]1CC3)C(C)C
REMARK SMILES IDX 4 1 5 2 6 3 7 4 8 5 9 6 10 7 18 8 11 9 12 10 17 11 19 12
REMARK SMILES IDX 13 13 14 14 16 15 15 16 31 17 20 18 30 19 29 20 22 21 21 22
REMARK SMILES IDX 26 23 23 24 24 25 27 26 28 27 25 28 3 30 2 31 1 32 32 33
REMARK SMILES IDX 33 34 34 35
REMARK H PARENT 25 29
REMARK Flexibility Score: inf
ROOT
ATOM      1  C   UNL     1     177.374 168.471 180.027  1.00  0.00     0.014 C 
ENDROOT
BRANCH   1   2
ATOM      2  C   UNL     1     178.225 169.776 180.093  1.00  0.00     0.039 C 
BRANCH   2   3
ATOM      3  C   UNL     1     179.529 169.642 179.335  1.00  0.00     0.045 C 
ATOM      4  O   UNL     1     180.125 168.532 179.299  1.00  0.00    -0.550 OA
ATOM      5  O   UNL     1     180.058 170.704 178.613  1.00  0.00    -0.550 OA
ENDBRANCH   2   3
BRANCH   2   6
ATOM      6  C   UNL     1     177.407 171.093 179.794  1.00  0.00     0.004 C 
ATOM      7  C   UNL     1     176.197 170.818 178.896  1.00  0.00     0.006 C 
ATOM      8  C   UNL     1     176.899 172.064 180.942  1.00  0.00    -0.020 C 
ATOM      9  C   UNL     1     175.306 172.031 179.023  1.00  0.00     0.012 C 
ATOM     10  C   UNL     1     175.413 172.480 180.494  1.00  0.00    -0.006 C 
ATOM     11  C   UNL     1     177.839 173.312 181.034  1.00  0.00     0.012 C 
ATOM     12  C   UNL     1     176.956 171.422 182.356  1.00  0.00     0.012 C 
ATOM     13  C   UNL     1     174.330 171.692 181.300  1.00  0.00     0.017 C 
ATOM     14  C   UNL     1     175.126 174.014 180.532  1.00  0.00    -0.064 C 
ATOM     15  C   UNL     1     177.500 174.370 180.000  1.00  0.00     0.032 C 
ATOM     16  C   UNL     1     176.117 174.918 180.290  1.00  0.00    -0.064 C 
ATOM     17  C   UNL     1     173.706 174.494 180.734  1.00  0.00     0.032 C 
ATOM     18  C   UNL     1     175.906 176.463 180.276  1.00  0.00    -0.008 C 
ATOM     19  C   UNL     1     173.437 175.835 180.072  1.00  0.00     0.009 C 
ATOM     20  C   UNL     1     174.411 176.910 180.606  1.00  0.00     0.007 C 
ATOM     21  C   UNL     1     176.317 176.932 178.847  1.00  0.00     0.014 C 
ATOM     22  C   UNL     1     176.874 177.035 181.357  1.00  0.00     0.016 C 
ATOM     23  C   UNL     1     173.995 178.391 180.139  1.00  0.00    -0.006 C 
ATOM     24  C   UNL     1     176.019 178.398 178.552  1.00  0.00     0.033 C 
ATOM     25  C   UNL     1     174.520 178.677 178.697  1.00  0.00     0.120 C 
ATOM     26  C   UNL     1     172.446 178.574 180.120  1.00  0.00     0.014 C 
ATOM     27  C   UNL     1     174.509 179.473 181.140  1.00  0.00     0.014 C 
BRANCH  25  28
ATOM     28  O   UNL     1     174.210 179.984 178.271  1.00  0.00    -0.393 OA
ATOM     29  H   UNL     1     174.223 180.587 179.060  1.00  0.00     0.210 HD
ENDBRANCH  25  28
ENDBRANCH   2   6
ENDBRANCH   1   2
BRANCH   1  30
ATOM     30  C   UNL     1     177.512 167.562 181.265  1.00  0.00     0.031 C 
BRANCH  30  31
ATOM     31  C   UNL     1     178.127 166.204 180.984  1.00  0.00    -0.075 C 
ATOM     32  C   UNL     1     179.107 165.749 181.793  1.00  0.00     0.008 C 
BRANCH  31  33
ATOM     33  C   UNL     1     177.530 165.315 179.899  1.00  0.00     0.008 C 
ATOM     34  C   UNL     1     178.574 164.862 178.865  1.00  0.00     0.012 C 
ATOM     35  C   UNL     1     176.833 164.096 180.522  1.00  0.00     0.012 C 
ENDBRANCH  31  33
ENDBRANCH  30  31
ENDBRANCH   1  30
TORSDOF 7
ENDMDL
MODEL 6
REMARK VINA RESULT:    -7.092      6.186      9.639
REMARK INTER + INTRA:         -10.872
REMARK INTER:                  -8.991
REMARK INTRA:                  -1.882
REMARK UNBOUND:                -1.085
REMARK SMILES C=C(CC[C@@H](C(=O)[O-])[C@H]1CC[C@]2(C)C3=C(CC[C@]12C)[C@@]1(C)CC[C@H](O)C(C)(C)[C@H]1CC3)C(C)C
REMARK SMILES IDX 4 1 5 2 6 3 7 4 8 5 9 6 10 7 18 8 11 9 12 10 17 11 19 12
REMARK SMILES IDX 13 13 14 14 16 15 15 16 31 17 20 18 30 19 29 20 22 21 21 22
REMARK SMILES IDX 26 23 23 24 24 25 27 26 28 27 25 28 3 30 2 31 1 32 32 33
REMARK SMILES IDX 33 34 34 35
REMARK H PARENT 25 29
REMARK Flexibility Score: inf
ROOT
ATOM      1  C   UNL     1     164.266 175.985 180.517  1.00  0.00     0.014 C 
ENDROOT
BRANCH   1   2
ATOM      2  C   UNL     1     163.133 175.583 179.522  1.00  0.00     0.039 C 
BRANCH   2   3
ATOM      3  C   UNL     1     161.757 175.870 180.084  1.00  0.00     0.045 C 
ATOM      4  O   UNL     1     161.044 176.774 179.571  1.00  0.00    -0.550 OA
ATOM      5  O   UNL     1     161.226 175.111 181.117  1.00  0.00    -0.550 OA
ENDBRANCH   2   3
BRANCH   2   6
ATOM      6  C   UNL     1     163.372 176.077 178.043  1.00  0.00     0.004 C 
ATOM      7  C   UNL     1     164.858 176.323 177.759  1.00  0.00     0.006 C 
ATOM      8  C   UNL     1     162.799 175.307 176.780  1.00  0.00    -0.020 C 
ATOM      9  C   UNL     1     164.985 176.387 176.255  1.00  0.00     0.012 C 
ATOM     10  C   UNL     1     163.992 175.345 175.703  1.00  0.00    -0.006 C 
ATOM     11  C   UNL     1     161.523 176.040 176.246  1.00  0.00     0.012 C 
ATOM     12  C   UNL     1     162.317 173.867 177.109  1.00  0.00     0.012 C 
ATOM     13  C   UNL     1     164.745 173.978 175.634  1.00  0.00     0.017 C 
ATOM     14  C   UNL     1     163.569 175.819 174.277  1.00  0.00    -0.064 C 
ATOM     15  C   UNL     1     161.864 177.223 175.359  1.00  0.00     0.032 C 
ATOM     16  C   UNL     1     162.559 176.720 174.110  1.00  0.00    -0.064 C 
ATOM     17  C   UNL     1     164.363 175.352 173.078  1.00  0.00     0.032 C 
ATOM     18  C   UNL     1     162.098 177.268 172.724  1.00  0.00    -0.008 C 
ATOM     19  C   UNL     1     164.350 176.353 171.935  1.00  0.00     0.009 C 
ATOM     20  C   UNL     1     162.900 176.652 171.491  1.00  0.00     0.007 C 
ATOM     21  C   UNL     1     162.300 178.813 172.794  1.00  0.00     0.014 C 
ATOM     22  C   UNL     1     160.587 176.901 172.601  1.00  0.00     0.016 C 
ATOM     23  C   UNL     1     162.847 177.492 170.121  1.00  0.00    -0.006 C 
ATOM     24  C   UNL     1     162.076 179.540 171.473  1.00  0.00     0.033 C 
ATOM     25  C   UNL     1     163.042 179.015 170.405  1.00  0.00     0.120 C 
ATOM     26  C   UNL     1     163.971 177.052 169.132  1.00  0.00     0.014 C 
ATOM     27  C   UNL     1     161.517 177.240 169.345  1.00  0.00     0.014 C 
BRANCH  25  28
ATOM     28  O   UNL     1     162.958 179.788 169.230  1.00  0.00    -0.393 OA
ATOM     29  H   UNL     1     163.746 180.391 169.190  1.00  0.00     0.210 HD
ENDBRANCH  25  28
ENDBRANCH   2   6
ENDBRANCH   1   2
BRANCH   1  30
ATOM     30  C   UNL     1     163.935 177.212 181.391  1.00  0.00     0.031 C 
BRANCH  30  31
ATOM     31  C   UNL     1     164.434 178.533 180.836  1.00  0.00    -0.075 C 
ATOM     32  C   UNL     1     165.738 178.656 180.509  1.00  0.00     0.008 C 
BRANCH  31  33
ATOM     33  C   UNL     1     163.437 179.641 180.514  1.00  0.00     0.008 C 
ATOM     34  C   UNL     1     163.002 179.634 179.038  1.00  0.00     0.012 C 
ATOM     35  C   UNL     1     162.211 179.548 181.432  1.00  0.00     0.012 C 
ENDBRANCH  31  33
ENDBRANCH  30  31
ENDBRANCH   1  30
TORSDOF 7
ENDMDL
MODEL 7
REMARK VINA RESULT:    -6.956      7.438     12.604
REMARK INTER + INTRA:         -10.684
REMARK INTER:                  -9.044
REMARK INTRA:                  -1.641
REMARK UNBOUND:                -1.085
REMARK SMILES C=C(CC[C@@H](C(=O)[O-])[C@H]1CC[C@]2(C)C3=C(CC[C@]12C)[C@@]1(C)CC[C@H](O)C(C)(C)[C@H]1CC3)C(C)C
REMARK SMILES IDX 4 1 5 2 6 3 7 4 8 5 9 6 10 7 18 8 11 9 12 10 17 11 19 12
REMARK SMILES IDX 13 13 14 14 16 15 15 16 31 17 20 18 30 19 29 20 22 21 21 22
REMARK SMILES IDX 26 23 23 24 24 25 27 26 28 27 25 28 3 30 2 31 1 32 32 33
REMARK SMILES IDX 33 34 34 35
REMARK H PARENT 25 29
REMARK Flexibility Score: inf
ROOT
ATOM      1  C   UNL     1     161.996 175.868 167.965  1.00  0.00     0.014 C 
ENDROOT
BRANCH   1   2
ATOM      2  C   UNL     1     161.093 175.425 169.157  1.00  0.00     0.039 C 
BRANCH   2   3
ATOM      3  C   UNL     1     160.536 174.031 168.958  1.00  0.00     0.045 C 
ATOM      4  O   UNL     1     160.550 173.504 167.814  1.00  0.00    -0.550 OA
ATOM      5  O   UNL     1     160.066 173.282 170.029  1.00  0.00    -0.550 OA
ENDBRANCH   2   3
BRANCH   2   6
ATOM      6  C   UNL     1     161.722 175.701 170.577  1.00  0.00     0.004 C 
ATOM      7  C   UNL     1     163.169 176.191 170.472  1.00  0.00     0.006 C 
ATOM      8  C   UNL     1     161.018 176.621 171.661  1.00  0.00    -0.020 C 
ATOM      9  C   UNL     1     163.501 176.790 171.818  1.00  0.00     0.012 C 
ATOM     10  C   UNL     1     162.213 177.486 172.300  1.00  0.00    -0.006 C 
ATOM     11  C   UNL     1     160.319 175.728 172.741  1.00  0.00     0.012 C 
ATOM     12  C   UNL     1     159.875 177.494 171.073  1.00  0.00     0.012 C 
ATOM     13  C   UNL     1     162.232 178.942 171.731  1.00  0.00     0.017 C 
ATOM     14  C   UNL     1     162.247 177.499 173.859  1.00  0.00    -0.064 C 
ATOM     15  C   UNL     1     161.287 175.235 173.800  1.00  0.00     0.032 C 
ATOM     16  C   UNL     1     161.814 176.425 174.579  1.00  0.00    -0.064 C 
ATOM     17  C   UNL     1     162.871 178.677 174.574  1.00  0.00     0.032 C 
ATOM     18  C   UNL     1     161.846 176.345 176.136  1.00  0.00    -0.008 C 
ATOM     19  C   UNL     1     163.478 178.300 175.915  1.00  0.00     0.009 C 
ATOM     20  C   UNL     1     162.411 177.663 176.835  1.00  0.00     0.007 C 
ATOM     21  C   UNL     1     162.743 175.115 176.476  1.00  0.00     0.014 C 
ATOM     22  C   UNL     1     160.371 176.108 176.582  1.00  0.00     0.016 C 
ATOM     23  C   UNL     1     162.935 177.494 178.345  1.00  0.00    -0.006 C 
ATOM     24  C   UNL     1     163.059 174.954 177.959  1.00  0.00     0.033 C 
ATOM     25  C   UNL     1     163.788 176.195 178.486  1.00  0.00     0.120 C 
ATOM     26  C   UNL     1     163.832 178.694 178.780  1.00  0.00     0.014 C 
ATOM     27  C   UNL     1     161.753 177.494 179.365  1.00  0.00     0.014 C 
BRANCH  25  28
ATOM     28  O   UNL     1     164.229 175.992 179.809  1.00  0.00    -0.393 OA
ATOM     29  H   UNL     1     163.435 175.876 180.394  1.00  0.00     0.210 HD
ENDBRANCH  25  28
ENDBRANCH   2   6
ENDBRANCH   1   2
BRANCH   1  30
ATOM     30  C   UNL     1     161.279 176.747 166.920  1.00  0.00     0.031 C 
BRANCH  30  31
ATOM     31  C   UNL     1     161.519 178.237 167.078  1.00  0.00    -0.075 C 
ATOM     32  C   UNL     1     160.466 179.050 167.307  1.00  0.00     0.008 C 
BRANCH  31  33
ATOM     33  C   UNL     1     162.946 178.770 167.132  1.00  0.00     0.008 C 
ATOM     34  C   UNL     1     163.232 179.806 166.031  1.00  0.00     0.012 C 
ATOM     35  C   UNL     1     163.250 179.363 168.515  1.00  0.00     0.012 C 
ENDBRANCH  31  33
ENDBRANCH  30  31
ENDBRANCH   1  30
TORSDOF 7
ENDMDL
MODEL 8
REMARK VINA RESULT:    -6.019      6.633      9.962
REMARK INTER + INTRA:          -9.391
REMARK INTER:                  -7.319
REMARK INTRA:                  -2.072
REMARK UNBOUND:                -1.085
REMARK SMILES C=C(CC[C@@H](C(=O)[O-])[C@H]1CC[C@]2(C)C3=C(CC[C@]12C)[C@@]1(C)CC[C@H](O)C(C)(C)[C@H]1CC3)C(C)C
REMARK SMILES IDX 4 1 5 2 6 3 7 4 8 5 9 6 10 7 18 8 11 9 12 10 17 11 19 12
REMARK SMILES IDX 13 13 14 14 16 15 15 16 31 17 20 18 30 19 29 20 22 21 21 22
REMARK SMILES IDX 26 23 23 24 24 25 27 26 28 27 25 28 3 30 2 31 1 32 32 33
REMARK SMILES IDX 33 34 34 35
REMARK H PARENT 25 29
REMARK Flexibility Score: inf
ROOT
ATOM      1  C   UNL     1     162.988 176.411 180.543  1.00  0.00     0.014 C 
ENDROOT
BRANCH   1   2
ATOM      2  C   UNL     1     163.475 175.464 179.403  1.00  0.00     0.039 C 
BRANCH   2   3
ATOM      3  C   UNL     1     163.303 174.005 179.767  1.00  0.00     0.045 C 
ATOM      4  O   UNL     1     163.875 173.538 180.788  1.00  0.00    -0.550 OA
ATOM      5  O   UNL     1     162.467 173.172 179.035  1.00  0.00    -0.550 OA
ENDBRANCH   2   3
BRANCH   2   6
ATOM      6  C   UNL     1     162.955 175.865 177.968  1.00  0.00     0.004 C 
ATOM      7  C   UNL     1     161.734 176.788 178.044  1.00  0.00     0.006 C 
ATOM      8  C   UNL     1     163.904 176.473 176.853  1.00  0.00    -0.020 C 
ATOM      9  C   UNL     1     161.597 177.404 176.671  1.00  0.00     0.012 C 
ATOM     10  C   UNL     1     163.036 177.642 176.171  1.00  0.00    -0.006 C 
ATOM     11  C   UNL     1     164.282 175.364 175.815  1.00  0.00     0.012 C 
ATOM     12  C   UNL     1     165.267 176.969 177.413  1.00  0.00     0.012 C 
ATOM     13  C   UNL     1     163.476 179.053 176.680  1.00  0.00     0.017 C 
ATOM     14  C   UNL     1     162.997 177.601 174.612  1.00  0.00    -0.064 C 
ATOM     15  C   UNL     1     163.202 175.155 174.771  1.00  0.00     0.032 C 
ATOM     16  C   UNL     1     163.069 176.416 173.940  1.00  0.00    -0.064 C 
ATOM     17  C   UNL     1     162.769 178.884 173.845  1.00  0.00     0.032 C 
ATOM     18  C   UNL     1     163.003 176.287 172.387  1.00  0.00    -0.008 C 
ATOM     19  C   UNL     1     162.067 178.662 172.516  1.00  0.00     0.009 C 
ATOM     20  C   UNL     1     162.875 177.686 171.631  1.00  0.00     0.007 C 
ATOM     21  C   UNL     1     161.765 175.387 172.091  1.00  0.00     0.014 C 
ATOM     22  C   UNL     1     164.328 175.583 171.962  1.00  0.00     0.016 C 
ATOM     23  C   UNL     1     162.315 177.628 170.125  1.00  0.00    -0.006 C 
ATOM     24  C   UNL     1     161.405 175.272 170.614  1.00  0.00     0.033 C 
ATOM     25  C   UNL     1     161.097 176.655 170.031  1.00  0.00     0.120 C 
ATOM     26  C   UNL     1     161.835 179.030 169.636  1.00  0.00     0.014 C 
ATOM     27  C   UNL     1     163.431 177.216 169.115  1.00  0.00     0.014 C 
BRANCH  25  28
ATOM     28  O   UNL     1     160.607 176.547 168.715  1.00  0.00    -0.393 OA
ATOM     29  H   UNL     1     159.884 175.866 168.701  1.00  0.00     0.210 HD
ENDBRANCH  25  28
ENDBRANCH   2   6
ENDBRANCH   1   2
BRANCH   1  30
ATOM     30  C   UNL     1     164.011 177.492 180.949  1.00  0.00     0.031 C 
BRANCH  30  31
ATOM     31  C   UNL     1     163.610 178.909 180.582  1.00  0.00    -0.075 C 
ATOM     32  C   UNL     1     164.542 179.742 180.072  1.00  0.00     0.008 C 
BRANCH  31  33
ATOM     33  C   UNL     1     162.143 179.319 180.648  1.00  0.00     0.008 C 
ATOM     34  C   UNL     1     161.808 180.111 181.924  1.00  0.00     0.012 C 
ATOM     35  C   UNL     1     161.752 180.125 179.402  1.00  0.00     0.012 C 
ENDBRANCH  31  33
ENDBRANCH  30  31
ENDBRANCH   1  30
TORSDOF 7
ENDMDL
