MODEL 1
REMARK VINA RESULT:    -6.418      0.000      0.000
REMARK INTER + INTRA:          -8.117
REMARK INTER:                  -7.543
REMARK INTRA:                  -0.573
REMARK UNBOUND:                -0.573
REMARK SMILES C=C(C)[C@@H]1CC[C@@]2(CO)CC[C@@]3(C)[C@@H](CC[C@H]4[C@]5(C)CC[C@@H](O)C(C)(C)[C@@H]5CC[C@@]43C)[C@H]12
REMARK SMILES IDX 4 1 5 2 6 3 7 4 32 5 14 6 15 7 16 8 17 9 18 10 20 11 21 12
REMARK SMILES IDX 22 13 24 14 27 15 28 16 29 17 30 18 12 19 11 20 10 21 13 22
REMARK SMILES IDX 31 23 25 24 26 25 19 26 2 27 3 28 1 29 8 30 9 31 23 33
REMARK H PARENT 9 32 23 34
REMARK Flexibility Score: inf
ROOT
ATOM      1  C   UNL     1      96.132  86.651  85.462  1.00  0.00     0.018 C 
ATOM      2  C   UNL     1      96.523  87.265  86.824  1.00  0.00     0.009 C 
ATOM      3  C   UNL     1      95.226  87.802  87.457  1.00  0.00     0.010 C 
ATOM      4  C   UNL     1      94.113  86.911  86.885  1.00  0.00    -0.003 C 
ATOM      5  C   UNL     1      94.584  86.755  85.422  1.00  0.00     0.008 C 
ATOM      6  C   UNL     1      93.665  85.831  84.580  1.00  0.00    -0.000 C 
ATOM      7  C   UNL     1      94.193  85.583  83.151  1.00  0.00     0.005 C 
ATOM      8  C   UNL     1      93.299  84.601  82.381  1.00  0.00     0.005 C 
ATOM      9  C   UNL     1      91.784  84.993  82.379  1.00  0.00     0.002 C 
ATOM     10  C   UNL     1      90.882  84.084  81.419  1.00  0.00    -0.026 C 
ATOM     11  C   UNL     1      91.192  84.462  79.917  1.00  0.00     0.010 C 
ATOM     12  C   UNL     1      90.295  85.558  79.345  1.00  0.00     0.033 C 
ATOM     13  C   UNL     1      88.792  85.185  79.355  1.00  0.00     0.120 C 
ATOM     14  C   UNL     1      88.378  84.140  80.454  1.00  0.00    -0.006 C 
ATOM     15  C   UNL     1      89.326  84.275  81.729  1.00  0.00     0.003 C 
ATOM     16  C   UNL     1      89.068  85.619  82.475  1.00  0.00     0.005 C 
ATOM     17  C   UNL     1      89.735  85.675  83.844  1.00  0.00     0.008 C 
ATOM     18  C   UNL     1      91.244  85.238  83.861  1.00  0.00    -0.024 C 
ATOM     19  C   UNL     1      92.171  86.369  84.560  1.00  0.00    -0.024 C 
ATOM     20  C   UNL     1      91.707  86.719  86.035  1.00  0.00     0.008 C 
ATOM     21  C   UNL     1      92.713  87.571  86.859  1.00  0.00     0.010 C 
ATOM     22  C   UNL     1      92.079  87.730  83.760  1.00  0.00     0.012 C 
ATOM     23  C   UNL     1      91.270  83.888  84.663  1.00  0.00     0.012 C 
ATOM     24  C   UNL     1      86.887  84.390  80.832  1.00  0.00     0.014 C 
ATOM     25  C   UNL     1      88.401  82.684  79.904  1.00  0.00     0.014 C 
ATOM     26  C   UNL     1      91.290  82.584  81.578  1.00  0.00     0.012 C 
ENDROOT
BRANCH   1  27
ATOM     27  C   UNL     1      96.835  85.316  85.195  1.00  0.00    -0.077 C 
ATOM     28  C   UNL     1      97.715  85.201  83.975  1.00  0.00     0.039 C 
ATOM     29  C   UNL     1      96.744  84.240  85.992  1.00  0.00     0.008 C 
ENDBRANCH   1  27
BRANCH   4  30
ATOM     30  C   UNL     1      94.064  85.595  87.731  1.00  0.00     0.163 C 
BRANCH  30  31
ATOM     31  O   UNL     1      93.831  85.889  89.083  1.00  0.00    -0.396 OA
ATOM     32  H   UNL     1      93.845  86.880  89.161  1.00  0.00     0.210 HD
ENDBRANCH  30  31
ENDBRANCH   4  30
BRANCH  13  33
ATOM     33  O   UNL     1      88.348  84.800  78.075  1.00  0.00    -0.393 OA
ATOM     34  H   UNL     1      89.133  84.476  77.563  1.00  0.00     0.210 HD
ENDBRANCH  13  33
TORSDOF 4
ENDMDL
MODEL 2
REMARK VINA RESULT:    -6.228      4.063      6.009
REMARK INTER + INTRA:          -7.893
REMARK INTER:                  -7.468
REMARK INTRA:                  -0.425
REMARK UNBOUND:                -0.573
REMARK SMILES C=C(C)[C@@H]1CC[C@@]2(CO)CC[C@@]3(C)[C@@H](CC[C@H]4[C@]5(C)CC[C@@H](O)C(C)(C)[C@@H]5CC[C@@]43C)[C@H]12
REMARK SMILES IDX 4 1 5 2 6 3 7 4 32 5 14 6 15 7 16 8 17 9 18 10 20 11 21 12
REMARK SMILES IDX 22 13 24 14 27 15 28 16 29 17 30 18 12 19 11 20 10 21 13 22
REMARK SMILES IDX 31 23 25 24 26 25 19 26 2 27 3 28 1 29 8 30 9 31 23 33
REMARK H PARENT 9 32 23 34
REMARK Flexibility Score: inf
ROOT
ATOM      1  C   UNL     1     101.215  89.291  82.359  1.00  0.00     0.018 C 
ATOM      2  C   UNL     1     101.829  90.158  83.480  1.00  0.00     0.009 C 
ATOM      3  C   UNL     1     100.751  90.302  84.571  1.00  0.00     0.010 C 
ATOM      4  C   UNL     1      99.900  89.028  84.450  1.00  0.00    -0.003 C 
ATOM      5  C   UNL     1      99.830  88.866  82.916  1.00  0.00     0.008 C 
ATOM      6  C   UNL     1      99.059  87.594  82.471  1.00  0.00    -0.000 C 
ATOM      7  C   UNL     1      99.082  87.369  80.944  1.00  0.00     0.005 C 
ATOM      8  C   UNL     1      98.380  86.061  80.555  1.00  0.00     0.005 C 
ATOM      9  C   UNL     1      96.935  85.921  81.139  1.00  0.00     0.002 C 
ATOM     10  C   UNL     1      96.131  84.655  80.580  1.00  0.00    -0.026 C 
ATOM     11  C   UNL     1      95.718  84.934  79.081  1.00  0.00     0.010 C 
ATOM     12  C   UNL     1      94.349  85.591  78.915  1.00  0.00     0.033 C 
ATOM     13  C   UNL     1      93.190  84.741  79.492  1.00  0.00     0.120 C 
ATOM     14  C   UNL     1      93.603  83.757  80.646  1.00  0.00    -0.006 C 
ATOM     15  C   UNL     1      94.835  84.351  81.465  1.00  0.00     0.003 C 
ATOM     16  C   UNL     1      94.408  85.610  82.277  1.00  0.00     0.005 C 
ATOM     17  C   UNL     1      95.460  86.048  83.289  1.00  0.00     0.008 C 
ATOM     18  C   UNL     1      96.921  86.146  82.720  1.00  0.00    -0.024 C 
ATOM     19  C   UNL     1      97.573  87.596  83.033  1.00  0.00    -0.024 C 
ATOM     20  C   UNL     1      97.586  87.944  84.580  1.00  0.00     0.008 C 
ATOM     21  C   UNL     1      98.450  89.175  84.973  1.00  0.00     0.010 C 
ATOM     22  C   UNL     1      96.722  88.743  82.354  1.00  0.00     0.012 C 
ATOM     23  C   UNL     1      97.713  84.988  83.425  1.00  0.00     0.012 C 
ATOM     24  C   UNL     1      92.366  83.537  81.569  1.00  0.00     0.014 C 
ATOM     25  C   UNL     1      93.938  82.337  80.101  1.00  0.00     0.014 C 
ATOM     26  C   UNL     1      97.071  83.408  80.543  1.00  0.00     0.012 C 
ENDROOT
BRANCH   1  27
ATOM     27  C   UNL     1     102.196  88.246  81.819  1.00  0.00    -0.077 C 
ATOM     28  C   UNL     1     102.936  88.551  80.540  1.00  0.00     0.039 C 
ATOM     29  C   UNL     1     102.468  87.078  82.423  1.00  0.00     0.008 C 
ENDBRANCH   1  27
BRANCH   4  30
ATOM     30  C   UNL     1     100.631  87.882  85.226  1.00  0.00     0.163 C 
BRANCH  30  31
ATOM     31  O   UNL     1     101.207  88.378  86.405  1.00  0.00    -0.396 OA
ATOM     32  H   UNL     1     100.466  88.475  87.060  1.00  0.00     0.210 HD
ENDBRANCH  30  31
ENDBRANCH   4  30
BRANCH  13  33
ATOM     33  O   UNL     1      92.479  84.080  78.471  1.00  0.00    -0.393 OA
ATOM     34  H   UNL     1      91.792  83.506  78.898  1.00  0.00     0.210 HD
ENDBRANCH  13  33
TORSDOF 4
ENDMDL
MODEL 3
REMARK VINA RESULT:    -6.190      3.085      8.984
REMARK INTER + INTRA:          -7.849
REMARK INTER:                  -8.418
REMARK INTRA:                   0.569
REMARK UNBOUND:                -0.573
REMARK SMILES C=C(C)[C@@H]1CC[C@@]2(CO)CC[C@@]3(C)[C@@H](CC[C@H]4[C@]5(C)CC[C@@H](O)C(C)(C)[C@@H]5CC[C@@]43C)[C@H]12
REMARK SMILES IDX 4 1 5 2 6 3 7 4 32 5 14 6 15 7 16 8 17 9 18 10 20 11 21 12
REMARK SMILES IDX 22 13 24 14 27 15 28 16 29 17 30 18 12 19 11 20 10 21 13 22
REMARK SMILES IDX 31 23 25 24 26 25 19 26 2 27 3 28 1 29 8 30 9 31 23 33
REMARK H PARENT 9 32 23 34
REMARK Flexibility Score: inf
ROOT
ATOM      1  C   UNL     1      91.944  85.170  81.172  1.00  0.00     0.018 C 
ATOM      2  C   UNL     1      91.181  84.874  79.863  1.00  0.00     0.009 C 
ATOM      3  C   UNL     1      92.212  84.958  78.721  1.00  0.00     0.010 C 
ATOM      4  C   UNL     1      93.550  84.578  79.372  1.00  0.00    -0.003 C 
ATOM      5  C   UNL     1      93.428  85.295  80.735  1.00  0.00     0.008 C 
ATOM      6  C   UNL     1      94.641  85.042  81.669  1.00  0.00    -0.000 C 
ATOM      7  C   UNL     1      94.473  85.665  83.071  1.00  0.00     0.005 C 
ATOM      8  C   UNL     1      95.656  85.323  83.987  1.00  0.00     0.005 C 
ATOM      9  C   UNL     1      97.054  85.661  83.368  1.00  0.00     0.002 C 
ATOM     10  C   UNL     1      98.273  85.488  84.390  1.00  0.00    -0.026 C 
ATOM     11  C   UNL     1      98.227  86.665  85.442  1.00  0.00     0.010 C 
ATOM     12  C   UNL     1      99.032  87.900  85.044  1.00  0.00     0.033 C 
ATOM     13  C   UNL     1     100.541  87.607  84.844  1.00  0.00     0.120 C 
ATOM     14  C   UNL     1     100.879  86.123  84.452  1.00  0.00    -0.006 C 
ATOM     15  C   UNL     1      99.676  85.482  83.626  1.00  0.00     0.003 C 
ATOM     16  C   UNL     1      99.549  86.146  82.222  1.00  0.00     0.005 C 
ATOM     17  C   UNL     1      98.610  85.388  81.290  1.00  0.00     0.008 C 
ATOM     18  C   UNL     1      97.223  85.005  81.921  1.00  0.00    -0.024 C 
ATOM     19  C   UNL     1      95.998  85.510  80.988  1.00  0.00    -0.024 C 
ATOM     20  C   UNL     1      96.079  84.942  79.509  1.00  0.00     0.008 C 
ATOM     21  C   UNL     1      94.797  85.146  78.653  1.00  0.00     0.010 C 
ATOM     22  C   UNL     1      96.032  87.083  80.834  1.00  0.00     0.012 C 
ATOM     23  C   UNL     1      97.250  83.440  82.051  1.00  0.00     0.012 C 
ATOM     24  C   UNL     1     102.197  86.124  83.620  1.00  0.00     0.014 C 
ATOM     25  C   UNL     1     101.211  85.257  85.703  1.00  0.00     0.014 C 
ATOM     26  C   UNL     1      98.091  84.170  85.209  1.00  0.00     0.012 C 
ENDROOT
BRANCH   1  27
ATOM     27  C   UNL     1      91.540  84.230  82.313  1.00  0.00    -0.077 C 
ATOM     28  C   UNL     1      90.900  82.910  81.961  1.00  0.00     0.039 C 
ATOM     29  C   UNL     1      91.742  84.488  83.615  1.00  0.00     0.008 C 
ENDBRANCH   1  27
BRANCH   4  30
ATOM     30  C   UNL     1      93.634  83.016  79.427  1.00  0.00     0.163 C 
BRANCH  30  31
ATOM     31  O   UNL     1      94.071  82.592  80.691  1.00  0.00    -0.396 OA
ATOM     32  H   UNL     1      94.426  81.671  80.572  1.00  0.00     0.210 HD
ENDBRANCH  30  31
ENDBRANCH   4  30
BRANCH  13  33
ATOM     33  O   UNL     1     101.300  88.042  85.948  1.00  0.00    -0.393 OA
ATOM     34  H   UNL     1     102.012  87.372  86.114  1.00  0.00     0.210 HD
ENDBRANCH  13  33
TORSDOF 4
ENDMDL
MODEL 4
REMARK VINA RESULT:    -6.175      1.325      7.773
REMARK INTER + INTRA:          -7.832
REMARK INTER:                  -7.356
REMARK INTRA:                  -0.475
REMARK UNBOUND:                -0.573
REMARK SMILES C=C(C)[C@@H]1CC[C@@]2(CO)CC[C@@]3(C)[C@@H](CC[C@H]4[C@]5(C)CC[C@@H](O)C(C)(C)[C@@H]5CC[C@@]43C)[C@H]12
REMARK SMILES IDX 4 1 5 2 6 3 7 4 32 5 14 6 15 7 16 8 17 9 18 10 20 11 21 12
REMARK SMILES IDX 22 13 24 14 27 15 28 16 29 17 30 18 12 19 11 20 10 21 13 22
REMARK SMILES IDX 31 23 25 24 26 25 19 26 2 27 3 28 1 29 8 30 9 31 23 33
REMARK H PARENT 9 32 23 34
REMARK Flexibility Score: inf
ROOT
ATOM      1  C   UNL     1      90.444  83.435  80.379  1.00  0.00     0.018 C 
ATOM      2  C   UNL     1      89.008  83.126  79.905  1.00  0.00     0.009 C 
ATOM      3  C   UNL     1      88.078  83.396  81.103  1.00  0.00     0.010 C 
ATOM      4  C   UNL     1      88.801  84.474  81.925  1.00  0.00    -0.003 C 
ATOM      5  C   UNL     1      90.265  83.994  81.816  1.00  0.00     0.008 C 
ATOM      6  C   UNL     1      91.273  84.941  82.520  1.00  0.00    -0.000 C 
ATOM      7  C   UNL     1      92.745  84.525  82.319  1.00  0.00     0.005 C 
ATOM      8  C   UNL     1      93.710  85.531  82.961  1.00  0.00     0.005 C 
ATOM      9  C   UNL     1      93.395  85.839  84.464  1.00  0.00     0.002 C 
ATOM     10  C   UNL     1      94.507  86.734  85.188  1.00  0.00    -0.026 C 
ATOM     11  C   UNL     1      95.795  85.851  85.426  1.00  0.00     0.010 C 
ATOM     12  C   UNL     1      95.825  85.129  86.772  1.00  0.00     0.033 C 
ATOM     13  C   UNL     1      95.777  86.093  87.984  1.00  0.00     0.120 C 
ATOM     14  C   UNL     1      95.090  87.478  87.699  1.00  0.00    -0.006 C 
ATOM     15  C   UNL     1      93.971  87.319  86.574  1.00  0.00     0.003 C 
ATOM     16  C   UNL     1      92.766  86.485  87.102  1.00  0.00     0.005 C 
ATOM     17  C   UNL     1      91.556  86.541  86.177  1.00  0.00     0.008 C 
ATOM     18  C   UNL     1      91.872  86.278  84.661  1.00  0.00    -0.024 C 
ATOM     19  C   UNL     1      90.924  85.109  84.061  1.00  0.00    -0.024 C 
ATOM     20  C   UNL     1      89.379  85.424  84.229  1.00  0.00     0.008 C 
ATOM     21  C   UNL     1      88.425  84.496  83.426  1.00  0.00     0.010 C 
ATOM     22  C   UNL     1      91.161  83.752  84.837  1.00  0.00     0.012 C 
ATOM     23  C   UNL     1      91.622  87.654  83.947  1.00  0.00     0.012 C 
ATOM     24  C   UNL     1      94.479  88.006  89.032  1.00  0.00     0.014 C 
ATOM     25  C   UNL     1      96.129  88.564  87.292  1.00  0.00     0.014 C 
ATOM     26  C   UNL     1      94.950  87.894  84.239  1.00  0.00     0.012 C 
ENDROOT
BRANCH   1  27
ATOM     27  C   UNL     1      91.255  84.208  79.334  1.00  0.00    -0.077 C 
ATOM     28  C   UNL     1      92.665  83.755  79.044  1.00  0.00     0.039 C 
ATOM     29  C   UNL     1      90.787  85.251  78.632  1.00  0.00     0.008 C 
ENDBRANCH   1  27
BRANCH   4  30
ATOM     30  C   UNL     1      88.489  85.866  81.279  1.00  0.00     0.163 C 
BRANCH  30  31
ATOM     31  O   UNL     1      87.128  85.960  80.951  1.00  0.00    -0.396 OA
ATOM     32  H   UNL     1      86.923  85.177  80.375  1.00  0.00     0.210 HD
ENDBRANCH  30  31
ENDBRANCH   4  30
BRANCH  13  33
ATOM     33  O   UNL     1      97.049  86.251  88.567  1.00  0.00    -0.393 OA
ATOM     34  H   UNL     1      97.709  86.373  87.836  1.00  0.00     0.210 HD
ENDBRANCH  13  33
TORSDOF 4
ENDMDL
MODEL 5
REMARK VINA RESULT:    -6.086      5.987      9.061
REMARK INTER + INTRA:          -7.727
REMARK INTER:                  -7.162
REMARK INTRA:                  -0.565
REMARK UNBOUND:                -0.573
REMARK SMILES C=C(C)[C@@H]1CC[C@@]2(CO)CC[C@@]3(C)[C@@H](CC[C@H]4[C@]5(C)CC[C@@H](O)C(C)(C)[C@@H]5CC[C@@]43C)[C@H]12
REMARK SMILES IDX 4 1 5 2 6 3 7 4 32 5 14 6 15 7 16 8 17 9 18 10 20 11 21 12
REMARK SMILES IDX 22 13 24 14 27 15 28 16 29 17 30 18 12 19 11 20 10 21 13 22
REMARK SMILES IDX 31 23 25 24 26 25 19 26 2 27 3 28 1 29 8 30 9 31 23 33
REMARK H PARENT 9 32 23 34
REMARK Flexibility Score: inf
ROOT
ATOM      1  C   UNL     1      98.234  85.239  84.821  1.00  0.00     0.018 C 
ATOM      2  C   UNL     1      99.085  84.573  85.924  1.00  0.00     0.009 C 
ATOM      3  C   UNL     1     100.540  85.026  85.696  1.00  0.00     0.010 C 
ATOM      4  C   UNL     1     100.420  86.401  85.021  1.00  0.00    -0.003 C 
ATOM      5  C   UNL     1      99.232  86.156  84.065  1.00  0.00     0.008 C 
ATOM      6  C   UNL     1      98.824  87.421  83.262  1.00  0.00    -0.000 C 
ATOM      7  C   UNL     1      97.568  87.211  82.389  1.00  0.00     0.005 C 
ATOM      8  C   UNL     1      97.153  88.505  81.677  1.00  0.00     0.005 C 
ATOM      9  C   UNL     1      98.311  89.184  80.871  1.00  0.00     0.002 C 
ATOM     10  C   UNL     1      97.837  90.420  79.973  1.00  0.00    -0.026 C 
ATOM     11  C   UNL     1      97.023  89.871  78.736  1.00  0.00     0.010 C 
ATOM     12  C   UNL     1      97.872  89.589  77.497  1.00  0.00     0.033 C 
ATOM     13  C   UNL     1      98.605  90.844  76.962  1.00  0.00     0.120 C 
ATOM     14  C   UNL     1      98.890  91.953  78.039  1.00  0.00    -0.006 C 
ATOM     15  C   UNL     1      99.082  91.290  79.476  1.00  0.00     0.003 C 
ATOM     16  C   UNL     1     100.399  90.462  79.536  1.00  0.00     0.005 C 
ATOM     17  C   UNL     1     100.774  90.045  80.954  1.00  0.00     0.008 C 
ATOM     18  C   UNL     1      99.603  89.405  81.784  1.00  0.00    -0.024 C 
ATOM     19  C   UNL     1     100.041  87.973  82.402  1.00  0.00    -0.024 C 
ATOM     20  C   UNL     1     101.339  88.065  83.308  1.00  0.00     0.008 C 
ATOM     21  C   UNL     1     101.642  86.799  84.158  1.00  0.00     0.010 C 
ATOM     22  C   UNL     1     100.410  86.961  81.244  1.00  0.00     0.012 C 
ATOM     23  C   UNL     1      99.281  90.451  82.910  1.00  0.00     0.012 C 
ATOM     24  C   UNL     1     100.165  92.740  77.607  1.00  0.00     0.014 C 
ATOM     25  C   UNL     1      97.764  93.027  78.074  1.00  0.00     0.014 C 
ATOM     26  C   UNL     1      96.839  91.308  80.784  1.00  0.00     0.012 C 
ENDROOT
BRANCH   1  27
ATOM     27  C   UNL     1      96.909  85.793  85.354  1.00  0.00    -0.077 C 
ATOM     28  C   UNL     1      95.624  85.288  84.745  1.00  0.00     0.039 C 
ATOM     29  C   UNL     1      96.808  86.685  86.352  1.00  0.00     0.008 C 
ENDBRANCH   1  27
BRANCH   4  30
ATOM     30  C   UNL     1     100.188  87.471  86.140  1.00  0.00     0.163 C 
BRANCH  30  31
ATOM     31  O   UNL     1     101.321  87.576  86.961  1.00  0.00    -0.396 OA
ATOM     32  H   UNL     1     101.876  86.772  86.777  1.00  0.00     0.210 HD
ENDBRANCH  30  31
ENDBRANCH   4  30
BRANCH  13  33
ATOM     33  O   UNL     1      97.959  91.373  75.827  1.00  0.00    -0.393 OA
ATOM     34  H   UNL     1      98.639  91.842  75.277  1.00  0.00     0.210 HD
ENDBRANCH  13  33
TORSDOF 4
ENDMDL
MODEL 6
REMARK VINA RESULT:    -6.049      4.313      6.892
REMARK INTER + INTRA:          -7.683
REMARK INTER:                  -7.167
REMARK INTRA:                  -0.516
REMARK UNBOUND:                -0.573
REMARK SMILES C=C(C)[C@@H]1CC[C@@]2(CO)CC[C@@]3(C)[C@@H](CC[C@H]4[C@]5(C)CC[C@@H](O)C(C)(C)[C@@H]5CC[C@@]43C)[C@H]12
REMARK SMILES IDX 4 1 5 2 6 3 7 4 32 5 14 6 15 7 16 8 17 9 18 10 20 11 21 12
REMARK SMILES IDX 22 13 24 14 27 15 28 16 29 17 30 18 12 19 11 20 10 21 13 22
REMARK SMILES IDX 31 23 25 24 26 25 19 26 2 27 3 28 1 29 8 30 9 31 23 33
REMARK H PARENT 9 32 23 34
REMARK Flexibility Score: inf
ROOT
ATOM      1  C   UNL     1     100.052  85.067  82.301  1.00  0.00     0.018 C 
ATOM      2  C   UNL     1     101.569  84.815  82.435  1.00  0.00     0.009 C 
ATOM      3  C   UNL     1     101.978  85.303  83.837  1.00  0.00     0.010 C 
ATOM      4  C   UNL     1     100.714  85.136  84.694  1.00  0.00    -0.003 C 
ATOM      5  C   UNL     1      99.623  85.588  83.699  1.00  0.00     0.008 C 
ATOM      6  C   UNL     1      98.186  85.472  84.274  1.00  0.00    -0.000 C 
ATOM      7  C   UNL     1      97.087  85.816  83.246  1.00  0.00     0.005 C 
ATOM      8  C   UNL     1      95.683  85.611  83.830  1.00  0.00     0.005 C 
ATOM      9  C   UNL     1      95.451  86.345  85.193  1.00  0.00     0.002 C 
ATOM     10  C   UNL     1      93.936  86.294  85.706  1.00  0.00    -0.026 C 
ATOM     11  C   UNL     1      93.060  87.253  84.807  1.00  0.00     0.010 C 
ATOM     12  C   UNL     1      92.951  88.684  85.331  1.00  0.00     0.033 C 
ATOM     13  C   UNL     1      92.312  88.771  86.740  1.00  0.00     0.120 C 
ATOM     14  C   UNL     1      92.476  87.479  87.620  1.00  0.00    -0.006 C 
ATOM     15  C   UNL     1      93.826  86.720  87.242  1.00  0.00     0.003 C 
ATOM     16  C   UNL     1      95.071  87.548  87.680  1.00  0.00     0.005 C 
ATOM     17  C   UNL     1      96.369  86.752  87.602  1.00  0.00     0.008 C 
ATOM     18  C   UNL     1      96.586  85.976  86.253  1.00  0.00    -0.024 C 
ATOM     19  C   UNL     1      98.026  86.331  85.601  1.00  0.00    -0.024 C 
ATOM     20  C   UNL     1      99.237  86.032  86.581  1.00  0.00     0.008 C 
ATOM     21  C   UNL     1     100.644  86.074  85.924  1.00  0.00     0.010 C 
ATOM     22  C   UNL     1      98.121  87.877  85.279  1.00  0.00     0.012 C 
ATOM     23  C   UNL     1      96.479  84.456  86.635  1.00  0.00     0.012 C 
ATOM     24  C   UNL     1      92.470  87.904  89.120  1.00  0.00     0.014 C 
ATOM     25  C   UNL     1      91.252  86.527  87.482  1.00  0.00     0.014 C 
ATOM     26  C   UNL     1      93.356  84.858  85.495  1.00  0.00     0.012 C 
ENDROOT
BRANCH   1  27
ATOM     27  C   UNL     1      99.317  83.896  81.642  1.00  0.00    -0.077 C 
ATOM     28  C   UNL     1      98.379  84.192  80.497  1.00  0.00     0.039 C 
ATOM     29  C   UNL     1      99.469  82.610  81.996  1.00  0.00     0.008 C 
ENDBRANCH   1  27
BRANCH   4  30
ATOM     30  C   UNL     1     100.638  83.643  85.159  1.00  0.00     0.163 C 
BRANCH  30  31
ATOM     31  O   UNL     1     101.652  83.367  86.089  1.00  0.00    -0.396 OA
ATOM     32  H   UNL     1     101.418  82.498  86.510  1.00  0.00     0.210 HD
ENDBRANCH  30  31
ENDBRANCH   4  30
BRANCH  13  33
ATOM     33  O   UNL     1      90.968  89.188  86.670  1.00  0.00    -0.393 OA
ATOM     34  H   UNL     1      90.760  89.690  87.500  1.00  0.00     0.210 HD
ENDBRANCH  13  33
TORSDOF 4
ENDMDL
MODEL 7
REMARK VINA RESULT:    -5.952      2.897      8.546
REMARK INTER + INTRA:          -7.568
REMARK INTER:                  -6.999
REMARK INTRA:                  -0.570
REMARK UNBOUND:                -0.573
REMARK SMILES C=C(C)[C@@H]1CC[C@@]2(CO)CC[C@@]3(C)[C@@H](CC[C@H]4[C@]5(C)CC[C@@H](O)C(C)(C)[C@@H]5CC[C@@]43C)[C@H]12
REMARK SMILES IDX 4 1 5 2 6 3 7 4 32 5 14 6 15 7 16 8 17 9 18 10 20 11 21 12
REMARK SMILES IDX 22 13 24 14 27 15 28 16 29 17 30 18 12 19 11 20 10 21 13 22
REMARK SMILES IDX 31 23 25 24 26 25 19 26 2 27 3 28 1 29 8 30 9 31 23 33
REMARK H PARENT 9 32 23 34
REMARK Flexibility Score: inf
ROOT
ATOM      1  C   UNL     1      91.605  84.713  84.092  1.00  0.00     0.018 C 
ATOM      2  C   UNL     1      90.125  84.761  84.529  1.00  0.00     0.009 C 
ATOM      3  C   UNL     1      90.120  84.861  86.066  1.00  0.00     0.010 C 
ATOM      4  C   UNL     1      91.437  85.571  86.416  1.00  0.00    -0.003 C 
ATOM      5  C   UNL     1      92.403  84.912  85.408  1.00  0.00     0.008 C 
ATOM      6  C   UNL     1      93.844  85.483  85.480  1.00  0.00    -0.000 C 
ATOM      7  C   UNL     1      94.785  84.908  84.400  1.00  0.00     0.005 C 
ATOM      8  C   UNL     1      96.174  85.557  84.456  1.00  0.00     0.005 C 
ATOM      9  C   UNL     1      96.833  85.521  85.876  1.00  0.00     0.002 C 
ATOM     10  C   UNL     1      98.353  86.020  85.897  1.00  0.00    -0.026 C 
ATOM     11  C   UNL     1      99.261  84.917  85.223  1.00  0.00     0.010 C 
ATOM     12  C   UNL     1      99.825  83.883  86.196  1.00  0.00     0.033 C 
ATOM     13  C   UNL     1     100.714  84.506  87.301  1.00  0.00     0.120 C 
ATOM     14  C   UNL     1     100.394  86.007  87.639  1.00  0.00    -0.006 C 
ATOM     15  C   UNL     1      98.849  86.313  87.387  1.00  0.00     0.003 C 
ATOM     16  C   UNL     1      97.958  85.570  88.427  1.00  0.00     0.005 C 
ATOM     17  C   UNL     1      96.510  86.045  88.413  1.00  0.00     0.008 C 
ATOM     18  C   UNL     1      95.857  86.127  86.985  1.00  0.00    -0.024 C 
ATOM     19  C   UNL     1      94.459  85.309  86.935  1.00  0.00    -0.024 C 
ATOM     20  C   UNL     1      93.416  85.807  88.021  1.00  0.00     0.008 C 
ATOM     21  C   UNL     1      91.968  85.272  87.839  1.00  0.00     0.010 C 
ATOM     22  C   UNL     1      94.701  83.780  87.259  1.00  0.00     0.012 C 
ATOM     23  C   UNL     1      95.644  87.660  86.721  1.00  0.00     0.012 C 
ATOM     24  C   UNL     1     100.785  86.270  89.125  1.00  0.00     0.014 C 
ATOM     25  C   UNL     1     101.289  86.986  86.823  1.00  0.00     0.014 C 
ATOM     26  C   UNL     1      98.501  87.299  85.011  1.00  0.00     0.012 C 
ENDROOT
BRANCH   1  27
ATOM     27  C   UNL     1      91.884  85.589  82.866  1.00  0.00    -0.077 C 
ATOM     28  C   UNL     1      92.443  84.931  81.628  1.00  0.00     0.039 C 
ATOM     29  C   UNL     1      91.639  86.907  82.805  1.00  0.00     0.008 C 
ENDBRANCH   1  27
BRANCH   4  30
ATOM     30  C   UNL     1      91.216  87.112  86.245  1.00  0.00     0.163 C 
BRANCH  30  31
ATOM     31  O   UNL     1      90.228  87.567  87.131  1.00  0.00    -0.396 OA
ATOM     32  H   UNL     1      90.055  86.822  87.765  1.00  0.00     0.210 HD
ENDBRANCH  30  31
ENDBRANCH   4  30
BRANCH  13  33
ATOM     33  O   UNL     1     102.083  84.312  87.031  1.00  0.00    -0.393 OA
ATOM     34  H   UNL     1     102.602  84.910  87.628  1.00  0.00     0.210 HD
ENDBRANCH  13  33
TORSDOF 4
ENDMDL
MODEL 8
REMARK VINA RESULT:    -5.938      6.825     10.276
REMARK INTER + INTRA:          -7.553
REMARK INTER:                  -7.058
REMARK INTRA:                  -0.495
REMARK UNBOUND:                -0.573
REMARK SMILES C=C(C)[C@@H]1CC[C@@]2(CO)CC[C@@]3(C)[C@@H](CC[C@H]4[C@]5(C)CC[C@@H](O)C(C)(C)[C@@H]5CC[C@@]43C)[C@H]12
REMARK SMILES IDX 4 1 5 2 6 3 7 4 32 5 14 6 15 7 16 8 17 9 18 10 20 11 21 12
REMARK SMILES IDX 22 13 24 14 27 15 28 16 29 17 30 18 12 19 11 20 10 21 13 22
REMARK SMILES IDX 31 23 25 24 26 25 19 26 2 27 3 28 1 29 8 30 9 31 23 33
REMARK H PARENT 9 32 23 34
REMARK Flexibility Score: inf
ROOT
ATOM      1  C   UNL     1     100.242  90.222  78.110  1.00  0.00     0.018 C 
ATOM      2  C   UNL     1      99.346  91.030  77.146  1.00  0.00     0.009 C 
ATOM      3  C   UNL     1      97.890  90.637  77.461  1.00  0.00     0.010 C 
ATOM      4  C   UNL     1      97.904  90.242  78.945  1.00  0.00    -0.003 C 
ATOM      5  C   UNL     1      99.242  89.477  79.034  1.00  0.00     0.008 C 
ATOM      6  C   UNL     1      99.573  88.989  80.470  1.00  0.00    -0.000 C 
ATOM      7  C   UNL     1     100.960  88.323  80.585  1.00  0.00     0.005 C 
ATOM      8  C   UNL     1     101.280  87.929  82.033  1.00  0.00     0.005 C 
ATOM      9  C   UNL     1     100.166  87.066  82.715  1.00  0.00     0.002 C 
ATOM     10  C   UNL     1     100.580  86.493  84.150  1.00  0.00    -0.026 C 
ATOM     11  C   UNL     1     101.639  85.338  83.953  1.00  0.00     0.010 C 
ATOM     12  C   UNL     1     101.033  83.942  83.821  1.00  0.00     0.033 C 
ATOM     13  C   UNL     1     100.209  83.514  85.062  1.00  0.00     0.120 C 
ATOM     14  C   UNL     1      99.608  84.702  85.897  1.00  0.00    -0.006 C 
ATOM     15  C   UNL     1      99.307  85.948  84.948  1.00  0.00     0.003 C 
ATOM     16  C   UNL     1      98.132  85.635  83.974  1.00  0.00     0.005 C 
ATOM     17  C   UNL     1      97.618  86.872  83.247  1.00  0.00     0.008 C 
ATOM     18  C   UNL     1      98.736  87.767  82.600  1.00  0.00    -0.024 C 
ATOM     19  C   UNL     1      98.428  88.042  81.033  1.00  0.00    -0.024 C 
ATOM     20  C   UNL     1      97.011  88.713  80.792  1.00  0.00     0.008 C 
ATOM     21  C   UNL     1      96.777  89.264  79.358  1.00  0.00     0.010 C 
ATOM     22  C   UNL     1      98.387  86.680  80.231  1.00  0.00     0.012 C 
ATOM     23  C   UNL     1      98.730  89.097  83.436  1.00  0.00     0.012 C 
ATOM     24  C   UNL     1      98.309  84.201  86.598  1.00  0.00     0.014 C 
ATOM     25  C   UNL     1     100.545  85.117  87.069  1.00  0.00     0.014 C 
ATOM     26  C   UNL     1     101.305  87.605  84.974  1.00  0.00     0.012 C 
ENDROOT
BRANCH   1  27
ATOM     27  C   UNL     1     101.378  91.064  78.702  1.00  0.00    -0.077 C 
ATOM     28  C   UNL     1     102.773  90.490  78.696  1.00  0.00     0.039 C 
ATOM     29  C   UNL     1     101.222  92.299  79.205  1.00  0.00     0.008 C 
ENDBRANCH   1  27
BRANCH   4  30
ATOM     30  C   UNL     1      97.807  91.553  79.796  1.00  0.00     0.163 C 
BRANCH  30  31
ATOM     31  O   UNL     1      96.603  92.222  79.531  1.00  0.00    -0.396 OA
ATOM     32  H   UNL     1      96.112  91.665  78.871  1.00  0.00     0.210 HD
ENDBRANCH  30  31
ENDBRANCH   4  30
BRANCH  13  33
ATOM     33  O   UNL     1     100.930  82.617  85.874  1.00  0.00    -0.393 OA
ATOM     34  H   UNL     1     101.077  83.051  86.754  1.00  0.00     0.210 HD
ENDBRANCH  13  33
TORSDOF 4
ENDMDL
MODEL 9
REMARK VINA RESULT:    -5.861      5.756      7.994
REMARK INTER + INTRA:          -7.462
REMARK INTER:                  -6.892
REMARK INTRA:                  -0.570
REMARK UNBOUND:                -0.573
REMARK SMILES C=C(C)[C@@H]1CC[C@@]2(CO)CC[C@@]3(C)[C@@H](CC[C@H]4[C@]5(C)CC[C@@H](O)C(C)(C)[C@@H]5CC[C@@]43C)[C@H]12
REMARK SMILES IDX 4 1 5 2 6 3 7 4 32 5 14 6 15 7 16 8 17 9 18 10 20 11 21 12
REMARK SMILES IDX 22 13 24 14 27 15 28 16 29 17 30 18 12 19 11 20 10 21 13 22
REMARK SMILES IDX 31 23 25 24 26 25 19 26 2 27 3 28 1 29 8 30 9 31 23 33
REMARK H PARENT 9 32 23 34
REMARK Flexibility Score: inf
ROOT
ATOM      1  C   UNL     1      99.574  84.445  86.074  1.00  0.00     0.018 C 
ATOM      2  C   UNL     1     100.668  83.385  85.828  1.00  0.00     0.009 C 
ATOM      3  C   UNL     1     100.980  83.411  84.319  1.00  0.00     0.010 C 
ATOM      4  C   UNL     1     100.665  84.849  83.880  1.00  0.00    -0.003 C 
ATOM      5  C   UNL     1      99.384  85.131  84.695  1.00  0.00     0.008 C 
ATOM      6  C   UNL     1      98.842  86.572  84.500  1.00  0.00    -0.000 C 
ATOM      7  C   UNL     1      97.628  86.895  85.397  1.00  0.00     0.005 C 
ATOM      8  C   UNL     1      97.175  88.352  85.233  1.00  0.00     0.005 C 
ATOM      9  C   UNL     1      96.924  88.773  83.746  1.00  0.00     0.002 C 
ATOM     10  C   UNL     1      96.268  90.224  83.587  1.00  0.00    -0.026 C 
ATOM     11  C   UNL     1      94.756  90.153  84.036  1.00  0.00     0.010 C 
ATOM     12  C   UNL     1      93.777  89.835  82.907  1.00  0.00     0.033 C 
ATOM     13  C   UNL     1      93.801  90.882  81.765  1.00  0.00     0.120 C 
ATOM     14  C   UNL     1      95.156  91.663  81.614  1.00  0.00    -0.006 C 
ATOM     15  C   UNL     1      96.376  90.749  82.081  1.00  0.00     0.003 C 
ATOM     16  C   UNL     1      96.595  89.564  81.093  1.00  0.00     0.005 C 
ATOM     17  C   UNL     1      97.909  88.830  81.330  1.00  0.00     0.008 C 
ATOM     18  C   UNL     1      98.188  88.445  82.828  1.00  0.00    -0.024 C 
ATOM     19  C   UNL     1      98.525  86.866  82.971  1.00  0.00    -0.024 C 
ATOM     20  C   UNL     1      99.753  86.416  82.074  1.00  0.00     0.008 C 
ATOM     21  C   UNL     1     100.309  84.997  82.380  1.00  0.00     0.010 C 
ATOM     22  C   UNL     1      97.304  85.993  82.477  1.00  0.00     0.012 C 
ATOM     23  C   UNL     1      99.403  89.341  83.261  1.00  0.00     0.012 C 
ATOM     24  C   UNL     1      95.311  92.090  80.123  1.00  0.00     0.014 C 
ATOM     25  C   UNL     1      95.141  93.005  82.403  1.00  0.00     0.014 C 
ATOM     26  C   UNL     1      96.961  91.226  84.565  1.00  0.00     0.012 C 
ENDROOT
BRANCH   1  27
ATOM     27  C   UNL     1      99.834  85.277  87.334  1.00  0.00    -0.077 C 
ATOM     28  C   UNL     1      98.839  85.193  88.466  1.00  0.00     0.039 C 
ATOM     29  C   UNL     1     100.907  86.063  87.515  1.00  0.00     0.008 C 
ENDBRANCH   1  27
BRANCH   4  30
ATOM     30  C   UNL     1     101.904  85.742  84.222  1.00  0.00     0.163 C 
BRANCH  30  31
ATOM     31  O   UNL     1     103.029  85.320  83.498  1.00  0.00    -0.396 OA
ATOM     32  H   UNL     1     103.804  85.820  83.866  1.00  0.00     0.210 HD
ENDBRANCH  30  31
ENDBRANCH   4  30
BRANCH  13  33
ATOM     33  O   UNL     1      92.700  91.757  81.846  1.00  0.00    -0.393 OA
ATOM     34  H   UNL     1      92.647  92.099  82.776  1.00  0.00     0.210 HD
ENDBRANCH  13  33
TORSDOF 4
ENDMDL
