MODEL 1
REMARK VINA RESULT:    -2.994      0.000      0.000
REMARK INTER + INTRA:          -3.373
REMARK INTER:                  -3.344
REMARK INTRA:                  -0.028
REMARK UNBOUND:                -0.028
REMARK SMILES CCCC(=O)[O-]
REMARK SMILES IDX 3 1 4 2 5 3 6 4 2 5 1 6
REMARK H PARENT
REMARK Flexibility Score: inf
ROOT
ATOM      1  C   UNL     1      12.877  25.377  33.453  1.00  0.00     0.052 C 
ENDROOT
BRANCH   1   2
ATOM      2  C   UNL     1      12.704  26.726  34.074  1.00  0.00     0.041 C 
ATOM      3  O   UNL     1      13.676  27.294  34.637  1.00  0.00    -0.550 OA
ATOM      4  O   UNL     1      11.481  27.380  33.987  1.00  0.00    -0.550 OA
ENDBRANCH   1   2
BRANCH   1   5
ATOM      5  C   UNL     1      14.319  25.187  32.977  1.00  0.00     0.003 C 
ATOM      6  C   UNL     1      14.847  23.806  33.354  1.00  0.00     0.004 C 
ENDBRANCH   1   5
TORSDOF 2
ENDMDL
MODEL 2
REMARK VINA RESULT:    -2.983      1.545      2.026
REMARK INTER + INTRA:          -3.360
REMARK INTER:                  -3.346
REMARK INTRA:                  -0.014
REMARK UNBOUND:                -0.028
REMARK SMILES CCCC(=O)[O-]
REMARK SMILES IDX 3 1 4 2 5 3 6 4 2 5 1 6
REMARK H PARENT
REMARK Flexibility Score: inf
ROOT
ATOM      1  C   UNL     1      12.775  27.172  34.294  1.00  0.00     0.052 C 
ENDROOT
BRANCH   1   2
ATOM      2  C   UNL     1      11.809  27.512  35.383  1.00  0.00     0.041 C 
ATOM      3  O   UNL     1      11.771  26.821  36.436  1.00  0.00    -0.550 OA
ATOM      4  O   UNL     1      10.983  28.622  35.259  1.00  0.00    -0.550 OA
ENDBRANCH   1   2
BRANCH   1   5
ATOM      5  C   UNL     1      12.525  25.752  33.780  1.00  0.00     0.003 C 
ATOM      6  C   UNL     1      13.803  25.136  33.218  1.00  0.00     0.004 C 
ENDBRANCH   1   5
TORSDOF 2
ENDMDL
MODEL 3
REMARK VINA RESULT:    -2.959      0.125      1.328
REMARK INTER + INTRA:          -3.334
REMARK INTER:                  -3.309
REMARK INTRA:                  -0.025
REMARK UNBOUND:                -0.028
REMARK SMILES CCCC(=O)[O-]
REMARK SMILES IDX 3 1 4 2 5 3 6 4 2 5 1 6
REMARK H PARENT
REMARK Flexibility Score: inf
ROOT
ATOM      1  C   UNL     1      12.853  25.355  33.517  1.00  0.00     0.052 C 
ENDROOT
BRANCH   1   2
ATOM      2  C   UNL     1      12.724  26.728  34.095  1.00  0.00     0.041 C 
ATOM      3  O   UNL     1      11.614  27.323  34.075  1.00  0.00    -0.550 OA
ATOM      4  O   UNL     1      13.817  27.332  34.702  1.00  0.00    -0.550 OA
ENDBRANCH   1   2
BRANCH   1   5
ATOM      5  C   UNL     1      14.286  25.107  33.039  1.00  0.00     0.003 C 
ATOM      6  C   UNL     1      14.763  23.711  33.430  1.00  0.00     0.004 C 
ENDBRANCH   1   5
TORSDOF 2
ENDMDL
MODEL 4
REMARK VINA RESULT:    -2.808      1.929      3.346
REMARK INTER + INTRA:          -3.164
REMARK INTER:                  -3.140
REMARK INTRA:                  -0.025
REMARK UNBOUND:                -0.028
REMARK SMILES CCCC(=O)[O-]
REMARK SMILES IDX 3 1 4 2 5 3 6 4 2 5 1 6
REMARK H PARENT
REMARK Flexibility Score: inf
ROOT
ATOM      1  C   UNL     1      12.685  25.650  33.563  1.00  0.00     0.052 C 
ENDROOT
BRANCH   1   2
ATOM      2  C   UNL     1      14.125  25.421  33.228  1.00  0.00     0.041 C 
ATOM      3  O   UNL     1      14.545  24.256  33.000  1.00  0.00    -0.550 OA
ATOM      4  O   UNL     1      14.994  26.499  33.117  1.00  0.00    -0.550 OA
ENDBRANCH   1   2
BRANCH   1   5
ATOM      5  C   UNL     1      12.552  26.725  34.644  1.00  0.00     0.003 C 
ATOM      6  C   UNL     1      11.420  27.696  34.320  1.00  0.00     0.004 C 
ENDBRANCH   1   5
TORSDOF 2
ENDMDL
MODEL 5
REMARK VINA RESULT:    -2.778      1.379      2.029
REMARK INTER + INTRA:          -3.131
REMARK INTER:                  -3.119
REMARK INTRA:                  -0.012
REMARK UNBOUND:                -0.028
REMARK SMILES CCCC(=O)[O-]
REMARK SMILES IDX 3 1 4 2 5 3 6 4 2 5 1 6
REMARK H PARENT
REMARK Flexibility Score: inf
ROOT
ATOM      1  C   UNL     1      15.068  25.151  33.333  1.00  0.00     0.052 C 
ENDROOT
BRANCH   1   2
ATOM      2  C   UNL     1      13.752  25.838  33.509  1.00  0.00     0.041 C 
ATOM      3  O   UNL     1      12.679  25.224  33.269  1.00  0.00    -0.550 OA
ATOM      4  O   UNL     1      13.706  27.142  33.986  1.00  0.00    -0.550 OA
ENDBRANCH   1   2
BRANCH   1   5
ATOM      5  C   UNL     1      14.875  23.634  33.257  1.00  0.00     0.003 C 
ATOM      6  C   UNL     1      16.194  22.899  33.478  1.00  0.00     0.004 C 
ENDBRANCH   1   5
TORSDOF 2
ENDMDL
MODEL 6
REMARK VINA RESULT:    -2.744      2.381      3.466
REMARK INTER + INTRA:          -3.093
REMARK INTER:                  -3.084
REMARK INTRA:                  -0.009
REMARK UNBOUND:                -0.028
REMARK SMILES CCCC(=O)[O-]
REMARK SMILES IDX 3 1 4 2 5 3 6 4 2 5 1 6
REMARK H PARENT
REMARK Flexibility Score: inf
ROOT
ATOM      1  C   UNL     1      13.293  25.250  33.295  1.00  0.00     0.052 C 
ENDROOT
BRANCH   1   2
ATOM      2  C   UNL     1      14.664  24.654  33.238  1.00  0.00     0.041 C 
ATOM      3  O   UNL     1      15.674  25.397  33.122  1.00  0.00    -0.550 OA
ATOM      4  O   UNL     1      14.830  23.281  33.364  1.00  0.00    -0.550 OA
ENDBRANCH   1   2
BRANCH   1   5
ATOM      5  C   UNL     1      13.295  26.516  34.156  1.00  0.00     0.003 C 
ATOM      6  C   UNL     1      11.903  27.136  34.226  1.00  0.00     0.004 C 
ENDBRANCH   1   5
TORSDOF 2
ENDMDL
MODEL 7
REMARK VINA RESULT:    -2.542      1.754      2.331
REMARK INTER + INTRA:          -2.868
REMARK INTER:                  -2.850
REMARK INTRA:                  -0.017
REMARK UNBOUND:                -0.028
REMARK SMILES CCCC(=O)[O-]
REMARK SMILES IDX 3 1 4 2 5 3 6 4 2 5 1 6
REMARK H PARENT
REMARK Flexibility Score: inf
ROOT
ATOM      1  C   UNL     1      13.992  27.154  34.345  1.00  0.00     0.052 C 
ENDROOT
BRANCH   1   2
ATOM      2  C   UNL     1      12.669  26.594  33.930  1.00  0.00     0.041 C 
ATOM      3  O   UNL     1      11.617  27.268  34.090  1.00  0.00    -0.550 OA
ATOM      4  O   UNL     1      12.602  25.347  33.321  1.00  0.00    -0.550 OA
ENDBRANCH   1   2
BRANCH   1   5
ATOM      5  C   UNL     1      15.133  26.395  33.662  1.00  0.00     0.003 C 
ATOM      6  C   UNL     1      16.144  27.358  33.046  1.00  0.00     0.004 C 
ENDBRANCH   1   5
TORSDOF 2
ENDMDL
MODEL 8
REMARK VINA RESULT:    -2.433      2.174      2.875
REMARK INTER + INTRA:          -2.746
REMARK INTER:                  -2.675
REMARK INTRA:                  -0.071
REMARK UNBOUND:                -0.028
REMARK SMILES CCCC(=O)[O-]
REMARK SMILES IDX 3 1 4 2 5 3 6 4 2 5 1 6
REMARK H PARENT
REMARK Flexibility Score: inf
ROOT
ATOM      1  C   UNL     1      13.807  26.616  35.349  1.00  0.00     0.052 C 
ENDROOT
BRANCH   1   2
ATOM      2  C   UNL     1      12.875  26.100  36.399  1.00  0.00     0.041 C 
ATOM      3  O   UNL     1      11.810  26.720  36.662  1.00  0.00    -0.550 OA
ATOM      4  O   UNL     1      13.155  24.907  37.053  1.00  0.00    -0.550 OA
ENDBRANCH   1   2
BRANCH   1   5
ATOM      5  C   UNL     1      13.088  26.726  34.002  1.00  0.00     0.003 C 
ATOM      6  C   UNL     1      12.789  25.346  33.423  1.00  0.00     0.004 C 
ENDBRANCH   1   5
TORSDOF 2
ENDMDL
MODEL 9
REMARK VINA RESULT:    -2.361      2.332      3.287
REMARK INTER + INTRA:          -2.665
REMARK INTER:                  -2.627
REMARK INTRA:                  -0.038
REMARK UNBOUND:                -0.028
REMARK SMILES CCCC(=O)[O-]
REMARK SMILES IDX 3 1 4 2 5 3 6 4 2 5 1 6
REMARK H PARENT
REMARK Flexibility Score: inf
ROOT
ATOM      1  C   UNL     1      14.659  26.433  33.322  1.00  0.00     0.052 C 
ENDROOT
BRANCH   1   2
ATOM      2  C   UNL     1      13.828  25.189  33.303  1.00  0.00     0.041 C 
ATOM      3  O   UNL     1      12.572  25.267  33.286  1.00  0.00    -0.550 OA
ATOM      4  O   UNL     1      14.441  23.944  33.254  1.00  0.00    -0.550 OA
ENDBRANCH   1   2
BRANCH   1   5
ATOM      5  C   UNL     1      14.983  26.839  34.762  1.00  0.00     0.003 C 
ATOM      6  C   UNL     1      14.117  28.013  35.211  1.00  0.00     0.004 C 
ENDBRANCH   1   5
TORSDOF 2
ENDMDL
