MODEL 1
REMARK VINA RESULT:    -3.174      0.000      0.000
REMARK INTER + INTRA:          -3.698
REMARK INTER:                  -3.638
REMARK INTRA:                  -0.060
REMARK UNBOUND:                -0.060
REMARK SMILES CC(C)[C@@H]([NH3+])C(=O)[O-]
REMARK SMILES IDX 4 1 5 2 6 6 7 7 8 8 2 9 1 10 3 11
REMARK H PARENT 5 3 5 4 5 5
REMARK Flexibility Score: inf
ROOT
ATOM      1  C   UNL     1      27.874  24.709 -17.881  1.00  0.00     0.230 C 
ENDROOT
BRANCH   1   2
ATOM      2  N   UNL     1      28.421  23.547 -17.163  1.00  0.00    -0.350 N 
ATOM      3  H   UNL     1      29.024  22.989 -17.812  1.00  0.00     0.345 HD
ATOM      4  H   UNL     1      27.660  22.927 -16.803  1.00  0.00     0.345 HD
ATOM      5  H   UNL     1      29.021  23.858 -16.367  1.00  0.00     0.345 HD
ENDBRANCH   1   2
BRANCH   1   6
ATOM      6  C   UNL     1      27.909  24.486 -19.373  1.00  0.00     0.099 C 
ATOM      7  O   UNL     1      26.865  24.172 -20.005  1.00  0.00    -0.544 OA
ATOM      8  O   UNL     1      29.096  24.677 -20.069  1.00  0.00    -0.544 OA
ENDBRANCH   1   6
BRANCH   1   9
ATOM      9  C   UNL     1      26.440  25.099 -17.410  1.00  0.00     0.047 C 
ATOM     10  C   UNL     1      26.400  26.511 -16.809  1.00  0.00     0.014 C 
ATOM     11  C   UNL     1      25.816  24.089 -16.434  1.00  0.00     0.014 C 
ENDBRANCH   1   9
TORSDOF 3
ENDMDL
MODEL 2
REMARK VINA RESULT:    -3.091     13.101     13.942
REMARK INTER + INTRA:          -3.602
REMARK INTER:                  -3.551
REMARK INTRA:                  -0.051
REMARK UNBOUND:                -0.060
REMARK SMILES CC(C)[C@@H]([NH3+])C(=O)[O-]
REMARK SMILES IDX 4 1 5 2 6 6 7 7 8 8 2 9 1 10 3 11
REMARK H PARENT 5 3 5 4 5 5
REMARK Flexibility Score: inf
ROOT
ATOM      1  C   UNL     1      38.781  16.196 -18.556  1.00  0.00     0.230 C 
ENDROOT
BRANCH   1   2
ATOM      2  N   UNL     1      38.559  15.063 -17.644  1.00  0.00    -0.350 N 
ATOM      3  H   UNL     1      39.482  14.664 -17.355  1.00  0.00     0.345 HD
ATOM      4  H   UNL     1      38.000  14.307 -18.102  1.00  0.00     0.345 HD
ATOM      5  H   UNL     1      38.068  15.381 -16.779  1.00  0.00     0.345 HD
ENDBRANCH   1   2
BRANCH   1   6
ATOM      6  C   UNL     1      37.473  16.715 -19.102  1.00  0.00     0.099 C 
ATOM      7  O   UNL     1      36.402  16.581 -18.452  1.00  0.00    -0.544 OA
ATOM      8  O   UNL     1      37.454  17.392 -20.315  1.00  0.00    -0.544 OA
ENDBRANCH   1   6
BRANCH   1   9
ATOM      9  C   UNL     1      39.608  17.348 -17.909  1.00  0.00     0.047 C 
ATOM     10  C   UNL     1      41.120  17.107 -18.036  1.00  0.00     0.014 C 
ATOM     11  C   UNL     1      39.237  17.625 -16.443  1.00  0.00     0.014 C 
ENDBRANCH   1   9
TORSDOF 3
ENDMDL
MODEL 3
REMARK VINA RESULT:    -3.044      2.500      3.308
REMARK INTER + INTRA:          -3.548
REMARK INTER:                  -3.517
REMARK INTRA:                  -0.031
REMARK UNBOUND:                -0.060
REMARK SMILES CC(C)[C@@H]([NH3+])C(=O)[O-]
REMARK SMILES IDX 4 1 5 2 6 6 7 7 8 8 2 9 1 10 3 11
REMARK H PARENT 5 3 5 4 5 5
REMARK Flexibility Score: inf
ROOT
ATOM      1  C   UNL     1      27.029  24.082 -17.757  1.00  0.00     0.230 C 
ENDROOT
BRANCH   1   2
ATOM      2  N   UNL     1      28.339  23.755 -17.172  1.00  0.00    -0.350 N 
ATOM      3  H   UNL     1      28.263  22.862 -16.630  1.00  0.00     0.345 HD
ATOM      4  H   UNL     1      28.669  24.508 -16.527  1.00  0.00     0.345 HD
ATOM      5  H   UNL     1      29.047  23.607 -17.924  1.00  0.00     0.345 HD
ENDBRANCH   1   2
BRANCH   1   6
ATOM      6  C   UNL     1      26.037  24.458 -16.683  1.00  0.00     0.099 C 
ATOM      7  O   UNL     1      24.878  23.963 -16.671  1.00  0.00    -0.544 OA
ATOM      8  O   UNL     1      26.420  25.323 -15.666  1.00  0.00    -0.544 OA
ENDBRANCH   1   6
BRANCH   1   9
ATOM      9  C   UNL     1      27.108  25.189 -18.852  1.00  0.00     0.047 C 
ATOM     10  C   UNL     1      27.387  24.599 -20.242  1.00  0.00     0.014 C 
ATOM     11  C   UNL     1      28.123  26.299 -18.533  1.00  0.00     0.014 C 
ENDBRANCH   1   9
TORSDOF 3
ENDMDL
MODEL 4
REMARK VINA RESULT:    -2.992      2.231      3.013
REMARK INTER + INTRA:          -3.489
REMARK INTER:                  -3.510
REMARK INTRA:                   0.021
REMARK UNBOUND:                -0.060
REMARK SMILES CC(C)[C@@H]([NH3+])C(=O)[O-]
REMARK SMILES IDX 4 1 5 2 6 6 7 7 8 8 2 9 1 10 3 11
REMARK H PARENT 5 3 5 4 5 5
REMARK Flexibility Score: inf
ROOT
ATOM      1  C   UNL     1      27.504  24.620 -17.630  1.00  0.00     0.230 C 
ENDROOT
BRANCH   1   2
ATOM      2  N   UNL     1      28.600  23.666 -17.400  1.00  0.00    -0.350 N 
ATOM      3  H   UNL     1      28.205  22.762 -17.048  1.00  0.00     0.345 HD
ATOM      4  H   UNL     1      29.280  24.027 -16.694  1.00  0.00     0.345 HD
ATOM      5  H   UNL     1      29.100  23.463 -18.293  1.00  0.00     0.345 HD
ENDBRANCH   1   2
BRANCH   1   6
ATOM      6  C   UNL     1      27.836  25.974 -17.051  1.00  0.00     0.099 C 
ATOM      7  O   UNL     1      27.096  26.505 -16.182  1.00  0.00    -0.544 OA
ATOM      8  O   UNL     1      29.001  26.622 -17.444  1.00  0.00    -0.544 OA
ENDBRANCH   1   6
BRANCH   1   9
ATOM      9  C   UNL     1      27.105  24.742 -19.132  1.00  0.00     0.047 C 
ATOM     10  C   UNL     1      28.333  24.703 -20.055  1.00  0.00     0.014 C 
ATOM     11  C   UNL     1      26.246  25.979 -19.444  1.00  0.00     0.014 C 
ENDBRANCH   1   9
TORSDOF 3
ENDMDL
MODEL 5
REMARK VINA RESULT:    -2.885      1.825      2.419
REMARK INTER + INTRA:          -3.366
REMARK INTER:                  -3.291
REMARK INTRA:                  -0.075
REMARK UNBOUND:                -0.060
REMARK SMILES CC(C)[C@@H]([NH3+])C(=O)[O-]
REMARK SMILES IDX 4 1 5 2 6 6 7 7 8 8 2 9 1 10 3 11
REMARK H PARENT 5 3 5 4 5 5
REMARK Flexibility Score: inf
ROOT
ATOM      1  C   UNL     1      27.463  26.024 -17.521  1.00  0.00     0.230 C 
ENDROOT
BRANCH   1   2
ATOM      2  N   UNL     1      28.599  25.733 -16.631  1.00  0.00    -0.350 N 
ATOM      3  H   UNL     1      28.461  24.794 -16.189  1.00  0.00     0.345 HD
ATOM      4  H   UNL     1      28.684  26.447 -15.873  1.00  0.00     0.345 HD
ATOM      5  H   UNL     1      29.489  25.697 -17.176  1.00  0.00     0.345 HD
ENDBRANCH   1   2
BRANCH   1   6
ATOM      6  C   UNL     1      27.939  26.600 -18.832  1.00  0.00     0.099 C 
ATOM      7  O   UNL     1      29.163  26.607 -19.130  1.00  0.00    -0.544 OA
ATOM      8  O   UNL     1      27.012  27.086 -19.746  1.00  0.00    -0.544 OA
ENDBRANCH   1   6
BRANCH   1   9
ATOM      9  C   UNL     1      26.540  24.791 -17.757  1.00  0.00     0.047 C 
ATOM     10  C   UNL     1      26.038  24.191 -16.435  1.00  0.00     0.014 C 
ATOM     11  C   UNL     1      27.184  23.697 -18.625  1.00  0.00     0.014 C 
ENDBRANCH   1   9
TORSDOF 3
ENDMDL
MODEL 6
REMARK VINA RESULT:    -2.806     13.098     13.804
REMARK INTER + INTRA:          -3.275
REMARK INTER:                  -3.220
REMARK INTRA:                  -0.055
REMARK UNBOUND:                -0.060
REMARK SMILES CC(C)[C@@H]([NH3+])C(=O)[O-]
REMARK SMILES IDX 4 1 5 2 6 6 7 7 8 8 2 9 1 10 3 11
REMARK H PARENT 5 3 5 4 5 5
REMARK Flexibility Score: inf
ROOT
ATOM      1  C   UNL     1      37.593  16.576 -20.288  1.00  0.00     0.230 C 
ENDROOT
BRANCH   1   2
ATOM      2  N   UNL     1      37.983  15.390 -21.066  1.00  0.00    -0.350 N 
ATOM      3  H   UNL     1      38.640  14.804 -20.500  1.00  0.00     0.345 HD
ATOM      4  H   UNL     1      38.460  15.656 -21.957  1.00  0.00     0.345 HD
ATOM      5  H   UNL     1      37.146  14.804 -21.282  1.00  0.00     0.345 HD
ENDBRANCH   1   2
BRANCH   1   6
ATOM      6  C   UNL     1      37.155  16.189 -18.896  1.00  0.00     0.099 C 
ATOM      7  O   UNL     1      36.484  16.983 -18.184  1.00  0.00    -0.544 OA
ATOM      8  O   UNL     1      37.453  14.922 -18.409  1.00  0.00    -0.544 OA
ENDBRANCH   1   6
BRANCH   1   9
ATOM      9  C   UNL     1      38.707  17.666 -20.236  1.00  0.00     0.047 C 
ATOM     10  C   UNL     1      38.654  18.595 -21.459  1.00  0.00     0.014 C 
ATOM     11  C   UNL     1      40.123  17.092 -20.067  1.00  0.00     0.014 C 
ENDBRANCH   1   9
TORSDOF 3
ENDMDL
MODEL 7
REMARK VINA RESULT:    -2.759      2.588      3.236
REMARK INTER + INTRA:          -3.222
REMARK INTER:                  -3.174
REMARK INTRA:                  -0.048
REMARK UNBOUND:                -0.060
REMARK SMILES CC(C)[C@@H]([NH3+])C(=O)[O-]
REMARK SMILES IDX 4 1 5 2 6 6 7 7 8 8 2 9 1 10 3 11
REMARK H PARENT 5 3 5 4 5 5
REMARK Flexibility Score: inf
ROOT
ATOM      1  C   UNL     1      27.588  26.217 -17.361  1.00  0.00     0.230 C 
ENDROOT
BRANCH   1   2
ATOM      2  N   UNL     1      27.132  25.681 -16.069  1.00  0.00    -0.350 N 
ATOM      3  H   UNL     1      26.131  25.384 -16.149  1.00  0.00     0.345 HD
ATOM      4  H   UNL     1      27.205  26.396 -15.310  1.00  0.00     0.345 HD
ATOM      5  H   UNL     1      27.690  24.838 -15.805  1.00  0.00     0.345 HD
ENDBRANCH   1   2
BRANCH   1   6
ATOM      6  C   UNL     1      28.834  27.051 -17.190  1.00  0.00     0.099 C 
ATOM      7  O   UNL     1      29.419  27.119 -16.077  1.00  0.00    -0.544 OA
ATOM      8  O   UNL     1      29.372  27.715 -18.286  1.00  0.00    -0.544 OA
ENDBRANCH   1   6
BRANCH   1   9
ATOM      9  C   UNL     1      27.802  25.111 -18.439  1.00  0.00     0.047 C 
ATOM     10  C   UNL     1      26.861  25.294 -19.640  1.00  0.00     0.014 C 
ATOM     11  C   UNL     1      27.687  23.681 -17.887  1.00  0.00     0.014 C 
ENDBRANCH   1   9
TORSDOF 3
ENDMDL
MODEL 8
REMARK VINA RESULT:    -2.752     12.678     13.362
REMARK INTER + INTRA:          -3.214
REMARK INTER:                  -3.168
REMARK INTRA:                  -0.046
REMARK UNBOUND:                -0.060
REMARK SMILES CC(C)[C@@H]([NH3+])C(=O)[O-]
REMARK SMILES IDX 4 1 5 2 6 6 7 7 8 8 2 9 1 10 3 11
REMARK H PARENT 5 3 5 4 5 5
REMARK Flexibility Score: inf
ROOT
ATOM      1  C   UNL     1      38.460  16.977 -20.655  1.00  0.00     0.230 C 
ENDROOT
BRANCH   1   2
ATOM      2  N   UNL     1      37.660  15.853 -21.168  1.00  0.00    -0.350 N 
ATOM      3  H   UNL     1      38.300  15.086 -21.481  1.00  0.00     0.345 HD
ATOM      4  H   UNL     1      37.070  16.143 -21.980  1.00  0.00     0.345 HD
ATOM      5  H   UNL     1      37.050  15.466 -20.415  1.00  0.00     0.345 HD
ENDBRANCH   1   2
BRANCH   1   6
ATOM      6  C   UNL     1      38.277  18.205 -21.512  1.00  0.00     0.099 C 
ATOM      7  O   UNL     1      39.210  19.039 -21.658  1.00  0.00    -0.544 OA
ATOM      8  O   UNL     1      37.079  18.398 -22.190  1.00  0.00    -0.544 OA
ENDBRANCH   1   6
BRANCH   1   9
ATOM      9  C   UNL     1      38.173  17.297 -19.157  1.00  0.00     0.047 C 
ATOM     10  C   UNL     1      39.395  17.017 -18.268  1.00  0.00     0.014 C 
ATOM     11  C   UNL     1      36.935  16.576 -18.599  1.00  0.00     0.014 C 
ENDBRANCH   1   9
TORSDOF 3
ENDMDL
MODEL 9
REMARK VINA RESULT:    -2.739     10.284     10.954
REMARK INTER + INTRA:          -3.199
REMARK INTER:                  -3.142
REMARK INTRA:                  -0.057
REMARK UNBOUND:                -0.060
REMARK SMILES CC(C)[C@@H]([NH3+])C(=O)[O-]
REMARK SMILES IDX 4 1 5 2 6 6 7 7 8 8 2 9 1 10 3 11
REMARK H PARENT 5 3 5 4 5 5
REMARK Flexibility Score: inf
ROOT
ATOM      1  C   UNL     1      27.778  24.448  -7.836  1.00  0.00     0.230 C 
ENDROOT
BRANCH   1   2
ATOM      2  N   UNL     1      29.021  25.112  -7.411  1.00  0.00    -0.350 N 
ATOM      3  H   UNL     1      28.912  26.148  -7.510  1.00  0.00     0.345 HD
ATOM      4  H   UNL     1      29.836  24.808  -7.991  1.00  0.00     0.345 HD
ATOM      5  H   UNL     1      29.217  24.911  -6.405  1.00  0.00     0.345 HD
ENDBRANCH   1   2
BRANCH   1   6
ATOM      6  C   UNL     1      27.566  23.162  -7.074  1.00  0.00     0.099 C 
ATOM      7  O   UNL     1      27.072  23.170  -5.916  1.00  0.00    -0.544 OA
ATOM      8  O   UNL     1      27.874  21.948  -7.676  1.00  0.00    -0.544 OA
ENDBRANCH   1   6
BRANCH   1   9
ATOM      9  C   UNL     1      26.526  25.370  -7.730  1.00  0.00     0.047 C 
ATOM     10  C   UNL     1      25.559  25.157  -8.904  1.00  0.00     0.014 C 
ATOM     11  C   UNL     1      26.869  26.861  -7.588  1.00  0.00     0.014 C 
ENDBRANCH   1   9
TORSDOF 3
ENDMDL
