MODEL 1
REMARK VINA RESULT:    -4.242      0.000      0.000
REMARK INTER + INTRA:          -5.451
REMARK INTER:                  -5.234
REMARK INTRA:                  -0.217
REMARK UNBOUND:                -0.217
REMARK SMILES CCCCC=CC(C)=O
REMARK SMILES IDX 4 1 3 2 2 3 1 4 5 5 6 6 7 7 9 8 8 9
REMARK H PARENT
REMARK Flexibility Score: inf
ROOT
ATOM      1  C   UNL     1      12.024 -28.135  24.135  1.00  0.00     0.027 C 
ENDROOT
BRANCH   1   2
ATOM      2  C   UNL     1      12.147 -26.723  23.541  1.00  0.00     0.004 C 
BRANCH   2   3
ATOM      3  C   UNL     1      13.568 -26.153  23.662  1.00  0.00    -0.003 C 
ATOM      4  C   UNL     1      13.975 -25.887  25.111  1.00  0.00     0.004 C 
ENDBRANCH   2   3
ENDBRANCH   1   2
BRANCH   1   5
ATOM      5  C   UNL     1      12.320 -29.184  23.102  1.00  0.00    -0.023 C 
ATOM      6  C   UNL     1      13.189 -30.173  23.343  1.00  0.00     0.042 C 
BRANCH   6   7
ATOM      7  C   UNL     1      13.520 -31.221  22.355  1.00  0.00     0.152 C 
ATOM      8  O   UNL     1      14.197 -32.215  22.733  1.00  0.00    -0.295 OA
ATOM      9  C   UNL     1      13.081 -31.144  20.923  1.00  0.00     0.093 C 
ENDBRANCH   6   7
ENDBRANCH   1   5
TORSDOF 4
ENDMDL
MODEL 2
REMARK VINA RESULT:    -4.107      0.955      1.282
REMARK INTER + INTRA:          -5.285
REMARK INTER:                  -5.077
REMARK INTRA:                  -0.208
REMARK UNBOUND:                -0.217
REMARK SMILES CCCCC=CC(C)=O
REMARK SMILES IDX 4 1 3 2 2 3 1 4 5 5 6 6 7 7 9 8 8 9
REMARK H PARENT
REMARK Flexibility Score: inf
ROOT
ATOM      1  C   UNL     1      11.978 -28.360  23.905  1.00  0.00     0.027 C 
ENDROOT
BRANCH   1   2
ATOM      2  C   UNL     1      12.065 -26.867  23.550  1.00  0.00     0.004 C 
BRANCH   2   3
ATOM      3  C   UNL     1      13.492 -26.312  23.683  1.00  0.00    -0.003 C 
ATOM      4  C   UNL     1      13.844 -25.929  25.121  1.00  0.00     0.004 C 
ENDBRANCH   2   3
ENDBRANCH   1   2
BRANCH   1   5
ATOM      5  C   UNL     1      13.014 -29.154  23.162  1.00  0.00    -0.023 C 
ATOM      6  C   UNL     1      13.302 -30.416  23.504  1.00  0.00     0.042 C 
BRANCH   6   7
ATOM      7  C   UNL     1      14.319 -31.233  22.811  1.00  0.00     0.152 C 
ATOM      8  O   UNL     1      13.949 -31.995  21.878  1.00  0.00    -0.295 OA
ATOM      9  C   UNL     1      15.773 -31.188  23.178  1.00  0.00     0.093 C 
ENDBRANCH   6   7
ENDBRANCH   1   5
TORSDOF 4
ENDMDL
MODEL 3
REMARK VINA RESULT:    -4.081      1.437      1.823
REMARK INTER + INTRA:          -5.252
REMARK INTER:                  -5.097
REMARK INTRA:                  -0.155
REMARK UNBOUND:                -0.217
REMARK SMILES CCCCC=CC(C)=O
REMARK SMILES IDX 4 1 3 2 2 3 1 4 5 5 6 6 7 7 9 8 8 9
REMARK H PARENT
REMARK Flexibility Score: inf
ROOT
ATOM      1  C   UNL     1      12.856 -29.163  23.703  1.00  0.00     0.027 C 
ENDROOT
BRANCH   1   2
ATOM      2  C   UNL     1      11.592 -28.300  23.571  1.00  0.00     0.004 C 
BRANCH   2   3
ATOM      3  C   UNL     1      11.903 -26.795  23.572  1.00  0.00    -0.003 C 
ATOM      4  C   UNL     1      13.219 -26.465  24.276  1.00  0.00     0.004 C 
ENDBRANCH   2   3
ENDBRANCH   1   2
BRANCH   1   5
ATOM      5  C   UNL     1      13.145 -29.900  22.426  1.00  0.00    -0.023 C 
ATOM      6  C   UNL     1      13.308 -31.228  22.410  1.00  0.00     0.042 C 
BRANCH   6   7
ATOM      7  C   UNL     1      13.604 -31.995  21.181  1.00  0.00     0.152 C 
ATOM      8  O   UNL     1      12.972 -31.713  20.128  1.00  0.00    -0.295 OA
ATOM      9  C   UNL     1      14.624 -33.093  21.145  1.00  0.00     0.093 C 
ENDBRANCH   6   7
ENDBRANCH   1   5
TORSDOF 4
ENDMDL
MODEL 4
REMARK VINA RESULT:    -4.080      2.552      4.105
REMARK INTER + INTRA:          -5.250
REMARK INTER:                  -5.110
REMARK INTRA:                  -0.140
REMARK UNBOUND:                -0.217
REMARK SMILES CCCCC=CC(C)=O
REMARK SMILES IDX 4 1 3 2 2 3 1 4 5 5 6 6 7 7 9 8 8 9
REMARK H PARENT
REMARK Flexibility Score: inf
ROOT
ATOM      1  C   UNL     1      13.016 -31.134  20.763  1.00  0.00     0.027 C 
ENDROOT
BRANCH   1   2
ATOM      2  C   UNL     1      12.203 -30.641  21.970  1.00  0.00     0.004 C 
BRANCH   2   3
ATOM      3  C   UNL     1      13.095 -30.184  23.134  1.00  0.00    -0.003 C 
ATOM      4  C   UNL     1      12.617 -28.876  23.765  1.00  0.00     0.004 C 
ENDBRANCH   2   3
ENDBRANCH   1   2
BRANCH   1   5
ATOM      5  C   UNL     1      14.005 -32.188  21.170  1.00  0.00    -0.023 C 
ATOM      6  C   UNL     1      14.320 -33.202  20.354  1.00  0.00     0.042 C 
BRANCH   6   7
ATOM      7  C   UNL     1      15.278 -34.267  20.715  1.00  0.00     0.152 C 
ATOM      8  O   UNL     1      15.524 -34.470  21.934  1.00  0.00    -0.295 OA
ATOM      9  C   UNL     1      15.967 -35.111  19.685  1.00  0.00     0.093 C 
ENDBRANCH   6   7
ENDBRANCH   1   5
TORSDOF 4
ENDMDL
MODEL 5
REMARK VINA RESULT:    -4.025      2.444      5.208
REMARK INTER + INTRA:          -5.183
REMARK INTER:                  -5.018
REMARK INTRA:                  -0.165
REMARK UNBOUND:                -0.217
REMARK SMILES CCCCC=CC(C)=O
REMARK SMILES IDX 4 1 3 2 2 3 1 4 5 5 6 6 7 7 9 8 8 9
REMARK H PARENT
REMARK Flexibility Score: inf
ROOT
ATOM      1  C   UNL     1      12.568 -29.711  22.856  1.00  0.00     0.027 C 
ENDROOT
BRANCH   1   2
ATOM      2  C   UNL     1      13.434 -30.942  23.165  1.00  0.00     0.004 C 
BRANCH   2   3
ATOM      3  C   UNL     1      13.838 -31.711  21.898  1.00  0.00    -0.003 C 
ATOM      4  C   UNL     1      13.039 -31.282  20.667  1.00  0.00     0.004 C 
ENDBRANCH   2   3
ENDBRANCH   1   2
BRANCH   1   5
ATOM      5  C   UNL     1      13.314 -28.439  23.140  1.00  0.00    -0.023 C 
ATOM      6  C   UNL     1      12.727 -27.412  23.766  1.00  0.00     0.042 C 
BRANCH   6   7
ATOM      7  C   UNL     1      13.416 -26.137  24.057  1.00  0.00     0.152 C 
ATOM      8  O   UNL     1      13.435 -25.244  23.168  1.00  0.00    -0.295 OA
ATOM      9  C   UNL     1      14.093 -25.871  25.368  1.00  0.00     0.093 C 
ENDBRANCH   6   7
ENDBRANCH   1   5
TORSDOF 4
ENDMDL
MODEL 6
REMARK VINA RESULT:    -3.961      2.383      5.245
REMARK INTER + INTRA:          -5.104
REMARK INTER:                  -4.912
REMARK INTRA:                  -0.192
REMARK UNBOUND:                -0.217
REMARK SMILES CCCCC=CC(C)=O
REMARK SMILES IDX 4 1 3 2 2 3 1 4 5 5 6 6 7 7 9 8 8 9
REMARK H PARENT
REMARK Flexibility Score: inf
ROOT
ATOM      1  C   UNL     1      14.507 -31.015  22.663  1.00  0.00     0.027 C 
ENDROOT
BRANCH   1   2
ATOM      2  C   UNL     1      13.987 -32.026  23.697  1.00  0.00     0.004 C 
BRANCH   2   3
ATOM      3  C   UNL     1      14.633 -33.411  23.545  1.00  0.00    -0.003 C 
ATOM      4  C   UNL     1      15.042 -33.715  22.103  1.00  0.00     0.004 C 
ENDBRANCH   2   3
ENDBRANCH   1   2
BRANCH   1   5
ATOM      5  C   UNL     1      13.871 -29.669  22.854  1.00  0.00    -0.023 C 
ATOM      6  C   UNL     1      12.688 -29.538  23.469  1.00  0.00     0.042 C 
BRANCH   6   7
ATOM      7  C   UNL     1      12.018 -28.236  23.670  1.00  0.00     0.152 C 
ATOM      8  O   UNL     1      10.974 -27.986  23.010  1.00  0.00    -0.295 OA
ATOM      9  C   UNL     1      12.536 -27.205  24.628  1.00  0.00     0.093 C 
ENDBRANCH   6   7
ENDBRANCH   1   5
TORSDOF 4
ENDMDL
MODEL 7
REMARK VINA RESULT:    -3.927      7.516      9.679
REMARK INTER + INTRA:          -5.062
REMARK INTER:                  -4.817
REMARK INTRA:                  -0.245
REMARK UNBOUND:                -0.217
REMARK SMILES CCCCC=CC(C)=O
REMARK SMILES IDX 4 1 3 2 2 3 1 4 5 5 6 6 7 7 9 8 8 9
REMARK H PARENT
REMARK Flexibility Score: inf
ROOT
ATOM      1  C   UNL     1      17.549 -37.831  26.563  1.00  0.00     0.027 C 
ENDROOT
BRANCH   1   2
ATOM      2  C   UNL     1      16.051 -38.001  26.860  1.00  0.00     0.004 C 
BRANCH   2   3
ATOM      3  C   UNL     1      15.759 -38.122  28.364  1.00  0.00    -0.003 C 
ATOM      4  C   UNL     1      16.960 -37.742  29.230  1.00  0.00     0.004 C 
ENDBRANCH   2   3
ENDBRANCH   1   2
BRANCH   1   5
ATOM      5  C   UNL     1      17.779 -36.761  25.534  1.00  0.00    -0.023 C 
ATOM      6  C   UNL     1      16.823 -35.876  25.224  1.00  0.00     0.042 C 
BRANCH   6   7
ATOM      7  C   UNL     1      16.998 -34.814  24.212  1.00  0.00     0.152 C 
ATOM      8  O   UNL     1      16.939 -35.126  22.993  1.00  0.00    -0.295 OA
ATOM      9  C   UNL     1      17.245 -33.382  24.583  1.00  0.00     0.093 C 
ENDBRANCH   6   7
ENDBRANCH   1   5
TORSDOF 4
ENDMDL
MODEL 8
REMARK VINA RESULT:    -3.915      8.975     10.185
REMARK INTER + INTRA:          -5.047
REMARK INTER:                  -4.863
REMARK INTRA:                  -0.184
REMARK UNBOUND:                -0.217
REMARK SMILES CCCCC=CC(C)=O
REMARK SMILES IDX 4 1 3 2 2 3 1 4 5 5 6 6 7 7 9 8 8 9
REMARK H PARENT
REMARK Flexibility Score: inf
ROOT
ATOM      1  C   UNL     1      19.853 -26.575  21.185  1.00  0.00     0.027 C 
ENDROOT
BRANCH   1   2
ATOM      2  C   UNL     1      19.549 -28.032  20.802  1.00  0.00     0.004 C 
BRANCH   2   3
ATOM      3  C   UNL     1      20.821 -28.882  20.662  1.00  0.00    -0.003 C 
ATOM      4  C   UNL     1      20.583 -30.356  20.990  1.00  0.00     0.004 C 
ENDBRANCH   2   3
ENDBRANCH   1   2
BRANCH   1   5
ATOM      5  C   UNL     1      21.243 -26.185  20.770  1.00  0.00    -0.023 C 
ATOM      6  C   UNL     1      21.454 -25.276  19.810  1.00  0.00     0.042 C 
BRANCH   6   7
ATOM      7  C   UNL     1      22.802 -24.869  19.361  1.00  0.00     0.152 C 
ATOM      8  O   UNL     1      23.296 -25.431  18.347  1.00  0.00    -0.295 OA
ATOM      9  C   UNL     1      23.601 -23.814  20.067  1.00  0.00     0.093 C 
ENDBRANCH   6   7
ENDBRANCH   1   5
TORSDOF 4
ENDMDL
MODEL 9
REMARK VINA RESULT:    -3.806      3.429      5.330
REMARK INTER + INTRA:          -4.913
REMARK INTER:                  -4.751
REMARK INTRA:                  -0.162
REMARK UNBOUND:                -0.217
REMARK SMILES CCCCC=CC(C)=O
REMARK SMILES IDX 4 1 3 2 2 3 1 4 5 5 6 6 7 7 9 8 8 9
REMARK H PARENT
REMARK Flexibility Score: inf
ROOT
ATOM      1  C   UNL     1      13.519 -32.284  20.169  1.00  0.00     0.027 C 
ENDROOT
BRANCH   1   2
ATOM      2  C   UNL     1      13.548 -30.910  20.856  1.00  0.00     0.004 C 
BRANCH   2   3
ATOM      3  C   UNL     1      12.712 -30.877  22.144  1.00  0.00    -0.003 C 
ATOM      4  C   UNL     1      13.575 -30.849  23.406  1.00  0.00     0.004 C 
ENDBRANCH   2   3
ENDBRANCH   1   2
BRANCH   1   5
ATOM      5  C   UNL     1      14.703 -33.115  20.570  1.00  0.00    -0.023 C 
ATOM      6  C   UNL     1      14.976 -34.277  19.965  1.00  0.00     0.042 C 
BRANCH   6   7
ATOM      7  C   UNL     1      16.123 -35.135  20.332  1.00  0.00     0.152 C 
ATOM      8  O   UNL     1      16.547 -35.099  21.518  1.00  0.00    -0.295 OA
ATOM      9  C   UNL     1      16.797 -36.041  19.347  1.00  0.00     0.093 C 
ENDBRANCH   6   7
ENDBRANCH   1   5
TORSDOF 4
ENDMDL
