MODEL 1
REMARK VINA RESULT:    -6.175      0.000      0.000
REMARK INTER + INTRA:          -6.536
REMARK INTER:                  -6.536
REMARK INTRA:                   0.000
REMARK UNBOUND:                 0.000
REMARK SMILES O=c1ccc2cc(O)c(O)cc2o1
REMARK SMILES IDX 4 1 3 2 2 3 1 4 13 5 12 6 11 7 9 8 7 9 6 10 5 11 8 12 10 14
REMARK H PARENT 8 13 10 15
REMARK Flexibility Score: inf
ROOT
ATOM      1  C   UNL     1      27.344  24.236  46.936  1.00  0.00     0.019 A 
ATOM      2  C   UNL     1      28.338  24.892  46.211  1.00  0.00     0.094 A 
ATOM      3  C   UNL     1      29.668  24.781  46.630  1.00  0.00     0.336 A 
ATOM      4  O   UNL     1      30.579  25.366  45.990  1.00  0.00    -0.246 OA
ATOM      5  O   UNL     1      29.978  24.057  47.703  1.00  0.00    -0.423 OA
ATOM      6  C   UNL     1      29.060  23.415  48.423  1.00  0.00     0.142 A 
ATOM      7  C   UNL     1      29.445  22.670  49.542  1.00  0.00     0.098 A 
ATOM      8  C   UNL     1      28.483  21.990  50.304  1.00  0.00     0.161 A 
ATOM      9  C   UNL     1      27.125  22.059  49.941  1.00  0.00     0.158 A 
ATOM     10  C   UNL     1      26.737  22.804  48.822  1.00  0.00     0.062 A 
ATOM     11  C   UNL     1      27.698  23.482  48.060  1.00  0.00     0.022 A 
ENDROOT
BRANCH   9  12
ATOM     12  O   UNL     1      26.149  21.393  50.682  1.00  0.00    -0.504 OA
ATOM     13  H   UNL     1      26.384  20.722  51.402  1.00  0.00     0.293 HD
ENDBRANCH   9  12
BRANCH   8  14
ATOM     14  O   UNL     1      28.871  21.249  51.418  1.00  0.00    -0.504 OA
ATOM     15  H   UNL     1      29.794  21.345  51.826  1.00  0.00     0.293 HD
ENDBRANCH   8  14
TORSDOF 2
ENDMDL
MODEL 2
REMARK VINA RESULT:    -6.130      2.115      2.786
REMARK INTER + INTRA:          -6.488
REMARK INTER:                  -6.488
REMARK INTRA:                   0.000
REMARK UNBOUND:                 0.000
REMARK SMILES O=c1ccc2cc(O)c(O)cc2o1
REMARK SMILES IDX 4 1 3 2 2 3 1 4 13 5 12 6 11 7 9 8 7 9 6 10 5 11 8 12 10 14
REMARK H PARENT 8 13 10 15
REMARK Flexibility Score: inf
ROOT
ATOM      1  C   UNL     1      28.654  24.979  48.532  1.00  0.00     0.019 A 
ATOM      2  C   UNL     1      28.166  24.740  47.248  1.00  0.00     0.094 A 
ATOM      3  C   UNL     1      27.281  23.677  47.045  1.00  0.00     0.336 A 
ATOM      4  O   UNL     1      26.830  23.444  45.894  1.00  0.00    -0.246 OA
ATOM      5  O   UNL     1      26.910  22.906  48.066  1.00  0.00    -0.423 OA
ATOM      6  C   UNL     1      27.351  23.100  49.306  1.00  0.00     0.142 A 
ATOM      7  C   UNL     1      26.927  22.258  50.339  1.00  0.00     0.098 A 
ATOM      8  C   UNL     1      27.388  22.457  51.649  1.00  0.00     0.161 A 
ATOM      9  C   UNL     1      28.282  23.507  51.925  1.00  0.00     0.158 A 
ATOM     10  C   UNL     1      28.708  24.352  50.894  1.00  0.00     0.062 A 
ATOM     11  C   UNL     1      28.247  24.154  49.585  1.00  0.00     0.022 A 
ENDROOT
BRANCH   9  12
ATOM     12  O   UNL     1      28.755  23.727  53.219  1.00  0.00    -0.504 OA
ATOM     13  H   UNL     1      28.135  23.787  54.016  1.00  0.00     0.293 HD
ENDBRANCH   9  12
BRANCH   8  14
ATOM     14  O   UNL     1      26.962  21.615  52.675  1.00  0.00    -0.504 OA
ATOM     15  H   UNL     1      27.567  21.374  53.451  1.00  0.00     0.293 HD
ENDBRANCH   8  14
TORSDOF 2
ENDMDL
MODEL 3
REMARK VINA RESULT:    -6.009      1.270      2.406
REMARK INTER + INTRA:          -6.360
REMARK INTER:                  -6.360
REMARK INTRA:                   0.000
REMARK UNBOUND:                 0.000
REMARK SMILES O=c1ccc2cc(O)c(O)cc2o1
REMARK SMILES IDX 4 1 3 2 2 3 1 4 13 5 12 6 11 7 9 8 7 9 6 10 5 11 8 12 10 14
REMARK H PARENT 8 13 10 15
REMARK Flexibility Score: inf
ROOT
ATOM      1  C   UNL     1      31.105  23.150  47.987  1.00  0.00     0.019 A 
ATOM      2  C   UNL     1      31.492  24.018  46.967  1.00  0.00     0.094 A 
ATOM      3  C   UNL     1      30.531  24.853  46.387  1.00  0.00     0.336 A 
ATOM      4  O   UNL     1      30.860  25.644  45.465  1.00  0.00    -0.246 OA
ATOM      5  O   UNL     1      29.268  24.818  46.805  1.00  0.00    -0.423 OA
ATOM      6  C   UNL     1      28.857  24.005  47.776  1.00  0.00     0.142 A 
ATOM      7  C   UNL     1      27.517  24.011  48.173  1.00  0.00     0.098 A 
ATOM      8  C   UNL     1      27.077  23.156  49.195  1.00  0.00     0.161 A 
ATOM      9  C   UNL     1      27.990  22.289  49.823  1.00  0.00     0.158 A 
ATOM     10  C   UNL     1      29.332  22.280  49.428  1.00  0.00     0.062 A 
ATOM     11  C   UNL     1      29.771  23.134  48.407  1.00  0.00     0.022 A 
ENDROOT
BRANCH   9  12
ATOM     12  O   UNL     1      27.579  21.429  50.842  1.00  0.00    -0.504 OA
ATOM     13  H   UNL     1      27.338  21.766  51.765  1.00  0.00     0.293 HD
ENDBRANCH   9  12
BRANCH   8  14
ATOM     14  O   UNL     1      25.740  23.167  49.588  1.00  0.00    -0.504 OA
ATOM     15  H   UNL     1      25.122  23.932  49.347  1.00  0.00     0.293 HD
ENDBRANCH   8  14
TORSDOF 2
ENDMDL
MODEL 4
REMARK VINA RESULT:    -5.870      1.641      4.566
REMARK INTER + INTRA:          -6.213
REMARK INTER:                  -6.213
REMARK INTRA:                   0.000
REMARK UNBOUND:                 0.000
REMARK SMILES O=c1ccc2cc(O)c(O)cc2o1
REMARK SMILES IDX 4 1 3 2 2 3 1 4 13 5 12 6 11 7 9 8 7 9 6 10 5 11 8 12 10 14
REMARK H PARENT 8 13 10 15
REMARK Flexibility Score: inf
ROOT
ATOM      1  C   UNL     1      26.760  23.706  48.924  1.00  0.00     0.019 A 
ATOM      2  C   UNL     1      27.235  23.511  50.221  1.00  0.00     0.094 A 
ATOM      3  C   UNL     1      28.593  23.721  50.485  1.00  0.00     0.336 A 
ATOM      4  O   UNL     1      29.041  23.550  51.648  1.00  0.00    -0.246 OA
ATOM      5  O   UNL     1      29.417  24.103  49.511  1.00  0.00    -0.423 OA
ATOM      6  C   UNL     1      29.005  24.301  48.261  1.00  0.00     0.142 A 
ATOM      7  C   UNL     1      29.916  24.701  47.280  1.00  0.00     0.098 A 
ATOM      8  C   UNL     1      29.488  24.911  45.960  1.00  0.00     0.161 A 
ATOM      9  C   UNL     1      28.136  24.718  45.623  1.00  0.00     0.158 A 
ATOM     10  C   UNL     1      27.221  24.318  46.603  1.00  0.00     0.062 A 
ATOM     11  C   UNL     1      27.648  24.108  47.921  1.00  0.00     0.022 A 
ENDROOT
BRANCH   9  12
ATOM     12  O   UNL     1      27.684  24.921  44.319  1.00  0.00    -0.504 OA
ATOM     13  H   UNL     1      26.929  25.559  44.104  1.00  0.00     0.293 HD
ENDBRANCH   9  12
BRANCH   8  14
ATOM     14  O   UNL     1      30.400  25.311  44.985  1.00  0.00    -0.504 OA
ATOM     15  H   UNL     1      30.962  24.639  44.475  1.00  0.00     0.293 HD
ENDBRANCH   8  14
TORSDOF 2
ENDMDL
MODEL 5
REMARK VINA RESULT:    -5.778      1.223      1.414
REMARK INTER + INTRA:          -6.116
REMARK INTER:                  -6.116
REMARK INTRA:                   0.000
REMARK UNBOUND:                 0.000
REMARK SMILES O=c1ccc2cc(O)c(O)cc2o1
REMARK SMILES IDX 4 1 3 2 2 3 1 4 13 5 12 6 11 7 9 8 7 9 6 10 5 11 8 12 10 14
REMARK H PARENT 8 13 10 15
REMARK Flexibility Score: inf
ROOT
ATOM      1  C   UNL     1      26.891  24.376  48.629  1.00  0.00     0.019 A 
ATOM      2  C   UNL     1      27.517  24.859  47.480  1.00  0.00     0.094 A 
ATOM      3  C   UNL     1      28.850  24.510  47.236  1.00  0.00     0.336 A 
ATOM      4  O   UNL     1      29.433  24.935  46.205  1.00  0.00    -0.246 OA
ATOM      5  O   UNL     1      29.508  23.727  48.089  1.00  0.00    -0.423 OA
ATOM      6  C   UNL     1      28.948  23.245  49.196  1.00  0.00     0.142 A 
ATOM      7  C   UNL     1      29.689  22.429  50.056  1.00  0.00     0.098 A 
ATOM      8  C   UNL     1      29.104  21.918  51.225  1.00  0.00     0.161 A 
ATOM      9  C   UNL     1      27.767  22.229  51.533  1.00  0.00     0.158 A 
ATOM     10  C   UNL     1      27.023  23.046  50.675  1.00  0.00     0.062 A 
ATOM     11  C   UNL     1      27.607  23.556  49.507  1.00  0.00     0.022 A 
ENDROOT
BRANCH   9  12
ATOM     12  O   UNL     1      27.162  21.733  52.689  1.00  0.00    -0.504 OA
ATOM     13  H   UNL     1      27.568  21.865  53.607  1.00  0.00     0.293 HD
ENDBRANCH   9  12
BRANCH   8  14
ATOM     14  O   UNL     1      29.846  21.103  52.078  1.00  0.00    -0.504 OA
ATOM     15  H   UNL     1      30.141  21.422  52.993  1.00  0.00     0.293 HD
ENDBRANCH   8  14
TORSDOF 2
ENDMDL
MODEL 6
REMARK VINA RESULT:    -5.766      1.324      5.077
REMARK INTER + INTRA:          -6.103
REMARK INTER:                  -6.103
REMARK INTRA:                   0.000
REMARK UNBOUND:                 0.000
REMARK SMILES O=c1ccc2cc(O)c(O)cc2o1
REMARK SMILES IDX 4 1 3 2 2 3 1 4 13 5 12 6 11 7 9 8 7 9 6 10 5 11 8 12 10 14
REMARK H PARENT 8 13 10 15
REMARK Flexibility Score: inf
ROOT
ATOM      1  C   UNL     1      28.788  23.286  49.791  1.00  0.00     0.019 A 
ATOM      2  C   UNL     1      27.767  22.572  50.419  1.00  0.00     0.094 A 
ATOM      3  C   UNL     1      26.597  22.293  49.707  1.00  0.00     0.336 A 
ATOM      4  O   UNL     1      25.664  21.652  50.255  1.00  0.00    -0.246 OA
ATOM      5  O   UNL     1      26.462  22.703  48.447  1.00  0.00    -0.423 OA
ATOM      6  C   UNL     1      27.411  23.385  47.811  1.00  0.00     0.142 A 
ATOM      7  C   UNL     1      27.213  23.790  46.487  1.00  0.00     0.098 A 
ATOM      8  C   UNL     1      28.209  24.510  45.811  1.00  0.00     0.161 A 
ATOM      9  C   UNL     1      29.412  24.827  46.467  1.00  0.00     0.158 A 
ATOM     10  C   UNL     1      29.614  24.423  47.792  1.00  0.00     0.062 A 
ATOM     11  C   UNL     1      28.619  23.704  48.468  1.00  0.00     0.022 A 
ENDROOT
BRANCH   9  12
ATOM     12  O   UNL     1      30.419  25.541  45.817  1.00  0.00    -0.504 OA
ATOM     13  H   UNL     1      30.496  25.566  44.808  1.00  0.00     0.293 HD
ENDBRANCH   9  12
BRANCH   8  14
ATOM     14  O   UNL     1      28.007  24.910  44.491  1.00  0.00    -0.504 OA
ATOM     15  H   UNL     1      27.475  25.742  44.263  1.00  0.00     0.293 HD
ENDBRANCH   8  14
TORSDOF 2
ENDMDL
MODEL 7
REMARK VINA RESULT:    -5.715     11.165     12.551
REMARK INTER + INTRA:          -6.049
REMARK INTER:                  -6.049
REMARK INTRA:                   0.000
REMARK UNBOUND:                 0.000
REMARK SMILES O=c1ccc2cc(O)c(O)cc2o1
REMARK SMILES IDX 4 1 3 2 2 3 1 4 13 5 12 6 11 7 9 8 7 9 6 10 5 11 8 12 10 14
REMARK H PARENT 8 13 10 15
REMARK Flexibility Score: inf
ROOT
ATOM      1  C   UNL     1      15.944  25.671  43.821  1.00  0.00     0.019 A 
ATOM      2  C   UNL     1      16.058  24.673  42.854  1.00  0.00     0.094 A 
ATOM      3  C   UNL     1      17.266  24.535  42.162  1.00  0.00     0.336 A 
ATOM      4  O   UNL     1      17.390  23.641  41.286  1.00  0.00    -0.246 OA
ATOM      5  O   UNL     1      18.290  25.344  42.426  1.00  0.00    -0.423 OA
ATOM      6  C   UNL     1      18.222  26.308  43.341  1.00  0.00     0.142 A 
ATOM      7  C   UNL     1      19.330  27.129  43.575  1.00  0.00     0.098 A 
ATOM      8  C   UNL     1      19.265  28.147  44.538  1.00  0.00     0.161 A 
ATOM      9  C   UNL     1      18.081  28.344  45.271  1.00  0.00     0.158 A 
ATOM     10  C   UNL     1      16.970  27.525  45.040  1.00  0.00     0.062 A 
ATOM     11  C   UNL     1      17.035  26.507  44.078  1.00  0.00     0.022 A 
ENDROOT
BRANCH   9  12
ATOM     12  O   UNL     1      17.990  29.349  46.234  1.00  0.00    -0.504 OA
ATOM     13  H   UNL     1      17.715  30.295  46.001  1.00  0.00     0.293 HD
ENDBRANCH   9  12
BRANCH   8  14
ATOM     14  O   UNL     1      20.372  28.962  44.768  1.00  0.00    -0.504 OA
ATOM     15  H   UNL     1      20.526  29.812  44.239  1.00  0.00     0.293 HD
ENDBRANCH   8  14
TORSDOF 2
ENDMDL
MODEL 8
REMARK VINA RESULT:    -5.624      2.603      4.398
REMARK INTER + INTRA:          -5.952
REMARK INTER:                  -5.952
REMARK INTRA:                   0.000
REMARK UNBOUND:                 0.000
REMARK SMILES O=c1ccc2cc(O)c(O)cc2o1
REMARK SMILES IDX 4 1 3 2 2 3 1 4 13 5 12 6 11 7 9 8 7 9 6 10 5 11 8 12 10 14
REMARK H PARENT 8 13 10 15
REMARK Flexibility Score: inf
ROOT
ATOM      1  C   UNL     1      29.140  21.515  52.261  1.00  0.00     0.019 A 
ATOM      2  C   UNL     1      30.413  21.913  52.669  1.00  0.00     0.094 A 
ATOM      3  C   UNL     1      30.977  23.062  52.105  1.00  0.00     0.336 A 
ATOM      4  O   UNL     1      32.125  23.437  52.459  1.00  0.00    -0.246 OA
ATOM      5  O   UNL     1      30.307  23.764  51.194  1.00  0.00    -0.423 OA
ATOM      6  C   UNL     1      29.091  23.420  50.778  1.00  0.00     0.142 A 
ATOM      7  C   UNL     1      28.435  24.195  49.817  1.00  0.00     0.098 A 
ATOM      8  C   UNL     1      27.152  23.838  49.375  1.00  0.00     0.161 A 
ATOM      9  C   UNL     1      26.524  22.694  49.898  1.00  0.00     0.158 A 
ATOM     10  C   UNL     1      27.178  21.915  50.860  1.00  0.00     0.062 A 
ATOM     11  C   UNL     1      28.459  22.272  51.303  1.00  0.00     0.022 A 
ENDROOT
BRANCH   9  12
ATOM     12  O   UNL     1      25.249  22.316  49.475  1.00  0.00    -0.504 OA
ATOM     13  H   UNL     1      24.929  21.357  49.522  1.00  0.00     0.293 HD
ENDBRANCH   9  12
BRANCH   8  14
ATOM     14  O   UNL     1      26.502  24.615  48.418  1.00  0.00    -0.504 OA
ATOM     15  H   UNL     1      25.492  24.682  48.385  1.00  0.00     0.293 HD
ENDBRANCH   8  14
TORSDOF 2
ENDMDL
MODEL 9
REMARK VINA RESULT:    -5.415      1.836      5.180
REMARK INTER + INTRA:          -5.732
REMARK INTER:                  -5.732
REMARK INTRA:                   0.000
REMARK UNBOUND:                 0.000
REMARK SMILES O=c1ccc2cc(O)c(O)cc2o1
REMARK SMILES IDX 4 1 3 2 2 3 1 4 13 5 12 6 11 7 9 8 7 9 6 10 5 11 8 12 10 14
REMARK H PARENT 8 13 10 15
REMARK Flexibility Score: inf
ROOT
ATOM      1  C   UNL     1      30.084  22.254  51.154  1.00  0.00     0.019 A 
ATOM      2  C   UNL     1      29.551  21.757  52.343  1.00  0.00     0.094 A 
ATOM      3  C   UNL     1      28.191  21.949  52.609  1.00  0.00     0.336 A 
ATOM      4  O   UNL     1      27.691  21.509  53.676  1.00  0.00    -0.246 OA
ATOM      5  O   UNL     1      27.419  22.594  51.737  1.00  0.00    -0.423 OA
ATOM      6  C   UNL     1      27.887  23.083  50.591  1.00  0.00     0.142 A 
ATOM      7  C   UNL     1      27.029  23.753  49.714  1.00  0.00     0.098 A 
ATOM      8  C   UNL     1      27.516  24.270  48.504  1.00  0.00     0.161 A 
ATOM      9  C   UNL     1      28.874  24.115  48.173  1.00  0.00     0.158 A 
ATOM     10  C   UNL     1      29.736  23.445  49.048  1.00  0.00     0.062 A 
ATOM     11  C   UNL     1      29.250  22.928  50.256  1.00  0.00     0.022 A 
ENDROOT
BRANCH   9  12
ATOM     12  O   UNL     1      29.384  24.619  46.976  1.00  0.00    -0.504 OA
ATOM     13  H   UNL     1      29.477  24.046  46.147  1.00  0.00     0.293 HD
ENDBRANCH   9  12
BRANCH   8  14
ATOM     14  O   UNL     1      26.656  24.936  47.633  1.00  0.00    -0.504 OA
ATOM     15  H   UNL     1      26.934  25.168  46.686  1.00  0.00     0.293 HD
ENDBRANCH   8  14
TORSDOF 2
ENDMDL
