MODEL 1
REMARK VINA RESULT:     1.535      0.000      0.000
REMARK INTER + INTRA:           1.328
REMARK INTER:                   1.625
REMARK INTRA:                  -0.297
REMARK UNBOUND:                -0.297
REMARK SMILES CC1=CC[C@@]23[C@@H]([C@@H](C(C)C)CC[C@@H]2C)[C@H]13
REMARK SMILES IDX 14 1 13 2 12 3 11 4 7 5 6 6 5 7 15 8 2 9 3 10 4 11 1 12 8 13
REMARK SMILES IDX 9 14 10 15
REMARK H PARENT
REMARK Flexibility Score: inf
ROOT
ATOM      1  C   UNL     1     -14.962  -4.708  16.325  1.00  0.00     0.008 C 
ATOM      2  C   UNL     1     -15.077  -3.198  16.064  1.00  0.00    -0.007 C 
ATOM      3  C   UNL     1     -16.497  -2.859  15.572  1.00  0.00     0.004 C 
ATOM      4  C   UNL     1     -16.724  -1.350  15.537  1.00  0.00     0.004 C 
ATOM      5  C   UNL     1     -16.729  -0.777  16.969  1.00  0.00    -0.004 C 
ATOM      6  C   UNL     1     -15.419  -1.121  17.722  1.00  0.00     0.007 C 
ATOM      7  C   UNL     1     -14.625  -2.364  17.295  1.00  0.00    -0.013 C 
ATOM      8  C   UNL     1     -15.500  -2.417  18.544  1.00  0.00     0.025 C 
ATOM      9  C   UNL     1     -14.515  -2.555  19.657  1.00  0.00    -0.073 C 
ATOM     10  C   UNL     1     -13.256  -2.572  19.236  1.00  0.00    -0.027 C 
ATOM     11  C   UNL     1     -13.161  -2.416  17.758  1.00  0.00     0.035 C 
ATOM     12  C   UNL     1     -14.905  -2.656  21.099  1.00  0.00     0.039 C 
ENDROOT
BRANCH   5  13
ATOM     13  C   UNL     1     -16.994   0.760  17.012  1.00  0.00    -0.014 C 
ATOM     14  C   UNL     1     -15.732   1.554  17.379  1.00  0.00     0.007 C 
ATOM     15  C   UNL     1     -18.159   1.158  17.937  1.00  0.00     0.007 C 
ENDBRANCH   5  13
TORSDOF 1
ENDMDL
MODEL 2
REMARK VINA RESULT:     2.728      1.388      4.081
REMARK INTER + INTRA:           2.590
REMARK INTER:                   2.821
REMARK INTRA:                  -0.231
REMARK UNBOUND:                -0.297
REMARK SMILES CC1=CC[C@@]23[C@@H]([C@@H](C(C)C)CC[C@@H]2C)[C@H]13
REMARK SMILES IDX 14 1 13 2 12 3 11 4 7 5 6 6 5 7 15 8 2 9 3 10 4 11 1 12 8 13
REMARK SMILES IDX 9 14 10 15
REMARK H PARENT
REMARK Flexibility Score: inf
ROOT
ATOM      1  C   UNL     1     -16.615  -1.208  15.200  1.00  0.00     0.008 C 
ATOM      2  C   UNL     1     -15.679  -1.070  16.410  1.00  0.00    -0.007 C 
ATOM      3  C   UNL     1     -16.508  -0.861  17.692  1.00  0.00     0.004 C 
ATOM      4  C   UNL     1     -15.634  -0.965  18.938  1.00  0.00     0.004 C 
ATOM      5  C   UNL     1     -15.121  -2.410  19.114  1.00  0.00    -0.004 C 
ATOM      6  C   UNL     1     -14.353  -2.895  17.858  1.00  0.00     0.007 C 
ATOM      7  C   UNL     1     -14.675  -2.253  16.500  1.00  0.00    -0.013 C 
ATOM      8  C   UNL     1     -15.236  -3.632  16.839  1.00  0.00     0.025 C 
ATOM      9  C   UNL     1     -14.529  -4.540  15.889  1.00  0.00    -0.073 C 
ATOM     10  C   UNL     1     -13.670  -3.903  15.102  1.00  0.00    -0.027 C 
ATOM     11  C   UNL     1     -13.619  -2.444  15.401  1.00  0.00     0.035 C 
ATOM     12  C   UNL     1     -14.757  -6.019  15.834  1.00  0.00     0.039 C 
ENDROOT
BRANCH   5  13
ATOM     13  C   UNL     1     -14.249  -2.599  20.392  1.00  0.00    -0.014 C 
ATOM     14  C   UNL     1     -15.075  -2.470  21.681  1.00  0.00     0.007 C 
ATOM     15  C   UNL     1     -13.029  -1.662  20.449  1.00  0.00     0.007 C 
ENDBRANCH   5  13
TORSDOF 1
ENDMDL
MODEL 3
REMARK VINA RESULT:     3.652      1.040      4.269
REMARK INTER + INTRA:           3.568
REMARK INTER:                   3.863
REMARK INTRA:                  -0.295
REMARK UNBOUND:                -0.297
REMARK SMILES CC1=CC[C@@]23[C@@H]([C@@H](C(C)C)CC[C@@H]2C)[C@H]13
REMARK SMILES IDX 14 1 13 2 12 3 11 4 7 5 6 6 5 7 15 8 2 9 3 10 4 11 1 12 8 13
REMARK SMILES IDX 9 14 10 15
REMARK H PARENT
REMARK Flexibility Score: inf
ROOT
ATOM      1  C   UNL     1     -16.193  -1.785  14.919  1.00  0.00     0.008 C 
ATOM      2  C   UNL     1     -16.101  -2.290  16.367  1.00  0.00    -0.007 C 
ATOM      3  C   UNL     1     -14.799  -3.091  16.561  1.00  0.00     0.004 C 
ATOM      4  C   UNL     1     -14.554  -3.398  18.035  1.00  0.00     0.004 C 
ATOM      5  C   UNL     1     -14.255  -2.097  18.810  1.00  0.00    -0.004 C 
ATOM      6  C   UNL     1     -15.398  -1.064  18.644  1.00  0.00     0.007 C 
ATOM      7  C   UNL     1     -16.285  -1.136  17.393  1.00  0.00    -0.013 C 
ATOM      8  C   UNL     1     -15.182  -0.085  17.479  1.00  0.00     0.025 C 
ATOM      9  C   UNL     1     -15.931   1.203  17.553  1.00  0.00    -0.073 C 
ATOM     10  C   UNL     1     -17.249   1.040  17.537  1.00  0.00    -0.027 C 
ATOM     11  C   UNL     1     -17.630  -0.399  17.481  1.00  0.00     0.035 C 
ATOM     12  C   UNL     1     -15.267   2.542  17.643  1.00  0.00     0.039 C 
ENDROOT
BRANCH   5  13
ATOM     13  C   UNL     1     -13.956  -2.340  20.321  1.00  0.00    -0.014 C 
ATOM     14  C   UNL     1     -15.241  -2.527  21.142  1.00  0.00     0.007 C 
ATOM     15  C   UNL     1     -13.074  -1.251  20.957  1.00  0.00     0.007 C 
ENDBRANCH   5  13
TORSDOF 1
ENDMDL
MODEL 4
REMARK VINA RESULT:     3.868      1.064      4.291
REMARK INTER + INTRA:           3.797
REMARK INTER:                   4.086
REMARK INTRA:                  -0.289
REMARK UNBOUND:                -0.297
REMARK SMILES CC1=CC[C@@]23[C@@H]([C@@H](C(C)C)CC[C@@H]2C)[C@H]13
REMARK SMILES IDX 14 1 13 2 12 3 11 4 7 5 6 6 5 7 15 8 2 9 3 10 4 11 1 12 8 13
REMARK SMILES IDX 9 14 10 15
REMARK H PARENT
REMARK Flexibility Score: inf
ROOT
ATOM      1  C   UNL     1     -13.307  -2.127  14.875  1.00  0.00     0.008 C 
ATOM      2  C   UNL     1     -13.612  -2.842  16.200  1.00  0.00    -0.007 C 
ATOM      3  C   UNL     1     -12.416  -2.696  17.162  1.00  0.00     0.004 C 
ATOM      4  C   UNL     1     -12.774  -3.177  18.565  1.00  0.00     0.004 C 
ATOM      5  C   UNL     1     -13.820  -2.239  19.202  1.00  0.00    -0.004 C 
ATOM      6  C   UNL     1     -15.089  -2.123  18.319  1.00  0.00     0.007 C 
ATOM      7  C   UNL     1     -14.964  -2.376  16.809  1.00  0.00    -0.013 C 
ATOM      8  C   UNL     1     -15.049  -0.945  17.332  1.00  0.00     0.025 C 
ATOM      9  C   UNL     1     -16.368  -0.464  16.826  1.00  0.00    -0.073 C 
ATOM     10  C   UNL     1     -17.025  -1.386  16.131  1.00  0.00    -0.027 C 
ATOM     11  C   UNL     1     -16.278  -2.673  16.069  1.00  0.00     0.035 C 
ATOM     12  C   UNL     1     -16.900   0.912  17.080  1.00  0.00     0.039 C 
ENDROOT
BRANCH   5  13
ATOM     13  C   UNL     1     -14.206  -2.650  20.656  1.00  0.00    -0.014 C 
ATOM     14  C   UNL     1     -15.727  -2.657  20.871  1.00  0.00     0.007 C 
ATOM     15  C   UNL     1     -13.521  -1.797  21.739  1.00  0.00     0.007 C 
ENDBRANCH   5  13
TORSDOF 1
ENDMDL
