MODEL 1
REMARK VINA RESULT:    -2.618      0.000      0.000
REMARK INTER + INTRA:          -3.187
REMARK INTER:                  -3.077
REMARK INTRA:                  -0.110
REMARK UNBOUND:                -0.110
REMARK SMILES CCCCC(=O)[O-]
REMARK SMILES IDX 4 1 5 2 6 3 7 4 3 5 2 6 1 7
REMARK H PARENT
REMARK Flexibility Score: inf
ROOT
ATOM      1  C   UNL     1      54.989  81.767  31.219  1.00  0.00     0.053 C 
ENDROOT
BRANCH   1   2
ATOM      2  C   UNL     1      53.505  81.630  31.095  1.00  0.00     0.041 C 
ATOM      3  O   UNL     1      52.750  82.066  32.002  1.00  0.00    -0.550 OA
ATOM      4  O   UNL     1      52.957  80.974  29.999  1.00  0.00    -0.550 OA
ENDBRANCH   1   2
BRANCH   1   5
ATOM      5  C   UNL     1      55.367  82.235  32.630  1.00  0.00     0.006 C 
BRANCH   5   6
ATOM      6  C   UNL     1      56.107  83.582  32.627  1.00  0.00    -0.003 C 
ATOM      7  C   UNL     1      55.174  84.768  32.386  1.00  0.00     0.004 C 
ENDBRANCH   5   6
ENDBRANCH   1   5
TORSDOF 3
ENDMDL
MODEL 2
REMARK VINA RESULT:    -2.592      1.674      2.255
REMARK INTER + INTRA:          -3.157
REMARK INTER:                  -3.081
REMARK INTRA:                  -0.076
REMARK UNBOUND:                -0.110
REMARK SMILES CCCCC(=O)[O-]
REMARK SMILES IDX 4 1 5 2 6 3 7 4 3 5 2 6 1 7
REMARK H PARENT
REMARK Flexibility Score: inf
ROOT
ATOM      1  C   UNL     1      55.901  83.085  32.627  1.00  0.00     0.053 C 
ENDROOT
BRANCH   1   2
ATOM      2  C   UNL     1      54.993  81.981  32.190  1.00  0.00     0.041 C 
ATOM      3  O   UNL     1      54.140  81.509  32.986  1.00  0.00    -0.550 OA
ATOM      4  O   UNL     1      55.122  81.437  30.917  1.00  0.00    -0.550 OA
ENDBRANCH   1   2
BRANCH   1   5
ATOM      5  C   UNL     1      55.361  84.441  32.153  1.00  0.00     0.006 C 
BRANCH   5   6
ATOM      6  C   UNL     1      55.829  84.799  30.734  1.00  0.00    -0.003 C 
ATOM      7  C   UNL     1      57.242  84.299  30.434  1.00  0.00     0.004 C 
ENDBRANCH   5   6
ENDBRANCH   1   5
TORSDOF 3
ENDMDL
MODEL 3
REMARK VINA RESULT:    -2.574     23.015     23.830
REMARK INTER + INTRA:          -3.136
REMARK INTER:                  -3.089
REMARK INTRA:                  -0.047
REMARK UNBOUND:                -0.110
REMARK SMILES CCCCC(=O)[O-]
REMARK SMILES IDX 4 1 5 2 6 3 7 4 3 5 2 6 1 7
REMARK H PARENT
REMARK Flexibility Score: inf
ROOT
ATOM      1  C   UNL     1      64.346  68.275  46.547  1.00  0.00     0.053 C 
ENDROOT
BRANCH   1   2
ATOM      2  C   UNL     1      63.944  68.284  47.987  1.00  0.00     0.041 C 
ATOM      3  O   UNL     1      62.802  68.692  48.324  1.00  0.00    -0.550 OA
ATOM      4  O   UNL     1      64.849  67.887  48.964  1.00  0.00    -0.550 OA
ENDBRANCH   1   2
BRANCH   1   5
ATOM      5  C   UNL     1      65.787  67.772  46.397  1.00  0.00     0.006 C 
BRANCH   5   6
ATOM      6  C   UNL     1      65.864  66.395  45.718  1.00  0.00    -0.003 C 
ATOM      7  C   UNL     1      66.592  66.439  44.375  1.00  0.00     0.004 C 
ENDBRANCH   5   6
ENDBRANCH   1   5
TORSDOF 3
ENDMDL
MODEL 4
REMARK VINA RESULT:    -2.553     23.070     23.751
REMARK INTER + INTRA:          -3.112
REMARK INTER:                  -3.087
REMARK INTRA:                  -0.024
REMARK UNBOUND:                -0.110
REMARK SMILES CCCCC(=O)[O-]
REMARK SMILES IDX 4 1 5 2 6 3 7 4 3 5 2 6 1 7
REMARK H PARENT
REMARK Flexibility Score: inf
ROOT
ATOM      1  C   UNL     1      65.834  66.787  46.409  1.00  0.00     0.053 C 
ENDROOT
BRANCH   1   2
ATOM      2  C   UNL     1      66.702  66.940  45.200  1.00  0.00     0.041 C 
ATOM      3  O   UNL     1      66.364  66.414  44.108  1.00  0.00    -0.550 OA
ATOM      4  O   UNL     1      67.910  67.621  45.293  1.00  0.00    -0.550 OA
ENDBRANCH   1   2
BRANCH   1   5
ATOM      5  C   UNL     1      65.336  68.158  46.885  1.00  0.00     0.006 C 
BRANCH   5   6
ATOM      6  C   UNL     1      63.803  68.271  46.855  1.00  0.00    -0.003 C 
ATOM      7  C   UNL     1      63.206  68.576  48.228  1.00  0.00     0.004 C 
ENDBRANCH   5   6
ENDBRANCH   1   5
TORSDOF 3
ENDMDL
MODEL 5
REMARK VINA RESULT:    -2.542     21.626     22.283
REMARK INTER + INTRA:          -3.099
REMARK INTER:                  -3.062
REMARK INTRA:                  -0.037
REMARK UNBOUND:                -0.110
REMARK SMILES CCCCC(=O)[O-]
REMARK SMILES IDX 4 1 5 2 6 3 7 4 3 5 2 6 1 7
REMARK H PARENT
REMARK Flexibility Score: inf
ROOT
ATOM      1  C   UNL     1      66.496  66.855  39.852  1.00  0.00     0.053 C 
ENDROOT
BRANCH   1   2
ATOM      2  C   UNL     1      66.977  66.435  38.500  1.00  0.00     0.041 C 
ATOM      3  O   UNL     1      67.106  67.285  37.581  1.00  0.00    -0.550 OA
ATOM      4  O   UNL     1      67.237  65.095  38.239  1.00  0.00    -0.550 OA
ENDBRANCH   1   2
BRANCH   1   5
ATOM      5  C   UNL     1      66.608  65.691  40.845  1.00  0.00     0.006 C 
BRANCH   5   6
ATOM      6  C   UNL     1      67.505  66.026  42.047  1.00  0.00    -0.003 C 
ATOM      7  C   UNL     1      66.740  66.039  43.370  1.00  0.00     0.004 C 
ENDBRANCH   5   6
ENDBRANCH   1   5
TORSDOF 3
ENDMDL
MODEL 6
REMARK VINA RESULT:    -2.525     23.492     24.285
REMARK INTER + INTRA:          -3.079
REMARK INTER:                  -3.029
REMARK INTRA:                  -0.050
REMARK UNBOUND:                -0.110
REMARK SMILES CCCCC(=O)[O-]
REMARK SMILES IDX 4 1 5 2 6 3 7 4 3 5 2 6 1 7
REMARK H PARENT
REMARK Flexibility Score: inf
ROOT
ATOM      1  C   UNL     1      65.945  68.190  48.345  1.00  0.00     0.053 C 
ENDROOT
BRANCH   1   2
ATOM      2  C   UNL     1      67.196  68.901  47.938  1.00  0.00     0.041 C 
ATOM      3  O   UNL     1      67.592  69.907  48.583  1.00  0.00    -0.550 OA
ATOM      4  O   UNL     1      67.899  68.483  46.814  1.00  0.00    -0.550 OA
ENDBRANCH   1   2
BRANCH   1   5
ATOM      5  C   UNL     1      65.204  67.661  47.110  1.00  0.00     0.006 C 
BRANCH   5   6
ATOM      6  C   UNL     1      63.829  68.320  46.920  1.00  0.00    -0.003 C 
ATOM      7  C   UNL     1      63.107  68.571  48.244  1.00  0.00     0.004 C 
ENDBRANCH   5   6
ENDBRANCH   1   5
TORSDOF 3
ENDMDL
MODEL 7
REMARK VINA RESULT:    -2.494     23.285     24.016
REMARK INTER + INTRA:          -3.042
REMARK INTER:                  -2.943
REMARK INTRA:                  -0.098
REMARK UNBOUND:                -0.110
REMARK SMILES CCCCC(=O)[O-]
REMARK SMILES IDX 4 1 5 2 6 3 7 4 3 5 2 6 1 7
REMARK H PARENT
REMARK Flexibility Score: inf
ROOT
ATOM      1  C   UNL     1      64.950  67.744  48.757  1.00  0.00     0.053 C 
ENDROOT
BRANCH   1   2
ATOM      2  C   UNL     1      63.895  68.323  47.869  1.00  0.00     0.041 C 
ATOM      3  O   UNL     1      62.808  68.728  48.357  1.00  0.00    -0.550 OA
ATOM      4  O   UNL     1      64.092  68.370  46.494  1.00  0.00    -0.550 OA
ENDBRANCH   1   2
BRANCH   1   5
ATOM      5  C   UNL     1      66.181  68.660  48.793  1.00  0.00     0.006 C 
BRANCH   5   6
ATOM      6  C   UNL     1      67.313  68.162  47.880  1.00  0.00    -0.003 C 
ATOM      7  C   UNL     1      67.689  69.174  46.799  1.00  0.00     0.004 C 
ENDBRANCH   5   6
ENDBRANCH   1   5
TORSDOF 3
ENDMDL
MODEL 8
REMARK VINA RESULT:    -2.470      3.045      3.747
REMARK INTER + INTRA:          -3.013
REMARK INTER:                  -2.912
REMARK INTRA:                  -0.101
REMARK UNBOUND:                -0.110
REMARK SMILES CCCCC(=O)[O-]
REMARK SMILES IDX 4 1 5 2 6 3 7 4 3 5 2 6 1 7
REMARK H PARENT
REMARK Flexibility Score: inf
ROOT
ATOM      1  C   UNL     1      55.803  84.298  31.269  1.00  0.00     0.053 C 
ENDROOT
BRANCH   1   2
ATOM      2  C   UNL     1      56.838  83.910  30.260  1.00  0.00     0.041 C 
ATOM      3  O   UNL     1      56.618  82.965  29.458  1.00  0.00    -0.550 OA
ATOM      4  O   UNL     1      58.066  84.560  30.239  1.00  0.00    -0.550 OA
ENDBRANCH   1   2
BRANCH   1   5
ATOM      5  C   UNL     1      56.055  83.573  32.598  1.00  0.00     0.006 C 
BRANCH   5   6
ATOM      6  C   UNL     1      55.402  82.182  32.643  1.00  0.00    -0.003 C 
ATOM      7  C   UNL     1      53.975  82.181  32.095  1.00  0.00     0.004 C 
ENDBRANCH   5   6
ENDBRANCH   1   5
TORSDOF 3
ENDMDL
MODEL 9
REMARK VINA RESULT:    -2.465      2.472      3.645
REMARK INTER + INTRA:          -3.008
REMARK INTER:                  -2.915
REMARK INTRA:                  -0.093
REMARK UNBOUND:                -0.110
REMARK SMILES CCCCC(=O)[O-]
REMARK SMILES IDX 4 1 5 2 6 3 7 4 3 5 2 6 1 7
REMARK H PARENT
REMARK Flexibility Score: inf
ROOT
ATOM      1  C   UNL     1      55.394  82.395  32.482  1.00  0.00     0.053 C 
ENDROOT
BRANCH   1   2
ATOM      2  C   UNL     1      55.862  83.776  32.146  1.00  0.00     0.041 C 
ATOM      3  O   UNL     1      56.900  83.942  31.453  1.00  0.00    -0.550 OA
ATOM      4  O   UNL     1      55.179  84.881  32.639  1.00  0.00    -0.550 OA
ENDBRANCH   1   2
BRANCH   1   5
ATOM      5  C   UNL     1      55.101  81.604  31.201  1.00  0.00     0.006 C 
BRANCH   5   6
ATOM      6  C   UNL     1      53.637  81.734  30.750  1.00  0.00    -0.003 C 
ATOM      7  C   UNL     1      52.655  81.727  31.921  1.00  0.00     0.004 C 
ENDBRANCH   5   6
ENDBRANCH   1   5
TORSDOF 3
ENDMDL
