MODEL 1
REMARK VINA RESULT:    -6.947      0.000      0.000
REMARK INTER + INTRA:         -10.715
REMARK INTER:                  -9.384
REMARK INTRA:                  -1.331
REMARK UNBOUND:                -1.331
REMARK SMILES CC[C@H](CC[C@@H](C)[C@H]1CC[C@H]2[C@H]3CC(=O)C4=CC(=O)CC[C@@]4(C)[C@@H]3CC[C@@]12C)C(C)C
REMARK SMILES IDX 4 1 3 2 2 3 1 4 29 5 30 6 31 7 5 8 6 9 7 10 8 11 9 12 27 13
REMARK SMILES IDX 10 14 11 15 26 16 28 17 12 18 25 19 24 20 13 21 22 22 14 23
REMARK SMILES IDX 16 24 21 25 23 26 15 27 17 28 20 29 18 30 19 31
REMARK H PARENT
REMARK Flexibility Score: inf
ROOT
ATOM      1  C   UNL     1      40.829 -40.909  -5.110  1.00  0.00     0.004 C 
ENDROOT
BRANCH   1   2
ATOM      2  C   UNL     1      42.183 -40.882  -4.345  1.00  0.00    -0.009 C 
BRANCH   2   3
ATOM      3  C   UNL     1      43.370 -40.751  -5.350  1.00  0.00     0.000 C 
ATOM      4  C   UNL     1      43.759 -42.089  -5.982  1.00  0.00     0.004 C 
ENDBRANCH   2   3
BRANCH   2   5
ATOM      5  C   UNL     1      42.231 -39.797  -3.213  1.00  0.00    -0.014 C 
ATOM      6  C   UNL     1      42.883 -40.334  -1.925  1.00  0.00     0.007 C 
ATOM      7  C   UNL     1      42.991 -38.536  -3.660  1.00  0.00     0.007 C 
ENDBRANCH   2   5
ENDBRANCH   1   2
BRANCH   1   8
ATOM      8  C   UNL     1      39.613 -40.474  -4.259  1.00  0.00     0.004 C 
BRANCH   8   9
ATOM      9  C   UNL     1      38.395 -40.048  -5.132  1.00  0.00    -0.011 C 
ATOM     10  C   UNL     1      37.109 -40.630  -4.510  1.00  0.00     0.008 C 
BRANCH   9  11
ATOM     11  C   UNL     1      38.320 -38.483  -5.277  1.00  0.00    -0.002 C 
ATOM     12  C   UNL     1      39.621 -37.793  -4.819  1.00  0.00     0.005 C 
ATOM     13  C   UNL     1      38.037 -37.881  -6.697  1.00  0.00    -0.026 C 
ATOM     14  C   UNL     1      39.812 -36.548  -5.676  1.00  0.00     0.005 C 
ATOM     15  C   UNL     1      38.559 -36.432  -6.547  1.00  0.00    -0.001 C 
ATOM     16  C   UNL     1      38.842 -38.622  -7.805  1.00  0.00     0.007 C 
ATOM     17  C   UNL     1      36.519 -37.858  -7.023  1.00  0.00     0.012 C 
ATOM     18  C   UNL     1      38.751 -35.652  -7.888  1.00  0.00     0.004 C 
ATOM     19  C   UNL     1      38.880 -37.859  -9.129  1.00  0.00     0.005 C 
ATOM     20  C   UNL     1      39.527 -36.462  -8.969  1.00  0.00     0.003 C 
ATOM     21  C   UNL     1      39.409 -34.285  -7.630  1.00  0.00     0.085 C 
ATOM     22  C   UNL     1      39.666 -35.685 -10.346  1.00  0.00    -0.000 C 
ATOM     23  C   UNL     1      39.615 -33.529  -8.899  1.00  0.00     0.159 C 
ATOM     24  C   UNL     1      40.104 -34.236 -10.100  1.00  0.00     0.005 C 
ATOM     25  C   UNL     1      40.739 -36.403 -11.229  1.00  0.00     0.020 C 
ATOM     26  C   UNL     1      38.318 -35.638 -11.116  1.00  0.00     0.017 C 
ATOM     27  O   UNL     1      39.452 -32.278  -8.908  1.00  0.00    -0.295 OA
ATOM     28  C   UNL     1      40.837 -33.558 -11.003  1.00  0.00     0.055 C 
ATOM     29  C   UNL     1      41.077 -35.635 -12.513  1.00  0.00     0.081 C 
ATOM     30  C   UNL     1      41.358 -34.195 -12.221  1.00  0.00     0.156 C 
ATOM     31  O   UNL     1      42.020 -33.512 -13.045  1.00  0.00    -0.295 OA
ENDBRANCH   9  11
ENDBRANCH   8   9
ENDBRANCH   1   8
TORSDOF 6
ENDMDL
MODEL 2
REMARK VINA RESULT:    -6.516      0.893      1.751
REMARK INTER + INTRA:         -10.133
REMARK INTER:                  -8.599
REMARK INTRA:                  -1.534
REMARK UNBOUND:                -1.331
REMARK SMILES CC[C@H](CC[C@@H](C)[C@H]1CC[C@H]2[C@H]3CC(=O)C4=CC(=O)CC[C@@]4(C)[C@@H]3CC[C@@]12C)C(C)C
REMARK SMILES IDX 4 1 3 2 2 3 1 4 29 5 30 6 31 7 5 8 6 9 7 10 8 11 9 12 27 13
REMARK SMILES IDX 10 14 11 15 26 16 28 17 12 18 25 19 24 20 13 21 22 22 14 23
REMARK SMILES IDX 16 24 21 25 23 26 15 27 17 28 20 29 18 30 19 31
REMARK H PARENT
REMARK Flexibility Score: inf
ROOT
ATOM      1  C   UNL     1      40.071 -40.682  -3.059  1.00  0.00     0.004 C 
ENDROOT
BRANCH   1   2
ATOM      2  C   UNL     1      41.440 -40.059  -3.455  1.00  0.00    -0.009 C 
BRANCH   2   3
ATOM      3  C   UNL     1      42.527 -40.426  -2.397  1.00  0.00     0.000 C 
ATOM      4  C   UNL     1      42.310 -39.722  -1.056  1.00  0.00     0.004 C 
ENDBRANCH   2   3
BRANCH   2   5
ATOM      5  C   UNL     1      41.879 -40.412  -4.919  1.00  0.00    -0.014 C 
ATOM      6  C   UNL     1      43.217 -41.173  -4.953  1.00  0.00     0.007 C 
ATOM      7  C   UNL     1      40.817 -41.254  -5.647  1.00  0.00     0.007 C 
ENDBRANCH   2   5
ENDBRANCH   1   2
BRANCH   1   8
ATOM      8  C   UNL     1      38.955 -39.644  -2.797  1.00  0.00     0.004 C 
BRANCH   8   9
ATOM      9  C   UNL     1      38.109 -39.343  -4.071  1.00  0.00    -0.011 C 
ATOM     10  C   UNL     1      36.677 -39.875  -3.856  1.00  0.00     0.008 C 
BRANCH   9  11
ATOM     11  C   UNL     1      38.119 -37.805  -4.409  1.00  0.00    -0.002 C 
ATOM     12  C   UNL     1      39.461 -37.137  -4.044  1.00  0.00     0.005 C 
ATOM     13  C   UNL     1      37.855 -37.369  -5.891  1.00  0.00    -0.026 C 
ATOM     14  C   UNL     1      39.711 -36.021  -5.049  1.00  0.00     0.005 C 
ATOM     15  C   UNL     1      38.458 -35.944  -5.924  1.00  0.00    -0.001 C 
ATOM     16  C   UNL     1      38.607 -38.285  -6.901  1.00  0.00     0.007 C 
ATOM     17  C   UNL     1      36.338 -37.302  -6.212  1.00  0.00     0.012 C 
ATOM     18  C   UNL     1      38.678 -35.347  -7.352  1.00  0.00     0.004 C 
ATOM     19  C   UNL     1      38.674 -37.694  -8.310  1.00  0.00     0.005 C 
ATOM     20  C   UNL     1      39.398 -36.326  -8.327  1.00  0.00     0.003 C 
ATOM     21  C   UNL     1      39.413 -33.997  -7.267  1.00  0.00     0.085 C 
ATOM     22  C   UNL     1      39.565 -35.734  -9.789  1.00  0.00    -0.000 C 
ATOM     23  C   UNL     1      39.648 -33.417  -8.620  1.00  0.00     0.159 C 
ATOM     24  C   UNL     1      40.085 -34.293  -9.726  1.00  0.00     0.005 C 
ATOM     25  C   UNL     1      40.588 -36.614 -10.580  1.00  0.00     0.020 C 
ATOM     26  C   UNL     1      38.215 -35.708 -10.555  1.00  0.00     0.017 C 
ATOM     27  O   UNL     1      39.553 -32.169  -8.784  1.00  0.00    -0.295 OA
ATOM     28  C   UNL     1      40.845 -33.774 -10.709  1.00  0.00     0.055 C 
ATOM     29  C   UNL     1      40.955 -36.031 -11.950  1.00  0.00     0.081 C 
ATOM     30  C   UNL     1      41.318 -34.584 -11.839  1.00  0.00     0.156 C 
ATOM     31  O   UNL     1      42.008 -34.045 -12.744  1.00  0.00    -0.295 OA
ENDBRANCH   9  11
ENDBRANCH   8   9
ENDBRANCH   1   8
TORSDOF 6
ENDMDL
MODEL 3
REMARK VINA RESULT:    -6.441      2.271      3.907
REMARK INTER + INTRA:         -10.032
REMARK INTER:                  -7.853
REMARK INTRA:                  -2.180
REMARK UNBOUND:                -1.331
REMARK SMILES CC[C@H](CC[C@@H](C)[C@H]1CC[C@H]2[C@H]3CC(=O)C4=CC(=O)CC[C@@]4(C)[C@@H]3CC[C@@]12C)C(C)C
REMARK SMILES IDX 4 1 3 2 2 3 1 4 29 5 30 6 31 7 5 8 6 9 7 10 8 11 9 12 27 13
REMARK SMILES IDX 10 14 11 15 26 16 28 17 12 18 25 19 24 20 13 21 22 22 14 23
REMARK SMILES IDX 16 24 21 25 23 26 15 27 17 28 20 29 18 30 19 31
REMARK H PARENT
REMARK Flexibility Score: inf
ROOT
ATOM      1  C   UNL     1      42.498 -39.982  -2.267  1.00  0.00     0.004 C 
ENDROOT
BRANCH   1   2
ATOM      2  C   UNL     1      42.929 -39.004  -3.397  1.00  0.00    -0.009 C 
BRANCH   2   3
ATOM      3  C   UNL     1      42.625 -39.625  -4.796  1.00  0.00     0.000 C 
ATOM      4  C   UNL     1      42.997 -41.106  -4.879  1.00  0.00     0.004 C 
ENDBRANCH   2   3
BRANCH   2   5
ATOM      5  C   UNL     1      42.326 -37.565  -3.232  1.00  0.00    -0.014 C 
ATOM      6  C   UNL     1      43.405 -36.520  -2.895  1.00  0.00     0.007 C 
ATOM      7  C   UNL     1      41.580 -37.109  -4.498  1.00  0.00     0.007 C 
ENDBRANCH   2   5
ENDBRANCH   1   2
BRANCH   1   8
ATOM      8  C   UNL     1      41.098 -39.690  -1.678  1.00  0.00     0.004 C 
BRANCH   8   9
ATOM      9  C   UNL     1      40.019 -40.698  -2.173  1.00  0.00    -0.011 C 
ATOM     10  C   UNL     1      39.838 -41.797  -1.106  1.00  0.00     0.008 C 
BRANCH   9  11
ATOM     11  C   UNL     1      38.664 -39.966  -2.497  1.00  0.00    -0.002 C 
ATOM     12  C   UNL     1      38.690 -38.481  -2.080  1.00  0.00     0.005 C 
ATOM     13  C   UNL     1      38.169 -39.946  -3.984  1.00  0.00    -0.026 C 
ATOM     14  C   UNL     1      37.826 -37.707  -3.066  1.00  0.00     0.005 C 
ATOM     15  C   UNL     1      37.185 -38.751  -3.984  1.00  0.00    -0.001 C 
ATOM     16  C   UNL     1      39.338 -39.668  -4.975  1.00  0.00     0.007 C 
ATOM     17  C   UNL     1      37.410 -41.247  -4.359  1.00  0.00     0.012 C 
ATOM     18  C   UNL     1      36.771 -38.229  -5.399  1.00  0.00     0.004 C 
ATOM     19  C   UNL     1      38.859 -39.286  -6.376  1.00  0.00     0.005 C 
ATOM     20  C   UNL     1      37.982 -38.010  -6.355  1.00  0.00     0.003 C 
ATOM     21  C   UNL     1      35.914 -36.957  -5.277  1.00  0.00     0.085 C 
ATOM     22  C   UNL     1      37.548 -37.537  -7.806  1.00  0.00    -0.000 C 
ATOM     23  C   UNL     1      35.521 -36.432  -6.616  1.00  0.00     0.159 C 
ATOM     24  C   UNL     1      36.510 -36.411  -7.713  1.00  0.00     0.005 C 
ATOM     25  C   UNL     1      38.809 -37.010  -8.567  1.00  0.00     0.020 C 
ATOM     26  C   UNL     1      36.906 -38.693  -8.619  1.00  0.00     0.017 C 
ATOM     27  O   UNL     1      34.373 -35.932  -6.773  1.00  0.00    -0.295 OA
ATOM     28  C   UNL     1      36.411 -35.463  -8.664  1.00  0.00     0.055 C 
ATOM     29  C   UNL     1      38.474 -36.367  -9.919  1.00  0.00     0.081 C 
ATOM     30  C   UNL     1      37.359 -35.380  -9.783  1.00  0.00     0.156 C 
ATOM     31  O   UNL     1      37.209 -34.488 -10.659  1.00  0.00    -0.295 OA
ENDBRANCH   9  11
ENDBRANCH   8   9
ENDBRANCH   1   8
TORSDOF 6
ENDMDL
MODEL 4
REMARK VINA RESULT:    -6.181      1.863      2.879
REMARK INTER + INTRA:          -9.680
REMARK INTER:                  -7.839
REMARK INTRA:                  -1.841
REMARK UNBOUND:                -1.331
REMARK SMILES CC[C@H](CC[C@@H](C)[C@H]1CC[C@H]2[C@H]3CC(=O)C4=CC(=O)CC[C@@]4(C)[C@@H]3CC[C@@]12C)C(C)C
REMARK SMILES IDX 4 1 3 2 2 3 1 4 29 5 30 6 31 7 5 8 6 9 7 10 8 11 9 12 27 13
REMARK SMILES IDX 10 14 11 15 26 16 28 17 12 18 25 19 24 20 13 21 22 22 14 23
REMARK SMILES IDX 16 24 21 25 23 26 15 27 17 28 20 29 18 30 19 31
REMARK H PARENT
REMARK Flexibility Score: inf
ROOT
ATOM      1  C   UNL     1      39.839 -39.532  -3.360  1.00  0.00     0.004 C 
ENDROOT
BRANCH   1   2
ATOM      2  C   UNL     1      40.874 -39.475  -4.520  1.00  0.00    -0.009 C 
BRANCH   2   3
ATOM      3  C   UNL     1      41.863 -38.287  -4.305  1.00  0.00     0.000 C 
ATOM      4  C   UNL     1      41.266 -36.939  -4.715  1.00  0.00     0.004 C 
ENDBRANCH   2   3
BRANCH   2   5
ATOM      5  C   UNL     1      41.613 -40.839  -4.755  1.00  0.00    -0.014 C 
ATOM      6  C   UNL     1      41.082 -41.577  -5.998  1.00  0.00     0.007 C 
ATOM      7  C   UNL     1      43.132 -40.647  -4.910  1.00  0.00     0.007 C 
ENDBRANCH   2   5
ENDBRANCH   1   2
BRANCH   1   8
ATOM      8  C   UNL     1      38.399 -39.153  -3.779  1.00  0.00     0.004 C 
BRANCH   8   9
ATOM      9  C   UNL     1      37.950 -39.870  -5.087  1.00  0.00    -0.011 C 
ATOM     10  C   UNL     1      37.395 -41.263  -4.726  1.00  0.00     0.008 C 
BRANCH   9  11
ATOM     11  C   UNL     1      36.896 -39.006  -5.875  1.00  0.00    -0.002 C 
ATOM     12  C   UNL     1      36.471 -37.748  -5.090  1.00  0.00     0.005 C 
ATOM     13  C   UNL     1      37.290 -38.467  -7.294  1.00  0.00    -0.026 C 
ATOM     14  C   UNL     1      36.176 -36.648  -6.102  1.00  0.00     0.005 C 
ATOM     15  C   UNL     1      36.299 -37.293  -7.484  1.00  0.00    -0.001 C 
ATOM     16  C   UNL     1      38.753 -37.933  -7.319  1.00  0.00     0.007 C 
ATOM     17  C   UNL     1      37.059 -39.530  -8.401  1.00  0.00     0.012 C 
ATOM     18  C   UNL     1      36.647 -36.311  -8.649  1.00  0.00     0.004 C 
ATOM     19  C   UNL     1      39.060 -37.084  -8.552  1.00  0.00     0.005 C 
ATOM     20  C   UNL     1      38.134 -35.846  -8.643  1.00  0.00     0.003 C 
ATOM     21  C   UNL     1      35.684 -35.111  -8.651  1.00  0.00     0.085 C 
ATOM     22  C   UNL     1      38.493 -34.896  -9.862  1.00  0.00    -0.000 C 
ATOM     23  C   UNL     1      36.007 -34.151  -9.746  1.00  0.00     0.159 C 
ATOM     24  C   UNL     1      37.417 -33.816 -10.031  1.00  0.00     0.005 C 
ATOM     25  C   UNL     1      39.870 -34.209  -9.584  1.00  0.00     0.020 C 
ATOM     26  C   UNL     1      38.574 -35.683 -11.198  1.00  0.00     0.017 C 
ATOM     27  O   UNL     1      35.069 -33.572 -10.359  1.00  0.00    -0.295 OA
ATOM     28  C   UNL     1      37.710 -32.601 -10.534  1.00  0.00     0.055 C 
ATOM     29  C   UNL     1      40.231 -33.136 -10.619  1.00  0.00     0.081 C 
ATOM     30  C   UNL     1      39.089 -32.197 -10.842  1.00  0.00     0.156 C 
ATOM     31  O   UNL     1      39.307 -31.058 -11.331  1.00  0.00    -0.295 OA
ENDBRANCH   9  11
ENDBRANCH   8   9
ENDBRANCH   1   8
TORSDOF 6
ENDMDL
MODEL 5
REMARK VINA RESULT:    -6.142      1.795      2.421
REMARK INTER + INTRA:          -9.628
REMARK INTER:                  -8.369
REMARK INTRA:                  -1.259
REMARK UNBOUND:                -1.331
REMARK SMILES CC[C@H](CC[C@@H](C)[C@H]1CC[C@H]2[C@H]3CC(=O)C4=CC(=O)CC[C@@]4(C)[C@@H]3CC[C@@]12C)C(C)C
REMARK SMILES IDX 4 1 3 2 2 3 1 4 29 5 30 6 31 7 5 8 6 9 7 10 8 11 9 12 27 13
REMARK SMILES IDX 10 14 11 15 26 16 28 17 12 18 25 19 24 20 13 21 22 22 14 23
REMARK SMILES IDX 16 24 21 25 23 26 15 27 17 28 20 29 18 30 19 31
REMARK H PARENT
REMARK Flexibility Score: inf
ROOT
ATOM      1  C   UNL     1      40.356 -39.129  -4.625  1.00  0.00     0.004 C 
ENDROOT
BRANCH   1   2
ATOM      2  C   UNL     1      41.211 -40.364  -4.224  1.00  0.00    -0.009 C 
BRANCH   2   3
ATOM      3  C   UNL     1      41.536 -41.229  -5.481  1.00  0.00     0.000 C 
ATOM      4  C   UNL     1      43.014 -41.615  -5.570  1.00  0.00     0.004 C 
ENDBRANCH   2   3
BRANCH   2   5
ATOM      5  C   UNL     1      42.495 -39.987  -3.404  1.00  0.00    -0.014 C 
ATOM      6  C   UNL     1      42.878 -38.506  -3.578  1.00  0.00     0.007 C 
ATOM      7  C   UNL     1      42.321 -40.277  -1.903  1.00  0.00     0.007 C 
ENDBRANCH   2   5
ENDBRANCH   1   2
BRANCH   1   8
ATOM      8  C   UNL     1      38.855 -39.258  -4.276  1.00  0.00     0.004 C 
BRANCH   8   9
ATOM      9  C   UNL     1      38.048 -40.007  -5.378  1.00  0.00    -0.011 C 
ATOM     10  C   UNL     1      37.396 -41.258  -4.754  1.00  0.00     0.008 C 
BRANCH   9  11
ATOM     11  C   UNL     1      36.981 -39.060  -6.043  1.00  0.00    -0.002 C 
ATOM     12  C   UNL     1      36.711 -37.800  -5.194  1.00  0.00     0.005 C 
ATOM     13  C   UNL     1      37.273 -38.508  -7.481  1.00  0.00    -0.026 C 
ATOM     14  C   UNL     1      36.392 -36.657  -6.150  1.00  0.00     0.005 C 
ATOM     15  C   UNL     1      36.344 -37.272  -7.550  1.00  0.00    -0.001 C 
ATOM     16  C   UNL     1      38.757 -38.063  -7.634  1.00  0.00     0.007 C 
ATOM     17  C   UNL     1      36.872 -39.525  -8.583  1.00  0.00     0.012 C 
ATOM     18  C   UNL     1      36.641 -36.281  -8.722  1.00  0.00     0.004 C 
ATOM     19  C   UNL     1      38.999 -37.200  -8.873  1.00  0.00     0.005 C 
ATOM     20  C   UNL     1      38.148 -35.907  -8.849  1.00  0.00     0.003 C 
ATOM     21  C   UNL     1      35.758 -35.025  -8.607  1.00  0.00     0.085 C 
ATOM     22  C   UNL     1      38.449 -34.948 -10.076  1.00  0.00    -0.000 C 
ATOM     23  C   UNL     1      36.037 -34.058  -9.707  1.00  0.00     0.159 C 
ATOM     24  C   UNL     1      37.431 -33.801 -10.119  1.00  0.00     0.005 C 
ATOM     25  C   UNL     1      39.886 -34.353  -9.917  1.00  0.00     0.020 C 
ATOM     26  C   UNL     1      38.355 -35.702 -11.430  1.00  0.00     0.017 C 
ATOM     27  O   UNL     1      35.083 -33.407 -10.215  1.00  0.00    -0.295 OA
ATOM     28  C   UNL     1      37.752 -32.593 -10.622  1.00  0.00     0.055 C 
ATOM     29  C   UNL     1      40.215 -33.276 -10.959  1.00  0.00     0.081 C 
ATOM     30  C   UNL     1      39.118 -32.264 -11.051  1.00  0.00     0.156 C 
ATOM     31  O   UNL     1      39.360 -31.128 -11.535  1.00  0.00    -0.295 OA
ENDBRANCH   9  11
ENDBRANCH   8   9
ENDBRANCH   1   8
TORSDOF 6
ENDMDL
MODEL 6
REMARK VINA RESULT:    -5.857      3.247      7.692
REMARK INTER + INTRA:          -9.242
REMARK INTER:                  -7.414
REMARK INTRA:                  -1.829
REMARK UNBOUND:                -1.331
REMARK SMILES CC[C@H](CC[C@@H](C)[C@H]1CC[C@H]2[C@H]3CC(=O)C4=CC(=O)CC[C@@]4(C)[C@@H]3CC[C@@]12C)C(C)C
REMARK SMILES IDX 4 1 3 2 2 3 1 4 29 5 30 6 31 7 5 8 6 9 7 10 8 11 9 12 27 13
REMARK SMILES IDX 10 14 11 15 26 16 28 17 12 18 25 19 24 20 13 21 22 22 14 23
REMARK SMILES IDX 16 24 21 25 23 26 15 27 17 28 20 29 18 30 19 31
REMARK H PARENT
REMARK Flexibility Score: inf
ROOT
ATOM      1  C   UNL     1      38.091 -34.196 -10.196  1.00  0.00     0.004 C 
ENDROOT
BRANCH   1   2
ATOM      2  C   UNL     1      39.121 -34.993 -11.047  1.00  0.00    -0.009 C 
BRANCH   2   3
ATOM      3  C   UNL     1      39.956 -34.019 -11.936  1.00  0.00     0.000 C 
ATOM      4  C   UNL     1      40.047 -32.610 -11.346  1.00  0.00     0.004 C 
ENDBRANCH   2   3
BRANCH   2   5
ATOM      5  C   UNL     1      40.021 -35.950 -10.191  1.00  0.00    -0.014 C 
ATOM      6  C   UNL     1      41.244 -36.453 -10.980  1.00  0.00     0.007 C 
ATOM      7  C   UNL     1      40.515 -35.270  -8.902  1.00  0.00     0.007 C 
ENDBRANCH   2   5
ENDBRANCH   1   2
BRANCH   1   8
ATOM      8  C   UNL     1      36.678 -34.826 -10.160  1.00  0.00     0.004 C 
BRANCH   8   9
ATOM      9  C   UNL     1      36.045 -34.791  -8.737  1.00  0.00    -0.011 C 
ATOM     10  C   UNL     1      34.659 -34.121  -8.825  1.00  0.00     0.008 C 
BRANCH   9  11
ATOM     11  C   UNL     1      35.961 -36.236  -8.118  1.00  0.00    -0.002 C 
ATOM     12  C   UNL     1      36.612 -37.298  -9.027  1.00  0.00     0.005 C 
ATOM     13  C   UNL     1      36.603 -36.479  -6.709  1.00  0.00    -0.026 C 
ATOM     14  C   UNL     1      37.210 -38.373  -8.129  1.00  0.00     0.005 C 
ATOM     15  C   UNL     1      36.797 -38.015  -6.700  1.00  0.00    -0.001 C 
ATOM     16  C   UNL     1      37.984 -35.771  -6.579  1.00  0.00     0.007 C 
ATOM     17  C   UNL     1      35.647 -36.067  -5.559  1.00  0.00     0.012 C 
ATOM     18  C   UNL     1      37.740 -38.560  -5.578  1.00  0.00     0.004 C 
ATOM     19  C   UNL     1      38.800 -36.265  -5.384  1.00  0.00     0.005 C 
ATOM     20  C   UNL     1      39.087 -37.784  -5.471  1.00  0.00     0.003 C 
ATOM     21  C   UNL     1      37.974 -40.071  -5.755  1.00  0.00     0.085 C 
ATOM     22  C   UNL     1      40.012 -38.306  -4.293  1.00  0.00    -0.000 C 
ATOM     23  C   UNL     1      38.884 -40.610  -4.704  1.00  0.00     0.159 C 
ATOM     24  C   UNL     1      40.079 -39.838  -4.306  1.00  0.00     0.005 C 
ATOM     25  C   UNL     1      41.452 -37.727  -4.482  1.00  0.00     0.020 C 
ATOM     26  C   UNL     1      39.467 -37.877  -2.903  1.00  0.00     0.017 C 
ATOM     27  O   UNL     1      38.670 -41.758  -4.227  1.00  0.00    -0.295 OA
ATOM     28  C   UNL     1      41.166 -40.499  -3.863  1.00  0.00     0.055 C 
ATOM     29  C   UNL     1      42.472 -38.307  -3.494  1.00  0.00     0.081 C 
ATOM     30  C   UNL     1      42.391 -39.800  -3.451  1.00  0.00     0.156 C 
ATOM     31  O   UNL     1      43.371 -40.463  -3.024  1.00  0.00    -0.295 OA
ENDBRANCH   9  11
ENDBRANCH   8   9
ENDBRANCH   1   8
TORSDOF 6
ENDMDL
MODEL 7
REMARK VINA RESULT:    -5.802      4.815      9.304
REMARK INTER + INTRA:          -9.169
REMARK INTER:                  -6.997
REMARK INTRA:                  -2.172
REMARK UNBOUND:                -1.331
REMARK SMILES CC[C@H](CC[C@@H](C)[C@H]1CC[C@H]2[C@H]3CC(=O)C4=CC(=O)CC[C@@]4(C)[C@@H]3CC[C@@]12C)C(C)C
REMARK SMILES IDX 4 1 3 2 2 3 1 4 29 5 30 6 31 7 5 8 6 9 7 10 8 11 9 12 27 13
REMARK SMILES IDX 10 14 11 15 26 16 28 17 12 18 25 19 24 20 13 21 22 22 14 23
REMARK SMILES IDX 16 24 21 25 23 26 15 27 17 28 20 29 18 30 19 31
REMARK H PARENT
REMARK Flexibility Score: inf
ROOT
ATOM      1  C   UNL     1      39.976 -40.942  -5.171  1.00  0.00     0.004 C 
ENDROOT
BRANCH   1   2
ATOM      2  C   UNL     1      39.009 -39.724  -5.210  1.00  0.00    -0.009 C 
BRANCH   2   3
ATOM      3  C   UNL     1      38.047 -39.837  -6.434  1.00  0.00     0.000 C 
ATOM      4  C   UNL     1      38.502 -38.991  -7.625  1.00  0.00     0.004 C 
ENDBRANCH   2   3
BRANCH   2   5
ATOM      5  C   UNL     1      38.243 -39.500  -3.860  1.00  0.00    -0.014 C 
ATOM      6  C   UNL     1      38.460 -38.083  -3.300  1.00  0.00     0.007 C 
ATOM      7  C   UNL     1      36.731 -39.741  -4.013  1.00  0.00     0.007 C 
ENDBRANCH   2   5
ENDBRANCH   1   2
BRANCH   1   8
ATOM      8  C   UNL     1      41.426 -40.612  -5.598  1.00  0.00     0.004 C 
BRANCH   8   9
ATOM      9  C   UNL     1      42.478 -41.088  -4.553  1.00  0.00    -0.011 C 
ATOM     10  C   UNL     1      43.685 -41.693  -5.301  1.00  0.00     0.008 C 
BRANCH   9  11
ATOM     11  C   UNL     1      42.908 -39.908  -3.604  1.00  0.00    -0.002 C 
ATOM     12  C   UNL     1      42.385 -38.543  -4.096  1.00  0.00     0.005 C 
ATOM     13  C   UNL     1      42.478 -39.972  -2.098  1.00  0.00    -0.026 C 
ATOM     14  C   UNL     1      42.106 -37.684  -2.870  1.00  0.00     0.005 C 
ATOM     15  C   UNL     1      42.589 -38.491  -1.663  1.00  0.00    -0.001 C 
ATOM     16  C   UNL     1      41.007 -40.460  -1.943  1.00  0.00     0.007 C 
ATOM     17  C   UNL     1      43.450 -40.839  -1.254  1.00  0.00     0.012 C 
ATOM     18  C   UNL     1      41.895 -38.141  -0.307  1.00  0.00     0.004 C 
ATOM     19  C   UNL     1      40.433 -40.199  -0.549  1.00  0.00     0.005 C 
ATOM     20  C   UNL     1      40.441 -38.691  -0.197  1.00  0.00     0.003 C 
ATOM     21  C   UNL     1      41.942 -36.625  -0.049  1.00  0.00     0.085 C 
ATOM     22  C   UNL     1      39.765 -38.382   1.205  1.00  0.00    -0.000 C 
ATOM     23  C   UNL     1      41.271 -36.266   1.233  1.00  0.00     0.159 C 
ATOM     24  C   UNL     1      39.997 -36.918   1.598  1.00  0.00     0.005 C 
ATOM     25  C   UNL     1      38.228 -38.647   1.098  1.00  0.00     0.020 C 
ATOM     26  C   UNL     1      40.359 -39.266   2.335  1.00  0.00     0.017 C 
ATOM     27  O   UNL     1      41.755 -35.348   1.950  1.00  0.00    -0.295 OA
ATOM     28  C   UNL     1      39.113 -36.244   2.359  1.00  0.00     0.055 C 
ATOM     29  C   UNL     1      37.450 -38.215   2.347  1.00  0.00     0.081 C 
ATOM     30  C   UNL     1      37.826 -36.827   2.760  1.00  0.00     0.156 C 
ATOM     31  O   UNL     1      37.045 -36.164   3.491  1.00  0.00    -0.295 OA
ENDBRANCH   9  11
ENDBRANCH   8   9
ENDBRANCH   1   8
TORSDOF 6
ENDMDL
MODEL 8
REMARK VINA RESULT:    -5.802      1.636      2.819
REMARK INTER + INTRA:          -9.168
REMARK INTER:                  -7.508
REMARK INTRA:                  -1.660
REMARK UNBOUND:                -1.331
REMARK SMILES CC[C@H](CC[C@@H](C)[C@H]1CC[C@H]2[C@H]3CC(=O)C4=CC(=O)CC[C@@]4(C)[C@@H]3CC[C@@]12C)C(C)C
REMARK SMILES IDX 4 1 3 2 2 3 1 4 29 5 30 6 31 7 5 8 6 9 7 10 8 11 9 12 27 13
REMARK SMILES IDX 10 14 11 15 26 16 28 17 12 18 25 19 24 20 13 21 22 22 14 23
REMARK SMILES IDX 16 24 21 25 23 26 15 27 17 28 20 29 18 30 19 31
REMARK H PARENT
REMARK Flexibility Score: inf
ROOT
ATOM      1  C   UNL     1      42.290 -39.802  -3.636  1.00  0.00     0.004 C 
ENDROOT
BRANCH   1   2
ATOM      2  C   UNL     1      41.356 -40.358  -4.749  1.00  0.00    -0.009 C 
BRANCH   2   3
ATOM      3  C   UNL     1      42.129 -41.372  -5.647  1.00  0.00     0.000 C 
ATOM      4  C   UNL     1      43.578 -41.573  -5.201  1.00  0.00     0.004 C 
ENDBRANCH   2   3
BRANCH   2   5
ATOM      5  C   UNL     1      40.013 -40.947  -4.191  1.00  0.00    -0.014 C 
ATOM      6  C   UNL     1      39.964 -40.919  -2.652  1.00  0.00     0.007 C 
ATOM      7  C   UNL     1      38.787 -40.194  -4.735  1.00  0.00     0.007 C 
ENDBRANCH   2   5
ENDBRANCH   1   2
BRANCH   1   8
ATOM      8  C   UNL     1      42.366 -38.257  -3.588  1.00  0.00     0.004 C 
BRANCH   8   9
ATOM      9  C   UNL     1      41.112 -37.619  -2.919  1.00  0.00    -0.011 C 
ATOM     10  C   UNL     1      41.281 -37.674  -1.387  1.00  0.00     0.008 C 
BRANCH   9  11
ATOM     11  C   UNL     1      40.883 -36.148  -3.431  1.00  0.00    -0.002 C 
ATOM     12  C   UNL     1      42.183 -35.504  -3.955  1.00  0.00     0.005 C 
ATOM     13  C   UNL     1      39.841 -35.915  -4.579  1.00  0.00    -0.026 C 
ATOM     14  C   UNL     1      41.808 -34.557  -5.087  1.00  0.00     0.005 C 
ATOM     15  C   UNL     1      40.279 -34.542  -5.143  1.00  0.00    -0.001 C 
ATOM     16  C   UNL     1      39.956 -37.003  -5.687  1.00  0.00     0.007 C 
ATOM     17  C   UNL     1      38.391 -35.817  -4.033  1.00  0.00     0.012 C 
ATOM     18  C   UNL     1      39.668 -34.167  -6.533  1.00  0.00     0.004 C 
ATOM     19  C   UNL     1      39.226 -36.624  -6.976  1.00  0.00     0.005 C 
ATOM     20  C   UNL     1      39.777 -35.311  -7.585  1.00  0.00     0.003 C 
ATOM     21  C   UNL     1      40.283 -32.859  -7.060  1.00  0.00     0.085 C 
ATOM     22  C   UNL     1      39.102 -34.944  -8.973  1.00  0.00    -0.000 C 
ATOM     23  C   UNL     1      39.725 -32.490  -8.393  1.00  0.00     0.159 C 
ATOM     24  C   UNL     1      39.522 -33.537  -9.415  1.00  0.00     0.005 C 
ATOM     25  C   UNL     1      39.562 -35.979 -10.051  1.00  0.00     0.020 C 
ATOM     26  C   UNL     1      37.552 -34.958  -8.879  1.00  0.00     0.017 C 
ATOM     27  O   UNL     1      39.513 -31.276  -8.661  1.00  0.00    -0.295 OA
ATOM     28  C   UNL     1      39.608 -33.203 -10.717  1.00  0.00     0.055 C 
ATOM     29  C   UNL     1      39.105 -35.618 -11.470  1.00  0.00     0.081 C 
ATOM     30  C   UNL     1      39.419 -34.190 -11.789  1.00  0.00     0.156 C 
ATOM     31  O   UNL     1      39.487 -33.823 -12.991  1.00  0.00    -0.295 OA
ENDBRANCH   9  11
ENDBRANCH   8   9
ENDBRANCH   1   8
TORSDOF 6
ENDMDL
MODEL 9
REMARK VINA RESULT:    -5.762      2.743      4.307
REMARK INTER + INTRA:          -9.114
REMARK INTER:                  -7.013
REMARK INTRA:                  -2.102
REMARK UNBOUND:                -1.331
REMARK SMILES CC[C@H](CC[C@@H](C)[C@H]1CC[C@H]2[C@H]3CC(=O)C4=CC(=O)CC[C@@]4(C)[C@@H]3CC[C@@]12C)C(C)C
REMARK SMILES IDX 4 1 3 2 2 3 1 4 29 5 30 6 31 7 5 8 6 9 7 10 8 11 9 12 27 13
REMARK SMILES IDX 10 14 11 15 26 16 28 17 12 18 25 19 24 20 13 21 22 22 14 23
REMARK SMILES IDX 16 24 21 25 23 26 15 27 17 28 20 29 18 30 19 31
REMARK H PARENT
REMARK Flexibility Score: inf
ROOT
ATOM      1  C   UNL     1      40.157 -40.445  -2.165  1.00  0.00     0.004 C 
ENDROOT
BRANCH   1   2
ATOM      2  C   UNL     1      40.714 -39.023  -2.465  1.00  0.00    -0.009 C 
BRANCH   2   3
ATOM      3  C   UNL     1      39.926 -37.951  -1.649  1.00  0.00     0.000 C 
ATOM      4  C   UNL     1      39.522 -36.743  -2.496  1.00  0.00     0.004 C 
ENDBRANCH   2   3
BRANCH   2   5
ATOM      5  C   UNL     1      42.266 -38.913  -2.265  1.00  0.00    -0.014 C 
ATOM      6  C   UNL     1      42.914 -40.285  -2.003  1.00  0.00     0.007 C 
ATOM      7  C   UNL     1      42.955 -38.269  -3.480  1.00  0.00     0.007 C 
ENDBRANCH   2   5
ENDBRANCH   1   2
BRANCH   1   8
ATOM      8  C   UNL     1      39.568 -41.166  -3.400  1.00  0.00     0.004 C 
BRANCH   8   9
ATOM      9  C   UNL     1      39.784 -40.365  -4.719  1.00  0.00    -0.011 C 
ATOM     10  C   UNL     1      40.624 -41.221  -5.689  1.00  0.00     0.008 C 
BRANCH   9  11
ATOM     11  C   UNL     1      38.409 -39.937  -5.354  1.00  0.00    -0.002 C 
ATOM     12  C   UNL     1      37.410 -39.431  -4.294  1.00  0.00     0.005 C 
ATOM     13  C   UNL     1      38.415 -38.818  -6.452  1.00  0.00    -0.026 C 
ATOM     14  C   UNL     1      36.548 -38.356  -4.945  1.00  0.00     0.005 C 
ATOM     15  C   UNL     1      36.949 -38.323  -6.421  1.00  0.00    -0.001 C 
ATOM     16  C   UNL     1      39.376 -37.652  -6.077  1.00  0.00     0.007 C 
ATOM     17  C   UNL     1      38.744 -39.389  -7.858  1.00  0.00     0.012 C 
ATOM     18  C   UNL     1      36.690 -36.964  -7.151  1.00  0.00     0.004 C 
ATOM     19  C   UNL     1      39.150 -36.395  -6.918  1.00  0.00     0.005 C 
ATOM     20  C   UNL     1      37.709 -35.851  -6.764  1.00  0.00     0.003 C 
ATOM     21  C   UNL     1      35.240 -36.500  -6.931  1.00  0.00     0.085 C 
ATOM     22  C   UNL     1      37.474 -34.494  -7.552  1.00  0.00    -0.000 C 
ATOM     23  C   UNL     1      34.974 -35.197  -7.606  1.00  0.00     0.159 C 
ATOM     24  C   UNL     1      35.986 -34.123  -7.545  1.00  0.00     0.005 C 
ATOM     25  C   UNL     1      38.291 -33.355  -6.859  1.00  0.00     0.020 C 
ATOM     26  C   UNL     1      37.916 -34.609  -9.036  1.00  0.00     0.017 C 
ATOM     27  O   UNL     1      33.853 -34.997  -8.148  1.00  0.00    -0.295 OA
ATOM     28  C   UNL     1      35.580 -32.839  -7.590  1.00  0.00     0.055 C 
ATOM     29  C   UNL     1      38.001 -31.964  -7.436  1.00  0.00     0.081 C 
ATOM     30  C   UNL     1      36.528 -31.719  -7.533  1.00  0.00     0.156 C 
ATOM     31  O   UNL     1      36.099 -30.538  -7.601  1.00  0.00    -0.295 OA
ENDBRANCH   9  11
ENDBRANCH   8   9
ENDBRANCH   1   8
TORSDOF 6
ENDMDL
