MODEL 1
REMARK VINA RESULT:    94.936      0.000      0.000
REMARK INTER + INTRA:         113.399
REMARK INTER:                 111.586
REMARK INTRA:                   1.813
REMARK UNBOUND:                 1.813
REMARK SMILES C=C(C)[C@@H]1CC[C@]2(CO)CC[C@@]3(C)[C@H](CC[C@@H]4[C@]5(C)CC[C@H](O)C(C)(C)[C@@H]5CC[C@]43C)[C@@H]12
REMARK SMILES IDX 4 1 5 2 6 3 7 4 32 5 14 6 15 7 16 8 17 9 18 10 20 11 21 12
REMARK SMILES IDX 22 13 24 14 27 15 28 16 29 17 30 18 12 19 11 20 10 21 13 22
REMARK SMILES IDX 31 23 25 24 26 25 19 26 2 27 3 28 1 29 8 30 9 31 23 33
REMARK H PARENT 9 32 23 34
REMARK Flexibility Score: inf
ROOT
ATOM      1  C   UNL     1      17.915  52.660  61.086  1.00  0.00     0.018 C 
ATOM      2  C   UNL     1      17.324  53.348  62.338  1.00  0.00     0.009 C 
ATOM      3  C   UNL     1      16.095  52.521  62.738  1.00  0.00     0.010 C 
ATOM      4  C   UNL     1      15.601  51.908  61.410  1.00  0.00    -0.003 C 
ATOM      5  C   UNL     1      16.945  51.486  60.805  1.00  0.00     0.008 C 
ATOM      6  C   UNL     1      16.888  50.835  59.372  1.00  0.00    -0.000 C 
ATOM      7  C   UNL     1      18.282  50.149  59.171  1.00  0.00     0.005 C 
ATOM      8  C   UNL     1      18.367  48.969  58.225  1.00  0.00     0.005 C 
ATOM      9  C   UNL     1      17.238  47.960  58.497  1.00  0.00     0.002 C 
ATOM     10  C   UNL     1      17.554  46.464  57.952  1.00  0.00    -0.026 C 
ATOM     11  C   UNL     1      18.407  46.450  56.645  1.00  0.00     0.010 C 
ATOM     12  C   UNL     1      18.862  45.046  56.190  1.00  0.00     0.033 C 
ATOM     13  C   UNL     1      17.882  43.891  56.536  1.00  0.00     0.120 C 
ATOM     14  C   UNL     1      16.399  44.351  56.658  1.00  0.00    -0.006 C 
ATOM     15  C   UNL     1      16.251  45.571  57.699  1.00  0.00     0.003 C 
ATOM     16  C   UNL     1      14.977  46.391  57.388  1.00  0.00     0.005 C 
ATOM     17  C   UNL     1      14.780  47.548  58.345  1.00  0.00     0.008 C 
ATOM     18  C   UNL     1      15.869  48.643  58.172  1.00  0.00    -0.024 C 
ATOM     19  C   UNL     1      15.580  49.897  59.173  1.00  0.00    -0.024 C 
ATOM     20  C   UNL     1      15.076  49.451  60.608  1.00  0.00     0.008 C 
ATOM     21  C   UNL     1      14.748  50.612  61.612  1.00  0.00     0.010 C 
ATOM     22  C   UNL     1      14.386  50.721  58.548  1.00  0.00     0.012 C 
ATOM     23  C   UNL     1      15.873  49.153  56.682  1.00  0.00     0.012 C 
ATOM     24  C   UNL     1      15.861  44.676  55.228  1.00  0.00     0.014 C 
ATOM     25  C   UNL     1      15.565  43.150  57.180  1.00  0.00     0.014 C 
ATOM     26  C   UNL     1      18.422  45.827  59.098  1.00  0.00     0.012 C 
ENDROOT
BRANCH   1  27
ATOM     27  C   UNL     1      19.364  52.233  61.321  1.00  0.00    -0.077 C 
ATOM     28  C   UNL     1      20.122  52.664  62.554  1.00  0.00     0.039 C 
ATOM     29  C   UNL     1      20.003  51.487  60.406  1.00  0.00     0.008 C 
ENDBRANCH   1  27
BRANCH   4  30
ATOM     30  C   UNL     1      14.812  53.047  60.641  1.00  0.00     0.163 C 
BRANCH  30  31
ATOM     31  O   UNL     1      15.433  53.425  59.439  1.00  0.00    -0.396 OA
ATOM     32  H   UNL     1      16.016  52.681  59.141  1.00  0.00     0.210 HD
ENDBRANCH  30  31
ENDBRANCH   4  30
BRANCH  13  33
ATOM     33  O   UNL     1      18.022  42.798  55.655  1.00  0.00    -0.393 OA
ATOM     34  H   UNL     1      17.615  43.027  54.775  1.00  0.00     0.210 HD
ENDBRANCH  13  33
TORSDOF 4
ENDMDL
MODEL 2
REMARK VINA RESULT:    97.576      1.625      3.417
REMARK INTER + INTRA:         116.503
REMARK INTER:                 114.494
REMARK INTRA:                   2.009
REMARK UNBOUND:                 1.813
REMARK SMILES C=C(C)[C@@H]1CC[C@]2(CO)CC[C@@]3(C)[C@H](CC[C@@H]4[C@]5(C)CC[C@H](O)C(C)(C)[C@@H]5CC[C@]43C)[C@@H]12
REMARK SMILES IDX 4 1 5 2 6 3 7 4 32 5 14 6 15 7 16 8 17 9 18 10 20 11 21 12
REMARK SMILES IDX 22 13 24 14 27 15 28 16 29 17 30 18 12 19 11 20 10 21 13 22
REMARK SMILES IDX 31 23 25 24 26 25 19 26 2 27 3 28 1 29 8 30 9 31 23 33
REMARK H PARENT 9 32 23 34
REMARK Flexibility Score: inf
ROOT
ATOM      1  C   UNL     1      14.570  53.271  59.371  1.00  0.00     0.018 C 
ATOM      2  C   UNL     1      15.165  54.481  60.128  1.00  0.00     0.009 C 
ATOM      3  C   UNL     1      16.507  54.007  60.701  1.00  0.00     0.010 C 
ATOM      4  C   UNL     1      16.316  52.489  60.908  1.00  0.00    -0.003 C 
ATOM      5  C   UNL     1      15.600  52.138  59.599  1.00  0.00     0.008 C 
ATOM      6  C   UNL     1      15.169  50.633  59.425  1.00  0.00    -0.000 C 
ATOM      7  C   UNL     1      14.847  50.466  57.901  1.00  0.00     0.005 C 
ATOM      8  C   UNL     1      14.989  49.088  57.288  1.00  0.00     0.005 C 
ATOM      9  C   UNL     1      16.324  48.439  57.691  1.00  0.00     0.002 C 
ATOM     10  C   UNL     1      16.809  47.262  56.684  1.00  0.00    -0.026 C 
ATOM     11  C   UNL     1      15.627  46.455  56.064  1.00  0.00     0.010 C 
ATOM     12  C   UNL     1      16.043  45.437  54.979  1.00  0.00     0.033 C 
ATOM     13  C   UNL     1      17.449  44.805  55.173  1.00  0.00     0.120 C 
ATOM     14  C   UNL     1      17.909  44.760  56.660  1.00  0.00    -0.006 C 
ATOM     15  C   UNL     1      17.829  46.218  57.339  1.00  0.00     0.003 C 
ATOM     16  C   UNL     1      17.695  46.089  58.876  1.00  0.00     0.005 C 
ATOM     17  C   UNL     1      17.626  47.433  59.570  1.00  0.00     0.008 C 
ATOM     18  C   UNL     1      16.315  48.197  59.236  1.00  0.00    -0.024 C 
ATOM     19  C   UNL     1      16.252  49.605  60.057  1.00  0.00    -0.024 C 
ATOM     20  C   UNL     1      17.649  50.350  60.130  1.00  0.00     0.008 C 
ATOM     21  C   UNL     1      17.666  51.700  60.933  1.00  0.00     0.010 C 
ATOM     22  C   UNL     1      15.889  49.252  61.553  1.00  0.00     0.012 C 
ATOM     23  C   UNL     1      15.074  47.310  59.625  1.00  0.00     0.012 C 
ATOM     24  C   UNL     1      17.073  43.672  57.407  1.00  0.00     0.014 C 
ATOM     25  C   UNL     1      19.385  44.280  56.693  1.00  0.00     0.014 C 
ATOM     26  C   UNL     1      17.521  48.042  55.518  1.00  0.00     0.012 C 
ENDROOT
BRANCH   1  27
ATOM     27  C   UNL     1      14.323  53.606  57.900  1.00  0.00    -0.077 C 
ATOM     28  C   UNL     1      14.381  55.029  57.395  1.00  0.00     0.039 C 
ATOM     29  C   UNL     1      14.013  52.632  57.030  1.00  0.00     0.008 C 
ENDBRANCH   1  27
BRANCH   4  30
ATOM     30  C   UNL     1      15.475  52.307  62.239  1.00  0.00     0.163 C 
BRANCH  30  31
ATOM     31  O   UNL     1      14.268  51.619  62.032  1.00  0.00    -0.396 OA
ATOM     32  H   UNL     1      13.965  51.252  62.903  1.00  0.00     0.210 HD
ENDBRANCH  30  31
ENDBRANCH   4  30
BRANCH  13  33
ATOM     33  O   UNL     1      17.549  43.541  54.554  1.00  0.00    -0.393 OA
ATOM     34  H   UNL     1      16.668  43.080  54.597  1.00  0.00     0.210 HD
ENDBRANCH  13  33
TORSDOF 4
ENDMDL
