MODEL 1
REMARK VINA RESULT:    -5.619      0.000      0.000
REMARK INTER + INTRA:         -11.798
REMARK INTER:                  -9.889
REMARK INTRA:                  -1.909
REMARK UNBOUND:                -1.909
REMARK SMILES CCCCCCCCCCCCCCC(=O)[O-]
REMARK SMILES IDX 9 1 10 2 11 3 12 4 13 5 14 6 15 7 16 8 17 9 8 10 7 11 6 12
REMARK SMILES IDX 5 13 4 14 3 15 2 16 1 17
REMARK H PARENT
REMARK Flexibility Score: inf
ROOT
ATOM      1  C   UNL     1      19.900  14.798  -0.365  1.00  0.00     0.000 C 
ENDROOT
BRANCH   1   2
ATOM      2  C   UNL     1      20.247  15.500   0.959  1.00  0.00     0.000 C 
BRANCH   2   3
ATOM      3  C   UNL     1      21.607  16.225   0.977  1.00  0.00     0.000 C 
BRANCH   3   4
ATOM      4  C   UNL     1      22.319  16.177   2.346  1.00  0.00     0.000 C 
BRANCH   4   5
ATOM      5  C   UNL     1      21.872  14.972   3.192  1.00  0.00     0.006 C 
BRANCH   5   6
ATOM      6  C   UNL     1      23.056  14.256   3.853  1.00  0.00     0.053 C 
BRANCH   6   7
ATOM      7  C   UNL     1      22.802  12.787   4.006  1.00  0.00     0.041 C 
ATOM      8  O   UNL     1      23.509  12.100   4.786  1.00  0.00    -0.550 OA
ATOM      9  O   UNL     1      21.761  12.187   3.310  1.00  0.00    -0.550 OA
ENDBRANCH   6   7
ENDBRANCH   5   6
ENDBRANCH   4   5
ENDBRANCH   3   4
ENDBRANCH   2   3
ENDBRANCH   1   2
BRANCH   1  10
ATOM     10  C   UNL     1      19.142  13.475  -0.159  1.00  0.00     0.000 C 
BRANCH  10  11
ATOM     11  C   UNL     1      19.518  12.400  -1.195  1.00  0.00    -0.000 C 
BRANCH  11  12
ATOM     12  C   UNL     1      19.836  12.928  -2.608  1.00  0.00    -0.000 C 
BRANCH  12  13
ATOM     13  C   UNL     1      21.225  12.499  -3.109  1.00  0.00    -0.000 C 
BRANCH  13  14
ATOM     14  C   UNL     1      22.141  11.995  -1.979  1.00  0.00    -0.000 C 
BRANCH  14  15
ATOM     15  C   UNL     1      23.141  13.031  -1.434  1.00  0.00    -0.000 C 
BRANCH  15  16
ATOM     16  C   UNL     1      23.182  13.077   0.101  1.00  0.00    -0.003 C 
ATOM     17  C   UNL     1      24.619  13.118   0.613  1.00  0.00     0.004 C 
ENDBRANCH  15  16
ENDBRANCH  14  15
ENDBRANCH  13  14
ENDBRANCH  12  13
ENDBRANCH  11  12
ENDBRANCH  10  11
ENDBRANCH   1  10
TORSDOF 13
ENDMDL
MODEL 2
REMARK VINA RESULT:    -5.601      1.220      3.393
REMARK INTER + INTRA:         -11.766
REMARK INTER:                  -9.442
REMARK INTRA:                  -2.324
REMARK UNBOUND:                -1.909
REMARK SMILES CCCCCCCCCCCCCCC(=O)[O-]
REMARK SMILES IDX 9 1 10 2 11 3 12 4 13 5 14 6 15 7 16 8 17 9 8 10 7 11 6 12
REMARK SMILES IDX 5 13 4 14 3 15 2 16 1 17
REMARK H PARENT
REMARK Flexibility Score: inf
ROOT
ATOM      1  C   UNL     1      22.927  12.389  -2.468  1.00  0.00     0.000 C 
ENDROOT
BRANCH   1   2
ATOM      2  C   UNL     1      23.176  13.361  -1.302  1.00  0.00     0.000 C 
BRANCH   2   3
ATOM      3  C   UNL     1      23.602  12.698   0.022  1.00  0.00     0.000 C 
BRANCH   3   4
ATOM      4  C   UNL     1      22.563  11.704   0.583  1.00  0.00     0.000 C 
BRANCH   4   5
ATOM      5  C   UNL     1      22.140  12.054   2.020  1.00  0.00     0.006 C 
BRANCH   5   6
ATOM      6  C   UNL     1      23.135  13.000   2.705  1.00  0.00     0.053 C 
BRANCH   6   7
ATOM      7  C   UNL     1      22.602  13.521   4.004  1.00  0.00     0.041 C 
ATOM      8  O   UNL     1      22.153  12.725   4.869  1.00  0.00    -0.550 OA
ATOM      9  O   UNL     1      22.632  14.884   4.271  1.00  0.00    -0.550 OA
ENDBRANCH   6   7
ENDBRANCH   5   6
ENDBRANCH   4   5
ENDBRANCH   3   4
ENDBRANCH   2   3
ENDBRANCH   1   2
BRANCH   1  10
ATOM     10  C   UNL     1      21.771  12.834  -3.380  1.00  0.00     0.000 C 
BRANCH  10  11
ATOM     11  C   UNL     1      20.423  12.199  -2.993  1.00  0.00    -0.000 C 
BRANCH  11  12
ATOM     12  C   UNL     1      19.485  13.095  -2.162  1.00  0.00    -0.000 C 
BRANCH  12  13
ATOM     13  C   UNL     1      19.278  12.580  -0.728  1.00  0.00    -0.000 C 
BRANCH  13  14
ATOM     14  C   UNL     1      19.121  13.716   0.300  1.00  0.00    -0.000 C 
BRANCH  14  15
ATOM     15  C   UNL     1      19.957  14.977   0.017  1.00  0.00    -0.000 C 
BRANCH  15  16
ATOM     16  C   UNL     1      20.760  15.452   1.237  1.00  0.00    -0.003 C 
ATOM     17  C   UNL     1      22.088  16.072   0.815  1.00  0.00     0.004 C 
ENDBRANCH  15  16
ENDBRANCH  14  15
ENDBRANCH  13  14
ENDBRANCH  12  13
ENDBRANCH  11  12
ENDBRANCH  10  11
ENDBRANCH   1  10
TORSDOF 13
ENDMDL
MODEL 3
REMARK VINA RESULT:    -5.539      2.223      3.611
REMARK INTER + INTRA:         -11.657
REMARK INTER:                  -9.831
REMARK INTRA:                  -1.825
REMARK UNBOUND:                -1.909
REMARK SMILES CCCCCCCCCCCCCCC(=O)[O-]
REMARK SMILES IDX 9 1 10 2 11 3 12 4 13 5 14 6 15 7 16 8 17 9 8 10 7 11 6 12
REMARK SMILES IDX 5 13 4 14 3 15 2 16 1 17
REMARK H PARENT
REMARK Flexibility Score: inf
ROOT
ATOM      1  C   UNL     1      21.513  11.310   0.442  1.00  0.00     0.000 C 
ENDROOT
BRANCH   1   2
ATOM      2  C   UNL     1      23.042  11.457   0.365  1.00  0.00     0.000 C 
BRANCH   2   3
ATOM      3  C   UNL     1      23.545  12.851  -0.061  1.00  0.00     0.000 C 
BRANCH   3   4
ATOM      4  C   UNL     1      24.430  13.543   0.997  1.00  0.00     0.000 C 
BRANCH   4   5
ATOM      5  C   UNL     1      23.672  14.643   1.760  1.00  0.00     0.006 C 
BRANCH   5   6
ATOM      6  C   UNL     1      22.943  15.608   0.816  1.00  0.00     0.053 C 
BRANCH   6   7
ATOM      7  C   UNL     1      21.733  16.209   1.463  1.00  0.00     0.041 C 
ATOM      8  O   UNL     1      21.814  16.716   2.611  1.00  0.00    -0.550 OA
ATOM      9  O   UNL     1      20.523  16.237   0.781  1.00  0.00    -0.550 OA
ENDBRANCH   6   7
ENDBRANCH   5   6
ENDBRANCH   4   5
ENDBRANCH   3   4
ENDBRANCH   2   3
ENDBRANCH   1   2
BRANCH   1  10
ATOM     10  C   UNL     1      20.794  12.654   0.650  1.00  0.00     0.000 C 
BRANCH  10  11
ATOM     11  C   UNL     1      19.293  12.590   0.313  1.00  0.00    -0.000 C 
BRANCH  11  12
ATOM     12  C   UNL     1      18.885  13.250  -1.018  1.00  0.00    -0.000 C 
BRANCH  12  13
ATOM     13  C   UNL     1      20.091  13.614  -1.901  1.00  0.00    -0.000 C 
BRANCH  13  14
ATOM     14  C   UNL     1      20.313  12.618  -3.054  1.00  0.00    -0.000 C 
BRANCH  14  15
ATOM     15  C   UNL     1      21.738  12.046  -3.164  1.00  0.00    -0.000 C 
BRANCH  15  16
ATOM     16  C   UNL     1      22.578  12.731  -4.252  1.00  0.00    -0.003 C 
ATOM     17  C   UNL     1      23.694  13.571  -3.639  1.00  0.00     0.004 C 
ENDBRANCH  15  16
ENDBRANCH  14  15
ENDBRANCH  13  14
ENDBRANCH  12  13
ENDBRANCH  11  12
ENDBRANCH  10  11
ENDBRANCH   1  10
TORSDOF 13
ENDMDL
MODEL 4
REMARK VINA RESULT:    -5.530      3.347      6.032
REMARK INTER + INTRA:         -11.642
REMARK INTER:                  -9.665
REMARK INTRA:                  -1.977
REMARK UNBOUND:                -1.909
REMARK SMILES CCCCCCCCCCCCCCC(=O)[O-]
REMARK SMILES IDX 9 1 10 2 11 3 12 4 13 5 14 6 15 7 16 8 17 9 8 10 7 11 6 12
REMARK SMILES IDX 5 13 4 14 3 15 2 16 1 17
REMARK H PARENT
REMARK Flexibility Score: inf
ROOT
ATOM      1  C   UNL     1      20.335  13.048   0.690  1.00  0.00     0.000 C 
ENDROOT
BRANCH   1   2
ATOM      2  C   UNL     1      19.544  12.499  -0.509  1.00  0.00     0.000 C 
BRANCH   2   3
ATOM      3  C   UNL     1      19.722  13.284  -1.824  1.00  0.00     0.000 C 
BRANCH   3   4
ATOM      4  C   UNL     1      20.200  12.416  -3.007  1.00  0.00     0.000 C 
BRANCH   4   5
ATOM      5  C   UNL     1      21.662  11.967  -2.845  1.00  0.00     0.006 C 
BRANCH   5   6
ATOM      6  C   UNL     1      22.648  12.960  -3.474  1.00  0.00     0.053 C 
BRANCH   6   7
ATOM      7  C   UNL     1      23.141  12.485  -4.807  1.00  0.00     0.041 C 
ATOM      8  O   UNL     1      22.799  13.084  -5.859  1.00  0.00    -0.550 OA
ATOM      9  O   UNL     1      24.004  11.399  -4.881  1.00  0.00    -0.550 OA
ENDBRANCH   6   7
ENDBRANCH   5   6
ENDBRANCH   4   5
ENDBRANCH   3   4
ENDBRANCH   2   3
ENDBRANCH   1   2
BRANCH   1  10
ATOM     10  C   UNL     1      21.545  12.173   1.059  1.00  0.00     0.000 C 
BRANCH  10  11
ATOM     11  C   UNL     1      22.873  12.721   0.505  1.00  0.00    -0.000 C 
BRANCH  11  12
ATOM     12  C   UNL     1      22.858  14.210   0.107  1.00  0.00    -0.000 C 
BRANCH  12  13
ATOM     13  C   UNL     1      23.397  15.132   1.213  1.00  0.00    -0.000 C 
BRANCH  13  14
ATOM     14  C   UNL     1      22.283  15.897   1.952  1.00  0.00    -0.000 C 
BRANCH  14  15
ATOM     15  C   UNL     1      22.043  15.462   3.408  1.00  0.00    -0.000 C 
BRANCH  15  16
ATOM     16  C   UNL     1      23.120  14.502   3.935  1.00  0.00    -0.003 C 
ATOM     17  C   UNL     1      22.502  13.198   4.429  1.00  0.00     0.004 C 
ENDBRANCH  15  16
ENDBRANCH  14  15
ENDBRANCH  13  14
ENDBRANCH  12  13
ENDBRANCH  11  12
ENDBRANCH  10  11
ENDBRANCH   1  10
TORSDOF 13
ENDMDL
MODEL 5
REMARK VINA RESULT:    -5.524      2.294      5.545
REMARK INTER + INTRA:         -11.631
REMARK INTER:                  -9.309
REMARK INTRA:                  -2.323
REMARK UNBOUND:                -1.909
REMARK SMILES CCCCCCCCCCCCCCC(=O)[O-]
REMARK SMILES IDX 9 1 10 2 11 3 12 4 13 5 14 6 15 7 16 8 17 9 8 10 7 11 6 12
REMARK SMILES IDX 5 13 4 14 3 15 2 16 1 17
REMARK H PARENT
REMARK Flexibility Score: inf
ROOT
ATOM      1  C   UNL     1      21.855  12.545   2.882  1.00  0.00     0.000 C 
ENDROOT
BRANCH   1   2
ATOM      2  C   UNL     1      22.057  12.199   1.396  1.00  0.00     0.000 C 
BRANCH   2   3
ATOM      3  C   UNL     1      23.518  11.944   0.977  1.00  0.00     0.000 C 
BRANCH   3   4
ATOM      4  C   UNL     1      24.056  12.960  -0.053  1.00  0.00     0.000 C 
BRANCH   4   5
ATOM      5  C   UNL     1      22.935  13.559  -0.920  1.00  0.00     0.006 C 
BRANCH   5   6
ATOM      6  C   UNL     1      22.877  12.924  -2.315  1.00  0.00     0.053 C 
BRANCH   6   7
ATOM      7  C   UNL     1      21.742  11.954  -2.438  1.00  0.00     0.041 C 
ATOM      8  O   UNL     1      20.723  12.254  -3.111  1.00  0.00    -0.550 OA
ATOM      9  O   UNL     1      21.826  10.706  -1.834  1.00  0.00    -0.550 OA
ENDBRANCH   6   7
ENDBRANCH   5   6
ENDBRANCH   4   5
ENDBRANCH   3   4
ENDBRANCH   2   3
ENDBRANCH   1   2
BRANCH   1  10
ATOM     10  C   UNL     1      23.117  13.137   3.533  1.00  0.00     0.000 C 
BRANCH  10  11
ATOM     11  C   UNL     1      22.987  14.642   3.833  1.00  0.00    -0.000 C 
BRANCH  11  12
ATOM     12  C   UNL     1      21.858  15.371   3.078  1.00  0.00    -0.000 C 
BRANCH  12  13
ATOM     13  C   UNL     1      22.347  16.066   1.796  1.00  0.00    -0.000 C 
BRANCH  13  14
ATOM     14  C   UNL     1      21.245  16.196   0.727  1.00  0.00    -0.000 C 
BRANCH  14  15
ATOM     15  C   UNL     1      20.028  15.274   0.924  1.00  0.00    -0.000 C 
BRANCH  15  16
ATOM     16  C   UNL     1      19.636  14.516  -0.353  1.00  0.00    -0.003 C 
ATOM     17  C   UNL     1      18.950  13.194  -0.020  1.00  0.00     0.004 C 
ENDBRANCH  15  16
ENDBRANCH  14  15
ENDBRANCH  13  14
ENDBRANCH  12  13
ENDBRANCH  11  12
ENDBRANCH  10  11
ENDBRANCH   1  10
TORSDOF 13
ENDMDL
MODEL 6
REMARK VINA RESULT:    -5.523      1.039      2.200
REMARK INTER + INTRA:         -11.630
REMARK INTER:                  -9.490
REMARK INTRA:                  -2.139
REMARK UNBOUND:                -1.909
REMARK SMILES CCCCCCCCCCCCCCC(=O)[O-]
REMARK SMILES IDX 9 1 10 2 11 3 12 4 13 5 14 6 15 7 16 8 17 9 8 10 7 11 6 12
REMARK SMILES IDX 5 13 4 14 3 15 2 16 1 17
REMARK H PARENT
REMARK Flexibility Score: inf
ROOT
ATOM      1  C   UNL     1      19.386  14.642  -0.216  1.00  0.00     0.000 C 
ENDROOT
BRANCH   1   2
ATOM      2  C   UNL     1      20.266  15.014   0.988  1.00  0.00     0.000 C 
BRANCH   2   3
ATOM      3  C   UNL     1      21.462  15.932   0.665  1.00  0.00     0.000 C 
BRANCH   3   4
ATOM      4  C   UNL     1      22.619  15.827   1.682  1.00  0.00     0.000 C 
BRANCH   4   5
ATOM      5  C   UNL     1      22.236  14.991   2.915  1.00  0.00     0.006 C 
BRANCH   5   6
ATOM      6  C   UNL     1      23.337  13.999   3.309  1.00  0.00     0.053 C 
BRANCH   6   7
ATOM      7  C   UNL     1      22.773  12.774   3.962  1.00  0.00     0.041 C 
ATOM      8  O   UNL     1      21.658  12.319   3.599  1.00  0.00    -0.550 OA
ATOM      9  O   UNL     1      23.497  12.118   4.950  1.00  0.00    -0.550 OA
ENDBRANCH   6   7
ENDBRANCH   5   6
ENDBRANCH   4   5
ENDBRANCH   3   4
ENDBRANCH   2   3
ENDBRANCH   1   2
BRANCH   1  10
ATOM     10  C   UNL     1      19.213  13.123  -0.384  1.00  0.00     0.000 C 
BRANCH  10  11
ATOM     11  C   UNL     1      20.193  12.309   0.481  1.00  0.00    -0.000 C 
BRANCH  11  12
ATOM     12  C   UNL     1      21.321  11.597  -0.290  1.00  0.00    -0.000 C 
BRANCH  12  13
ATOM     13  C   UNL     1      22.715  11.869   0.300  1.00  0.00    -0.000 C 
BRANCH  13  14
ATOM     14  C   UNL     1      23.511  12.918  -0.499  1.00  0.00    -0.000 C 
BRANCH  14  15
ATOM     15  C   UNL     1      22.838  13.404  -1.795  1.00  0.00    -0.000 C 
BRANCH  15  16
ATOM     16  C   UNL     1      23.638  13.046  -3.057  1.00  0.00    -0.003 C 
ATOM     17  C   UNL     1      22.709  12.702  -4.218  1.00  0.00     0.004 C 
ENDBRANCH  15  16
ENDBRANCH  14  15
ENDBRANCH  13  14
ENDBRANCH  12  13
ENDBRANCH  11  12
ENDBRANCH  10  11
ENDBRANCH   1  10
TORSDOF 13
ENDMDL
MODEL 7
REMARK VINA RESULT:    -5.492      1.280      3.144
REMARK INTER + INTRA:         -11.575
REMARK INTER:                  -9.456
REMARK INTRA:                  -2.119
REMARK UNBOUND:                -1.909
REMARK SMILES CCCCCCCCCCCCCCC(=O)[O-]
REMARK SMILES IDX 9 1 10 2 11 3 12 4 13 5 14 6 15 7 16 8 17 9 8 10 7 11 6 12
REMARK SMILES IDX 5 13 4 14 3 15 2 16 1 17
REMARK H PARENT
REMARK Flexibility Score: inf
ROOT
ATOM      1  C   UNL     1      22.441  15.476   0.994  1.00  0.00     0.000 C 
ENDROOT
BRANCH   1   2
ATOM      2  C   UNL     1      22.808  14.438  -0.080  1.00  0.00     0.000 C 
BRANCH   2   3
ATOM      3  C   UNL     1      23.359  13.104   0.461  1.00  0.00     0.000 C 
BRANCH   3   4
ATOM      4  C   UNL     1      22.262  12.094   0.862  1.00  0.00     0.000 C 
BRANCH   4   5
ATOM      5  C   UNL     1      21.894  12.197   2.352  1.00  0.00     0.006 C 
BRANCH   5   6
ATOM      6  C   UNL     1      23.096  12.586   3.222  1.00  0.00     0.053 C 
BRANCH   6   7
ATOM      7  C   UNL     1      22.675  13.348   4.441  1.00  0.00     0.041 C 
ATOM      8  O   UNL     1      22.566  12.762   5.549  1.00  0.00    -0.550 OA
ATOM      9  O   UNL     1      22.436  14.714   4.358  1.00  0.00    -0.550 OA
ENDBRANCH   6   7
ENDBRANCH   5   6
ENDBRANCH   4   5
ENDBRANCH   3   4
ENDBRANCH   2   3
ENDBRANCH   1   2
BRANCH   1  10
ATOM     10  C   UNL     1      20.922  15.633   1.178  1.00  0.00     0.000 C 
BRANCH  10  11
ATOM     11  C   UNL     1      20.116  15.146  -0.039  1.00  0.00    -0.000 C 
BRANCH  11  12
ATOM     12  C   UNL     1      19.104  14.019   0.247  1.00  0.00    -0.000 C 
BRANCH  12  13
ATOM     13  C   UNL     1      19.099  12.929  -0.838  1.00  0.00    -0.000 C 
BRANCH  13  14
ATOM     14  C   UNL     1      19.842  13.353  -2.118  1.00  0.00    -0.000 C 
BRANCH  14  15
ATOM     15  C   UNL     1      20.546  12.214  -2.877  1.00  0.00    -0.000 C 
BRANCH  15  16
ATOM     16  C   UNL     1      22.067  12.408  -2.977  1.00  0.00    -0.003 C 
ATOM     17  C   UNL     1      22.511  12.533  -4.431  1.00  0.00     0.004 C 
ENDBRANCH  15  16
ENDBRANCH  14  15
ENDBRANCH  13  14
ENDBRANCH  12  13
ENDBRANCH  11  12
ENDBRANCH  10  11
ENDBRANCH   1  10
TORSDOF 13
ENDMDL
MODEL 8
REMARK VINA RESULT:    -5.386      1.206      2.448
REMARK INTER + INTRA:         -11.388
REMARK INTER:                  -9.385
REMARK INTRA:                  -2.003
REMARK UNBOUND:                -1.909
REMARK SMILES CCCCCCCCCCCCCCC(=O)[O-]
REMARK SMILES IDX 9 1 10 2 11 3 12 4 13 5 14 6 15 7 16 8 17 9 8 10 7 11 6 12
REMARK SMILES IDX 5 13 4 14 3 15 2 16 1 17
REMARK H PARENT
REMARK Flexibility Score: inf
ROOT
ATOM      1  C   UNL     1      23.322  13.016   0.309  1.00  0.00     0.000 C 
ENDROOT
BRANCH   1   2
ATOM      2  C   UNL     1      22.875  14.473   0.103  1.00  0.00     0.000 C 
BRANCH   2   3
ATOM      3  C   UNL     1      23.264  15.443   1.235  1.00  0.00     0.000 C 
BRANCH   3   4
ATOM      4  C   UNL     1      22.059  15.976   2.040  1.00  0.00     0.000 C 
BRANCH   4   5
ATOM      5  C   UNL     1      21.758  15.113   3.277  1.00  0.00     0.006 C 
BRANCH   5   6
ATOM      6  C   UNL     1      23.004  14.382   3.793  1.00  0.00     0.053 C 
BRANCH   6   7
ATOM      7  C   UNL     1      22.670  13.022   4.324  1.00  0.00     0.041 C 
ATOM      8  O   UNL     1      22.342  12.097   3.537  1.00  0.00    -0.550 OA
ATOM      9  O   UNL     1      22.752  12.770   5.688  1.00  0.00    -0.550 OA
ENDBRANCH   6   7
ENDBRANCH   5   6
ENDBRANCH   4   5
ENDBRANCH   3   4
ENDBRANCH   2   3
ENDBRANCH   1   2
BRANCH   1  10
ATOM     10  C   UNL     1      22.175  12.007   0.127  1.00  0.00     0.000 C 
BRANCH  10  11
ATOM     11  C   UNL     1      20.800  12.588   0.505  1.00  0.00    -0.000 C 
BRANCH  11  12
ATOM     12  C   UNL     1      19.723  12.507  -0.595  1.00  0.00    -0.000 C 
BRANCH  12  13
ATOM     13  C   UNL     1      20.125  13.246  -1.882  1.00  0.00    -0.000 C 
BRANCH  13  14
ATOM     14  C   UNL     1      20.272  12.306  -3.093  1.00  0.00    -0.000 C 
BRANCH  14  15
ATOM     15  C   UNL     1      21.697  12.184  -3.662  1.00  0.00    -0.000 C 
BRANCH  15  16
ATOM     16  C   UNL     1      22.590  13.382  -3.306  1.00  0.00    -0.003 C 
ATOM     17  C   UNL     1      24.066  12.997  -3.334  1.00  0.00     0.004 C 
ENDBRANCH  15  16
ENDBRANCH  14  15
ENDBRANCH  13  14
ENDBRANCH  12  13
ENDBRANCH  11  12
ENDBRANCH  10  11
ENDBRANCH   1  10
TORSDOF 13
ENDMDL
MODEL 9
REMARK VINA RESULT:    -5.357      2.147      4.433
REMARK INTER + INTRA:         -11.337
REMARK INTER:                  -9.279
REMARK INTRA:                  -2.058
REMARK UNBOUND:                -1.909
REMARK SMILES CCCCCCCCCCCCCCC(=O)[O-]
REMARK SMILES IDX 9 1 10 2 11 3 12 4 13 5 14 6 15 7 16 8 17 9 8 10 7 11 6 12
REMARK SMILES IDX 5 13 4 14 3 15 2 16 1 17
REMARK H PARENT
REMARK Flexibility Score: inf
ROOT
ATOM      1  C   UNL     1      22.969  14.793   3.930  1.00  0.00     0.000 C 
ENDROOT
BRANCH   1   2
ATOM      2  C   UNL     1      22.334  15.850   3.011  1.00  0.00     0.000 C 
BRANCH   2   3
ATOM      3  C   UNL     1      22.862  15.859   1.562  1.00  0.00     0.000 C 
BRANCH   3   4
ATOM      4  C   UNL     1      21.755  15.715   0.496  1.00  0.00     0.000 C 
BRANCH   4   5
ATOM      5  C   UNL     1      20.532  14.949   1.027  1.00  0.00     0.006 C 
BRANCH   5   6
ATOM      6  C   UNL     1      19.361  14.962   0.035  1.00  0.00     0.053 C 
BRANCH   6   7
ATOM      7  C   UNL     1      19.206  13.644  -0.659  1.00  0.00     0.041 C 
ATOM      8  O   UNL     1      19.196  13.586  -1.915  1.00  0.00    -0.550 OA
ATOM      9  O   UNL     1      19.105  12.475   0.085  1.00  0.00    -0.550 OA
ENDBRANCH   6   7
ENDBRANCH   5   6
ENDBRANCH   4   5
ENDBRANCH   3   4
ENDBRANCH   2   3
ENDBRANCH   1   2
BRANCH   1  10
ATOM     10  C   UNL     1      23.361  13.507   3.181  1.00  0.00     0.000 C 
BRANCH  10  11
ATOM     11  C   UNL     1      22.218  12.477   3.120  1.00  0.00    -0.000 C 
BRANCH  11  12
ATOM     12  C   UNL     1      22.116  11.681   1.805  1.00  0.00    -0.000 C 
BRANCH  12  13
ATOM     13  C   UNL     1      23.074  12.194   0.717  1.00  0.00    -0.000 C 
BRANCH  13  14
ATOM     14  C   UNL     1      22.532  11.983  -0.709  1.00  0.00    -0.000 C 
BRANCH  14  15
ATOM     15  C   UNL     1      22.979  13.031  -1.743  1.00  0.00    -0.000 C 
BRANCH  15  16
ATOM     16  C   UNL     1      22.414  12.769  -3.147  1.00  0.00    -0.003 C 
ATOM     17  C   UNL     1      23.272  13.434  -4.219  1.00  0.00     0.004 C 
ENDBRANCH  15  16
ENDBRANCH  14  15
ENDBRANCH  13  14
ENDBRANCH  12  13
ENDBRANCH  11  12
ENDBRANCH  10  11
ENDBRANCH   1  10
TORSDOF 13
ENDMDL
