MODEL 1
REMARK VINA RESULT:    -4.328      0.000      0.000
REMARK INTER + INTRA:          -4.754
REMARK INTER:                  -4.708
REMARK INTRA:                  -0.046
REMARK UNBOUND:                -0.046
REMARK SMILES COc1ccccc1O
REMARK SMILES IDX 3 1 4 2 5 3 6 4 7 5 8 6 2 7 1 8 9 9
REMARK H PARENT 9 10
REMARK Flexibility Score: inf
ROOT
ATOM      1  C   UNL     1      -5.568  10.512  -7.047  1.00  0.00     0.160 A 
ATOM      2  C   UNL     1      -4.842  11.461  -6.299  1.00  0.00     0.050 A 
ATOM      3  C   UNL     1      -3.767  12.142  -6.878  1.00  0.00     0.004 A 
ATOM      4  C   UNL     1      -3.407  11.885  -8.203  1.00  0.00     0.004 A 
ATOM      5  C   UNL     1      -4.120  10.947  -8.952  1.00  0.00     0.050 A 
ATOM      6  C   UNL     1      -5.201  10.260  -8.378  1.00  0.00     0.157 A 
ENDROOT
BRANCH   1   7
ATOM      7  O   UNL     1      -6.654   9.806  -6.507  1.00  0.00    -0.493 OA
ATOM      8  C   UNL     1      -7.948  10.360  -6.290  1.00  0.00     0.278 C 
ENDBRANCH   1   7
BRANCH   6   9
ATOM      9  O   UNL     1      -5.914   9.323  -9.125  1.00  0.00    -0.504 OA
ATOM     10  H   UNL     1      -6.879   9.480  -9.391  1.00  0.00     0.293 HD
ENDBRANCH   6   9
TORSDOF 2
ENDMDL
MODEL 2
REMARK VINA RESULT:    -4.285      1.365      2.378
REMARK INTER + INTRA:          -4.707
REMARK INTER:                  -4.679
REMARK INTRA:                  -0.028
REMARK UNBOUND:                -0.046
REMARK SMILES COc1ccccc1O
REMARK SMILES IDX 3 1 4 2 5 3 6 4 7 5 8 6 2 7 1 8 9 9
REMARK H PARENT 9 10
REMARK Flexibility Score: inf
ROOT
ATOM      1  C   UNL     1      -5.949  10.831  -7.028  1.00  0.00     0.160 A 
ATOM      2  C   UNL     1      -5.960  10.148  -8.261  1.00  0.00     0.050 A 
ATOM      3  C   UNL     1      -4.826  10.151  -9.077  1.00  0.00     0.004 A 
ATOM      4  C   UNL     1      -3.673  10.830  -8.674  1.00  0.00     0.004 A 
ATOM      5  C   UNL     1      -3.653  11.509  -7.455  1.00  0.00     0.050 A 
ATOM      6  C   UNL     1      -4.788  11.512  -6.629  1.00  0.00     0.157 A 
ENDROOT
BRANCH   1   7
ATOM      7  O   UNL     1      -7.065  10.856  -6.176  1.00  0.00    -0.493 OA
ATOM      8  C   UNL     1      -8.122   9.901  -6.206  1.00  0.00     0.278 C 
ENDBRANCH   1   7
BRANCH   6   9
ATOM      9  O   UNL     1      -4.769  12.189  -5.411  1.00  0.00    -0.504 OA
ATOM     10  H   UNL     1      -5.537  12.783  -5.122  1.00  0.00     0.293 HD
ENDBRANCH   6   9
TORSDOF 2
ENDMDL
MODEL 3
REMARK VINA RESULT:    -4.248     17.000     18.046
REMARK INTER + INTRA:          -4.667
REMARK INTER:                  -4.640
REMARK INTRA:                  -0.027
REMARK UNBOUND:                -0.046
REMARK SMILES COc1ccccc1O
REMARK SMILES IDX 3 1 4 2 5 3 6 4 7 5 8 6 2 7 1 8 9 9
REMARK H PARENT 9 10
REMARK Flexibility Score: inf
ROOT
ATOM      1  C   UNL     1       5.842  10.535   6.569  1.00  0.00     0.160 A 
ATOM      2  C   UNL     1       5.084  10.960   5.459  1.00  0.00     0.050 A 
ATOM      3  C   UNL     1       5.689  11.685   4.429  1.00  0.00     0.004 A 
ATOM      4  C   UNL     1       7.051  11.992   4.493  1.00  0.00     0.004 A 
ATOM      5  C   UNL     1       7.810  11.575   5.588  1.00  0.00     0.050 A 
ATOM      6  C   UNL     1       7.210  10.847   6.627  1.00  0.00     0.157 A 
ENDROOT
BRANCH   1   7
ATOM      7  O   UNL     1       5.276   9.805   7.626  1.00  0.00    -0.493 OA
ATOM      8  C   UNL     1       3.911   9.407   7.689  1.00  0.00     0.278 C 
ENDBRANCH   1   7
BRANCH   6   9
ATOM      9  O   UNL     1       7.967  10.429   7.720  1.00  0.00    -0.504 OA
ATOM     10  H   UNL     1       8.056   9.449   7.961  1.00  0.00     0.293 HD
ENDBRANCH   6   9
TORSDOF 2
ENDMDL
MODEL 4
REMARK VINA RESULT:    -4.240     17.227     18.205
REMARK INTER + INTRA:          -4.658
REMARK INTER:                  -4.622
REMARK INTRA:                  -0.036
REMARK UNBOUND:                -0.046
REMARK SMILES COc1ccccc1O
REMARK SMILES IDX 3 1 4 2 5 3 6 4 7 5 8 6 2 7 1 8 9 9
REMARK H PARENT 9 10
REMARK Flexibility Score: inf
ROOT
ATOM      1  C   UNL     1       6.078  10.627   6.577  1.00  0.00     0.160 A 
ATOM      2  C   UNL     1       7.009  10.770   7.626  1.00  0.00     0.050 A 
ATOM      3  C   UNL     1       8.355  11.020   7.345  1.00  0.00     0.004 A 
ATOM      4  C   UNL     1       8.785  11.131   6.020  1.00  0.00     0.004 A 
ATOM      5  C   UNL     1       7.870  10.992   4.975  1.00  0.00     0.050 A 
ATOM      6  C   UNL     1       6.517  10.740   5.249  1.00  0.00     0.157 A 
ENDROOT
BRANCH   1   7
ATOM      7  O   UNL     1       4.717  10.375   6.813  1.00  0.00    -0.493 OA
ATOM      8  C   UNL     1       4.226   9.365   7.689  1.00  0.00     0.278 C 
ENDBRANCH   1   7
BRANCH   6   9
ATOM      9  O   UNL     1       5.603  10.601   4.206  1.00  0.00    -0.504 OA
ATOM     10  H   UNL     1       5.903  10.372   3.265  1.00  0.00     0.293 HD
ENDBRANCH   6   9
TORSDOF 2
ENDMDL
MODEL 5
REMARK VINA RESULT:    -4.223     17.354     18.351
REMARK INTER + INTRA:          -4.639
REMARK INTER:                  -4.593
REMARK INTRA:                  -0.046
REMARK UNBOUND:                -0.046
REMARK SMILES COc1ccccc1O
REMARK SMILES IDX 3 1 4 2 5 3 6 4 7 5 8 6 2 7 1 8 9 9
REMARK H PARENT 9 10
REMARK Flexibility Score: inf
ROOT
ATOM      1  C   UNL     1       3.237  11.004   9.048  1.00  0.00     0.160 A 
ATOM      2  C   UNL     1       4.510  11.314   9.569  1.00  0.00     0.050 A 
ATOM      3  C   UNL     1       5.662  11.015   8.836  1.00  0.00     0.004 A 
ATOM      4  C   UNL     1       5.557  10.407   7.582  1.00  0.00     0.004 A 
ATOM      5  C   UNL     1       4.301  10.097   7.059  1.00  0.00     0.050 A 
ATOM      6  C   UNL     1       3.139  10.393   7.788  1.00  0.00     0.157 A 
ENDROOT
BRANCH   1   7
ATOM      7  O   UNL     1       2.053  11.285   9.749  1.00  0.00    -0.493 OA
ATOM      8  C   UNL     1       1.476  12.582   9.865  1.00  0.00     0.278 C 
ENDBRANCH   1   7
BRANCH   6   9
ATOM      9  O   UNL     1       1.884  10.084   7.266  1.00  0.00    -0.504 OA
ATOM     10  H   UNL     1       1.045  10.144   7.831  1.00  0.00     0.293 HD
ENDBRANCH   6   9
TORSDOF 2
ENDMDL
MODEL 6
REMARK VINA RESULT:    -4.159     16.886     17.961
REMARK INTER + INTRA:          -4.570
REMARK INTER:                  -4.527
REMARK INTRA:                  -0.043
REMARK UNBOUND:                -0.046
REMARK SMILES COc1ccccc1O
REMARK SMILES IDX 3 1 4 2 5 3 6 4 7 5 8 6 2 7 1 8 9 9
REMARK H PARENT 9 10
REMARK Flexibility Score: inf
ROOT
ATOM      1  C   UNL     1       5.914  11.676   7.144  1.00  0.00     0.160 A 
ATOM      2  C   UNL     1       6.581  12.835   6.700  1.00  0.00     0.050 A 
ATOM      3  C   UNL     1       6.656  13.125   5.334  1.00  0.00     0.004 A 
ATOM      4  C   UNL     1       6.068  12.266   4.402  1.00  0.00     0.004 A 
ATOM      5  C   UNL     1       5.405  11.116   4.833  1.00  0.00     0.050 A 
ATOM      6  C   UNL     1       5.326  10.818   6.202  1.00  0.00     0.157 A 
ENDROOT
BRANCH   1   7
ATOM      7  O   UNL     1       5.815  11.346   8.505  1.00  0.00    -0.493 OA
ATOM      8  C   UNL     1       4.842  11.883   9.395  1.00  0.00     0.278 C 
ENDBRANCH   1   7
BRANCH   6   9
ATOM      9  O   UNL     1       4.664   9.669   6.634  1.00  0.00    -0.504 OA
ATOM     10  H   UNL     1       4.404   8.932   5.989  1.00  0.00     0.293 HD
ENDBRANCH   6   9
TORSDOF 2
ENDMDL
MODEL 7
REMARK VINA RESULT:    -4.112     18.288     19.478
REMARK INTER + INTRA:          -4.519
REMARK INTER:                  -4.475
REMARK INTRA:                  -0.044
REMARK UNBOUND:                -0.046
REMARK SMILES COc1ccccc1O
REMARK SMILES IDX 3 1 4 2 5 3 6 4 7 5 8 6 2 7 1 8 9 9
REMARK H PARENT 9 10
REMARK Flexibility Score: inf
ROOT
ATOM      1  C   UNL     1       5.729  10.604   8.257  1.00  0.00     0.160 A 
ATOM      2  C   UNL     1       4.800   9.847   7.513  1.00  0.00     0.050 A 
ATOM      3  C   UNL     1       3.430   9.983   7.751  1.00  0.00     0.004 A 
ATOM      4  C   UNL     1       2.972  10.871   8.728  1.00  0.00     0.004 A 
ATOM      5  C   UNL     1       3.884  11.625   9.469  1.00  0.00     0.050 A 
ATOM      6  C   UNL     1       5.262  11.495   9.236  1.00  0.00     0.157 A 
ENDROOT
BRANCH   1   7
ATOM      7  O   UNL     1       7.114  10.500   8.052  1.00  0.00    -0.493 OA
ATOM      8  C   UNL     1       7.787  10.922   6.870  1.00  0.00     0.278 C 
ENDBRANCH   1   7
BRANCH   6   9
ATOM      9  O   UNL     1       6.173  12.247   9.975  1.00  0.00    -0.504 OA
ATOM     10  H   UNL     1       6.013  12.464  10.952  1.00  0.00     0.293 HD
ENDBRANCH   6   9
TORSDOF 2
ENDMDL
MODEL 8
REMARK VINA RESULT:    -4.108      2.036      2.884
REMARK INTER + INTRA:          -4.515
REMARK INTER:                  -4.472
REMARK INTRA:                  -0.043
REMARK UNBOUND:                -0.046
REMARK SMILES COc1ccccc1O
REMARK SMILES IDX 3 1 4 2 5 3 6 4 7 5 8 6 2 7 1 8 9 9
REMARK H PARENT 9 10
REMARK Flexibility Score: inf
ROOT
ATOM      1  C   UNL     1      -4.826  11.273  -6.831  1.00  0.00     0.160 A 
ATOM      2  C   UNL     1      -5.930  10.398  -6.781  1.00  0.00     0.050 A 
ATOM      3  C   UNL     1      -6.261   9.618  -7.893  1.00  0.00     0.004 A 
ATOM      4  C   UNL     1      -5.498   9.700  -9.060  1.00  0.00     0.004 A 
ATOM      5  C   UNL     1      -4.403  10.564  -9.119  1.00  0.00     0.050 A 
ATOM      6  C   UNL     1      -4.063  11.350  -8.007  1.00  0.00     0.157 A 
ENDROOT
BRANCH   1   7
ATOM      7  O   UNL     1      -4.457  12.075  -5.740  1.00  0.00    -0.493 OA
ATOM      8  C   UNL     1      -5.257  13.125  -5.205  1.00  0.00     0.278 C 
ENDBRANCH   1   7
BRANCH   6   9
ATOM      9  O   UNL     1      -2.969  12.213  -8.065  1.00  0.00    -0.504 OA
ATOM     10  H   UNL     1      -2.035  11.872  -8.260  1.00  0.00     0.293 HD
ENDBRANCH   6   9
TORSDOF 2
ENDMDL
MODEL 9
REMARK VINA RESULT:    -4.095     19.201     19.699
REMARK INTER + INTRA:          -4.501
REMARK INTER:                  -4.465
REMARK INTRA:                  -0.036
REMARK UNBOUND:                -0.046
REMARK SMILES COc1ccccc1O
REMARK SMILES IDX 3 1 4 2 5 3 6 4 7 5 8 6 2 7 1 8 9 9
REMARK H PARENT 9 10
REMARK Flexibility Score: inf
ROOT
ATOM      1  C   UNL     1       5.256  11.443   9.137  1.00  0.00     0.160 A 
ATOM      2  C   UNL     1       4.438  12.589   9.211  1.00  0.00     0.050 A 
ATOM      3  C   UNL     1       3.068  12.461   9.457  1.00  0.00     0.004 A 
ATOM      4  C   UNL     1       2.502  11.196   9.632  1.00  0.00     0.004 A 
ATOM      5  C   UNL     1       3.304  10.056   9.560  1.00  0.00     0.050 A 
ATOM      6  C   UNL     1       4.680  10.175   9.313  1.00  0.00     0.157 A 
ENDROOT
BRANCH   1   7
ATOM      7  O   UNL     1       6.636  11.524   8.891  1.00  0.00    -0.493 OA
ATOM      8  C   UNL     1       7.221  11.586   7.595  1.00  0.00     0.278 C 
ENDBRANCH   1   7
BRANCH   6   9
ATOM      9  O   UNL     1       5.482   9.037   9.241  1.00  0.00    -0.504 OA
ATOM     10  H   UNL     1       6.070   8.753  10.016  1.00  0.00     0.293 HD
ENDBRANCH   6   9
TORSDOF 2
ENDMDL
