MODEL 1
REMARK VINA RESULT:    -5.827      0.000      0.000
REMARK INTER + INTRA:          -6.455
REMARK INTER:                  -6.338
REMARK INTRA:                  -0.117
REMARK UNBOUND:                -0.117
REMARK SMILES C=C(C)[C@@H]1CC[C@@H](C)C[C@@H]1O
REMARK SMILES IDX 8 1 7 2 6 3 5 4 4 5 10 6 9 7 11 8 2 10 1 11 3 12
REMARK H PARENT 11 9
REMARK Flexibility Score: inf
ROOT
ATOM      1  C   UNL     1     136.564 124.854 134.710  1.00  0.00     0.008 C 
ATOM      2  C   UNL     1     136.003 126.213 135.141  1.00  0.00    -0.012 C 
ATOM      3  C   UNL     1     135.424 126.966 133.927  1.00  0.00     0.004 C 
ATOM      4  C   UNL     1     134.882 128.343 134.336  1.00  0.00     0.011 C 
ATOM      5  C   UNL     1     135.981 129.180 135.026  1.00  0.00     0.043 C 
ATOM      6  C   UNL     1     136.564 128.439 136.253  1.00  0.00     0.121 C 
ATOM      7  C   UNL     1     137.096 127.055 135.834  1.00  0.00     0.035 C 
ENDROOT
BRANCH   6   8
ATOM      8  O   UNL     1     135.591 128.294 137.255  1.00  0.00    -0.392 OA
ATOM      9  H   UNL     1     135.368 129.208 137.574  1.00  0.00     0.210 HD
ENDBRANCH   6   8
BRANCH   5  10
ATOM     10  C   UNL     1     135.503 130.586 135.374  1.00  0.00    -0.075 C 
ATOM     11  C   UNL     1     136.344 131.635 135.400  1.00  0.00     0.008 C 
ATOM     12  C   UNL     1     134.051 130.826 135.707  1.00  0.00     0.039 C 
ENDBRANCH   5  10
TORSDOF 2
ENDMDL
MODEL 2
REMARK VINA RESULT:    -5.379      2.186      4.399
REMARK INTER + INTRA:          -5.968
REMARK INTER:                  -5.800
REMARK INTRA:                  -0.168
REMARK UNBOUND:                -0.117
REMARK SMILES C=C(C)[C@@H]1CC[C@@H](C)C[C@@H]1O
REMARK SMILES IDX 8 1 7 2 6 3 5 4 4 5 10 6 9 7 11 8 2 10 1 11 3 12
REMARK H PARENT 11 9
REMARK Flexibility Score: inf
ROOT
ATOM      1  C   UNL     1     130.870 130.124 138.498  1.00  0.00     0.008 C 
ATOM      2  C   UNL     1     132.268 130.050 137.875  1.00  0.00    -0.012 C 
ATOM      3  C   UNL     1     132.367 130.992 136.659  1.00  0.00     0.004 C 
ATOM      4  C   UNL     1     133.753 130.909 136.004  1.00  0.00     0.011 C 
ATOM      5  C   UNL     1     134.080 129.457 135.599  1.00  0.00     0.043 C 
ATOM      6  C   UNL     1     133.995 128.502 136.813  1.00  0.00     0.121 C 
ATOM      7  C   UNL     1     132.604 128.599 137.469  1.00  0.00     0.035 C 
ENDROOT
BRANCH   6   8
ATOM      8  O   UNL     1     134.990 128.806 137.756  1.00  0.00    -0.392 OA
ATOM      9  H   UNL     1     135.824 128.363 137.449  1.00  0.00     0.210 HD
ENDBRANCH   6   8
BRANCH   5  10
ATOM     10  C   UNL     1     135.417 129.348 134.870  1.00  0.00    -0.075 C 
ATOM     11  C   UNL     1     135.695 128.319 134.051  1.00  0.00     0.008 C 
ATOM     12  C   UNL     1     136.469 130.410 135.068  1.00  0.00     0.039 C 
ENDBRANCH   5  10
TORSDOF 2
ENDMDL
MODEL 3
REMARK VINA RESULT:    -5.346      2.484      3.450
REMARK INTER + INTRA:          -5.932
REMARK INTER:                  -5.740
REMARK INTRA:                  -0.192
REMARK UNBOUND:                -0.117
REMARK SMILES C=C(C)[C@@H]1CC[C@@H](C)C[C@@H]1O
REMARK SMILES IDX 8 1 7 2 6 3 5 4 4 5 10 6 9 7 11 8 2 10 1 11 3 12
REMARK H PARENT 11 9
REMARK Flexibility Score: inf
ROOT
ATOM      1  C   UNL     1     134.637 125.320 139.749  1.00  0.00     0.008 C 
ATOM      2  C   UNL     1     135.199 126.149 138.589  1.00  0.00    -0.012 C 
ATOM      3  C   UNL     1     134.240 127.304 138.238  1.00  0.00     0.004 C 
ATOM      4  C   UNL     1     134.774 128.128 137.059  1.00  0.00     0.011 C 
ATOM      5  C   UNL     1     135.019 127.227 135.829  1.00  0.00     0.043 C 
ATOM      6  C   UNL     1     135.989 126.069 136.165  1.00  0.00     0.121 C 
ATOM      7  C   UNL     1     135.449 125.254 137.357  1.00  0.00     0.035 C 
ENDROOT
BRANCH   6   8
ATOM      8  O   UNL     1     137.269 126.563 136.465  1.00  0.00    -0.392 OA
ATOM      9  H   UNL     1     137.660 125.955 137.145  1.00  0.00     0.210 HD
ENDBRANCH   6   8
BRANCH   5  10
ATOM     10  C   UNL     1     135.474 128.025 134.611  1.00  0.00    -0.075 C 
ATOM     11  C   UNL     1     135.483 127.492 133.377  1.00  0.00     0.008 C 
ATOM     12  C   UNL     1     135.935 129.452 134.776  1.00  0.00     0.039 C 
ENDBRANCH   5  10
TORSDOF 2
ENDMDL
MODEL 4
REMARK VINA RESULT:    -5.321      2.444      3.327
REMARK INTER + INTRA:          -5.905
REMARK INTER:                  -5.731
REMARK INTRA:                  -0.174
REMARK UNBOUND:                -0.117
REMARK SMILES C=C(C)[C@@H]1CC[C@@H](C)C[C@@H]1O
REMARK SMILES IDX 8 1 7 2 6 3 5 4 4 5 10 6 9 7 11 8 2 10 1 11 3 12
REMARK H PARENT 11 9
REMARK Flexibility Score: inf
ROOT
ATOM      1  C   UNL     1     134.627 125.014 139.519  1.00  0.00     0.008 C 
ATOM      2  C   UNL     1     134.559 125.705 138.152  1.00  0.00    -0.012 C 
ATOM      3  C   UNL     1     135.771 125.309 137.287  1.00  0.00     0.004 C 
ATOM      4  C   UNL     1     135.734 126.014 135.925  1.00  0.00     0.011 C 
ATOM      5  C   UNL     1     135.667 127.546 136.104  1.00  0.00     0.043 C 
ATOM      6  C   UNL     1     134.447 127.958 136.962  1.00  0.00     0.121 C 
ATOM      7  C   UNL     1     134.488 127.237 138.324  1.00  0.00     0.035 C 
ENDROOT
BRANCH   6   8
ATOM      8  O   UNL     1     133.247 127.656 136.298  1.00  0.00    -0.392 OA
ATOM      9  H   UNL     1     132.527 128.160 136.761  1.00  0.00     0.210 HD
ENDBRANCH   6   8
BRANCH   5  10
ATOM     10  C   UNL     1     135.710 128.285 134.770  1.00  0.00    -0.075 C 
ATOM     11  C   UNL     1     135.457 127.663 133.605  1.00  0.00     0.008 C 
ATOM     12  C   UNL     1     136.051 129.754 134.736  1.00  0.00     0.039 C 
ENDBRANCH   5  10
TORSDOF 2
ENDMDL
MODEL 5
REMARK VINA RESULT:    -5.154      1.587      1.779
REMARK INTER + INTRA:          -5.723
REMARK INTER:                  -5.544
REMARK INTRA:                  -0.179
REMARK UNBOUND:                -0.117
REMARK SMILES C=C(C)[C@@H]1CC[C@@H](C)C[C@@H]1O
REMARK SMILES IDX 8 1 7 2 6 3 5 4 4 5 10 6 9 7 11 8 2 10 1 11 3 12
REMARK H PARENT 11 9
REMARK Flexibility Score: inf
ROOT
ATOM      1  C   UNL     1     136.506 125.310 134.393  1.00  0.00     0.008 C 
ATOM      2  C   UNL     1     135.540 126.371 134.930  1.00  0.00    -0.012 C 
ATOM      3  C   UNL     1     135.725 127.700 134.173  1.00  0.00     0.004 C 
ATOM      4  C   UNL     1     134.784 128.784 134.719  1.00  0.00     0.011 C 
ATOM      5  C   UNL     1     134.999 128.982 136.234  1.00  0.00     0.043 C 
ATOM      6  C   UNL     1     134.805 127.656 137.007  1.00  0.00     0.121 C 
ATOM      7  C   UNL     1     135.747 126.573 136.446  1.00  0.00     0.035 C 
ENDROOT
BRANCH   6   8
ATOM      8  O   UNL     1     133.473 127.221 136.924  1.00  0.00    -0.392 OA
ATOM      9  H   UNL     1     133.113 127.216 137.849  1.00  0.00     0.210 HD
ENDBRANCH   6   8
BRANCH   5  10
ATOM     10  C   UNL     1     134.138 130.110 136.796  1.00  0.00    -0.075 C 
ATOM     11  C   UNL     1     134.174 130.448 138.097  1.00  0.00     0.008 C 
ATOM     12  C   UNL     1     133.209 130.872 135.885  1.00  0.00     0.039 C 
ENDBRANCH   5  10
TORSDOF 2
ENDMDL
MODEL 6
REMARK VINA RESULT:    -5.105      5.085      7.021
REMARK INTER + INTRA:          -5.669
REMARK INTER:                  -5.476
REMARK INTRA:                  -0.193
REMARK UNBOUND:                -0.117
REMARK SMILES C=C(C)[C@@H]1CC[C@@H](C)C[C@@H]1O
REMARK SMILES IDX 8 1 7 2 6 3 5 4 4 5 10 6 9 7 11 8 2 10 1 11 3 12
REMARK H PARENT 11 9
REMARK Flexibility Score: inf
ROOT
ATOM      1  C   UNL     1     133.512 132.835 139.629  1.00  0.00     0.008 C 
ATOM      2  C   UNL     1     132.432 131.825 139.227  1.00  0.00    -0.012 C 
ATOM      3  C   UNL     1     132.244 130.768 140.333  1.00  0.00     0.004 C 
ATOM      4  C   UNL     1     131.185 129.731 139.934  1.00  0.00     0.011 C 
ATOM      5  C   UNL     1     131.554 129.061 138.594  1.00  0.00     0.043 C 
ATOM      6  C   UNL     1     131.735 130.110 137.472  1.00  0.00     0.121 C 
ATOM      7  C   UNL     1     132.792 131.152 137.885  1.00  0.00     0.035 C 
ENDROOT
BRANCH   6   8
ATOM      8  O   UNL     1     130.518 130.751 137.189  1.00  0.00    -0.392 OA
ATOM      9  H   UNL     1     129.976 130.722 138.021  1.00  0.00     0.210 HD
ENDBRANCH   6   8
BRANCH   5  10
ATOM     10  C   UNL     1     130.565 127.965 138.206  1.00  0.00    -0.075 C 
ATOM     11  C   UNL     1     129.439 127.745 138.906  1.00  0.00     0.008 C 
ATOM     12  C   UNL     1     130.846 127.089 137.010  1.00  0.00     0.039 C 
ENDBRANCH   5  10
TORSDOF 2
ENDMDL
MODEL 7
REMARK VINA RESULT:    -5.103      1.590      2.217
REMARK INTER + INTRA:          -5.667
REMARK INTER:                  -5.476
REMARK INTRA:                  -0.192
REMARK UNBOUND:                -0.117
REMARK SMILES C=C(C)[C@@H]1CC[C@@H](C)C[C@@H]1O
REMARK SMILES IDX 8 1 7 2 6 3 5 4 4 5 10 6 9 7 11 8 2 10 1 11 3 12
REMARK H PARENT 11 9
REMARK Flexibility Score: inf
ROOT
ATOM      1  C   UNL     1     136.494 125.365 134.401  1.00  0.00     0.008 C 
ATOM      2  C   UNL     1     136.208 126.724 135.048  1.00  0.00    -0.012 C 
ATOM      3  C   UNL     1     135.388 126.544 136.340  1.00  0.00     0.004 C 
ATOM      4  C   UNL     1     135.068 127.899 136.986  1.00  0.00     0.011 C 
ATOM      5  C   UNL     1     134.327 128.818 135.992  1.00  0.00     0.043 C 
ATOM      6  C   UNL     1     135.145 129.016 134.693  1.00  0.00     0.121 C 
ATOM      7  C   UNL     1     135.469 127.650 134.057  1.00  0.00     0.035 C 
ENDROOT
BRANCH   6   8
ATOM      8  O   UNL     1     136.334 129.715 134.956  1.00  0.00    -0.392 OA
ATOM      9  H   UNL     1     136.696 130.007 134.078  1.00  0.00     0.210 HD
ENDBRANCH   6   8
BRANCH   5  10
ATOM     10  C   UNL     1     133.919 130.145 136.625  1.00  0.00    -0.075 C 
ATOM     11  C   UNL     1     134.187 130.428 137.912  1.00  0.00     0.008 C 
ATOM     12  C   UNL     1     133.190 131.178 135.803  1.00  0.00     0.039 C 
ENDBRANCH   5  10
TORSDOF 2
ENDMDL
MODEL 8
REMARK VINA RESULT:    -5.047      6.224      7.962
REMARK INTER + INTRA:          -5.607
REMARK INTER:                  -5.414
REMARK INTRA:                  -0.193
REMARK UNBOUND:                -0.117
REMARK SMILES C=C(C)[C@@H]1CC[C@@H](C)C[C@@H]1O
REMARK SMILES IDX 8 1 7 2 6 3 5 4 4 5 10 6 9 7 11 8 2 10 1 11 3 12
REMARK H PARENT 11 9
REMARK Flexibility Score: inf
ROOT
ATOM      1  C   UNL     1     132.439 131.583 137.893  1.00  0.00     0.008 C 
ATOM      2  C   UNL     1     133.205 131.621 139.220  1.00  0.00    -0.012 C 
ATOM      3  C   UNL     1     132.469 130.792 140.291  1.00  0.00     0.004 C 
ATOM      4  C   UNL     1     133.208 130.844 141.635  1.00  0.00     0.011 C 
ATOM      5  C   UNL     1     133.391 132.303 142.103  1.00  0.00     0.043 C 
ATOM      6  C   UNL     1     134.138 133.144 141.041  1.00  0.00     0.121 C 
ATOM      7  C   UNL     1     133.394 133.078 139.693  1.00  0.00     0.035 C 
ENDROOT
BRANCH   6   8
ATOM      8  O   UNL     1     135.457 132.688 140.882  1.00  0.00    -0.392 OA
ATOM      9  H   UNL     1     135.644 132.681 139.907  1.00  0.00     0.210 HD
ENDBRANCH   6   8
BRANCH   5  10
ATOM     10  C   UNL     1     134.050 132.390 143.477  1.00  0.00    -0.075 C 
ATOM     11  C   UNL     1     134.552 131.306 144.092  1.00  0.00     0.008 C 
ATOM     12  C   UNL     1     134.145 133.720 144.182  1.00  0.00     0.039 C 
ENDBRANCH   5  10
TORSDOF 2
ENDMDL
MODEL 9
REMARK VINA RESULT:    -4.997      1.970      4.675
REMARK INTER + INTRA:          -5.553
REMARK INTER:                  -5.384
REMARK INTRA:                  -0.169
REMARK UNBOUND:                -0.117
REMARK SMILES C=C(C)[C@@H]1CC[C@@H](C)C[C@@H]1O
REMARK SMILES IDX 8 1 7 2 6 3 5 4 4 5 10 6 9 7 11 8 2 10 1 11 3 12
REMARK H PARENT 11 9
REMARK Flexibility Score: inf
ROOT
ATOM      1  C   UNL     1     133.711 131.291 135.815  1.00  0.00     0.008 C 
ATOM      2  C   UNL     1     133.893 129.772 135.900  1.00  0.00    -0.012 C 
ATOM      3  C   UNL     1     133.973 129.321 137.372  1.00  0.00     0.004 C 
ATOM      4  C   UNL     1     134.185 127.804 137.476  1.00  0.00     0.011 C 
ATOM      5  C   UNL     1     135.449 127.375 136.702  1.00  0.00     0.043 C 
ATOM      6  C   UNL     1     135.378 127.813 135.220  1.00  0.00     0.121 C 
ATOM      7  C   UNL     1     135.155 129.335 135.127  1.00  0.00     0.035 C 
ENDROOT
BRANCH   6   8
ATOM      8  O   UNL     1     134.344 127.137 134.551  1.00  0.00    -0.392 OA
ATOM      9  H   UNL     1     133.767 126.730 135.249  1.00  0.00     0.210 HD
ENDBRANCH   6   8
BRANCH   5  10
ATOM     10  C   UNL     1     135.738 125.884 136.851  1.00  0.00    -0.075 C 
ATOM     11  C   UNL     1     135.045 125.109 137.704  1.00  0.00     0.008 C 
ATOM     12  C   UNL     1     136.831 125.244 136.031  1.00  0.00     0.039 C 
ENDBRANCH   5  10
TORSDOF 2
ENDMDL
