MODEL 1
REMARK VINA RESULT:    -3.651      0.000      0.000
REMARK INTER + INTRA:          -5.067
REMARK INTER:                  -4.612
REMARK INTRA:                  -0.455
REMARK UNBOUND:                -0.455
REMARK SMILES CC(C)=CCCC(C)=CCO
REMARK SMILES IDX 7 1 9 2 8 3 6 4 5 5 4 6 1 7 2 8 3 9 10 10 11 11
REMARK H PARENT 11 12
REMARK Flexibility Score: inf
ROOT
ATOM      1  C   UNL     1      -8.255   0.307   3.492  1.00  0.00    -0.075 C 
ATOM      2  C   UNL     1      -8.569  -0.639   2.579  1.00  0.00    -0.000 C 
ATOM      3  C   UNL     1      -7.450  -0.024   4.725  1.00  0.00     0.039 C 
ENDROOT
BRANCH   1   4
ATOM      4  C   UNL     1      -8.759   1.723   3.303  1.00  0.00     0.034 C 
BRANCH   4   5
ATOM      5  C   UNL     1      -9.088   2.016   1.832  1.00  0.00     0.032 C 
BRANCH   5   6
ATOM      6  C   UNL     1      -8.285   3.174   1.292  1.00  0.00    -0.028 C 
ATOM      7  C   UNL     1      -6.610   4.319  -0.094  1.00  0.00     0.039 C 
ATOM      8  C   UNL     1      -7.287   3.062   0.388  1.00  0.00    -0.080 C 
ATOM      9  C   UNL     1      -6.825   1.722  -0.133  1.00  0.00     0.039 C 
ENDBRANCH   5   6
ENDBRANCH   4   5
ENDBRANCH   1   4
BRANCH   2  10
ATOM     10  C   UNL     1      -8.135  -2.074   2.698  1.00  0.00     0.183 C 
BRANCH  10  11
ATOM     11  O   UNL     1      -6.836  -2.215   2.198  1.00  0.00    -0.392 OA
ATOM     12  H   UNL     1      -6.244  -1.733   2.833  1.00  0.00     0.210 HD
ENDBRANCH  10  11
ENDBRANCH   2  10
TORSDOF 5
ENDMDL
MODEL 2
REMARK VINA RESULT:    -3.636     14.089     16.025
REMARK INTER + INTRA:          -5.047
REMARK INTER:                  -4.803
REMARK INTRA:                  -0.244
REMARK UNBOUND:                -0.455
REMARK SMILES CC(C)=CCCC(C)=CCO
REMARK SMILES IDX 7 1 9 2 8 3 6 4 5 5 4 6 1 7 2 8 3 9 10 10 11 11
REMARK H PARENT 11 12
REMARK Flexibility Score: inf
ROOT
ATOM      1  C   UNL     1       3.060  -3.218  -7.203  1.00  0.00    -0.075 C 
ATOM      2  C   UNL     1       3.303  -1.889  -7.218  1.00  0.00    -0.000 C 
ATOM      3  C   UNL     1       1.676  -3.769  -7.446  1.00  0.00     0.039 C 
ENDROOT
BRANCH   1   4
ATOM      4  C   UNL     1       4.189  -4.179  -6.891  1.00  0.00     0.034 C 
BRANCH   4   5
ATOM      5  C   UNL     1       3.686  -5.625  -6.779  1.00  0.00     0.032 C 
BRANCH   5   6
ATOM      6  C   UNL     1       4.412  -6.395  -5.703  1.00  0.00    -0.028 C 
ATOM      7  C   UNL     1       4.974  -8.317  -4.279  1.00  0.00     0.039 C 
ATOM      8  C   UNL     1       4.124  -7.664  -5.339  1.00  0.00    -0.080 C 
ATOM      9  C   UNL     1       2.973  -8.430  -5.946  1.00  0.00     0.039 C 
ENDBRANCH   5   6
ENDBRANCH   4   5
ENDBRANCH   1   4
BRANCH   2  10
ATOM     10  C   UNL     1       2.240  -0.860  -7.492  1.00  0.00     0.183 C 
BRANCH  10  11
ATOM     11  O   UNL     1       1.651  -0.461  -6.286  1.00  0.00    -0.392 OA
ATOM     12  H   UNL     1       0.916   0.158  -6.531  1.00  0.00     0.210 HD
ENDBRANCH  10  11
ENDBRANCH   2  10
TORSDOF 5
ENDMDL
MODEL 3
REMARK VINA RESULT:    -3.636     15.814     16.625
REMARK INTER + INTRA:          -5.047
REMARK INTER:                  -4.858
REMARK INTRA:                  -0.189
REMARK UNBOUND:                -0.455
REMARK SMILES CC(C)=CCCC(C)=CCO
REMARK SMILES IDX 7 1 9 2 8 3 6 4 5 5 4 6 1 7 2 8 3 9 10 10 11 11
REMARK H PARENT 11 12
REMARK Flexibility Score: inf
ROOT
ATOM      1  C   UNL     1       5.576  -4.608  -5.010  1.00  0.00    -0.075 C 
ATOM      2  C   UNL     1       6.105  -4.020  -3.915  1.00  0.00    -0.000 C 
ATOM      3  C   UNL     1       5.172  -3.803  -6.221  1.00  0.00     0.039 C 
ENDROOT
BRANCH   1   4
ATOM      4  C   UNL     1       5.336  -6.104  -5.011  1.00  0.00     0.034 C 
BRANCH   4   5
ATOM      5  C   UNL     1       4.178  -6.492  -5.940  1.00  0.00     0.032 C 
BRANCH   5   6
ATOM      6  C   UNL     1       3.620  -7.855  -5.611  1.00  0.00    -0.028 C 
ATOM      7  C   UNL     1       2.121  -9.793  -5.791  1.00  0.00     0.039 C 
ATOM      8  C   UNL     1       2.527  -8.398  -6.191  1.00  0.00    -0.080 C 
ATOM      9  C   UNL     1       1.698  -7.644  -7.203  1.00  0.00     0.039 C 
ENDBRANCH   5   6
ENDBRANCH   4   5
ENDBRANCH   1   4
BRANCH   2  10
ATOM     10  C   UNL     1       6.353  -2.539  -3.814  1.00  0.00     0.183 C 
BRANCH  10  11
ATOM     11  O   UNL     1       6.503  -2.179  -2.470  1.00  0.00    -0.392 OA
ATOM     12  H   UNL     1       6.523  -3.029  -1.958  1.00  0.00     0.210 HD
ENDBRANCH  10  11
ENDBRANCH   2  10
TORSDOF 5
ENDMDL
MODEL 4
REMARK VINA RESULT:    -3.619     13.916     15.867
REMARK INTER + INTRA:          -5.026
REMARK INTER:                  -4.560
REMARK INTRA:                  -0.466
REMARK UNBOUND:                -0.455
REMARK SMILES CC(C)=CCCC(C)=CCO
REMARK SMILES IDX 7 1 9 2 8 3 6 4 5 5 4 6 1 7 2 8 3 9 10 10 11 11
REMARK H PARENT 11 12
REMARK Flexibility Score: inf
ROOT
ATOM      1  C   UNL     1       2.532  -3.333  -7.314  1.00  0.00    -0.075 C 
ATOM      2  C   UNL     1       1.584  -2.404  -7.561  1.00  0.00    -0.000 C 
ATOM      3  C   UNL     1       3.966  -2.944  -7.044  1.00  0.00     0.039 C 
ENDROOT
BRANCH   1   4
ATOM      4  C   UNL     1       2.166  -4.802  -7.353  1.00  0.00     0.034 C 
BRANCH   4   5
ATOM      5  C   UNL     1       3.386  -5.682  -7.662  1.00  0.00     0.032 C 
BRANCH   5   6
ATOM      6  C   UNL     1       3.418  -6.926  -6.807  1.00  0.00    -0.028 C 
ATOM      7  C   UNL     1       4.057  -8.359  -4.916  1.00  0.00     0.039 C 
ATOM      8  C   UNL     1       4.170  -7.073  -5.694  1.00  0.00    -0.080 C 
ATOM      9  C   UNL     1       5.126  -6.002  -5.225  1.00  0.00     0.039 C 
ENDBRANCH   5   6
ENDBRANCH   4   5
ENDBRANCH   1   4
BRANCH   2  10
ATOM     10  C   UNL     1       1.861  -0.925  -7.570  1.00  0.00     0.183 C 
BRANCH  10  11
ATOM     11  O   UNL     1       1.680  -0.406  -6.283  1.00  0.00    -0.392 OA
ATOM     12  H   UNL     1       2.523   0.066  -6.056  1.00  0.00     0.210 HD
ENDBRANCH  10  11
ENDBRANCH   2  10
TORSDOF 5
ENDMDL
MODEL 5
REMARK VINA RESULT:    -3.604     15.118     16.025
REMARK INTER + INTRA:          -5.007
REMARK INTER:                  -4.587
REMARK INTRA:                  -0.420
REMARK UNBOUND:                -0.455
REMARK SMILES CC(C)=CCCC(C)=CCO
REMARK SMILES IDX 7 1 9 2 8 3 6 4 5 5 4 6 1 7 2 8 3 9 10 10 11 11
REMARK H PARENT 11 12
REMARK Flexibility Score: inf
ROOT
ATOM      1  C   UNL     1       3.260  -6.199  -6.592  1.00  0.00    -0.075 C 
ATOM      2  C   UNL     1       3.219  -4.902  -6.970  1.00  0.00    -0.000 C 
ATOM      3  C   UNL     1       2.197  -7.180  -7.023  1.00  0.00     0.039 C 
ENDROOT
BRANCH   1   4
ATOM      4  C   UNL     1       4.368  -6.675  -5.676  1.00  0.00     0.034 C 
BRANCH   4   5
ATOM      5  C   UNL     1       5.613  -5.782  -5.781  1.00  0.00     0.032 C 
BRANCH   5   6
ATOM      6  C   UNL     1       5.799  -4.923  -4.553  1.00  0.00    -0.028 C 
ATOM      7  C   UNL     1       6.094  -2.858  -3.256  1.00  0.00     0.039 C 
ATOM      8  C   UNL     1       5.972  -3.583  -4.571  1.00  0.00    -0.080 C 
ATOM      9  C   UNL     1       6.065  -2.805  -5.862  1.00  0.00     0.039 C 
ENDBRANCH   5   6
ENDBRANCH   4   5
ENDBRANCH   1   4
BRANCH   2  10
ATOM     10  C   UNL     1       2.142  -4.336  -7.854  1.00  0.00     0.183 C 
BRANCH  10  11
ATOM     11  O   UNL     1       1.173  -3.703  -7.067  1.00  0.00    -0.392 OA
ATOM     12  H   UNL     1       1.541  -3.678  -6.146  1.00  0.00     0.210 HD
ENDBRANCH  10  11
ENDBRANCH   2  10
TORSDOF 5
ENDMDL
MODEL 6
REMARK VINA RESULT:    -3.555     15.019     16.130
REMARK INTER + INTRA:          -4.945
REMARK INTER:                  -4.494
REMARK INTRA:                  -0.451
REMARK UNBOUND:                -0.455
REMARK SMILES CC(C)=CCCC(C)=CCO
REMARK SMILES IDX 7 1 9 2 8 3 6 4 5 5 4 6 1 7 2 8 3 9 10 10 11 11
REMARK H PARENT 11 12
REMARK Flexibility Score: inf
ROOT
ATOM      1  C   UNL     1       6.012   2.830   7.377  1.00  0.00    -0.075 C 
ATOM      2  C   UNL     1       5.832   3.250   6.106  1.00  0.00    -0.000 C 
ATOM      3  C   UNL     1       5.761   3.743   8.552  1.00  0.00     0.039 C 
ENDROOT
BRANCH   1   4
ATOM      4  C   UNL     1       6.522   1.427   7.634  1.00  0.00     0.034 C 
BRANCH   4   5
ATOM      5  C   UNL     1       8.056   1.372   7.627  1.00  0.00     0.032 C 
BRANCH   5   6
ATOM      6  C   UNL     1       8.576   0.140   6.928  1.00  0.00    -0.028 C 
ATOM      7  C   UNL     1       9.477  -1.207   5.081  1.00  0.00     0.039 C 
ATOM      8  C   UNL     1       8.927   0.087   5.624  1.00  0.00    -0.080 C 
ATOM      9  C   UNL     1       8.767   1.272   4.702  1.00  0.00     0.039 C 
ENDBRANCH   5   6
ENDBRANCH   4   5
ENDBRANCH   1   4
BRANCH   2  10
ATOM     10  C   UNL     1       5.355   4.633   5.756  1.00  0.00     0.183 C 
BRANCH  10  11
ATOM     11  O   UNL     1       4.172   4.547   5.012  1.00  0.00    -0.392 OA
ATOM     12  H   UNL     1       4.434   4.674   4.063  1.00  0.00     0.210 HD
ENDBRANCH  10  11
ENDBRANCH   2  10
TORSDOF 5
ENDMDL
MODEL 7
REMARK VINA RESULT:    -3.552      1.343      2.493
REMARK INTER + INTRA:          -4.941
REMARK INTER:                  -4.633
REMARK INTRA:                  -0.309
REMARK UNBOUND:                -0.455
REMARK SMILES CC(C)=CCCC(C)=CCO
REMARK SMILES IDX 7 1 9 2 8 3 6 4 5 5 4 6 1 7 2 8 3 9 10 10 11 11
REMARK H PARENT 11 12
REMARK Flexibility Score: inf
ROOT
ATOM      1  C   UNL     1      -8.340   0.845   1.413  1.00  0.00    -0.075 C 
ATOM      2  C   UNL     1      -7.958  -0.052   2.348  1.00  0.00    -0.000 C 
ATOM      3  C   UNL     1      -8.978   0.408   0.116  1.00  0.00     0.039 C 
ENDROOT
BRANCH   1   4
ATOM      4  C   UNL     1      -8.083   2.320   1.643  1.00  0.00     0.034 C 
BRANCH   4   5
ATOM      5  C   UNL     1      -8.029   3.099   0.321  1.00  0.00     0.032 C 
BRANCH   5   6
ATOM      6  C   UNL     1      -6.621   3.510  -0.037  1.00  0.00    -0.028 C 
ATOM      7  C   UNL     1      -4.584   4.882  -0.001  1.00  0.00     0.039 C 
ATOM      8  C   UNL     1      -6.013   4.633   0.404  1.00  0.00    -0.080 C 
ATOM      9  C   UNL     1      -6.728   5.645   1.268  1.00  0.00     0.039 C 
ENDBRANCH   5   6
ENDBRANCH   4   5
ENDBRANCH   1   4
BRANCH   2  10
ATOM     10  C   UNL     1      -8.148  -1.536   2.193  1.00  0.00     0.183 C 
BRANCH  10  11
ATOM     11  O   UNL     1      -6.908  -2.180   2.277  1.00  0.00    -0.392 OA
ATOM     12  H   UNL     1      -6.429  -1.755   3.035  1.00  0.00     0.210 HD
ENDBRANCH  10  11
ENDBRANCH   2  10
TORSDOF 5
ENDMDL
MODEL 8
REMARK VINA RESULT:    -3.409     14.244     15.855
REMARK INTER + INTRA:          -4.760
REMARK INTER:                  -4.284
REMARK INTRA:                  -0.477
REMARK UNBOUND:                -0.455
REMARK SMILES CC(C)=CCCC(C)=CCO
REMARK SMILES IDX 7 1 9 2 8 3 6 4 5 5 4 6 1 7 2 8 3 9 10 10 11 11
REMARK H PARENT 11 12
REMARK Flexibility Score: inf
ROOT
ATOM      1  C   UNL     1       2.437  -3.661  -7.496  1.00  0.00    -0.075 C 
ATOM      2  C   UNL     1       2.926  -2.518  -6.969  1.00  0.00    -0.000 C 
ATOM      3  C   UNL     1       1.344  -3.646  -8.536  1.00  0.00     0.039 C 
ENDROOT
BRANCH   1   4
ATOM      4  C   UNL     1       2.961  -4.994  -7.002  1.00  0.00     0.034 C 
BRANCH   4   5
ATOM      5  C   UNL     1       4.493  -5.059  -7.064  1.00  0.00     0.032 C 
BRANCH   5   6
ATOM      6  C   UNL     1       5.087  -5.638  -5.803  1.00  0.00    -0.028 C 
ATOM      7  C   UNL     1       6.225  -5.636  -3.625  1.00  0.00     0.039 C 
ATOM      8  C   UNL     1       5.730  -4.920  -4.856  1.00  0.00    -0.080 C 
ATOM      9  C   UNL     1       5.981  -3.439  -5.006  1.00  0.00     0.039 C 
ENDBRANCH   5   6
ENDBRANCH   4   5
ENDBRANCH   1   4
BRANCH   2  10
ATOM     10  C   UNL     1       2.447  -1.151  -7.379  1.00  0.00     0.183 C 
BRANCH  10  11
ATOM     11  O   UNL     1       1.412  -0.743  -6.531  1.00  0.00    -0.392 OA
ATOM     12  H   UNL     1       1.814  -0.089  -5.901  1.00  0.00     0.210 HD
ENDBRANCH  10  11
ENDBRANCH   2  10
TORSDOF 5
ENDMDL
MODEL 9
REMARK VINA RESULT:    -3.329     15.654     16.719
REMARK INTER + INTRA:          -4.659
REMARK INTER:                  -3.999
REMARK INTRA:                  -0.661
REMARK UNBOUND:                -0.455
REMARK SMILES CC(C)=CCCC(C)=CCO
REMARK SMILES IDX 7 1 9 2 8 3 6 4 5 5 4 6 1 7 2 8 3 9 10 10 11 11
REMARK H PARENT 11 12
REMARK Flexibility Score: inf
ROOT
ATOM      1  C   UNL     1       6.621  -4.977  -3.745  1.00  0.00    -0.075 C 
ATOM      2  C   UNL     1       5.869  -3.866  -3.583  1.00  0.00    -0.000 C 
ATOM      3  C   UNL     1       8.081  -4.892  -4.121  1.00  0.00     0.039 C 
ENDROOT
BRANCH   1   4
ATOM      4  C   UNL     1       5.981  -6.341  -3.594  1.00  0.00     0.034 C 
BRANCH   4   5
ATOM      5  C   UNL     1       5.756  -7.015  -4.955  1.00  0.00     0.032 C 
BRANCH   5   6
ATOM      6  C   UNL     1       4.392  -6.706  -5.522  1.00  0.00    -0.028 C 
ATOM      7  C   UNL     1       2.741  -5.662  -7.013  1.00  0.00     0.039 C 
ATOM      8  C   UNL     1       4.156  -5.826  -6.520  1.00  0.00    -0.080 C 
ATOM      9  C   UNL     1       5.259  -4.997  -7.135  1.00  0.00     0.039 C 
ENDBRANCH   5   6
ENDBRANCH   4   5
ENDBRANCH   1   4
BRANCH   2  10
ATOM     10  C   UNL     1       6.413  -2.473  -3.740  1.00  0.00     0.183 C 
BRANCH  10  11
ATOM     11  O   UNL     1       6.684  -1.930  -2.478  1.00  0.00    -0.392 OA
ATOM     12  H   UNL     1       7.276  -2.581  -2.020  1.00  0.00     0.210 HD
ENDBRANCH  10  11
ENDBRANCH   2  10
TORSDOF 5
ENDMDL
