MODEL 1
REMARK VINA RESULT:    -8.386      0.000      0.000
REMARK INTER + INTRA:          -8.631
REMARK INTER:                  -8.631
REMARK INTRA:                   0.000
REMARK UNBOUND:                 0.000
REMARK SMILES C[C@H]1CC[C@@]2(OC1)O[C@H]1C[C@@H]3[C@H]4CC=C5C[C@@H](O)CC[C@@]5(C)[C@@H]4CC[C@]3(C)[C@H]1[C@@H]2C
REMARK SMILES IDX 1 1 2 2 3 3 4 4 5 5 29 6 28 7 9 8 8 9 10 10 11 11 26 12
REMARK SMILES IDX 25 13 24 14 23 15 12 16 13 17 14 18 15 19 21 20 20 21 19 22
REMARK SMILES IDX 17 23 16 24 22 25 27 26 30 27 6 28 7 29 18 30
REMARK H PARENT 18 31
REMARK Flexibility Score: inf
ROOT
ATOM      1  C   UNL     1     184.970 181.425 165.074  1.00  0.00     0.010 C 
ATOM      2  C   UNL     1     185.263 181.238 166.567  1.00  0.00     0.012 C 
ATOM      3  C   UNL     1     184.909 182.490 167.357  1.00  0.00     0.011 C 
ATOM      4  C   UNL     1     185.252 182.248 168.816  1.00  0.00     0.066 C 
ATOM      5  C   UNL     1     184.548 180.985 169.385  1.00  0.00     0.171 C 
ATOM      6  C   UNL     1     183.076 181.285 169.842  1.00  0.00     0.052 C 
ATOM      7  C   UNL     1     183.035 180.754 171.282  1.00  0.00     0.033 C 
ATOM      8  C   UNL     1     184.329 180.009 171.405  1.00  0.00     0.126 C 
ATOM      9  O   UNL     1     185.250 180.658 170.569  1.00  0.00    -0.346 OA
ATOM     10  C   UNL     1     184.745 180.066 172.873  1.00  0.00     0.037 C 
ATOM     11  C   UNL     1     183.798 181.049 173.598  1.00  0.00     0.002 C 
ATOM     12  C   UNL     1     183.013 181.779 172.462  1.00  0.00    -0.024 C 
ATOM     13  C   UNL     1     181.537 182.092 172.848  1.00  0.00     0.008 C 
ATOM     14  C   UNL     1     181.405 182.520 174.310  1.00  0.00     0.005 C 
ATOM     15  C   UNL     1     181.925 181.433 175.303  1.00  0.00     0.003 C 
ATOM     16  C   UNL     1     182.840 180.369 174.622  1.00  0.00     0.000 C 
ATOM     17  C   UNL     1     183.590 179.621 175.742  1.00  0.00     0.031 C 
ATOM     18  C   UNL     1     182.652 179.103 176.800  1.00  0.00    -0.027 C 
ATOM     19  C   UNL     1     181.438 179.641 177.059  1.00  0.00    -0.065 C 
ATOM     20  C   UNL     1     180.814 180.742 176.183  1.00  0.00    -0.008 C 
ATOM     21  C   UNL     1     180.166 181.808 177.124  1.00  0.00     0.014 C 
ATOM     22  C   UNL     1     179.291 181.218 178.250  1.00  0.00     0.033 C 
ATOM     23  C   UNL     1     179.998 180.113 179.062  1.00  0.00     0.118 C 
ATOM     24  C   UNL     1     180.596 179.030 178.159  1.00  0.00     0.063 C 
ATOM     25  C   UNL     1     179.718 180.095 175.291  1.00  0.00     0.016 C 
ATOM     26  C   UNL     1     183.757 183.113 172.156  1.00  0.00     0.012 C 
ATOM     27  C   UNL     1     181.953 180.650 169.005  1.00  0.00     0.014 C 
ATOM     28  O   UNL     1     184.668 179.839 168.528  1.00  0.00    -0.349 OA
ATOM     29  C   UNL     1     184.469 180.057 167.137  1.00  0.00     0.167 C 
ENDROOT
BRANCH  23  30
ATOM     30  O   UNL     1     180.973 180.620 179.941  1.00  0.00    -0.393 OA
ATOM     31  H   UNL     1     180.710 180.405 180.876  1.00  0.00     0.210 HD
ENDBRANCH  23  30
TORSDOF 1
ENDMDL
MODEL 2
REMARK VINA RESULT:    -8.240      5.271      7.157
REMARK INTER + INTRA:          -8.481
REMARK INTER:                  -8.481
REMARK INTRA:                   0.000
REMARK UNBOUND:                 0.000
REMARK SMILES C[C@H]1CC[C@@]2(OC1)O[C@H]1C[C@@H]3[C@H]4CC=C5C[C@@H](O)CC[C@@]5(C)[C@@H]4CC[C@]3(C)[C@H]1[C@@H]2C
REMARK SMILES IDX 1 1 2 2 3 3 4 4 5 5 29 6 28 7 9 8 8 9 10 10 11 11 26 12
REMARK SMILES IDX 25 13 24 14 23 15 12 16 13 17 14 18 15 19 21 20 20 21 19 22
REMARK SMILES IDX 17 23 16 24 22 25 27 26 30 27 6 28 7 29 18 30
REMARK H PARENT 18 31
REMARK Flexibility Score: inf
ROOT
ATOM      1  C   UNL     1     176.970 173.342 166.654  1.00  0.00     0.010 C 
ATOM      2  C   UNL     1     176.567 174.300 167.780  1.00  0.00     0.012 C 
ATOM      3  C   UNL     1     176.617 173.607 169.135  1.00  0.00     0.011 C 
ATOM      4  C   UNL     1     176.177 174.601 170.197  1.00  0.00     0.066 C 
ATOM      5  C   UNL     1     177.030 175.899 170.178  1.00  0.00     0.171 C 
ATOM      6  C   UNL     1     178.375 175.734 170.972  1.00  0.00     0.052 C 
ATOM      7  C   UNL     1     178.365 176.926 171.941  1.00  0.00     0.033 C 
ATOM      8  C   UNL     1     177.214 177.750 171.451  1.00  0.00     0.126 C 
ATOM      9  O   UNL     1     176.283 176.858 170.900  1.00  0.00    -0.346 OA
ATOM     10  C   UNL     1     176.651 178.501 172.655  1.00  0.00     0.037 C 
ATOM     11  C   UNL     1     177.334 177.945 173.924  1.00  0.00     0.002 C 
ATOM     12  C   UNL     1     178.090 176.660 173.456  1.00  0.00    -0.024 C 
ATOM     13  C   UNL     1     179.442 176.446 174.199  1.00  0.00     0.008 C 
ATOM     14  C   UNL     1     179.351 176.825 175.678  1.00  0.00     0.005 C 
ATOM     15  C   UNL     1     178.933 178.313 175.892  1.00  0.00     0.003 C 
ATOM     16  C   UNL     1     178.290 178.958 174.626  1.00  0.00     0.000 C 
ATOM     17  C   UNL     1     177.574 180.246 175.077  1.00  0.00     0.031 C 
ATOM     18  C   UNL     1     178.478 181.140 175.884  1.00  0.00    -0.027 C 
ATOM     19  C   UNL     1     179.547 180.696 176.583  1.00  0.00    -0.065 C 
ATOM     20  C   UNL     1     180.054 179.245 176.493  1.00  0.00    -0.008 C 
ATOM     21  C   UNL     1     180.409 178.760 177.935  1.00  0.00     0.014 C 
ATOM     22  C   UNL     1     181.257 179.756 178.753  1.00  0.00     0.033 C 
ATOM     23  C   UNL     1     180.677 181.185 178.772  1.00  0.00     0.118 C 
ATOM     24  C   UNL     1     180.370 181.700 177.363  1.00  0.00     0.063 C 
ATOM     25  C   UNL     1     181.329 179.227 175.604  1.00  0.00     0.016 C 
ATOM     26  C   UNL     1     177.159 175.441 173.728  1.00  0.00     0.012 C 
ATOM     27  C   UNL     1     179.669 175.732 170.141  1.00  0.00     0.014 C 
ATOM     28  O   UNL     1     177.199 176.444 168.860  1.00  0.00    -0.349 OA
ATOM     29  C   UNL     1     177.494 175.520 167.819  1.00  0.00     0.167 C 
ENDROOT
BRANCH  23  30
ATOM     30  O   UNL     1     179.545 181.304 179.602  1.00  0.00    -0.393 OA
ATOM     31  H   UNL     1     178.842 180.677 179.284  1.00  0.00     0.210 HD
ENDBRANCH  23  30
TORSDOF 1
ENDMDL
MODEL 3
REMARK VINA RESULT:    -8.227      2.544      3.121
REMARK INTER + INTRA:          -8.467
REMARK INTER:                  -8.467
REMARK INTRA:                   0.000
REMARK UNBOUND:                 0.000
REMARK SMILES C[C@H]1CC[C@@]2(OC1)O[C@H]1C[C@@H]3[C@H]4CC=C5C[C@@H](O)CC[C@@]5(C)[C@@H]4CC[C@]3(C)[C@H]1[C@@H]2C
REMARK SMILES IDX 1 1 2 2 3 3 4 4 5 5 29 6 28 7 9 8 8 9 10 10 11 11 26 12
REMARK SMILES IDX 25 13 24 14 23 15 12 16 13 17 14 18 15 19 21 20 20 21 19 22
REMARK SMILES IDX 17 23 16 24 22 25 27 26 30 27 6 28 7 29 18 30
REMARK H PARENT 18 31
REMARK Flexibility Score: inf
ROOT
ATOM      1  C   UNL     1     183.807 187.414 166.672  1.00  0.00     0.010 C 
ATOM      2  C   UNL     1     184.196 186.443 167.792  1.00  0.00     0.012 C 
ATOM      3  C   UNL     1     184.157 187.128 169.151  1.00  0.00     0.011 C 
ATOM      4  C   UNL     1     184.582 186.121 170.206  1.00  0.00     0.066 C 
ATOM      5  C   UNL     1     183.711 184.835 170.179  1.00  0.00     0.171 C 
ATOM      6  C   UNL     1     182.369 185.015 170.975  1.00  0.00     0.052 C 
ATOM      7  C   UNL     1     182.362 183.817 171.936  1.00  0.00     0.033 C 
ATOM      8  C   UNL     1     183.501 182.979 171.441  1.00  0.00     0.126 C 
ATOM      9  O   UNL     1     184.445 183.862 170.895  1.00  0.00    -0.346 OA
ATOM     10  C   UNL     1     184.054 182.213 172.640  1.00  0.00     0.037 C 
ATOM     11  C   UNL     1     183.378 182.771 173.913  1.00  0.00     0.002 C 
ATOM     12  C   UNL     1     182.641 184.069 173.453  1.00  0.00    -0.024 C 
ATOM     13  C   UNL     1     181.292 184.298 174.197  1.00  0.00     0.008 C 
ATOM     14  C   UNL     1     181.378 183.909 175.674  1.00  0.00     0.005 C 
ATOM     15  C   UNL     1     181.775 182.414 175.879  1.00  0.00     0.003 C 
ATOM     16  C   UNL     1     182.408 181.768 174.608  1.00  0.00     0.000 C 
ATOM     17  C   UNL     1     183.106 180.466 175.051  1.00  0.00     0.031 C 
ATOM     18  C   UNL     1     182.190 179.581 175.853  1.00  0.00    -0.027 C 
ATOM     19  C   UNL     1     181.127 180.035 176.555  1.00  0.00    -0.065 C 
ATOM     20  C   UNL     1     180.641 181.493 176.474  1.00  0.00    -0.008 C 
ATOM     21  C   UNL     1     180.293 181.975 177.919  1.00  0.00     0.014 C 
ATOM     22  C   UNL     1     179.431 180.986 178.732  1.00  0.00     0.033 C 
ATOM     23  C   UNL     1     179.991 179.548 178.742  1.00  0.00     0.118 C 
ATOM     24  C   UNL     1     180.290 179.038 177.329  1.00  0.00     0.063 C 
ATOM     25  C   UNL     1     179.366 181.536 175.586  1.00  0.00     0.016 C 
ATOM     26  C   UNL     1     183.589 185.273 173.732  1.00  0.00     0.012 C 
ATOM     27  C   UNL     1     181.075 185.041 170.145  1.00  0.00     0.014 C 
ATOM     28  O   UNL     1     183.534 184.302 168.858  1.00  0.00    -0.349 OA
ATOM     29  C   UNL     1     183.252 185.236 167.823  1.00  0.00     0.167 C 
ENDROOT
BRANCH  23  30
ATOM     30  O   UNL     1     181.121 179.408 179.570  1.00  0.00    -0.393 OA
ATOM     31  H   UNL     1     180.962 179.895 180.422  1.00  0.00     0.210 HD
ENDBRANCH  23  30
TORSDOF 1
ENDMDL
MODEL 4
REMARK VINA RESULT:    -8.196      4.664      6.679
REMARK INTER + INTRA:          -8.436
REMARK INTER:                  -8.436
REMARK INTRA:                   0.000
REMARK UNBOUND:                 0.000
REMARK SMILES C[C@H]1CC[C@@]2(OC1)O[C@H]1C[C@@H]3[C@H]4CC=C5C[C@@H](O)CC[C@@]5(C)[C@@H]4CC[C@]3(C)[C@H]1[C@@H]2C
REMARK SMILES IDX 1 1 2 2 3 3 4 4 5 5 29 6 28 7 9 8 8 9 10 10 11 11 26 12
REMARK SMILES IDX 25 13 24 14 23 15 12 16 13 17 14 18 15 19 21 20 20 21 19 22
REMARK SMILES IDX 17 23 16 24 22 25 27 26 30 27 6 28 7 29 18 30
REMARK H PARENT 18 31
REMARK Flexibility Score: inf
ROOT
ATOM      1  C   UNL     1     175.713 178.056 165.181  1.00  0.00     0.010 C 
ATOM      2  C   UNL     1     175.423 178.447 166.635  1.00  0.00     0.012 C 
ATOM      3  C   UNL     1     175.684 177.282 167.579  1.00  0.00     0.011 C 
ATOM      4  C   UNL     1     175.348 177.727 168.992  1.00  0.00     0.066 C 
ATOM      5  C   UNL     1     176.133 179.001 169.411  1.00  0.00     0.171 C 
ATOM      6  C   UNL     1     177.578 178.661 169.925  1.00  0.00     0.052 C 
ATOM      7  C   UNL     1     177.645 179.364 171.288  1.00  0.00     0.033 C 
ATOM      8  C   UNL     1     176.404 180.204 171.298  1.00  0.00     0.126 C 
ATOM      9  O   UNL     1     175.447 179.520 170.533  1.00  0.00    -0.346 OA
ATOM     10  C   UNL     1     175.975 180.359 172.754  1.00  0.00     0.037 C 
ATOM     11  C   UNL     1     176.846 179.412 173.611  1.00  0.00     0.002 C 
ATOM     12  C   UNL     1     177.587 178.495 172.586  1.00  0.00    -0.024 C 
ATOM     13  C   UNL     1     179.035 178.133 173.032  1.00  0.00     0.008 C 
ATOM     14  C   UNL     1     179.126 177.883 174.538  1.00  0.00     0.005 C 
ATOM     15  C   UNL     1     178.676 179.118 175.379  1.00  0.00     0.003 C 
ATOM     16  C   UNL     1     177.841 180.149 174.557  1.00  0.00     0.000 C 
ATOM     17  C   UNL     1     177.136 181.079 175.565  1.00  0.00     0.031 C 
ATOM     18  C   UNL     1     178.100 181.660 176.565  1.00  0.00    -0.027 C 
ATOM     19  C   UNL     1     179.272 181.078 176.908  1.00  0.00    -0.065 C 
ATOM     20  C   UNL     1     179.825 179.837 176.185  1.00  0.00    -0.008 C 
ATOM     21  C   UNL     1     180.391 178.855 177.261  1.00  0.00     0.014 C 
ATOM     22  C   UNL     1     181.296 179.520 178.319  1.00  0.00     0.033 C 
ATOM     23  C   UNL     1     180.662 180.763 178.976  1.00  0.00     0.118 C 
ATOM     24  C   UNL     1     180.147 181.763 177.937  1.00  0.00     0.063 C 
ATOM     25  C   UNL     1     180.969 180.292 175.237  1.00  0.00     0.016 C 
ATOM     26  C   UNL     1     176.755 177.187 172.437  1.00  0.00     0.012 C 
ATOM     27  C   UNL     1     178.748 179.110 169.034  1.00  0.00     0.014 C 
ATOM     28  O   UNL     1     176.100 180.036 168.417  1.00  0.00    -0.349 OA
ATOM     29  C   UNL     1     176.293 179.633 167.066  1.00  0.00     0.167 C 
ENDROOT
BRANCH  23  30
ATOM     30  O   UNL     1     179.647 180.437 179.896  1.00  0.00    -0.393 OA
ATOM     31  H   UNL     1     179.768 180.981 180.720  1.00  0.00     0.210 HD
ENDBRANCH  23  30
TORSDOF 1
ENDMDL
MODEL 5
REMARK VINA RESULT:    -8.121      3.344      9.078
REMARK INTER + INTRA:          -8.358
REMARK INTER:                  -8.358
REMARK INTRA:                   0.000
REMARK UNBOUND:                 0.000
REMARK SMILES C[C@H]1CC[C@@]2(OC1)O[C@H]1C[C@@H]3[C@H]4CC=C5C[C@@H](O)CC[C@@]5(C)[C@@H]4CC[C@]3(C)[C@H]1[C@@H]2C
REMARK SMILES IDX 1 1 2 2 3 3 4 4 5 5 29 6 28 7 9 8 8 9 10 10 11 11 26 12
REMARK SMILES IDX 25 13 24 14 23 15 12 16 13 17 14 18 15 19 21 20 20 21 19 22
REMARK SMILES IDX 17 23 16 24 22 25 27 26 30 27 6 28 7 29 18 30
REMARK H PARENT 18 31
REMARK Flexibility Score: inf
ROOT
ATOM      1  C   UNL     1     180.020 178.880 179.515  1.00  0.00     0.010 C 
ATOM      2  C   UNL     1     179.760 179.984 178.484  1.00  0.00     0.012 C 
ATOM      3  C   UNL     1     180.712 181.155 178.682  1.00  0.00     0.011 C 
ATOM      4  C   UNL     1     180.380 182.221 177.652  1.00  0.00     0.066 C 
ATOM      5  C   UNL     1     180.430 181.672 176.200  1.00  0.00     0.171 C 
ATOM      6  C   UNL     1     181.891 181.655 175.624  1.00  0.00     0.052 C 
ATOM      7  C   UNL     1     181.758 182.405 174.291  1.00  0.00     0.033 C 
ATOM      8  C   UNL     1     180.274 182.535 174.123  1.00  0.00     0.126 C 
ATOM      9  O   UNL     1     179.727 182.613 175.412  1.00  0.00    -0.346 OA
ATOM     10  C   UNL     1     180.021 183.803 173.311  1.00  0.00     0.037 C 
ATOM     11  C   UNL     1     181.362 184.561 173.183  1.00  0.00     0.002 C 
ATOM     12  C   UNL     1     182.332 183.854 174.182  1.00  0.00    -0.024 C 
ATOM     13  C   UNL     1     183.799 183.792 173.663  1.00  0.00     0.008 C 
ATOM     14  C   UNL     1     184.203 185.071 172.928  1.00  0.00     0.005 C 
ATOM     15  C   UNL     1     183.287 185.373 171.701  1.00  0.00     0.003 C 
ATOM     16  C   UNL     1     181.939 184.590 171.735  1.00  0.00     0.000 C 
ATOM     17  C   UNL     1     180.989 185.263 170.724  1.00  0.00     0.031 C 
ATOM     18  C   UNL     1     181.627 185.417 169.369  1.00  0.00    -0.027 C 
ATOM     19  C   UNL     1     182.963 185.481 169.168  1.00  0.00    -0.065 C 
ATOM     20  C   UNL     1     183.984 185.236 170.293  1.00  0.00    -0.008 C 
ATOM     21  C   UNL     1     185.115 186.307 170.172  1.00  0.00     0.014 C 
ATOM     22  C   UNL     1     185.667 186.494 168.743  1.00  0.00     0.033 C 
ATOM     23  C   UNL     1     184.568 186.718 167.684  1.00  0.00     0.118 C 
ATOM     24  C   UNL     1     183.476 185.647 167.753  1.00  0.00     0.063 C 
ATOM     25  C   UNL     1     184.587 183.815 170.107  1.00  0.00     0.016 C 
ATOM     26  C   UNL     1     182.297 184.652 175.519  1.00  0.00     0.012 C 
ATOM     27  C   UNL     1     182.526 180.273 175.400  1.00  0.00     0.014 C 
ATOM     28  O   UNL     1     179.730 180.428 176.043  1.00  0.00    -0.349 OA
ATOM     29  C   UNL     1     179.928 179.450 177.057  1.00  0.00     0.167 C 
ENDROOT
BRANCH  23  30
ATOM     30  O   UNL     1     184.004 188.007 167.747  1.00  0.00    -0.393 OA
ATOM     31  H   UNL     1     183.049 187.931 168.014  1.00  0.00     0.210 HD
ENDBRANCH  23  30
TORSDOF 1
ENDMDL
MODEL 6
REMARK VINA RESULT:    -8.110      5.311      9.552
REMARK INTER + INTRA:          -8.347
REMARK INTER:                  -8.347
REMARK INTRA:                   0.000
REMARK UNBOUND:                 0.000
REMARK SMILES C[C@H]1CC[C@@]2(OC1)O[C@H]1C[C@@H]3[C@H]4CC=C5C[C@@H](O)CC[C@@]5(C)[C@@H]4CC[C@]3(C)[C@H]1[C@@H]2C
REMARK SMILES IDX 1 1 2 2 3 3 4 4 5 5 29 6 28 7 9 8 8 9 10 10 11 11 26 12
REMARK SMILES IDX 25 13 24 14 23 15 12 16 13 17 14 18 15 19 21 20 20 21 19 22
REMARK SMILES IDX 17 23 16 24 22 25 27 26 30 27 6 28 7 29 18 30
REMARK H PARENT 18 31
REMARK Flexibility Score: inf
ROOT
ATOM      1  C   UNL     1     180.518 181.857 179.541  1.00  0.00     0.010 C 
ATOM      2  C   UNL     1     180.867 180.810 178.477  1.00  0.00     0.012 C 
ATOM      3  C   UNL     1     180.012 179.561 178.635  1.00  0.00     0.011 C 
ATOM      4  C   UNL     1     180.430 178.558 177.574  1.00  0.00     0.066 C 
ATOM      5  C   UNL     1     180.338 179.146 176.139  1.00  0.00     0.171 C 
ATOM      6  C   UNL     1     178.881 179.063 175.559  1.00  0.00     0.052 C 
ATOM      7  C   UNL     1     179.075 178.369 174.204  1.00  0.00     0.033 C 
ATOM      8  C   UNL     1     180.565 178.364 174.037  1.00  0.00     0.126 C 
ATOM      9  O   UNL     1     181.115 178.290 175.325  1.00  0.00    -0.346 OA
ATOM     10  C   UNL     1     180.920 177.147 173.187  1.00  0.00     0.037 C 
ATOM     11  C   UNL     1     179.645 176.287 173.030  1.00  0.00     0.002 C 
ATOM     12  C   UNL     1     178.620 176.882 174.048  1.00  0.00    -0.024 C 
ATOM     13  C   UNL     1     177.153 176.842 173.525  1.00  0.00     0.008 C 
ATOM     14  C   UNL     1     176.854 175.558 172.750  1.00  0.00     0.005 C 
ATOM     15  C   UNL     1     177.793 175.369 171.517  1.00  0.00     0.003 C 
ATOM     16  C   UNL     1     179.074 176.257 171.580  1.00  0.00     0.000 C 
ATOM     17  C   UNL     1     180.075 175.695 170.552  1.00  0.00     0.031 C 
ATOM     18  C   UNL     1     179.453 175.533 169.190  1.00  0.00    -0.027 C 
ATOM     19  C   UNL     1     178.127 175.368 168.983  1.00  0.00    -0.065 C 
ATOM     20  C   UNL     1     177.088 175.495 170.112  1.00  0.00    -0.008 C 
ATOM     21  C   UNL     1     176.048 174.339 169.953  1.00  0.00     0.014 C 
ATOM     22  C   UNL     1     175.514 174.154 168.517  1.00  0.00     0.033 C 
ATOM     23  C   UNL     1     176.628 174.052 167.456  1.00  0.00     0.118 C 
ATOM     24  C   UNL     1     177.631 175.205 167.562  1.00  0.00     0.063 C 
ATOM     25  C   UNL     1     176.374 176.867 169.967  1.00  0.00     0.016 C 
ATOM     26  C   UNL     1     178.718 176.048 175.359  1.00  0.00     0.012 C 
ATOM     27  C   UNL     1     178.137 180.396 175.376  1.00  0.00     0.014 C 
ATOM     28  O   UNL     1     180.935 180.447 176.023  1.00  0.00    -0.349 OA
ATOM     29  C   UNL     1     180.658 181.373 177.067  1.00  0.00     0.167 C 
ENDROOT
BRANCH  23  30
ATOM     30  O   UNL     1     177.294 172.812 167.480  1.00  0.00    -0.393 OA
ATOM     31  H   UNL     1     178.276 172.971 167.509  1.00  0.00     0.210 HD
ENDBRANCH  23  30
TORSDOF 1
ENDMDL
MODEL 7
REMARK VINA RESULT:    -7.891      4.308      6.095
REMARK INTER + INTRA:          -8.121
REMARK INTER:                  -8.121
REMARK INTRA:                   0.000
REMARK UNBOUND:                 0.000
REMARK SMILES C[C@H]1CC[C@@]2(OC1)O[C@H]1C[C@@H]3[C@H]4CC=C5C[C@@H](O)CC[C@@]5(C)[C@@H]4CC[C@]3(C)[C@H]1[C@@H]2C
REMARK SMILES IDX 1 1 2 2 3 3 4 4 5 5 29 6 28 7 9 8 8 9 10 10 11 11 26 12
REMARK SMILES IDX 25 13 24 14 23 15 12 16 13 17 14 18 15 19 21 20 20 21 19 22
REMARK SMILES IDX 17 23 16 24 22 25 27 26 30 27 6 28 7 29 18 30
REMARK H PARENT 18 31
REMARK Flexibility Score: inf
ROOT
ATOM      1  C   UNL     1     176.382 181.038 165.268  1.00  0.00     0.010 C 
ATOM      2  C   UNL     1     176.042 181.081 166.762  1.00  0.00     0.012 C 
ATOM      3  C   UNL     1     176.254 179.721 167.413  1.00  0.00     0.011 C 
ATOM      4  C   UNL     1     175.870 179.827 168.879  1.00  0.00     0.066 C 
ATOM      5  C   UNL     1     176.653 180.951 169.613  1.00  0.00     0.171 C 
ATOM      6  C   UNL     1     178.074 180.471 170.081  1.00  0.00     0.052 C 
ATOM      7  C   UNL     1     178.097 180.831 171.573  1.00  0.00     0.033 C 
ATOM      8  C   UNL     1     176.866 181.669 171.739  1.00  0.00     0.126 C 
ATOM      9  O   UNL     1     175.932 181.204 170.803  1.00  0.00    -0.346 OA
ATOM     10  C   UNL     1     176.385 181.486 173.176  1.00  0.00     0.037 C 
ATOM     11  C   UNL     1     177.212 180.347 173.813  1.00  0.00     0.002 C 
ATOM     12  C   UNL     1     177.981 179.682 172.626  1.00  0.00    -0.024 C 
ATOM     13  C   UNL     1     179.407 179.197 173.022  1.00  0.00     0.008 C 
ATOM     14  C   UNL     1     179.439 178.598 174.429  1.00  0.00     0.005 C 
ATOM     15  C   UNL     1     178.971 179.608 175.523  1.00  0.00     0.003 C 
ATOM     16  C   UNL     1     178.180 180.819 174.940  1.00  0.00     0.000 C 
ATOM     17  C   UNL     1     177.448 181.500 176.114  1.00  0.00     0.031 C 
ATOM     18  C   UNL     1     178.380 181.810 177.255  1.00  0.00    -0.027 C 
ATOM     19  C   UNL     1     179.532 181.140 177.490  1.00  0.00    -0.065 C 
ATOM     20  C   UNL     1     180.097 180.094 176.514  1.00  0.00    -0.008 C 
ATOM     21  C   UNL     1     180.612 178.875 177.346  1.00  0.00     0.014 C 
ATOM     22  C   UNL     1     181.484 179.254 178.561  1.00  0.00     0.033 C 
ATOM     23  C   UNL     1     180.839 180.320 179.471  1.00  0.00     0.118 C 
ATOM     24  C   UNL     1     180.375 181.546 178.681  1.00  0.00     0.063 C 
ATOM     25  C   UNL     1     181.282 180.737 175.739  1.00  0.00     0.016 C 
ATOM     26  C   UNL     1     177.141 178.463 172.144  1.00  0.00     0.012 C 
ATOM     27  C   UNL     1     179.281 181.094 169.361  1.00  0.00     0.014 C 
ATOM     28  O   UNL     1     176.668 182.192 168.891  1.00  0.00    -0.349 OA
ATOM     29  C   UNL     1     176.908 182.115 167.491  1.00  0.00     0.167 C 
ENDROOT
BRANCH  23  30
ATOM     30  O   UNL     1     179.788 179.806 180.253  1.00  0.00    -0.393 OA
ATOM     31  H   UNL     1     178.921 180.041 179.827  1.00  0.00     0.210 HD
ENDBRANCH  23  30
TORSDOF 1
ENDMDL
MODEL 8
REMARK VINA RESULT:    -7.350      1.951      2.354
REMARK INTER + INTRA:          -7.565
REMARK INTER:                  -7.565
REMARK INTRA:                   0.000
REMARK UNBOUND:                 0.000
REMARK SMILES C[C@H]1CC[C@@]2(OC1)O[C@H]1C[C@@H]3[C@H]4CC=C5C[C@@H](O)CC[C@@]5(C)[C@@H]4CC[C@]3(C)[C@H]1[C@@H]2C
REMARK SMILES IDX 1 1 2 2 3 3 4 4 5 5 29 6 28 7 9 8 8 9 10 10 11 11 26 12
REMARK SMILES IDX 25 13 24 14 23 15 12 16 13 17 14 18 15 19 21 20 20 21 19 22
REMARK SMILES IDX 17 23 16 24 22 25 27 26 30 27 6 28 7 29 18 30
REMARK H PARENT 18 31
REMARK Flexibility Score: inf
ROOT
ATOM      1  C   UNL     1     183.721 176.831 165.385  1.00  0.00     0.010 C 
ATOM      2  C   UNL     1     184.130 177.252 166.801  1.00  0.00     0.012 C 
ATOM      3  C   UNL     1     183.739 178.697 167.078  1.00  0.00     0.011 C 
ATOM      4  C   UNL     1     184.200 179.056 168.480  1.00  0.00     0.066 C 
ATOM      5  C   UNL     1     183.634 178.085 169.553  1.00  0.00     0.171 C 
ATOM      6  C   UNL     1     182.178 178.478 169.995  1.00  0.00     0.052 C 
ATOM      7  C   UNL     1     182.277 178.547 171.525  1.00  0.00     0.033 C 
ATOM      8  C   UNL     1     183.629 177.964 171.804  1.00  0.00     0.126 C 
ATOM      9  O   UNL     1     184.438 178.274 170.701  1.00  0.00    -0.346 OA
ATOM     10  C   UNL     1     184.141 178.605 173.092  1.00  0.00     0.037 C 
ATOM     11  C   UNL     1     183.176 179.752 173.468  1.00  0.00     0.002 C 
ATOM     12  C   UNL     1     182.262 179.949 172.217  1.00  0.00    -0.024 C 
ATOM     13  C   UNL     1     180.797 180.326 172.589  1.00  0.00     0.008 C 
ATOM     14  C   UNL     1     180.735 181.283 173.780  1.00  0.00     0.005 C 
ATOM     15  C   UNL     1     181.402 180.691 175.061  1.00  0.00     0.003 C 
ATOM     16  C   UNL     1     182.345 179.484 174.759  1.00  0.00     0.000 C 
ATOM     17  C   UNL     1     183.225 179.264 176.006  1.00  0.00     0.031 C 
ATOM     18  C   UNL     1     182.404 179.160 177.264  1.00  0.00    -0.027 C 
ATOM     19  C   UNL     1     181.174 179.705 177.408  1.00  0.00    -0.065 C 
ATOM     20  C   UNL     1     180.410 180.351 176.239  1.00  0.00    -0.008 C 
ATOM     21  C   UNL     1     179.751 181.671 176.754  1.00  0.00     0.014 C 
ATOM     22  C   UNL     1     179.004 181.530 178.096  1.00  0.00     0.033 C 
ATOM     23  C   UNL     1     179.845 180.858 179.200  1.00  0.00     0.118 C 
ATOM     24  C   UNL     1     180.458 179.535 178.732  1.00  0.00     0.063 C 
ATOM     25  C   UNL     1     179.306 179.362 175.769  1.00  0.00     0.016 C 
ATOM     26  C   UNL     1     182.880 181.089 171.355  1.00  0.00     0.012 C 
ATOM     27  C   UNL     1     181.051 177.521 169.574  1.00  0.00     0.014 C 
ATOM     28  O   UNL     1     183.778 176.703 169.195  1.00  0.00    -0.349 OA
ATOM     29  C   UNL     1     183.467 176.353 167.852  1.00  0.00     0.167 C 
ENDROOT
BRANCH  23  30
ATOM     30  O   UNL     1     180.839 181.707 179.723  1.00  0.00    -0.393 OA
ATOM     31  H   UNL     1     181.679 181.581 179.206  1.00  0.00     0.210 HD
ENDBRANCH  23  30
TORSDOF 1
ENDMDL
MODEL 9
REMARK VINA RESULT:    -7.195      4.406      5.965
REMARK INTER + INTRA:          -7.405
REMARK INTER:                  -7.405
REMARK INTRA:                   0.000
REMARK UNBOUND:                 0.000
REMARK SMILES C[C@H]1CC[C@@]2(OC1)O[C@H]1C[C@@H]3[C@H]4CC=C5C[C@@H](O)CC[C@@]5(C)[C@@H]4CC[C@]3(C)[C@H]1[C@@H]2C
REMARK SMILES IDX 1 1 2 2 3 3 4 4 5 5 29 6 28 7 9 8 8 9 10 10 11 11 26 12
REMARK SMILES IDX 25 13 24 14 23 15 12 16 13 17 14 18 15 19 21 20 20 21 19 22
REMARK SMILES IDX 17 23 16 24 22 25 27 26 30 27 6 28 7 29 18 30
REMARK H PARENT 18 31
REMARK Flexibility Score: inf
ROOT
ATOM      1  C   UNL     1     177.026 185.359 165.742  1.00  0.00     0.010 C 
ATOM      2  C   UNL     1     176.627 184.723 167.078  1.00  0.00     0.012 C 
ATOM      3  C   UNL     1     177.105 183.280 167.163  1.00  0.00     0.011 C 
ATOM      4  C   UNL     1     176.650 182.704 168.493  1.00  0.00     0.066 C 
ATOM      5  C   UNL     1     177.141 183.550 169.700  1.00  0.00     0.171 C 
ATOM      6  C   UNL     1     178.613 183.190 170.115  1.00  0.00     0.052 C 
ATOM      7  C   UNL     1     178.499 182.904 171.619  1.00  0.00     0.033 C 
ATOM      8  C   UNL     1     177.110 183.359 171.946  1.00  0.00     0.126 C 
ATOM      9  O   UNL     1     176.336 183.156 170.794  1.00  0.00    -0.346 OA
ATOM     10  C   UNL     1     176.624 182.518 173.124  1.00  0.00     0.037 C 
ATOM     11  C   UNL     1     177.655 181.391 173.360  1.00  0.00     0.002 C 
ATOM     12  C   UNL     1     178.595 181.425 172.113  1.00  0.00    -0.024 C 
ATOM     13  C   UNL     1     180.076 181.090 172.460  1.00  0.00     0.008 C 
ATOM     14  C   UNL     1     180.184 179.983 173.510  1.00  0.00     0.005 C 
ATOM     15  C   UNL     1     179.464 180.351 174.846  1.00  0.00     0.003 C 
ATOM     16  C   UNL     1     178.452 181.528 174.692  1.00  0.00     0.000 C 
ATOM     17  C   UNL     1     177.544 181.521 175.938  1.00  0.00     0.031 C 
ATOM     18  C   UNL     1     178.341 181.500 177.216  1.00  0.00    -0.027 C 
ATOM     19  C   UNL     1     179.601 181.017 177.310  1.00  0.00    -0.065 C 
ATOM     20  C   UNL     1     180.418 180.586 176.079  1.00  0.00    -0.008 C 
ATOM     21  C   UNL     1     181.153 179.250 176.423  1.00  0.00     0.014 C 
ATOM     22  C   UNL     1     181.874 179.250 177.787  1.00  0.00     0.033 C 
ATOM     23  C   UNL     1     180.978 179.711 178.955  1.00  0.00     0.118 C 
ATOM     24  C   UNL     1     180.288 181.045 178.659  1.00  0.00     0.063 C 
ATOM     25  C   UNL     1     181.463 181.695 175.773  1.00  0.00     0.016 C 
ATOM     26  C   UNL     1     178.061 180.379 171.090  1.00  0.00     0.012 C 
ATOM     27  C   UNL     1     179.682 184.263 169.853  1.00  0.00     0.014 C 
ATOM     28  O   UNL     1     176.913 184.957 169.532  1.00  0.00    -0.349 OA
ATOM     29  C   UNL     1     177.218 185.507 168.255  1.00  0.00     0.167 C 
ENDROOT
BRANCH  23  30
ATOM     30  O   UNL     1     180.034 178.738 179.335  1.00  0.00    -0.393 OA
ATOM     31  H   UNL     1     179.272 178.758 178.697  1.00  0.00     0.210 HD
ENDBRANCH  23  30
TORSDOF 1
ENDMDL
