MODEL 1
REMARK VINA RESULT:    -3.311      0.000      0.000
REMARK INTER + INTRA:          -4.425
REMARK INTER:                  -4.860
REMARK INTRA:                   0.436
REMARK UNBOUND:                 0.436
REMARK SMILES C=C1CC=CC(C)(C)CC=C(C)CCC1
REMARK SMILES IDX 2 1 1 2 15 3 14 4 13 5 11 6 12 7 10 8 3 10 4 11 5 12 6 13
REMARK SMILES IDX 7 14 8 15 9 16
REMARK H PARENT
REMARK Flexibility Score: 60.00
ROOT
ATOM      1  C   UNL     1      31.450  23.108  13.427  1.00  0.00    -0.074 C 
ATOM      2  C   UNL     1      32.125  22.253  14.214  1.00  0.00     0.008 C 
ENDROOT
BRANCH   1   3
ATOM      3  C   UNL     1      30.162  22.648  12.763  1.00  0.00     0.031 C 
BRANCH   3   4
ATOM      4  C   UNL     1      28.927  22.728  13.693  1.00  0.00     0.009 C 
BRANCH   4   5
ATOM      5  C   UNL     1      28.245  24.118  13.707  1.00  0.00     0.030 C 
BRANCH   5   6
ATOM      6  C   UNL     1      27.830  24.574  12.316  1.00  0.00    -0.077 C 
ATOM      7  C   UNL     1      26.860  23.729  11.530  1.00  0.00     0.039 C 
ATOM      8  C   UNL     1      28.316  25.697  11.733  1.00  0.00    -0.027 CG0
ATOM      9  G   UNL     1      29.285  26.661  12.389  1.00  0.00     0.000 G0
ENDBRANCH   5   6
ENDBRANCH   4   5
ENDBRANCH   3   4
ENDBRANCH   1   3
BRANCH   1  10
ATOM     10  C   UNL     1      32.101  24.403  12.980  1.00  0.00     0.057 C 
BRANCH  10  11
ATOM     11  C   UNL     1      31.939  24.758  11.512  1.00  0.00    -0.026 C 
ATOM     12  C   UNL     1      31.206  25.735  10.915  1.00  0.00    -0.024 C 
BRANCH  12  13
ATOM     13  C   UNL     1      30.534  26.991  11.495  1.00  0.00    -0.014 C 
ATOM     14  C   UNL     1      31.605  27.809  12.247  1.00  0.00     0.016 C 
ATOM     15  C   UNL     1      30.055  27.852  10.300  1.00  0.00     0.016 C 
BRANCH  13  16
ATOM     16  C   UNL     1      29.295  26.662  12.381  1.00  0.00     0.038 CG0
ATOM     17  G   UNL     1      28.303  25.716  11.732  1.00  0.00     0.000 G0
ENDBRANCH  13  16
ENDBRANCH  12  13
ENDBRANCH  10  11
ENDBRANCH   1  10
TORSDOF 0
ENDMDL
MODEL 2
REMARK VINA RESULT:    -3.285      1.676      3.571
REMARK INTER + INTRA:          -4.386
REMARK INTER:                  -4.912
REMARK INTRA:                   0.526
REMARK UNBOUND:                 0.436
REMARK SMILES C=C1CC=CC(C)(C)CC=C(C)CCC1
REMARK SMILES IDX 2 1 1 2 15 3 14 4 13 5 11 6 12 7 10 8 3 10 4 11 5 12 6 13
REMARK SMILES IDX 7 14 8 15 9 16
REMARK H PARENT
REMARK Flexibility Score: 60.00
ROOT
ATOM      1  C   UNL     1      28.698  24.590  11.839  1.00  0.00    -0.074 C 
ATOM      2  C   UNL     1      28.345  23.771  12.843  1.00  0.00     0.008 C 
ENDROOT
BRANCH   1   3
ATOM      3  C   UNL     1      29.624  24.074  10.750  1.00  0.00     0.031 C 
BRANCH   3   4
ATOM      4  C   UNL     1      30.841  23.289  11.298  1.00  0.00     0.009 C 
BRANCH   4   5
ATOM      5  C   UNL     1      32.096  24.167  11.529  1.00  0.00     0.030 C 
BRANCH   5   6
ATOM      6  C   UNL     1      31.986  25.015  12.788  1.00  0.00    -0.077 C 
ATOM      7  C   UNL     1      31.914  24.328  14.128  1.00  0.00     0.039 C 
ATOM      8  C   UNL     1      31.921  26.369  12.760  1.00  0.00    -0.027 CG0
ATOM      9  G   UNL     1      31.993  27.213  11.502  1.00  0.00     0.000 G0
ENDBRANCH   5   6
ENDBRANCH   4   5
ENDBRANCH   3   4
ENDBRANCH   1   3
BRANCH   1  10
ATOM     10  C   UNL     1      28.416  26.077  11.938  1.00  0.00     0.057 C 
BRANCH  10  11
ATOM     11  C   UNL     1      28.766  26.905  10.714  1.00  0.00    -0.026 C 
ATOM     12  C   UNL     1      29.686  27.892  10.547  1.00  0.00    -0.024 C 
BRANCH  12  13
ATOM     13  C   UNL     1      30.882  28.315  11.417  1.00  0.00    -0.014 C 
ATOM     14  C   UNL     1      31.422  29.656  10.876  1.00  0.00     0.016 C 
ATOM     15  C   UNL     1      30.344  28.580  12.845  1.00  0.00     0.016 C 
BRANCH  13  16
ATOM     16  C   UNL     1      31.983  27.216  11.511  1.00  0.00     0.038 CG0
ATOM     17  G   UNL     1      31.913  26.377  12.772  1.00  0.00     0.000 G0
ENDBRANCH  13  16
ENDBRANCH  12  13
ENDBRANCH  10  11
ENDBRANCH   1  10
TORSDOF 0
ENDMDL
MODEL 3
REMARK VINA RESULT:    -3.249      1.308      1.984
REMARK INTER + INTRA:          -4.333
REMARK INTER:                  -5.352
REMARK INTRA:                   1.018
REMARK UNBOUND:                 0.436
REMARK SMILES C=C1CC=CC(C)(C)CC=C(C)CCC1
REMARK SMILES IDX 2 1 1 2 15 3 14 4 13 5 11 6 12 7 10 8 3 10 4 11 5 12 6 13
REMARK SMILES IDX 7 14 8 15 9 16
REMARK H PARENT
REMARK Flexibility Score: 60.00
ROOT
ATOM      1  C   UNL     1      31.614  24.238  12.815  1.00  0.00    -0.074 C 
ATOM      2  C   UNL     1      31.925  23.912  14.081  1.00  0.00     0.008 C 
ENDROOT
BRANCH   1   3
ATOM      3  C   UNL     1      31.004  23.184  11.905  1.00  0.00     0.031 C 
BRANCH   3   4
ATOM      4  C   UNL     1      30.443  23.761  10.583  1.00  0.00     0.009 C 
BRANCH   4   5
ATOM      5  C   UNL     1      28.908  23.971  10.596  1.00  0.00     0.030 C 
BRANCH   5   6
ATOM      6  C   UNL     1      28.455  24.863  11.742  1.00  0.00    -0.077 C 
ATOM      7  C   UNL     1      27.638  24.261  12.857  1.00  0.00     0.039 C 
ATOM      8  C   UNL     1      28.728  26.190  11.796  1.00  0.00    -0.027 CG0
ATOM      9  G   UNL     1      29.544  26.947  10.766  1.00  0.00     0.000 G0
ENDBRANCH   5   6
ENDBRANCH   4   5
ENDBRANCH   3   4
ENDBRANCH   1   3
BRANCH   1  10
ATOM     10  C   UNL     1      32.123  25.536  12.219  1.00  0.00     0.057 C 
BRANCH  10  11
ATOM     11  C   UNL     1      31.768  26.802  12.980  1.00  0.00    -0.026 C 
ATOM     12  C   UNL     1      31.128  27.930  12.570  1.00  0.00    -0.024 C 
BRANCH  12  13
ATOM     13  C   UNL     1      30.286  28.214  11.314  1.00  0.00    -0.014 C 
ATOM     14  C   UNL     1      29.305  29.360  11.641  1.00  0.00     0.016 C 
ATOM     15  C   UNL     1      31.251  28.734  10.219  1.00  0.00     0.016 C 
BRANCH  13  16
ATOM     16  C   UNL     1      29.569  26.945  10.764  1.00  0.00     0.038 CG0
ATOM     17  G   UNL     1      28.745  26.202  11.798  1.00  0.00     0.000 G0
ENDBRANCH  13  16
ENDBRANCH  12  13
ENDBRANCH  10  11
ENDBRANCH   1  10
TORSDOF 0
ENDMDL
MODEL 4
REMARK VINA RESULT:    -3.134      1.471      4.157
REMARK INTER + INTRA:          -4.165
REMARK INTER:                  -4.799
REMARK INTRA:                   0.634
REMARK UNBOUND:                 0.436
REMARK SMILES C=C1CC=CC(C)(C)CC=C(C)CCC1
REMARK SMILES IDX 2 1 1 2 15 3 14 4 13 5 11 6 12 7 10 8 3 10 4 11 5 12 6 13
REMARK SMILES IDX 7 14 8 15 9 16
REMARK H PARENT
REMARK Flexibility Score: 60.00
ROOT
ATOM      1  C   UNL     1      31.796  26.640  10.905  1.00  0.00    -0.074 C 
ATOM      2  C   UNL     1      31.944  27.132   9.663  1.00  0.00     0.008 C 
ENDROOT
BRANCH   1   3
ATOM      3  C   UNL     1      31.918  27.578  12.094  1.00  0.00     0.031 C 
BRANCH   3   4
ATOM      4  C   UNL     1      30.961  28.793  12.022  1.00  0.00     0.009 C 
BRANCH   4   5
ATOM      5  C   UNL     1      29.614  28.570  12.753  1.00  0.00     0.030 C 
BRANCH   5   6
ATOM      6  C   UNL     1      28.550  27.978  11.840  1.00  0.00    -0.077 C 
ATOM      7  C   UNL     1      27.766  28.899  10.940  1.00  0.00     0.039 C 
ATOM      8  C   UNL     1      28.251  26.656  11.817  1.00  0.00    -0.027 CG0
ATOM      9  G   UNL     1      28.951  25.597  12.646  1.00  0.00     0.000 G0
ENDBRANCH   5   6
ENDBRANCH   4   5
ENDBRANCH   3   4
ENDBRANCH   1   3
BRANCH   1  10
ATOM     10  C   UNL     1      31.797  25.140  11.131  1.00  0.00     0.057 C 
BRANCH  10  11
ATOM     11  C   UNL     1      30.724  24.355  10.396  1.00  0.00    -0.026 C 
ATOM     12  C   UNL     1      29.541  23.851  10.836  1.00  0.00    -0.024 C 
BRANCH  12  13
ATOM     13  C   UNL     1      28.733  24.136  12.114  1.00  0.00    -0.014 C 
ATOM     14  C   UNL     1      27.253  23.797  11.835  1.00  0.00     0.016 C 
ATOM     15  C   UNL     1      29.232  23.154  13.204  1.00  0.00     0.016 C 
BRANCH  13  16
ATOM     16  C   UNL     1      28.930  25.588  12.645  1.00  0.00     0.038 CG0
ATOM     17  G   UNL     1      28.264  26.653  11.795  1.00  0.00     0.000 G0
ENDBRANCH  13  16
ENDBRANCH  12  13
ENDBRANCH  10  11
ENDBRANCH   1  10
TORSDOF 0
ENDMDL
MODEL 5
REMARK VINA RESULT:    -3.110      1.741      4.961
REMARK INTER + INTRA:          -4.130
REMARK INTER:                  -4.489
REMARK INTRA:                   0.360
REMARK UNBOUND:                 0.436
REMARK SMILES C=C1CC=CC(C)(C)CC=C(C)CCC1
REMARK SMILES IDX 2 1 1 2 15 3 14 4 13 5 11 6 12 7 10 8 3 10 4 11 5 12 6 13
REMARK SMILES IDX 7 14 8 15 9 16
REMARK H PARENT
REMARK Flexibility Score: 60.00
ROOT
ATOM      1  C   UNL     1      28.962  26.968  11.509  1.00  0.00    -0.074 C 
ATOM      2  C   UNL     1      28.497  28.100  12.065  1.00  0.00     0.008 C 
ENDROOT
BRANCH   1   3
ATOM      3  C   UNL     1      29.791  27.051  10.238  1.00  0.00     0.031 C 
BRANCH   3   4
ATOM      4  C   UNL     1      31.267  27.446  10.490  1.00  0.00     0.009 C 
BRANCH   4   5
ATOM      5  C   UNL     1      32.122  26.307  11.097  1.00  0.00     0.030 C 
BRANCH   5   6
ATOM      6  C   UNL     1      32.033  26.261  12.616  1.00  0.00    -0.077 C 
ATOM      7  C   UNL     1      32.036  27.557  13.386  1.00  0.00     0.039 C 
ATOM      8  C   UNL     1      31.979  25.102  13.317  1.00  0.00    -0.027 CG0
ATOM      9  G   UNL     1      31.954  23.718  12.697  1.00  0.00     0.000 G0
ENDBRANCH   5   6
ENDBRANCH   4   5
ENDBRANCH   3   4
ENDBRANCH   1   3
BRANCH   1  10
ATOM     10  C   UNL     1      28.433  25.624  11.971  1.00  0.00     0.057 C 
BRANCH  10  11
ATOM     11  C   UNL     1      28.832  24.425  11.128  1.00  0.00    -0.026 C 
ATOM     12  C   UNL     1      29.768  23.463  11.348  1.00  0.00    -0.024 C 
BRANCH  12  13
ATOM     13  C   UNL     1      30.532  23.068  12.623  1.00  0.00    -0.014 C 
ATOM     14  C   UNL     1      29.647  23.410  13.841  1.00  0.00     0.016 C 
ATOM     15  C   UNL     1      30.704  21.528  12.600  1.00  0.00     0.016 C 
BRANCH  13  16
ATOM     16  C   UNL     1      31.948  23.711  12.706  1.00  0.00     0.038 CG0
ATOM     17  G   UNL     1      31.961  25.105  13.304  1.00  0.00     0.000 G0
ENDBRANCH  13  16
ENDBRANCH  12  13
ENDBRANCH  10  11
ENDBRANCH   1  10
TORSDOF 0
ENDMDL
MODEL 6
REMARK VINA RESULT:    -2.445      2.081      3.615
REMARK INTER + INTRA:          -3.153
REMARK INTER:                  -4.067
REMARK INTRA:                   0.915
REMARK UNBOUND:                 0.436
REMARK SMILES C=C1CC=CC(C)(C)CC=C(C)CCC1
REMARK SMILES IDX 2 1 1 2 15 3 14 4 13 5 11 6 12 7 10 8 3 10 4 11 5 12 6 13
REMARK SMILES IDX 7 14 8 15 9 16
REMARK H PARENT
REMARK Flexibility Score: 60.00
ROOT
ATOM      1  C   UNL     1      29.270  23.374  13.620  1.00  0.00    -0.074 C 
ATOM      2  C   UNL     1      30.054  23.983  14.526  1.00  0.00     0.008 C 
ENDROOT
BRANCH   1   3
ATOM      3  C   UNL     1      29.425  21.880  13.387  1.00  0.00     0.031 C 
BRANCH   3   4
ATOM      4  C   UNL     1      30.647  21.268  14.113  1.00  0.00     0.009 C 
BRANCH   4   5
ATOM      5  C   UNL     1      32.010  21.760  13.566  1.00  0.00     0.030 C 
BRANCH   5   6
ATOM      6  C   UNL     1      32.067  21.736  12.045  1.00  0.00    -0.077 C 
ATOM      7  C   UNL     1      32.097  20.405  11.338  1.00  0.00     0.039 C 
ATOM      8  C   UNL     1      32.121  22.861  11.292  1.00  0.00    -0.027 CG0
ATOM      9  G   UNL     1      32.087  24.273  11.843  1.00  0.00     0.000 G0
ENDBRANCH   5   6
ENDBRANCH   4   5
ENDBRANCH   3   4
ENDBRANCH   1   3
BRANCH   1  10
ATOM     10  C   UNL     1      28.453  24.202  12.646  1.00  0.00     0.057 C 
BRANCH  10  11
ATOM     11  C   UNL     1      28.840  24.084  11.182  1.00  0.00    -0.026 C 
ATOM     12  C   UNL     1      29.888  24.616  10.499  1.00  0.00    -0.024 C 
BRANCH  12  13
ATOM     13  C   UNL     1      31.193  25.262  10.994  1.00  0.00    -0.014 C 
ATOM     14  C   UNL     1      31.931  25.853   9.773  1.00  0.00     0.016 C 
ATOM     15  C   UNL     1      30.802  26.448  11.911  1.00  0.00     0.016 C 
BRANCH  13  16
ATOM     16  C   UNL     1      32.080  24.284  11.820  1.00  0.00     0.038 CG0
ATOM     17  G   UNL     1      32.108  22.867  11.279  1.00  0.00     0.000 G0
ENDBRANCH  13  16
ENDBRANCH  12  13
ENDBRANCH  10  11
ENDBRANCH   1  10
TORSDOF 0
ENDMDL
MODEL 7
REMARK VINA RESULT:    -2.438      1.158      3.677
REMARK INTER + INTRA:          -3.142
REMARK INTER:                  -4.902
REMARK INTRA:                   1.759
REMARK UNBOUND:                 0.436
REMARK SMILES C=C1CC=CC(C)(C)CC=C(C)CCC1
REMARK SMILES IDX 2 1 1 2 15 3 14 4 13 5 11 6 12 7 10 8 3 10 4 11 5 12 6 13
REMARK SMILES IDX 7 14 8 15 9 16
REMARK H PARENT
REMARK Flexibility Score: 60.00
ROOT
ATOM      1  C   UNL     1      31.281  22.237  12.936  1.00  0.00    -0.074 C 
ATOM      2  C   UNL     1      32.011  22.833  13.894  1.00  0.00     0.008 C 
ENDROOT
BRANCH   1   3
ATOM      3  C   UNL     1      31.859  22.106  11.536  1.00  0.00     0.031 C 
BRANCH   3   4
ATOM      4  C   UNL     1      31.960  23.454  10.782  1.00  0.00     0.009 C 
BRANCH   4   5
ATOM      5  C   UNL     1      32.125  24.680  11.715  1.00  0.00     0.030 C 
BRANCH   5   6
ATOM      6  C   UNL     1      31.301  25.874  11.255  1.00  0.00    -0.077 C 
ATOM      7  C   UNL     1      31.961  27.226  11.167  1.00  0.00     0.039 C 
ATOM      8  C   UNL     1      29.984  25.785  10.946  1.00  0.00    -0.027 CG0
ATOM      9  G   UNL     1      29.175  24.502  10.970  1.00  0.00     0.000 G0
ENDBRANCH   5   6
ENDBRANCH   4   5
ENDBRANCH   3   4
ENDBRANCH   1   3
BRANCH   1  10
ATOM     10  C   UNL     1      29.808  21.962  13.166  1.00  0.00     0.057 C 
BRANCH  10  11
ATOM     11  C   UNL     1      29.031  23.050  13.888  1.00  0.00    -0.026 C 
ATOM     12  C   UNL     1      28.390  24.147  13.405  1.00  0.00    -0.024 C 
BRANCH  12  13
ATOM     13  C   UNL     1      27.966  24.521  11.974  1.00  0.00    -0.014 C 
ATOM     14  C   UNL     1      26.813  23.586  11.552  1.00  0.00     0.016 C 
ATOM     15  C   UNL     1      27.394  25.960  12.025  1.00  0.00     0.016 C 
BRANCH  13  16
ATOM     16  C   UNL     1      29.153  24.508  10.966  1.00  0.00     0.038 CG0
ATOM     17  G   UNL     1      29.978  25.781  10.964  1.00  0.00     0.000 G0
ENDBRANCH  13  16
ENDBRANCH  12  13
ENDBRANCH  10  11
ENDBRANCH   1  10
TORSDOF 0
ENDMDL
MODEL 8
REMARK VINA RESULT:    -2.285      1.464      4.036
REMARK INTER + INTRA:          -2.918
REMARK INTER:                  -3.527
REMARK INTRA:                   0.609
REMARK UNBOUND:                 0.436
REMARK SMILES C=C1CC=CC(C)(C)CC=C(C)CCC1
REMARK SMILES IDX 2 1 1 2 15 3 14 4 13 5 11 6 12 7 10 8 3 10 4 11 5 12 6 13
REMARK SMILES IDX 7 14 8 15 9 16
REMARK H PARENT
REMARK Flexibility Score: 60.00
ROOT
ATOM      1  C   UNL     1      30.536  26.730  11.427  1.00  0.00    -0.074 C 
ATOM      2  C   UNL     1      31.029  27.173  10.258  1.00  0.00     0.008 C 
ENDROOT
BRANCH   1   3
ATOM      3  C   UNL     1      29.316  27.411  12.024  1.00  0.00     0.031 C 
BRANCH   3   4
ATOM      4  C   UNL     1      28.014  26.587  11.871  1.00  0.00     0.009 C 
BRANCH   4   5
ATOM      5  C   UNL     1      27.843  25.485  12.946  1.00  0.00     0.030 C 
BRANCH   5   6
ATOM      6  C   UNL     1      27.815  24.087  12.344  1.00  0.00    -0.077 C 
ATOM      7  C   UNL     1      26.767  23.758  11.312  1.00  0.00     0.039 C 
ATOM      8  C   UNL     1      28.675  23.108  12.716  1.00  0.00    -0.027 CG0
ATOM      9  G   UNL     1      29.792  23.276  13.728  1.00  0.00     0.000 G0
ENDBRANCH   5   6
ENDBRANCH   4   5
ENDBRANCH   3   4
ENDBRANCH   1   3
BRANCH   1  10
ATOM     10  C   UNL     1      31.345  25.766  12.274  1.00  0.00     0.057 C 
BRANCH  10  11
ATOM     11  C   UNL     1      31.755  24.469  11.600  1.00  0.00    -0.026 C 
ATOM     12  C   UNL     1      31.775  23.194  12.073  1.00  0.00    -0.024 C 
BRANCH  12  13
ATOM     13  C   UNL     1      31.126  22.569  13.320  1.00  0.00    -0.014 C 
ATOM     14  C   UNL     1      30.966  21.054  13.072  1.00  0.00     0.016 C 
ATOM     15  C   UNL     1      32.123  22.739  14.493  1.00  0.00     0.016 C 
BRANCH  13  16
ATOM     16  C   UNL     1      29.788  23.260  13.719  1.00  0.00     0.038 CG0
ATOM     17  G   UNL     1      28.676  23.090  12.701  1.00  0.00     0.000 G0
ENDBRANCH  13  16
ENDBRANCH  12  13
ENDBRANCH  10  11
ENDBRANCH   1  10
TORSDOF 0
ENDMDL
MODEL 9
REMARK VINA RESULT:    -2.208      1.256      4.508
REMARK INTER + INTRA:          -2.804
REMARK INTER:                  -3.771
REMARK INTRA:                   0.967
REMARK UNBOUND:                 0.436
REMARK SMILES C=C1CC=CC(C)(C)CC=C(C)CCC1
REMARK SMILES IDX 2 1 1 2 15 3 14 4 13 5 11 6 12 7 10 8 3 10 4 11 5 12 6 13
REMARK SMILES IDX 7 14 8 15 9 16
REMARK H PARENT
REMARK Flexibility Score: 60.00
ROOT
ATOM      1  C   UNL     1      30.504  27.654  11.211  1.00  0.00    -0.074 C 
ATOM      2  C   UNL     1      30.126  27.865   9.939  1.00  0.00     0.008 C 
ENDROOT
BRANCH   1   3
ATOM      3  C   UNL     1      31.932  27.222  11.499  1.00  0.00     0.031 C 
BRANCH   3   4
ATOM      4  C   UNL     1      32.122  25.686  11.503  1.00  0.00     0.009 C 
BRANCH   4   5
ATOM      5  C   UNL     1      31.856  25.028  12.880  1.00  0.00     0.030 C 
BRANCH   5   6
ATOM      6  C   UNL     1      31.369  23.591  12.752  1.00  0.00    -0.077 C 
ATOM      7  C   UNL     1      32.125  22.499  13.465  1.00  0.00     0.039 C 
ATOM      8  C   UNL     1      30.298  23.241  11.999  1.00  0.00    -0.027 CG0
ATOM      9  G   UNL     1      29.425  24.214  11.231  1.00  0.00     0.000 G0
ENDBRANCH   5   6
ENDBRANCH   4   5
ENDBRANCH   3   4
ENDBRANCH   1   3
BRANCH   1  10
ATOM     10  C   UNL     1      29.460  27.567  12.307  1.00  0.00     0.057 C 
BRANCH  10  11
ATOM     11  C   UNL     1      28.060  27.175  11.865  1.00  0.00    -0.026 C 
ATOM     12  C   UNL     1      27.530  25.953  11.592  1.00  0.00    -0.024 C 
BRANCH  12  13
ATOM     13  C   UNL     1      28.039  24.536  11.909  1.00  0.00    -0.014 C 
ATOM     14  C   UNL     1      28.079  24.370  13.443  1.00  0.00     0.016 C 
ATOM     15  C   UNL     1      26.987  23.536  11.366  1.00  0.00     0.016 C 
BRANCH  13  16
ATOM     16  C   UNL     1      29.405  24.216  11.231  1.00  0.00     0.038 CG0
ATOM     17  G   UNL     1      30.267  23.240  12.008  1.00  0.00     0.000 G0
ENDBRANCH  13  16
ENDBRANCH  12  13
ENDBRANCH  10  11
ENDBRANCH   1  10
TORSDOF 0
ENDMDL
