MODEL 1
REMARK VINA RESULT:    -1.122      0.000      0.000
REMARK INTER + INTRA:          -1.899
REMARK INTER:                  -1.450
REMARK INTRA:                  -0.449
REMARK UNBOUND:                -0.449
REMARK SMILES CCCCCCC(=O)[O-]
REMARK SMILES IDX 5 1 6 2 7 3 8 4 9 5 4 6 3 7 2 8 1 9
REMARK H PARENT
REMARK Flexibility Score: inf
ROOT
ATOM      1  C   UNL     1     -13.389 -21.740  84.303  1.00  0.00     0.006 C 
ENDROOT
BRANCH   1   2
ATOM      2  C   UNL     1     -12.916 -22.418  83.013  1.00  0.00     0.053 C 
BRANCH   2   3
ATOM      3  C   UNL     1     -14.061 -22.610  82.070  1.00  0.00     0.041 C 
ATOM      4  O   UNL     1     -14.148 -23.660  81.382  1.00  0.00    -0.550 OA
ATOM      5  O   UNL     1     -15.007 -21.604  81.913  1.00  0.00    -0.550 OA
ENDBRANCH   2   3
ENDBRANCH   1   2
BRANCH   1   6
ATOM      6  C   UNL     1     -13.920 -22.776  85.305  1.00  0.00     0.000 C 
BRANCH   6   7
ATOM      7  C   UNL     1     -15.301 -22.404  85.866  1.00  0.00    -0.000 C 
BRANCH   7   8
ATOM      8  C   UNL     1     -16.452 -22.873  84.963  1.00  0.00    -0.003 C 
ATOM      9  C   UNL     1     -16.270 -24.332  84.553  1.00  0.00     0.004 C 
ENDBRANCH   7   8
ENDBRANCH   6   7
ENDBRANCH   1   6
TORSDOF 5
ENDMDL
MODEL 2
REMARK VINA RESULT:    -1.099      1.927      3.412
REMARK INTER + INTRA:          -1.869
REMARK INTER:                  -1.502
REMARK INTRA:                  -0.367
REMARK UNBOUND:                -0.449
REMARK SMILES CCCCCCC(=O)[O-]
REMARK SMILES IDX 5 1 6 2 7 3 8 4 9 5 4 6 3 7 2 8 1 9
REMARK H PARENT
REMARK Flexibility Score: inf
ROOT
ATOM      1  C   UNL     1     -13.517 -21.452  81.194  1.00  0.00     0.006 C 
ENDROOT
BRANCH   1   2
ATOM      2  C   UNL     1     -14.608 -20.914  80.263  1.00  0.00     0.053 C 
BRANCH   2   3
ATOM      3  C   UNL     1     -15.902 -20.770  81.001  1.00  0.00     0.041 C 
ATOM      4  O   UNL     1     -16.590 -19.724  80.876  1.00  0.00    -0.550 OA
ATOM      5  O   UNL     1     -16.324 -21.771  81.866  1.00  0.00    -0.550 OA
ENDBRANCH   2   3
ENDBRANCH   1   2
BRANCH   1   6
ATOM      6  C   UNL     1     -12.968 -20.338  82.097  1.00  0.00     0.000 C 
BRANCH   6   7
ATOM      7  C   UNL     1     -12.875 -20.761  83.571  1.00  0.00    -0.000 C 
BRANCH   7   8
ATOM      8  C   UNL     1     -13.365 -22.197  83.806  1.00  0.00    -0.003 C 
ATOM      9  C   UNL     1     -14.236 -22.284  85.055  1.00  0.00     0.004 C 
ENDBRANCH   7   8
ENDBRANCH   6   7
ENDBRANCH   1   6
TORSDOF 5
ENDMDL
MODEL 3
REMARK VINA RESULT:    -1.098      1.336      2.861
REMARK INTER + INTRA:          -1.868
REMARK INTER:                  -1.409
REMARK INTRA:                  -0.459
REMARK UNBOUND:                -0.449
REMARK SMILES CCCCCCC(=O)[O-]
REMARK SMILES IDX 5 1 6 2 7 3 8 4 9 5 4 6 3 7 2 8 1 9
REMARK H PARENT
REMARK Flexibility Score: inf
ROOT
ATOM      1  C   UNL     1     -16.393 -23.215  85.009  1.00  0.00     0.006 C 
ENDROOT
BRANCH   1   2
ATOM      2  C   UNL     1     -16.535 -22.805  83.540  1.00  0.00     0.053 C 
BRANCH   2   3
ATOM      3  C   UNL     1     -15.761 -23.734  82.659  1.00  0.00     0.041 C 
ATOM      4  O   UNL     1     -15.433 -24.876  83.074  1.00  0.00    -0.550 OA
ATOM      5  O   UNL     1     -15.358 -23.319  81.396  1.00  0.00    -0.550 OA
ENDBRANCH   2   3
ENDBRANCH   1   2
BRANCH   1   6
ATOM      6  C   UNL     1     -15.271 -22.421  85.695  1.00  0.00     0.000 C 
BRANCH   6   7
ATOM      7  C   UNL     1     -14.035 -23.281  85.995  1.00  0.00    -0.000 C 
BRANCH   7   8
ATOM      8  C   UNL     1     -12.897 -23.054  84.988  1.00  0.00    -0.003 C 
ATOM      9  C   UNL     1     -13.033 -21.698  84.301  1.00  0.00     0.004 C 
ENDBRANCH   7   8
ENDBRANCH   6   7
ENDBRANCH   1   6
TORSDOF 5
ENDMDL
MODEL 4
REMARK VINA RESULT:    -1.097      2.502      3.859
REMARK INTER + INTRA:          -1.866
REMARK INTER:                  -1.689
REMARK INTRA:                  -0.177
REMARK UNBOUND:                -0.449
REMARK SMILES CCCCCCC(=O)[O-]
REMARK SMILES IDX 5 1 6 2 7 3 8 4 9 5 4 6 3 7 2 8 1 9
REMARK H PARENT
REMARK Flexibility Score: inf
ROOT
ATOM      1  C   UNL     1     -13.181 -21.354  84.079  1.00  0.00     0.006 C 
ENDROOT
BRANCH   1   2
ATOM      2  C   UNL     1     -13.004 -22.670  84.842  1.00  0.00     0.053 C 
BRANCH   2   3
ATOM      3  C   UNL     1     -14.306 -23.114  85.432  1.00  0.00     0.041 C 
ATOM      4  O   UNL     1     -14.606 -24.336  85.461  1.00  0.00    -0.550 OA
ATOM      5  O   UNL     1     -15.211 -22.172  85.904  1.00  0.00    -0.550 OA
ENDBRANCH   2   3
ENDBRANCH   1   2
BRANCH   1   6
ATOM      6  C   UNL     1     -13.691 -21.610  82.653  1.00  0.00     0.000 C 
BRANCH   6   7
ATOM      7  C   UNL     1     -13.438 -20.423  81.712  1.00  0.00    -0.000 C 
BRANCH   7   8
ATOM      8  C   UNL     1     -14.569 -20.228  80.690  1.00  0.00    -0.003 C 
ATOM      9  C   UNL     1     -15.824 -20.989  81.107  1.00  0.00     0.004 C 
ENDBRANCH   7   8
ENDBRANCH   6   7
ENDBRANCH   1   6
TORSDOF 5
ENDMDL
MODEL 5
REMARK VINA RESULT:    -1.075      2.135      2.884
REMARK INTER + INTRA:          -1.838
REMARK INTER:                  -1.689
REMARK INTRA:                  -0.149
REMARK UNBOUND:                -0.449
REMARK SMILES CCCCCCC(=O)[O-]
REMARK SMILES IDX 5 1 6 2 7 3 8 4 9 5 4 6 3 7 2 8 1 9
REMARK H PARENT
REMARK Flexibility Score: inf
ROOT
ATOM      1  C   UNL     1     -13.777 -21.466  82.554  1.00  0.00     0.006 C 
ENDROOT
BRANCH   1   2
ATOM      2  C   UNL     1     -13.281 -20.303  81.690  1.00  0.00     0.053 C 
BRANCH   2   3
ATOM      3  C   UNL     1     -14.295 -19.955  80.645  1.00  0.00     0.041 C 
ATOM      4  O   UNL     1     -13.943 -19.369  79.589  1.00  0.00    -0.550 OA
ATOM      5  O   UNL     1     -15.639 -20.234  80.862  1.00  0.00    -0.550 OA
ENDBRANCH   2   3
ENDBRANCH   1   2
BRANCH   1   6
ATOM      6  C   UNL     1     -13.204 -21.377  83.976  1.00  0.00     0.000 C 
BRANCH   6   7
ATOM      7  C   UNL     1     -13.904 -22.328  84.958  1.00  0.00    -0.000 C 
BRANCH   7   8
ATOM      8  C   UNL     1     -12.972 -23.435  85.473  1.00  0.00    -0.003 C 
ATOM      9  C   UNL     1     -12.913 -24.605  84.495  1.00  0.00     0.004 C 
ENDBRANCH   7   8
ENDBRANCH   6   7
ENDBRANCH   1   6
TORSDOF 5
ENDMDL
MODEL 6
REMARK VINA RESULT:    -1.074      1.677      3.302
REMARK INTER + INTRA:          -1.837
REMARK INTER:                  -1.498
REMARK INTRA:                  -0.339
REMARK UNBOUND:                -0.449
REMARK SMILES CCCCCCC(=O)[O-]
REMARK SMILES IDX 5 1 6 2 7 3 8 4 9 5 4 6 3 7 2 8 1 9
REMARK H PARENT
REMARK Flexibility Score: inf
ROOT
ATOM      1  C   UNL     1     -15.849 -22.797  85.098  1.00  0.00     0.006 C 
ENDROOT
BRANCH   1   2
ATOM      2  C   UNL     1     -15.939 -23.374  83.682  1.00  0.00     0.053 C 
BRANCH   2   3
ATOM      3  C   UNL     1     -16.845 -22.540  82.831  1.00  0.00     0.041 C 
ATOM      4  O   UNL     1     -18.020 -22.292  83.210  1.00  0.00    -0.550 OA
ATOM      5  O   UNL     1     -16.408 -22.079  81.596  1.00  0.00    -0.550 OA
ENDBRANCH   2   3
ENDBRANCH   1   2
BRANCH   1   6
ATOM      6  C   UNL     1     -14.388 -22.537  85.492  1.00  0.00     0.000 C 
BRANCH   6   7
ATOM      7  C   UNL     1     -13.442 -22.517  84.283  1.00  0.00    -0.000 C 
BRANCH   7   8
ATOM      8  C   UNL     1     -12.949 -21.103  83.941  1.00  0.00    -0.003 C 
ATOM      9  C   UNL     1     -13.242 -20.755  82.485  1.00  0.00     0.004 C 
ENDBRANCH   7   8
ENDBRANCH   6   7
ENDBRANCH   1   6
TORSDOF 5
ENDMDL
MODEL 7
REMARK VINA RESULT:    -1.028      2.587      4.284
REMARK INTER + INTRA:          -1.777
REMARK INTER:                  -1.623
REMARK INTRA:                  -0.154
REMARK UNBOUND:                -0.449
REMARK SMILES CCCCCCC(=O)[O-]
REMARK SMILES IDX 5 1 6 2 7 3 8 4 9 5 4 6 3 7 2 8 1 9
REMARK H PARENT
REMARK Flexibility Score: inf
ROOT
ATOM      1  C   UNL     1     -14.373 -22.275  84.256  1.00  0.00     0.006 C 
ENDROOT
BRANCH   1   2
ATOM      2  C   UNL     1     -14.842 -22.542  85.690  1.00  0.00     0.053 C 
BRANCH   2   3
ATOM      3  C   UNL     1     -16.313 -22.812  85.719  1.00  0.00     0.041 C 
ATOM      4  O   UNL     1     -17.129 -21.866  85.873  1.00  0.00    -0.550 OA
ATOM      5  O   UNL     1     -16.782 -24.117  85.628  1.00  0.00    -0.550 OA
ENDBRANCH   2   3
ENDBRANCH   1   2
BRANCH   1   6
ATOM      6  C   UNL     1     -13.071 -21.461  84.246  1.00  0.00     0.000 C 
BRANCH   6   7
ATOM      7  C   UNL     1     -12.875 -20.671  82.944  1.00  0.00    -0.000 C 
BRANCH   7   8
ATOM      8  C   UNL     1     -13.937 -21.003  81.885  1.00  0.00    -0.003 C 
ATOM      9  C   UNL     1     -13.953 -19.957  80.775  1.00  0.00     0.004 C 
ENDBRANCH   7   8
ENDBRANCH   6   7
ENDBRANCH   1   6
TORSDOF 5
ENDMDL
MODEL 8
REMARK VINA RESULT:    -0.961      2.669      3.777
REMARK INTER + INTRA:          -1.691
REMARK INTER:                  -1.341
REMARK INTRA:                  -0.350
REMARK UNBOUND:                -0.449
REMARK SMILES CCCCCCC(=O)[O-]
REMARK SMILES IDX 5 1 6 2 7 3 8 4 9 5 4 6 3 7 2 8 1 9
REMARK H PARENT
REMARK Flexibility Score: inf
ROOT
ATOM      1  C   UNL     1     -14.752 -22.539  83.008  1.00  0.00     0.006 C 
ENDROOT
BRANCH   1   2
ATOM      2  C   UNL     1     -13.823 -21.955  84.077  1.00  0.00     0.053 C 
BRANCH   2   3
ATOM      3  C   UNL     1     -13.993 -22.683  85.373  1.00  0.00     0.041 C 
ATOM      4  O   UNL     1     -13.114 -23.495  85.764  1.00  0.00    -0.550 OA
ATOM      5  O   UNL     1     -15.147 -22.503  86.125  1.00  0.00    -0.550 OA
ENDBRANCH   2   3
ENDBRANCH   1   2
BRANCH   1   6
ATOM      6  C   UNL     1     -13.961 -22.949  81.757  1.00  0.00     0.000 C 
BRANCH   6   7
ATOM      7  C   UNL     1     -12.875 -23.993  82.059  1.00  0.00    -0.000 C 
BRANCH   7   8
ATOM      8  C   UNL     1     -13.388 -25.435  81.927  1.00  0.00    -0.003 C 
ATOM      9  C   UNL     1     -13.622 -26.063  83.298  1.00  0.00     0.004 C 
ENDBRANCH   7   8
ENDBRANCH   6   7
ENDBRANCH   1   6
TORSDOF 5
ENDMDL
MODEL 9
REMARK VINA RESULT:    -0.957      1.502      2.183
REMARK INTER + INTRA:          -1.685
REMARK INTER:                  -1.223
REMARK INTRA:                  -0.463
REMARK UNBOUND:                -0.449
REMARK SMILES CCCCCCC(=O)[O-]
REMARK SMILES IDX 5 1 6 2 7 3 8 4 9 5 4 6 3 7 2 8 1 9
REMARK H PARENT
REMARK Flexibility Score: inf
ROOT
ATOM      1  C   UNL     1     -14.753 -22.710  85.958  1.00  0.00     0.006 C 
ENDROOT
BRANCH   1   2
ATOM      2  C   UNL     1     -13.945 -22.123  84.797  1.00  0.00     0.053 C 
BRANCH   2   3
ATOM      3  C   UNL     1     -13.749 -23.146  83.723  1.00  0.00     0.041 C 
ATOM      4  O   UNL     1     -13.612 -24.361  84.022  1.00  0.00    -0.550 OA
ATOM      5  O   UNL     1     -13.668 -22.751  82.394  1.00  0.00    -0.550 OA
ENDBRANCH   2   3
ENDBRANCH   1   2
BRANCH   1   6
ATOM      6  C   UNL     1     -16.261 -22.568  85.704  1.00  0.00     0.000 C 
BRANCH   6   7
ATOM      7  C   UNL     1     -16.984 -23.922  85.649  1.00  0.00    -0.000 C 
BRANCH   7   8
ATOM      8  C   UNL     1     -17.289 -24.370  84.212  1.00  0.00    -0.003 C 
ATOM      9  C   UNL     1     -17.490 -23.170  83.292  1.00  0.00     0.004 C 
ENDBRANCH   7   8
ENDBRANCH   6   7
ENDBRANCH   1   6
TORSDOF 5
ENDMDL
