MODEL 1
REMARK VINA RESULT:    -3.310      0.000      0.000
REMARK INTER + INTRA:          -4.523
REMARK INTER:                  -4.277
REMARK INTRA:                  -0.246
REMARK UNBOUND:                -0.246
REMARK SMILES C=CC(=O)CCCCC
REMARK SMILES IDX 6 1 7 2 8 3 9 4 5 5 3 6 4 7 2 8 1 9
REMARK H PARENT
REMARK Flexibility Score: inf
ROOT
ATOM      1  C   UNL     1       0.754  -3.626  15.944  1.00  0.00     0.008 C 
ENDROOT
BRANCH   1   2
ATOM      2  C   UNL     1       1.304  -2.514  15.041  1.00  0.00     0.000 C 
BRANCH   2   3
ATOM      3  C   UNL     1       2.781  -2.242  15.343  1.00  0.00    -0.003 C 
ATOM      4  C   UNL     1       3.562  -1.958  14.063  1.00  0.00     0.004 C 
ENDBRANCH   2   3
ENDBRANCH   1   2
BRANCH   1   5
ATOM      5  C   UNL     1       1.543  -3.709  17.256  1.00  0.00     0.080 C 
BRANCH   5   6
ATOM      6  C   UNL     1       0.816  -4.561  18.254  1.00  0.00     0.155 C 
ATOM      7  O   UNL     1       1.465  -5.109  19.187  1.00  0.00    -0.295 OA
BRANCH   6   8
ATOM      8  C   UNL     1      -0.649  -4.714  18.166  1.00  0.00     0.039 C 
ATOM      9  C   UNL     1      -1.487  -4.038  18.949  1.00  0.00     0.012 C 
ENDBRANCH   6   8
ENDBRANCH   5   6
ENDBRANCH   1   5
TORSDOF 5
ENDMDL
MODEL 2
REMARK VINA RESULT:    -3.239      1.233      1.673
REMARK INTER + INTRA:          -4.432
REMARK INTER:                  -4.178
REMARK INTRA:                  -0.255
REMARK UNBOUND:                -0.246
REMARK SMILES C=CC(=O)CCCCC
REMARK SMILES IDX 6 1 7 2 8 3 9 4 5 5 3 6 4 7 2 8 1 9
REMARK H PARENT
REMARK Flexibility Score: inf
ROOT
ATOM      1  C   UNL     1       0.988  -3.402  15.648  1.00  0.00     0.008 C 
ENDROOT
BRANCH   1   2
ATOM      2  C   UNL     1       1.408  -2.101  14.952  1.00  0.00     0.000 C 
BRANCH   2   3
ATOM      3  C   UNL     1       0.644  -0.901  15.523  1.00  0.00    -0.003 C 
ATOM      4  C   UNL     1       0.215   0.056  14.414  1.00  0.00     0.004 C 
ENDBRANCH   2   3
ENDBRANCH   1   2
BRANCH   1   5
ATOM      5  C   UNL     1       1.799  -3.626  16.929  1.00  0.00     0.080 C 
BRANCH   5   6
ATOM      6  C   UNL     1       0.934  -4.216  18.003  1.00  0.00     0.155 C 
ATOM      7  O   UNL     1       1.465  -4.913  18.911  1.00  0.00    -0.295 OA
BRANCH   6   8
ATOM      8  C   UNL     1      -0.516  -3.944  18.016  1.00  0.00     0.039 C 
ATOM      9  C   UNL     1      -1.426  -4.907  17.879  1.00  0.00     0.012 C 
ENDBRANCH   6   8
ENDBRANCH   5   6
ENDBRANCH   1   5
TORSDOF 5
ENDMDL
MODEL 3
REMARK VINA RESULT:    -3.172      2.511      4.988
REMARK INTER + INTRA:          -4.345
REMARK INTER:                  -4.107
REMARK INTRA:                  -0.238
REMARK UNBOUND:                -0.246
REMARK SMILES C=CC(=O)CCCCC
REMARK SMILES IDX 6 1 7 2 8 3 9 4 5 5 3 6 4 7 2 8 1 9
REMARK H PARENT
REMARK Flexibility Score: inf
ROOT
ATOM      1  C   UNL     1       1.080  -2.407  16.298  1.00  0.00     0.008 C 
ENDROOT
BRANCH   1   2
ATOM      2  C   UNL     1       0.613  -3.858  16.472  1.00  0.00     0.000 C 
BRANCH   2   3
ATOM      3  C   UNL     1       0.054  -4.089  17.880  1.00  0.00    -0.003 C 
ATOM      4  C   UNL     1      -1.280  -4.829  17.827  1.00  0.00     0.004 C 
ENDBRANCH   2   3
ENDBRANCH   1   2
BRANCH   1   5
ATOM      5  C   UNL     1       1.461  -2.123  14.841  1.00  0.00     0.080 C 
BRANCH   5   6
ATOM      6  C   UNL     1       2.952  -2.132  14.675  1.00  0.00     0.155 C 
ATOM      7  O   UNL     1       3.448  -1.897  13.539  1.00  0.00    -0.295 OA
BRANCH   6   8
ATOM      8  C   UNL     1       3.823  -2.371  15.841  1.00  0.00     0.039 C 
ATOM      9  C   UNL     1       4.575  -3.464  15.959  1.00  0.00     0.012 C 
ENDBRANCH   6   8
ENDBRANCH   5   6
ENDBRANCH   1   5
TORSDOF 5
ENDMDL
MODEL 4
REMARK VINA RESULT:    -3.153      8.528      9.078
REMARK INTER + INTRA:          -4.321
REMARK INTER:                  -3.887
REMARK INTRA:                  -0.434
REMARK UNBOUND:                -0.246
REMARK SMILES C=CC(=O)CCCCC
REMARK SMILES IDX 6 1 7 2 8 3 9 4 5 5 3 6 4 7 2 8 1 9
REMARK H PARENT
REMARK Flexibility Score: inf
ROOT
ATOM      1  C   UNL     1       3.231   2.439  23.344  1.00  0.00     0.008 C 
ENDROOT
BRANCH   1   2
ATOM      2  C   UNL     1       2.410   3.730  23.444  1.00  0.00     0.000 C 
BRANCH   2   3
ATOM      3  C   UNL     1       1.679   4.020  22.128  1.00  0.00    -0.003 C 
ATOM      4  C   UNL     1       0.212   4.360  22.376  1.00  0.00     0.004 C 
ENDBRANCH   2   3
ENDBRANCH   1   2
BRANCH   1   5
ATOM      5  C   UNL     1       3.232   1.683  24.677  1.00  0.00     0.080 C 
BRANCH   5   6
ATOM      6  C   UNL     1       2.164   0.630  24.687  1.00  0.00     0.155 C 
ATOM      7  O   UNL     1       1.878   0.051  25.771  1.00  0.00    -0.295 OA
BRANCH   6   8
ATOM      8  C   UNL     1       1.428   0.313  23.448  1.00  0.00     0.039 C 
ATOM      9  C   UNL     1       0.103   0.411  23.358  1.00  0.00     0.012 C 
ENDBRANCH   6   8
ENDBRANCH   5   6
ENDBRANCH   1   5
TORSDOF 5
ENDMDL
MODEL 5
REMARK VINA RESULT:    -3.128      2.109      5.105
REMARK INTER + INTRA:          -4.288
REMARK INTER:                  -4.104
REMARK INTRA:                  -0.184
REMARK UNBOUND:                -0.246
REMARK SMILES C=CC(=O)CCCCC
REMARK SMILES IDX 6 1 7 2 8 3 9 4 5 5 3 6 4 7 2 8 1 9
REMARK H PARENT
REMARK Flexibility Score: inf
ROOT
ATOM      1  C   UNL     1       0.724  -3.010  17.138  1.00  0.00     0.008 C 
ENDROOT
BRANCH   1   2
ATOM      2  C   UNL     1       0.467  -4.307  17.916  1.00  0.00     0.000 C 
BRANCH   2   3
ATOM      3  C   UNL     1      -1.029  -4.638  17.951  1.00  0.00    -0.003 C 
ATOM      4  C   UNL     1      -1.725  -3.921  19.105  1.00  0.00     0.004 C 
ENDBRANCH   2   3
ENDBRANCH   1   2
BRANCH   1   5
ATOM      5  C   UNL     1       1.030  -3.303  15.666  1.00  0.00     0.080 C 
BRANCH   5   6
ATOM      6  C   UNL     1       1.450  -2.050  14.956  1.00  0.00     0.155 C 
ATOM      7  O   UNL     1       0.622  -1.107  14.826  1.00  0.00    -0.295 OA
BRANCH   6   8
ATOM      8  C   UNL     1       2.831  -1.913  14.456  1.00  0.00     0.039 C 
ATOM      9  C   UNL     1       3.871  -2.479  15.065  1.00  0.00     0.012 C 
ENDBRANCH   6   8
ENDBRANCH   5   6
ENDBRANCH   1   5
TORSDOF 5
ENDMDL
MODEL 6
REMARK VINA RESULT:    -3.124      1.605      4.710
REMARK INTER + INTRA:          -4.284
REMARK INTER:                  -4.115
REMARK INTRA:                  -0.169
REMARK UNBOUND:                -0.246
REMARK SMILES C=CC(=O)CCCCC
REMARK SMILES IDX 6 1 7 2 8 3 9 4 5 5 3 6 4 7 2 8 1 9
REMARK H PARENT
REMARK Flexibility Score: inf
ROOT
ATOM      1  C   UNL     1       0.486  -3.926  17.564  1.00  0.00     0.008 C 
ENDROOT
BRANCH   1   2
ATOM      2  C   UNL     1      -0.889  -4.552  17.825  1.00  0.00     0.000 C 
BRANCH   2   3
ATOM      3  C   UNL     1      -1.482  -4.044  19.144  1.00  0.00    -0.003 C 
ATOM      4  C   UNL     1      -0.544  -4.327  20.314  1.00  0.00     0.004 C 
ENDBRANCH   2   3
ENDBRANCH   1   2
BRANCH   1   5
ATOM      5  C   UNL     1       0.741  -3.766  16.061  1.00  0.00     0.080 C 
BRANCH   5   6
ATOM      6  C   UNL     1       1.929  -2.882  15.820  1.00  0.00     0.155 C 
ATOM      7  O   UNL     1       3.033  -3.169  16.361  1.00  0.00    -0.295 OA
BRANCH   6   8
ATOM      8  C   UNL     1       1.812  -1.716  14.924  1.00  0.00     0.039 C 
ATOM      9  C   UNL     1       0.732  -0.937  14.902  1.00  0.00     0.012 C 
ENDBRANCH   6   8
ENDBRANCH   5   6
ENDBRANCH   1   5
TORSDOF 5
ENDMDL
MODEL 7
REMARK VINA RESULT:    -3.055      9.363     10.048
REMARK INTER + INTRA:          -4.195
REMARK INTER:                  -4.100
REMARK INTRA:                  -0.095
REMARK UNBOUND:                -0.246
REMARK SMILES C=CC(=O)CCCCC
REMARK SMILES IDX 6 1 7 2 8 3 9 4 5 5 3 6 4 7 2 8 1 9
REMARK H PARENT
REMARK Flexibility Score: inf
ROOT
ATOM      1  C   UNL     1       2.506   2.085  23.416  1.00  0.00     0.008 C 
ENDROOT
BRANCH   1   2
ATOM      2  C   UNL     1       2.306   3.605  23.443  1.00  0.00     0.000 C 
BRANCH   2   3
ATOM      3  C   UNL     1       1.621   4.092  22.161  1.00  0.00    -0.003 C 
ATOM      4  C   UNL     1       0.163   4.459  22.421  1.00  0.00     0.004 C 
ENDBRANCH   2   3
ENDBRANCH   1   2
BRANCH   1   5
ATOM      5  C   UNL     1       3.450   1.634  24.536  1.00  0.00     0.080 C 
BRANCH   5   6
ATOM      6  C   UNL     1       4.870   1.610  24.050  1.00  0.00     0.155 C 
ATOM      7  O   UNL     1       5.110   1.841  22.832  1.00  0.00    -0.295 OA
BRANCH   6   8
ATOM      8  C   UNL     1       5.971   1.362  24.999  1.00  0.00     0.039 C 
ATOM      9  C   UNL     1       6.731   0.270  24.943  1.00  0.00     0.012 C 
ENDBRANCH   6   8
ENDBRANCH   5   6
ENDBRANCH   1   5
TORSDOF 5
ENDMDL
MODEL 8
REMARK VINA RESULT:    -3.036      2.119      4.664
REMARK INTER + INTRA:          -4.169
REMARK INTER:                  -3.857
REMARK INTRA:                  -0.312
REMARK UNBOUND:                -0.246
REMARK SMILES C=CC(=O)CCCCC
REMARK SMILES IDX 6 1 7 2 8 3 9 4 5 5 3 6 4 7 2 8 1 9
REMARK H PARENT
REMARK Flexibility Score: inf
ROOT
ATOM      1  C   UNL     1       1.181  -3.730  16.852  1.00  0.00     0.008 C 
ENDROOT
BRANCH   1   2
ATOM      2  C   UNL     1       0.307  -2.919  17.817  1.00  0.00     0.000 C 
BRANCH   2   3
ATOM      3  C   UNL     1      -0.547  -3.843  18.692  1.00  0.00    -0.003 C 
ATOM      4  C   UNL     1      -1.297  -4.866  17.843  1.00  0.00     0.004 C 
ENDBRANCH   2   3
ENDBRANCH   1   2
BRANCH   1   5
ATOM      5  C   UNL     1       1.033  -3.219  15.415  1.00  0.00     0.080 C 
BRANCH   5   6
ATOM      6  C   UNL     1       2.085  -2.193  15.110  1.00  0.00     0.155 C 
ATOM      7  O   UNL     1       3.299  -2.538  15.098  1.00  0.00    -0.295 OA
BRANCH   6   8
ATOM      8  C   UNL     1       1.693  -0.809  14.785  1.00  0.00     0.039 C 
ATOM      9  C   UNL     1       0.420  -0.430  14.687  1.00  0.00     0.012 C 
ENDBRANCH   6   8
ENDBRANCH   5   6
ENDBRANCH   1   5
TORSDOF 5
ENDMDL
MODEL 9
REMARK VINA RESULT:    -2.991      8.459      9.245
REMARK INTER + INTRA:          -4.111
REMARK INTER:                  -3.611
REMARK INTRA:                  -0.500
REMARK UNBOUND:                -0.246
REMARK SMILES C=CC(=O)CCCCC
REMARK SMILES IDX 6 1 7 2 8 3 9 4 5 5 3 6 4 7 2 8 1 9
REMARK H PARENT
REMARK Flexibility Score: inf
ROOT
ATOM      1  C   UNL     1       1.756   3.864  22.112  1.00  0.00     0.008 C 
ENDROOT
BRANCH   1   2
ATOM      2  C   UNL     1       0.305   3.366  22.114  1.00  0.00     0.000 C 
BRANCH   2   3
ATOM      3  C   UNL     1       0.228   1.898  21.680  1.00  0.00    -0.003 C 
ATOM      4  C   UNL     1      -0.761   1.120  22.545  1.00  0.00     0.004 C 
ENDBRANCH   2   3
ENDBRANCH   1   2
BRANCH   1   5
ATOM      5  C   UNL     1       2.383   3.738  23.505  1.00  0.00     0.080 C 
BRANCH   5   6
ATOM      6  C   UNL     1       3.329   2.575  23.553  1.00  0.00     0.155 C 
ATOM      7  O   UNL     1       4.213   2.461  22.660  1.00  0.00    -0.295 OA
BRANCH   6   8
ATOM      8  C   UNL     1       3.250   1.604  24.661  1.00  0.00     0.039 C 
ATOM      9  C   UNL     1       2.306   0.667  24.723  1.00  0.00     0.012 C 
ENDBRANCH   6   8
ENDBRANCH   5   6
ENDBRANCH   1   5
TORSDOF 5
ENDMDL
