MODEL 1
REMARK VINA RESULT:    -4.040      0.000      0.000
REMARK INTER + INTRA:         -10.380
REMARK INTER:                  -7.819
REMARK INTRA:                  -2.561
REMARK UNBOUND:                -2.561
REMARK SMILES CCCCCCCCCCCCCCCCCC(=O)[O-]
REMARK SMILES IDX 10 1 11 2 12 3 13 4 14 5 15 6 16 7 17 8 18 9 19 10 20 11
REMARK SMILES IDX 9 12 8 13 7 14 6 15 5 16 4 17 3 18 2 19 1 20
REMARK H PARENT
REMARK Flexibility Score: inf
ROOT
ATOM      1  C   UNL     1      -1.680  -2.594   8.577  1.00  0.00     0.000 C 
ENDROOT
BRANCH   1   2
ATOM      2  C   UNL     1      -2.468  -1.288   8.383  1.00  0.00     0.000 C 
BRANCH   2   3
ATOM      3  C   UNL     1      -3.421  -1.346   7.179  1.00  0.00     0.000 C 
BRANCH   3   4
ATOM      4  C   UNL     1      -3.183  -2.616   6.352  1.00  0.00     0.000 C 
BRANCH   4   5
ATOM      5  C   UNL     1      -4.393  -2.924   5.457  1.00  0.00     0.000 C 
BRANCH   5   6
ATOM      6  C   UNL     1      -5.488  -1.849   5.551  1.00  0.00     0.000 C 
BRANCH   6   7
ATOM      7  C   UNL     1      -6.906  -2.446   5.534  1.00  0.00     0.006 C 
BRANCH   7   8
ATOM      8  C   UNL     1      -6.983  -3.729   4.695  1.00  0.00     0.053 C 
BRANCH   8   9
ATOM      9  C   UNL     1      -8.259  -4.476   4.939  1.00  0.00     0.041 C 
ATOM     10  O   UNL     1      -9.348  -3.853   5.040  1.00  0.00    -0.550 OA
ATOM     11  O   UNL     1      -8.250  -5.863   5.019  1.00  0.00    -0.550 OA
ENDBRANCH   8   9
ENDBRANCH   7   8
ENDBRANCH   6   7
ENDBRANCH   5   6
ENDBRANCH   4   5
ENDBRANCH   3   4
ENDBRANCH   2   3
ENDBRANCH   1   2
BRANCH   1  12
ATOM     12  C   UNL     1      -1.884  -3.201   9.976  1.00  0.00     0.000 C 
BRANCH  12  13
ATOM     13  C   UNL     1      -3.308  -3.750  10.191  1.00  0.00    -0.000 C 
BRANCH  13  14
ATOM     14  C   UNL     1      -3.724  -4.888   9.241  1.00  0.00    -0.000 C 
BRANCH  14  15
ATOM     15  C   UNL     1      -5.172  -4.753   8.738  1.00  0.00    -0.000 C 
BRANCH  15  16
ATOM     16  C   UNL     1      -5.813  -3.417   9.144  1.00  0.00    -0.000 C 
BRANCH  16  17
ATOM     17  C   UNL     1      -7.343  -3.416   8.974  1.00  0.00    -0.000 C 
BRANCH  17  18
ATOM     18  C   UNL     1      -7.962  -2.018   9.152  1.00  0.00    -0.000 C 
BRANCH  18  19
ATOM     19  C   UNL     1      -9.427  -2.017   9.623  1.00  0.00    -0.003 C 
ATOM     20  C   UNL     1      -9.950  -3.415   9.954  1.00  0.00     0.004 C 
ENDBRANCH  18  19
ENDBRANCH  17  18
ENDBRANCH  16  17
ENDBRANCH  15  16
ENDBRANCH  14  15
ENDBRANCH  13  14
ENDBRANCH  12  13
ENDBRANCH   1  12
TORSDOF 16
ENDMDL
MODEL 2
REMARK VINA RESULT:    -3.995      1.729      4.651
REMARK INTER + INTRA:         -10.293
REMARK INTER:                  -7.824
REMARK INTRA:                  -2.469
REMARK UNBOUND:                -2.561
REMARK SMILES CCCCCCCCCCCCCCCCCC(=O)[O-]
REMARK SMILES IDX 10 1 11 2 12 3 13 4 14 5 15 6 16 7 17 8 18 9 19 10 20 11
REMARK SMILES IDX 9 12 8 13 7 14 6 15 5 16 4 17 3 18 2 19 1 20
REMARK H PARENT
REMARK Flexibility Score: inf
ROOT
ATOM      1  C   UNL     1      -5.171  -1.508   8.293  1.00  0.00     0.000 C 
ENDROOT
BRANCH   1   2
ATOM      2  C   UNL     1      -6.239  -0.403   8.337  1.00  0.00     0.000 C 
BRANCH   2   3
ATOM      3  C   UNL     1      -7.229  -0.583   9.498  1.00  0.00     0.000 C 
BRANCH   3   4
ATOM      4  C   UNL     1      -8.645  -0.855   8.974  1.00  0.00     0.000 C 
BRANCH   4   5
ATOM      5  C   UNL     1      -9.201  -2.168   9.548  1.00  0.00     0.000 C 
BRANCH   5   6
ATOM      6  C   UNL     1      -8.991  -3.362   8.603  1.00  0.00     0.000 C 
BRANCH   6   7
ATOM      7  C   UNL     1      -8.940  -2.944   7.124  1.00  0.00     0.006 C 
BRANCH   7   8
ATOM      8  C   UNL     1      -7.693  -3.486   6.412  1.00  0.00     0.053 C 
BRANCH   8   9
ATOM      9  C   UNL     1      -7.864  -4.918   6.007  1.00  0.00     0.041 C 
ATOM     10  O   UNL     1      -8.427  -5.205   4.918  1.00  0.00    -0.550 OA
ATOM     11  O   UNL     1      -7.369  -5.935   6.814  1.00  0.00    -0.550 OA
ENDBRANCH   8   9
ENDBRANCH   7   8
ENDBRANCH   6   7
ENDBRANCH   5   6
ENDBRANCH   4   5
ENDBRANCH   3   4
ENDBRANCH   2   3
ENDBRANCH   1   2
BRANCH   1  12
ATOM     12  C   UNL     1      -5.263  -2.463   9.495  1.00  0.00     0.000 C 
BRANCH  12  13
ATOM     13  C   UNL     1      -5.469  -3.932   9.081  1.00  0.00    -0.000 C 
BRANCH  13  14
ATOM     14  C   UNL     1      -4.283  -4.870   9.367  1.00  0.00    -0.000 C 
BRANCH  14  15
ATOM     15  C   UNL     1      -3.228  -4.865   8.248  1.00  0.00    -0.000 C 
BRANCH  15  16
ATOM     16  C   UNL     1      -1.808  -4.613   8.778  1.00  0.00    -0.000 C 
BRANCH  16  17
ATOM     17  C   UNL     1      -1.583  -3.151   9.204  1.00  0.00    -0.000 C 
BRANCH  17  18
ATOM     18  C   UNL     1      -0.595  -3.017  10.377  1.00  0.00    -0.000 C 
BRANCH  18  19
ATOM     19  C   UNL     1      -1.193  -2.403  11.656  1.00  0.00    -0.003 C 
ATOM     20  C   UNL     1      -2.577  -2.957  11.995  1.00  0.00     0.004 C 
ENDBRANCH  18  19
ENDBRANCH  17  18
ENDBRANCH  16  17
ENDBRANCH  15  16
ENDBRANCH  14  15
ENDBRANCH  13  14
ENDBRANCH  12  13
ENDBRANCH   1  12
TORSDOF 16
ENDMDL
MODEL 3
REMARK VINA RESULT:    -3.982     11.732     14.418
REMARK INTER + INTRA:         -10.268
REMARK INTER:                  -7.838
REMARK INTRA:                  -2.431
REMARK UNBOUND:                -2.561
REMARK SMILES CCCCCCCCCCCCCCCCCC(=O)[O-]
REMARK SMILES IDX 10 1 11 2 12 3 13 4 14 5 15 6 16 7 17 8 18 9 19 10 20 11
REMARK SMILES IDX 9 12 8 13 7 14 6 15 5 16 4 17 3 18 2 19 1 20
REMARK H PARENT
REMARK Flexibility Score: inf
ROOT
ATOM      1  C   UNL     1       7.844  -0.081   9.972  1.00  0.00     0.000 C 
ENDROOT
BRANCH   1   2
ATOM      2  C   UNL     1       8.708   1.050   9.392  1.00  0.00     0.000 C 
BRANCH   2   3
ATOM      3  C   UNL     1       9.347   1.924  10.482  1.00  0.00     0.000 C 
BRANCH   3   4
ATOM      4  C   UNL     1       9.516   3.370   9.997  1.00  0.00     0.000 C 
BRANCH   4   5
ATOM      5  C   UNL     1       8.807   3.585   8.651  1.00  0.00     0.000 C 
BRANCH   5   6
ATOM      6  C   UNL     1       7.588   4.515   8.767  1.00  0.00     0.000 C 
BRANCH   6   7
ATOM      7  C   UNL     1       7.265   5.233   7.445  1.00  0.00     0.006 C 
BRANCH   7   8
ATOM      8  C   UNL     1       7.339   4.288   6.239  1.00  0.00     0.053 C 
BRANCH   8   9
ATOM      9  C   UNL     1       8.279   4.798   5.190  1.00  0.00     0.041 C 
ATOM     10  O   UNL     1       9.206   4.063   4.759  1.00  0.00    -0.550 OA
ATOM     11  O   UNL     1       8.110   6.073   4.663  1.00  0.00    -0.550 OA
ENDBRANCH   8   9
ENDBRANCH   7   8
ENDBRANCH   6   7
ENDBRANCH   5   6
ENDBRANCH   4   5
ENDBRANCH   3   4
ENDBRANCH   2   3
ENDBRANCH   1   2
BRANCH   1  12
ATOM     12  C   UNL     1       6.338   0.189   9.815  1.00  0.00     0.000 C 
BRANCH  12  13
ATOM     13  C   UNL     1       6.016   1.131   8.640  1.00  0.00    -0.000 C 
BRANCH  13  14
ATOM     14  C   UNL     1       4.804   2.057   8.852  1.00  0.00    -0.000 C 
BRANCH  14  15
ATOM     15  C   UNL     1       3.503   1.492   8.256  1.00  0.00    -0.000 C 
BRANCH  15  16
ATOM     16  C   UNL     1       2.965   2.351   7.101  1.00  0.00    -0.000 C 
BRANCH  16  17
ATOM     17  C   UNL     1       3.775   3.643   6.893  1.00  0.00    -0.000 C 
BRANCH  17  18
ATOM     18  C   UNL     1       2.961   4.913   7.200  1.00  0.00    -0.000 C 
BRANCH  18  19
ATOM     19  C   UNL     1       2.772   5.210   8.698  1.00  0.00    -0.003 C 
ATOM     20  C   UNL     1       4.075   5.591   9.401  1.00  0.00     0.004 C 
ENDBRANCH  18  19
ENDBRANCH  17  18
ENDBRANCH  16  17
ENDBRANCH  15  16
ENDBRANCH  14  15
ENDBRANCH  13  14
ENDBRANCH  12  13
ENDBRANCH   1  12
TORSDOF 16
ENDMDL
MODEL 4
REMARK VINA RESULT:    -3.978     12.523     14.751
REMARK INTER + INTRA:         -10.261
REMARK INTER:                  -7.437
REMARK INTRA:                  -2.823
REMARK UNBOUND:                -2.561
REMARK SMILES CCCCCCCCCCCCCCCCCC(=O)[O-]
REMARK SMILES IDX 10 1 11 2 12 3 13 4 14 5 15 6 16 7 17 8 18 9 19 10 20 11
REMARK SMILES IDX 9 12 8 13 7 14 6 15 5 16 4 17 3 18 2 19 1 20
REMARK H PARENT
REMARK Flexibility Score: inf
ROOT
ATOM      1  C   UNL     1       9.402   1.129  10.657  1.00  0.00     0.000 C 
ENDROOT
BRANCH   1   2
ATOM      2  C   UNL     1       8.930   2.592  10.642  1.00  0.00     0.000 C 
BRANCH   2   3
ATOM      3  C   UNL     1       9.858   3.505   9.827  1.00  0.00     0.000 C 
BRANCH   3   4
ATOM      4  C   UNL     1       9.192   3.932   8.513  1.00  0.00     0.000 C 
BRANCH   4   5
ATOM      5  C   UNL     1       7.780   4.484   8.765  1.00  0.00     0.000 C 
BRANCH   5   6
ATOM      6  C   UNL     1       7.189   5.183   7.530  1.00  0.00     0.000 C 
BRANCH   6   7
ATOM      7  C   UNL     1       7.104   4.253   6.308  1.00  0.00     0.006 C 
BRANCH   7   8
ATOM      8  C   UNL     1       7.937   4.771   5.127  1.00  0.00     0.053 C 
BRANCH   8   9
ATOM      9  C   UNL     1       9.018   3.806   4.745  1.00  0.00     0.041 C 
ATOM     10  O   UNL     1       9.974   4.182   4.018  1.00  0.00    -0.550 OA
ATOM     11  O   UNL     1       8.987   2.501   5.221  1.00  0.00    -0.550 OA
ENDBRANCH   8   9
ENDBRANCH   7   8
ENDBRANCH   6   7
ENDBRANCH   5   6
ENDBRANCH   4   5
ENDBRANCH   3   4
ENDBRANCH   2   3
ENDBRANCH   1   2
BRANCH   1  12
ATOM     12  C   UNL     1       8.756   0.290   9.542  1.00  0.00     0.000 C 
BRANCH  12  13
ATOM     13  C   UNL     1       7.234   0.505   9.434  1.00  0.00    -0.000 C 
BRANCH  13  14
ATOM     14  C   UNL     1       6.727   0.933   8.045  1.00  0.00    -0.000 C 
BRANCH  14  15
ATOM     15  C   UNL     1       5.378   1.670   8.097  1.00  0.00    -0.000 C 
BRANCH  15  16
ATOM     16  C   UNL     1       5.047   2.192   9.504  1.00  0.00    -0.000 C 
BRANCH  16  17
ATOM     17  C   UNL     1       3.762   3.038   9.537  1.00  0.00    -0.000 C 
BRANCH  17  18
ATOM     18  C   UNL     1       4.037   4.545   9.386  1.00  0.00    -0.000 C 
BRANCH  18  19
ATOM     19  C   UNL     1       3.184   5.252   8.318  1.00  0.00    -0.003 C 
ATOM     20  C   UNL     1       3.238   4.561   6.955  1.00  0.00     0.004 C 
ENDBRANCH  18  19
ENDBRANCH  17  18
ENDBRANCH  16  17
ENDBRANCH  15  16
ENDBRANCH  14  15
ENDBRANCH  13  14
ENDBRANCH  12  13
ENDBRANCH   1  12
TORSDOF 16
ENDMDL
MODEL 5
REMARK VINA RESULT:    -3.978     10.562     13.914
REMARK INTER + INTRA:         -10.259
REMARK INTER:                  -7.806
REMARK INTRA:                  -2.453
REMARK UNBOUND:                -2.561
REMARK SMILES CCCCCCCCCCCCCCCCCC(=O)[O-]
REMARK SMILES IDX 10 1 11 2 12 3 13 4 14 5 15 6 16 7 17 8 18 9 19 10 20 11
REMARK SMILES IDX 9 12 8 13 7 14 6 15 5 16 4 17 3 18 2 19 1 20
REMARK H PARENT
REMARK Flexibility Score: inf
ROOT
ATOM      1  C   UNL     1       6.591   5.612   8.366  1.00  0.00     0.000 C 
ENDROOT
BRANCH   1   2
ATOM      2  C   UNL     1       5.430   4.604   8.397  1.00  0.00     0.000 C 
BRANCH   2   3
ATOM      3  C   UNL     1       4.080   5.266   8.713  1.00  0.00     0.000 C 
BRANCH   3   4
ATOM      4  C   UNL     1       3.381   4.557   9.880  1.00  0.00     0.000 C 
BRANCH   4   5
ATOM      5  C   UNL     1       1.925   4.218   9.526  1.00  0.00     0.000 C 
BRANCH   5   6
ATOM      6  C   UNL     1       1.766   2.789   8.981  1.00  0.00     0.000 C 
BRANCH   6   7
ATOM      7  C   UNL     1       1.620   2.753   7.450  1.00  0.00     0.006 C 
BRANCH   7   8
ATOM      8  C   UNL     1       2.804   2.049   6.773  1.00  0.00     0.053 C 
BRANCH   8   9
ATOM      9  C   UNL     1       3.151   2.683   5.461  1.00  0.00     0.041 C 
ATOM     10  O   UNL     1       3.016   2.037   4.389  1.00  0.00    -0.550 OA
ATOM     11  O   UNL     1       3.591   4.001   5.419  1.00  0.00    -0.550 OA
ENDBRANCH   8   9
ENDBRANCH   7   8
ENDBRANCH   6   7
ENDBRANCH   5   6
ENDBRANCH   4   5
ENDBRANCH   3   4
ENDBRANCH   2   3
ENDBRANCH   1   2
BRANCH   1  12
ATOM     12  C   UNL     1       7.487   5.440   7.127  1.00  0.00     0.000 C 
BRANCH  12  13
ATOM     13  C   UNL     1       7.175   4.156   6.335  1.00  0.00    -0.000 C 
BRANCH  13  14
ATOM     14  C   UNL     1       8.396   3.457   5.710  1.00  0.00    -0.000 C 
BRANCH  14  15
ATOM     15  C   UNL     1       8.624   2.038   6.260  1.00  0.00    -0.000 C 
BRANCH  15  16
ATOM     16  C   UNL     1       7.468   1.561   7.153  1.00  0.00    -0.000 C 
BRANCH  16  17
ATOM     17  C   UNL     1       7.938   1.132   8.554  1.00  0.00    -0.000 C 
BRANCH  17  18
ATOM     18  C   UNL     1       8.024   2.310   9.542  1.00  0.00    -0.000 C 
BRANCH  18  19
ATOM     19  C   UNL     1       9.449   2.666   9.998  1.00  0.00    -0.003 C 
ATOM     20  C   UNL     1       9.919   4.027   9.485  1.00  0.00     0.004 C 
ENDBRANCH  18  19
ENDBRANCH  17  18
ENDBRANCH  16  17
ENDBRANCH  15  16
ENDBRANCH  14  15
ENDBRANCH  13  14
ENDBRANCH  12  13
ENDBRANCH   1  12
TORSDOF 16
ENDMDL
MODEL 6
REMARK VINA RESULT:    -3.955     10.526     13.336
REMARK INTER + INTRA:         -10.216
REMARK INTER:                  -7.551
REMARK INTRA:                  -2.665
REMARK UNBOUND:                -2.561
REMARK SMILES CCCCCCCCCCCCCCCCCC(=O)[O-]
REMARK SMILES IDX 10 1 11 2 12 3 13 4 14 5 15 6 16 7 17 8 18 9 19 10 20 11
REMARK SMILES IDX 9 12 8 13 7 14 6 15 5 16 4 17 3 18 2 19 1 20
REMARK H PARENT
REMARK Flexibility Score: inf
ROOT
ATOM      1  C   UNL     1       6.339   5.579   8.191  1.00  0.00     0.000 C 
ENDROOT
BRANCH   1   2
ATOM      2  C   UNL     1       7.709   4.889   8.094  1.00  0.00     0.000 C 
BRANCH   2   3
ATOM      3  C   UNL     1       7.902   3.804   9.165  1.00  0.00     0.000 C 
BRANCH   3   4
ATOM      4  C   UNL     1       9.019   2.831   8.765  1.00  0.00     0.000 C 
BRANCH   4   5
ATOM      5  C   UNL     1       8.811   2.313   7.334  1.00  0.00     0.000 C 
BRANCH   5   6
ATOM      6  C   UNL     1       7.850   1.115   7.272  1.00  0.00     0.000 C 
BRANCH   6   7
ATOM      7  C   UNL     1       6.424   1.521   6.863  1.00  0.00     0.006 C 
BRANCH   7   8
ATOM      8  C   UNL     1       6.327   1.873   5.373  1.00  0.00     0.053 C 
BRANCH   8   9
ATOM      9  C   UNL     1       5.941   3.306   5.165  1.00  0.00     0.041 C 
ATOM     10  O   UNL     1       6.818   4.163   4.881  1.00  0.00    -0.550 OA
ATOM     11  O   UNL     1       4.608   3.688   5.251  1.00  0.00    -0.550 OA
ENDBRANCH   8   9
ENDBRANCH   7   8
ENDBRANCH   6   7
ENDBRANCH   5   6
ENDBRANCH   4   5
ENDBRANCH   3   4
ENDBRANCH   2   3
ENDBRANCH   1   2
BRANCH   1  12
ATOM     12  C   UNL     1       5.244   4.642   8.731  1.00  0.00     0.000 C 
BRANCH  12  13
ATOM     13  C   UNL     1       3.941   5.382   9.084  1.00  0.00    -0.000 C 
BRANCH  13  14
ATOM     14  C   UNL     1       2.883   5.421   7.966  1.00  0.00    -0.000 C 
BRANCH  14  15
ATOM     15  C   UNL     1       1.731   4.428   8.192  1.00  0.00    -0.000 C 
BRANCH  15  16
ATOM     16  C   UNL     1       1.902   3.133   7.382  1.00  0.00    -0.000 C 
BRANCH  16  17
ATOM     17  C   UNL     1       2.462   1.974   8.225  1.00  0.00    -0.000 C 
BRANCH  17  18
ATOM     18  C   UNL     1       2.145   2.121   9.724  1.00  0.00    -0.000 C 
BRANCH  18  19
ATOM     19  C   UNL     1       3.350   1.916  10.661  1.00  0.00    -0.003 C 
ATOM     20  C   UNL     1       4.540   1.252   9.968  1.00  0.00     0.004 C 
ENDBRANCH  18  19
ENDBRANCH  17  18
ENDBRANCH  16  17
ENDBRANCH  15  16
ENDBRANCH  14  15
ENDBRANCH  13  14
ENDBRANCH  12  13
ENDBRANCH   1  12
TORSDOF 16
ENDMDL
MODEL 7
REMARK VINA RESULT:    -3.911     10.340     13.215
REMARK INTER + INTRA:         -10.130
REMARK INTER:                  -7.712
REMARK INTRA:                  -2.417
REMARK UNBOUND:                -2.561
REMARK SMILES CCCCCCCCCCCCCCCCCC(=O)[O-]
REMARK SMILES IDX 10 1 11 2 12 3 13 4 14 5 15 6 16 7 17 8 18 9 19 10 20 11
REMARK SMILES IDX 9 12 8 13 7 14 6 15 5 16 4 17 3 18 2 19 1 20
REMARK H PARENT
REMARK Flexibility Score: inf
ROOT
ATOM      1  C   UNL     1       3.030   5.096   7.483  1.00  0.00     0.000 C 
ENDROOT
BRANCH   1   2
ATOM      2  C   UNL     1       4.096   5.255   8.580  1.00  0.00     0.000 C 
BRANCH   2   3
ATOM      3  C   UNL     1       5.381   4.469   8.276  1.00  0.00     0.000 C 
BRANCH   3   4
ATOM      4  C   UNL     1       6.622   5.346   8.485  1.00  0.00     0.000 C 
BRANCH   4   5
ATOM      5  C   UNL     1       7.854   4.487   8.810  1.00  0.00     0.000 C 
BRANCH   5   6
ATOM      6  C   UNL     1       7.930   3.213   7.953  1.00  0.00     0.000 C 
BRANCH   6   7
ATOM      7  C   UNL     1       9.046   3.277   6.897  1.00  0.00     0.006 C 
BRANCH   7   8
ATOM      8  C   UNL     1       8.502   3.129   5.469  1.00  0.00     0.053 C 
BRANCH   8   9
ATOM      9  C   UNL     1       7.461   4.161   5.162  1.00  0.00     0.041 C 
ATOM     10  O   UNL     1       7.770   5.381   5.126  1.00  0.00    -0.550 OA
ATOM     11  O   UNL     1       6.156   3.773   4.881  1.00  0.00    -0.550 OA
ENDBRANCH   8   9
ENDBRANCH   7   8
ENDBRANCH   6   7
ENDBRANCH   5   6
ENDBRANCH   4   5
ENDBRANCH   3   4
ENDBRANCH   2   3
ENDBRANCH   1   2
BRANCH   1  12
ATOM     12  C   UNL     1       1.619   4.886   8.059  1.00  0.00     0.000 C 
BRANCH  12  13
ATOM     13  C   UNL     1       1.024   3.510   7.703  1.00  0.00    -0.000 C 
BRANCH  13  14
ATOM     14  C   UNL     1       2.020   2.496   7.112  1.00  0.00    -0.000 C 
BRANCH  14  15
ATOM     15  C   UNL     1       2.610   1.546   8.168  1.00  0.00    -0.000 C 
BRANCH  15  16
ATOM     16  C   UNL     1       1.590   1.166   9.253  1.00  0.00    -0.000 C 
BRANCH  16  17
ATOM     17  C   UNL     1       2.128   1.386  10.678  1.00  0.00    -0.000 C 
BRANCH  17  18
ATOM     18  C   UNL     1       3.010   2.642  10.795  1.00  0.00    -0.000 C 
BRANCH  18  19
ATOM     19  C   UNL     1       2.462   3.729  11.737  1.00  0.00    -0.003 C 
ATOM     20  C   UNL     1       0.967   3.987  11.548  1.00  0.00     0.004 C 
ENDBRANCH  18  19
ENDBRANCH  17  18
ENDBRANCH  16  17
ENDBRANCH  15  16
ENDBRANCH  14  15
ENDBRANCH  13  14
ENDBRANCH  12  13
ENDBRANCH   1  12
TORSDOF 16
ENDMDL
MODEL 8
REMARK VINA RESULT:    -3.908      1.933      4.332
REMARK INTER + INTRA:         -10.124
REMARK INTER:                  -7.334
REMARK INTRA:                  -2.790
REMARK UNBOUND:                -2.561
REMARK SMILES CCCCCCCCCCCCCCCCCC(=O)[O-]
REMARK SMILES IDX 10 1 11 2 12 3 13 4 14 5 15 6 16 7 17 8 18 9 19 10 20 11
REMARK SMILES IDX 9 12 8 13 7 14 6 15 5 16 4 17 3 18 2 19 1 20
REMARK H PARENT
REMARK Flexibility Score: inf
ROOT
ATOM      1  C   UNL     1      -1.165  -2.727   8.057  1.00  0.00     0.000 C 
ENDROOT
BRANCH   1   2
ATOM      2  C   UNL     1      -1.560  -4.064   8.706  1.00  0.00     0.000 C 
BRANCH   2   3
ATOM      3  C   UNL     1      -2.894  -4.609   8.174  1.00  0.00     0.000 C 
BRANCH   3   4
ATOM      4  C   UNL     1      -3.880  -4.861   9.322  1.00  0.00     0.000 C 
BRANCH   4   5
ATOM      5  C   UNL     1      -5.166  -4.041   9.134  1.00  0.00     0.000 C 
BRANCH   5   6
ATOM      6  C   UNL     1      -5.429  -3.683   7.662  1.00  0.00     0.000 C 
BRANCH   6   7
ATOM      7  C   UNL     1      -6.821  -4.130   7.184  1.00  0.00     0.006 C 
BRANCH   7   8
ATOM      8  C   UNL     1      -7.017  -3.904   5.679  1.00  0.00     0.053 C 
BRANCH   8   9
ATOM      9  C   UNL     1      -8.243  -4.597   5.168  1.00  0.00     0.041 C 
ATOM     10  O   UNL     1      -8.229  -5.840   4.965  1.00  0.00    -0.550 OA
ATOM     11  O   UNL     1      -9.411  -3.877   4.951  1.00  0.00    -0.550 OA
ENDBRANCH   8   9
ENDBRANCH   7   8
ENDBRANCH   6   7
ENDBRANCH   5   6
ENDBRANCH   4   5
ENDBRANCH   3   4
ENDBRANCH   2   3
ENDBRANCH   1   2
BRANCH   1  12
ATOM     12  C   UNL     1      -2.024  -2.394   6.825  1.00  0.00     0.000 C 
BRANCH  12  13
ATOM     13  C   UNL     1      -2.924  -1.162   7.035  1.00  0.00    -0.000 C 
BRANCH  13  14
ATOM     14  C   UNL     1      -2.668  -0.374   8.332  1.00  0.00    -0.000 C 
BRANCH  14  15
ATOM     15  C   UNL     1      -3.858  -0.417   9.307  1.00  0.00    -0.000 C 
BRANCH  15  16
ATOM     16  C   UNL     1      -3.502  -1.094  10.640  1.00  0.00    -0.000 C 
BRANCH  16  17
ATOM     17  C   UNL     1      -2.040  -0.855  11.056  1.00  0.00    -0.000 C 
BRANCH  17  18
ATOM     18  C   UNL     1      -1.449  -2.028  11.859  1.00  0.00    -0.000 C 
BRANCH  18  19
ATOM     19  C   UNL     1      -2.476  -3.080  12.314  1.00  0.00    -0.003 C 
ATOM     20  C   UNL     1      -2.494  -3.283  13.829  1.00  0.00     0.004 C 
ENDBRANCH  18  19
ENDBRANCH  17  18
ENDBRANCH  16  17
ENDBRANCH  15  16
ENDBRANCH  14  15
ENDBRANCH  13  14
ENDBRANCH  12  13
ENDBRANCH   1  12
TORSDOF 16
ENDMDL
MODEL 9
REMARK VINA RESULT:    -3.906     11.040     13.993
REMARK INTER + INTRA:         -10.120
REMARK INTER:                  -7.340
REMARK INTRA:                  -2.780
REMARK UNBOUND:                -2.561
REMARK SMILES CCCCCCCCCCCCCCCCCC(=O)[O-]
REMARK SMILES IDX 10 1 11 2 12 3 13 4 14 5 15 6 16 7 17 8 18 9 19 10 20 11
REMARK SMILES IDX 9 12 8 13 7 14 6 15 5 16 4 17 3 18 2 19 1 20
REMARK H PARENT
REMARK Flexibility Score: inf
ROOT
ATOM      1  C   UNL     1       6.816   0.740   8.582  1.00  0.00     0.000 C 
ENDROOT
BRANCH   1   2
ATOM      2  C   UNL     1       7.277   1.130   9.995  1.00  0.00     0.000 C 
BRANCH   2   3
ATOM      3  C   UNL     1       8.765   1.510  10.048  1.00  0.00     0.000 C 
BRANCH   3   4
ATOM      4  C   UNL     1       8.945   3.032   9.975  1.00  0.00     0.000 C 
BRANCH   4   5
ATOM      5  C   UNL     1       9.731   3.434   8.717  1.00  0.00     0.000 C 
BRANCH   5   6
ATOM      6  C   UNL     1       8.818   3.897   7.571  1.00  0.00     0.000 C 
BRANCH   6   7
ATOM      7  C   UNL     1       9.238   3.319   6.209  1.00  0.00     0.006 C 
BRANCH   7   8
ATOM      8  C   UNL     1       8.054   2.702   5.452  1.00  0.00     0.053 C 
BRANCH   8   9
ATOM      9  C   UNL     1       7.190   3.751   4.822  1.00  0.00     0.041 C 
ATOM     10  O   UNL     1       7.690   4.589   4.027  1.00  0.00    -0.550 OA
ATOM     11  O   UNL     1       5.826   3.781   5.086  1.00  0.00    -0.550 OA
ENDBRANCH   8   9
ENDBRANCH   7   8
ENDBRANCH   6   7
ENDBRANCH   5   6
ENDBRANCH   4   5
ENDBRANCH   3   4
ENDBRANCH   2   3
ENDBRANCH   1   2
BRANCH   1  12
ATOM     12  C   UNL     1       5.740   1.691   8.030  1.00  0.00     0.000 C 
BRANCH  12  13
ATOM     13  C   UNL     1       5.306   2.762   9.048  1.00  0.00    -0.000 C 
BRANCH  13  14
ATOM     14  C   UNL     1       5.486   4.220   8.586  1.00  0.00    -0.000 C 
BRANCH  14  15
ATOM     15  C   UNL     1       4.379   5.155   9.102  1.00  0.00    -0.000 C 
BRANCH  15  16
ATOM     16  C   UNL     1       3.327   4.415   9.943  1.00  0.00    -0.000 C 
BRANCH  16  17
ATOM     17  C   UNL     1       1.903   4.568   9.382  1.00  0.00    -0.000 C 
BRANCH  17  18
ATOM     18  C   UNL     1       1.831   4.330   7.863  1.00  0.00    -0.000 C 
BRANCH  18  19
ATOM     19  C   UNL     1       1.834   2.850   7.442  1.00  0.00    -0.003 C 
ATOM     20  C   UNL     1       2.597   2.600   6.141  1.00  0.00     0.004 C 
ENDBRANCH  18  19
ENDBRANCH  17  18
ENDBRANCH  16  17
ENDBRANCH  15  16
ENDBRANCH  14  15
ENDBRANCH  13  14
ENDBRANCH  12  13
ENDBRANCH   1  12
TORSDOF 16
ENDMDL
