MODEL 1
REMARK VINA RESULT:    -4.807      0.000      0.000
REMARK INTER + INTRA:         -10.455
REMARK INTER:                  -8.741
REMARK INTRA:                  -1.713
REMARK UNBOUND:                -1.713
REMARK SMILES CCCCCC=CCC=CCCCCCCCC(=O)[O-]
REMARK SMILES IDX 11 1 12 2 13 3 14 4 15 5 16 6 17 7 18 8 19 9 20 10 10 11
REMARK SMILES IDX 9 12 8 13 7 14 6 15 5 16 4 17 3 18 2 19 1 20
REMARK H PARENT
REMARK Flexibility Score: inf
ROOT
ATOM      1  C   UNL     1       8.296  51.748  24.961  1.00  0.00     0.027 C 
ENDROOT
BRANCH   1   2
ATOM      2  C   UNL     1       7.868  51.883  23.495  1.00  0.00     0.004 C 
BRANCH   2   3
ATOM      3  C   UNL     1       8.915  52.657  22.685  1.00  0.00     0.000 C 
BRANCH   3   4
ATOM      4  C   UNL     1       8.456  52.848  21.232  1.00  0.00     0.000 C 
BRANCH   4   5
ATOM      5  C   UNL     1       7.035  52.310  20.975  1.00  0.00     0.000 C 
BRANCH   5   6
ATOM      6  C   UNL     1       6.716  51.995  19.503  1.00  0.00     0.006 C 
BRANCH   6   7
ATOM      7  C   UNL     1       5.548  52.823  18.953  1.00  0.00     0.053 C 
BRANCH   7   8
ATOM      8  C   UNL     1       5.551  52.801  17.457  1.00  0.00     0.041 C 
ATOM      9  O   UNL     1       4.567  52.331  16.828  1.00  0.00    -0.550 OA
ATOM     10  O   UNL     1       6.662  53.256  16.757  1.00  0.00    -0.550 OA
ENDBRANCH   7   8
ENDBRANCH   6   7
ENDBRANCH   5   6
ENDBRANCH   4   5
ENDBRANCH   3   4
ENDBRANCH   2   3
ENDBRANCH   1   2
BRANCH   1  11
ATOM     11  C   UNL     1       9.794  51.724  25.089  1.00  0.00    -0.031 C 
ATOM     12  C   UNL     1      10.488  50.578  25.001  1.00  0.00    -0.027 C 
BRANCH  12  13
ATOM     13  C   UNL     1      11.984  50.556  25.122  1.00  0.00     0.054 C 
BRANCH  13  14
ATOM     14  C   UNL     1      12.564  51.861  24.633  1.00  0.00    -0.027 C 
ATOM     15  C   UNL     1      13.061  52.073  23.400  1.00  0.00    -0.031 C 
BRANCH  15  16
ATOM     16  C   UNL     1      13.160  51.027  22.320  1.00  0.00     0.027 C 
BRANCH  16  17
ATOM     17  C   UNL     1      11.876  50.978  21.477  1.00  0.00     0.004 C 
BRANCH  17  18
ATOM     18  C   UNL     1      11.972  51.831  20.204  1.00  0.00     0.000 C 
BRANCH  18  19
ATOM     19  C   UNL     1      11.036  51.338  19.091  1.00  0.00    -0.003 C 
ATOM     20  C   UNL     1      11.823  50.961  17.839  1.00  0.00     0.004 C 
ENDBRANCH  18  19
ENDBRANCH  17  18
ENDBRANCH  16  17
ENDBRANCH  15  16
ENDBRANCH  13  14
ENDBRANCH  12  13
ENDBRANCH   1  11
TORSDOF 14
ENDMDL
MODEL 2
REMARK VINA RESULT:    -4.723      2.433      4.281
REMARK INTER + INTRA:         -10.301
REMARK INTER:                  -8.860
REMARK INTRA:                  -1.442
REMARK UNBOUND:                -1.713
REMARK SMILES CCCCCC=CCC=CCCCCCCCC(=O)[O-]
REMARK SMILES IDX 11 1 12 2 13 3 14 4 15 5 16 6 17 7 18 8 19 9 20 10 10 11
REMARK SMILES IDX 9 12 8 13 7 14 6 15 5 16 4 17 3 18 2 19 1 20
REMARK H PARENT
REMARK Flexibility Score: inf
ROOT
ATOM      1  C   UNL     1       8.029  53.103  20.916  1.00  0.00     0.027 C 
ENDROOT
BRANCH   1   2
ATOM      2  C   UNL     1       7.954  52.344  19.586  1.00  0.00     0.004 C 
BRANCH   2   3
ATOM      3  C   UNL     1       6.550  51.769  19.359  1.00  0.00     0.000 C 
BRANCH   3   4
ATOM      4  C   UNL     1       5.886  52.409  18.130  1.00  0.00     0.000 C 
BRANCH   4   5
ATOM      5  C   UNL     1       5.015  53.628  18.485  1.00  0.00     0.000 C 
BRANCH   5   6
ATOM      6  C   UNL     1       4.446  53.625  19.914  1.00  0.00     0.006 C 
BRANCH   6   7
ATOM      7  C   UNL     1       4.927  54.815  20.753  1.00  0.00     0.053 C 
BRANCH   7   8
ATOM      8  C   UNL     1       3.849  55.847  20.864  1.00  0.00     0.041 C 
ATOM      9  O   UNL     1       3.706  56.502  21.930  1.00  0.00    -0.550 OA
ATOM     10  O   UNL     1       2.971  56.051  19.808  1.00  0.00    -0.550 OA
ENDBRANCH   7   8
ENDBRANCH   6   7
ENDBRANCH   5   6
ENDBRANCH   4   5
ENDBRANCH   3   4
ENDBRANCH   2   3
ENDBRANCH   1   2
BRANCH   1  11
ATOM     11  C   UNL     1       8.338  52.172  22.056  1.00  0.00    -0.031 C 
ATOM     12  C   UNL     1       7.564  52.122  23.151  1.00  0.00    -0.027 C 
BRANCH  12  13
ATOM     13  C   UNL     1       7.869  51.187  24.285  1.00  0.00     0.054 C 
BRANCH  13  14
ATOM     14  C   UNL     1       9.029  51.711  25.094  1.00  0.00    -0.027 C 
ATOM     15  C   UNL     1      10.260  51.167  25.125  1.00  0.00    -0.031 C 
BRANCH  15  16
ATOM     16  C   UNL     1      10.667  49.915  24.390  1.00  0.00     0.027 C 
BRANCH  16  17
ATOM     17  C   UNL     1      11.973  50.131  23.611  1.00  0.00     0.004 C 
BRANCH  17  18
ATOM     18  C   UNL     1      12.532  51.553  23.777  1.00  0.00     0.000 C 
BRANCH  18  19
ATOM     19  C   UNL     1      13.996  51.562  24.240  1.00  0.00    -0.003 C 
ATOM     20  C   UNL     1      14.920  52.051  23.128  1.00  0.00     0.004 C 
ENDBRANCH  18  19
ENDBRANCH  17  18
ENDBRANCH  16  17
ENDBRANCH  15  16
ENDBRANCH  13  14
ENDBRANCH  12  13
ENDBRANCH   1  11
TORSDOF 14
ENDMDL
MODEL 3
REMARK VINA RESULT:    -4.687      1.094      1.897
REMARK INTER + INTRA:         -10.236
REMARK INTER:                  -8.280
REMARK INTRA:                  -1.956
REMARK UNBOUND:                -1.713
REMARK SMILES CCCCCC=CCC=CCCCCCCCC(=O)[O-]
REMARK SMILES IDX 11 1 12 2 13 3 14 4 15 5 16 6 17 7 18 8 19 9 20 10 10 11
REMARK SMILES IDX 9 12 8 13 7 14 6 15 5 16 4 17 3 18 2 19 1 20
REMARK H PARENT
REMARK Flexibility Score: inf
ROOT
ATOM      1  C   UNL     1       9.952  50.330  25.049  1.00  0.00     0.027 C 
ENDROOT
BRANCH   1   2
ATOM      2  C   UNL     1       9.408  51.762  25.104  1.00  0.00     0.004 C 
BRANCH   2   3
ATOM      3  C   UNL     1       7.965  51.824  24.591  1.00  0.00     0.000 C 
BRANCH   3   4
ATOM      4  C   UNL     1       7.917  51.669  23.063  1.00  0.00     0.000 C 
BRANCH   4   5
ATOM      5  C   UNL     1       8.618  52.821  22.320  1.00  0.00     0.000 C 
BRANCH   5   6
ATOM      6  C   UNL     1       8.079  53.104  20.906  1.00  0.00     0.006 C 
BRANCH   6   7
ATOM      7  C   UNL     1       6.549  53.191  20.854  1.00  0.00     0.053 C 
BRANCH   7   8
ATOM      8  C   UNL     1       6.043  52.711  19.530  1.00  0.00     0.041 C 
ATOM      9  O   UNL     1       5.966  51.478  19.290  1.00  0.00    -0.550 OA
ATOM     10  O   UNL     1       5.703  53.627  18.543  1.00  0.00    -0.550 OA
ENDBRANCH   7   8
ENDBRANCH   6   7
ENDBRANCH   5   6
ENDBRANCH   4   5
ENDBRANCH   3   4
ENDBRANCH   2   3
ENDBRANCH   1   2
BRANCH   1  11
ATOM     11  C   UNL     1      11.438  50.321  24.827  1.00  0.00    -0.031 C 
ATOM     12  C   UNL     1      12.183  51.421  25.017  1.00  0.00    -0.027 C 
BRANCH  12  13
ATOM     13  C   UNL     1      13.669  51.409  24.803  1.00  0.00     0.054 C 
BRANCH  13  14
ATOM     14  C   UNL     1      14.052  52.422  23.753  1.00  0.00    -0.027 C 
ATOM     15  C   UNL     1      13.974  52.226  22.423  1.00  0.00    -0.031 C 
BRANCH  15  16
ATOM     16  C   UNL     1      13.535  50.943  21.766  1.00  0.00     0.027 C 
BRANCH  16  17
ATOM     17  C   UNL     1      12.081  51.041  21.278  1.00  0.00     0.004 C 
BRANCH  17  18
ATOM     18  C   UNL     1      11.791  52.361  20.548  1.00  0.00     0.000 C 
BRANCH  18  19
ATOM     19  C   UNL     1      11.368  52.147  19.088  1.00  0.00    -0.003 C 
ATOM     20  C   UNL     1      11.270  50.661  18.756  1.00  0.00     0.004 C 
ENDBRANCH  18  19
ENDBRANCH  17  18
ENDBRANCH  16  17
ENDBRANCH  15  16
ENDBRANCH  13  14
ENDBRANCH  12  13
ENDBRANCH   1  11
TORSDOF 14
ENDMDL
MODEL 4
REMARK VINA RESULT:    -4.662      2.404      6.404
REMARK INTER + INTRA:         -10.190
REMARK INTER:                  -8.644
REMARK INTRA:                  -1.547
REMARK UNBOUND:                -1.713
REMARK SMILES CCCCCC=CCC=CCCCCCCCC(=O)[O-]
REMARK SMILES IDX 11 1 12 2 13 3 14 4 15 5 16 6 17 7 18 8 19 9 20 10 10 11
REMARK SMILES IDX 9 12 8 13 7 14 6 15 5 16 4 17 3 18 2 19 1 20
REMARK H PARENT
REMARK Flexibility Score: inf
ROOT
ATOM      1  C   UNL     1       8.067  51.181  24.475  1.00  0.00     0.027 C 
ENDROOT
BRANCH   1   2
ATOM      2  C   UNL     1       9.397  51.701  25.032  1.00  0.00     0.004 C 
BRANCH   2   3
ATOM      3  C   UNL     1      10.556  50.775  24.644  1.00  0.00     0.000 C 
BRANCH   3   4
ATOM      4  C   UNL     1      11.900  51.344  25.125  1.00  0.00     0.000 C 
BRANCH   4   5
ATOM      5  C   UNL     1      12.975  51.357  24.023  1.00  0.00     0.000 C 
BRANCH   5   6
ATOM      6  C   UNL     1      12.465  51.008  22.613  1.00  0.00     0.006 C 
BRANCH   6   7
ATOM      7  C   UNL     1      12.922  52.009  21.546  1.00  0.00     0.053 C 
BRANCH   7   8
ATOM      8  C   UNL     1      12.042  51.926  20.339  1.00  0.00     0.041 C 
ATOM      9  O   UNL     1      11.429  50.859  20.074  1.00  0.00    -0.550 OA
ATOM     10  O   UNL     1      11.937  53.012  19.479  1.00  0.00    -0.550 OA
ENDBRANCH   7   8
ENDBRANCH   6   7
ENDBRANCH   5   6
ENDBRANCH   4   5
ENDBRANCH   3   4
ENDBRANCH   2   3
ENDBRANCH   1   2
BRANCH   1  11
ATOM     11  C   UNL     1       7.654  51.948  23.250  1.00  0.00    -0.031 C 
ATOM     12  C   UNL     1       8.558  52.541  22.455  1.00  0.00    -0.027 C 
BRANCH  12  13
ATOM     13  C   UNL     1       8.145  53.301  21.227  1.00  0.00     0.054 C 
BRANCH  13  14
ATOM     14  C   UNL     1       8.322  52.442  20.000  1.00  0.00    -0.027 C 
ATOM     15  C   UNL     1       7.322  51.986  19.223  1.00  0.00    -0.031 C 
BRANCH  15  16
ATOM     16  C   UNL     1       5.856  52.221  19.480  1.00  0.00     0.027 C 
BRANCH  16  17
ATOM     17  C   UNL     1       5.228  53.072  18.365  1.00  0.00     0.004 C 
BRANCH  17  18
ATOM     18  C   UNL     1       4.489  54.304  18.907  1.00  0.00     0.000 C 
BRANCH  18  19
ATOM     19  C   UNL     1       4.626  54.453  20.429  1.00  0.00    -0.003 C 
ATOM     20  C   UNL     1       4.205  55.847  20.885  1.00  0.00     0.004 C 
ENDBRANCH  18  19
ENDBRANCH  17  18
ENDBRANCH  16  17
ENDBRANCH  15  16
ENDBRANCH  13  14
ENDBRANCH  12  13
ENDBRANCH   1  11
TORSDOF 14
ENDMDL
MODEL 5
REMARK VINA RESULT:    -4.546      2.129      3.324
REMARK INTER + INTRA:          -9.981
REMARK INTER:                  -7.941
REMARK INTRA:                  -2.040
REMARK UNBOUND:                -1.713
REMARK SMILES CCCCCC=CCC=CCCCCCCCC(=O)[O-]
REMARK SMILES IDX 11 1 12 2 13 3 14 4 15 5 16 6 17 7 18 8 19 9 20 10 10 11
REMARK SMILES IDX 9 12 8 13 7 14 6 15 5 16 4 17 3 18 2 19 1 20
REMARK H PARENT
REMARK Flexibility Score: inf
ROOT
ATOM      1  C   UNL     1      11.860  50.995  25.124  1.00  0.00     0.027 C 
ENDROOT
BRANCH   1   2
ATOM      2  C   UNL     1      10.807  52.106  25.044  1.00  0.00     0.004 C 
BRANCH   2   3
ATOM      3  C   UNL     1       9.389  51.528  25.116  1.00  0.00     0.000 C 
BRANCH   3   4
ATOM      4  C   UNL     1       8.709  51.563  23.739  1.00  0.00     0.000 C 
BRANCH   4   5
ATOM      5  C   UNL     1       9.216  52.713  22.848  1.00  0.00     0.000 C 
BRANCH   5   6
ATOM      6  C   UNL     1       8.696  52.690  21.400  1.00  0.00     0.006 C 
BRANCH   6   7
ATOM      7  C   UNL     1       7.269  52.140  21.285  1.00  0.00     0.053 C 
BRANCH   7   8
ATOM      8  C   UNL     1       6.444  53.010  20.388  1.00  0.00     0.041 C 
ATOM      9  O   UNL     1       6.076  54.150  20.775  1.00  0.00    -0.550 OA
ATOM     10  O   UNL     1       6.040  52.540  19.145  1.00  0.00    -0.550 OA
ENDBRANCH   7   8
ENDBRANCH   6   7
ENDBRANCH   5   6
ENDBRANCH   4   5
ENDBRANCH   3   4
ENDBRANCH   2   3
ENDBRANCH   1   2
BRANCH   1  11
ATOM     11  C   UNL     1      13.236  51.529  24.843  1.00  0.00    -0.031 C 
ATOM     12  C   UNL     1      14.310  50.723  24.812  1.00  0.00    -0.027 C 
BRANCH  12  13
ATOM     13  C   UNL     1      15.683  51.257  24.523  1.00  0.00     0.054 C 
BRANCH  13  14
ATOM     14  C   UNL     1      15.638  52.758  24.381  1.00  0.00    -0.027 C 
ATOM     15  C   UNL     1      15.922  53.437  23.254  1.00  0.00    -0.031 C 
BRANCH  15  16
ATOM     16  C   UNL     1      16.377  52.810  21.961  1.00  0.00     0.027 C 
BRANCH  16  17
ATOM     17  C   UNL     1      15.328  53.000  20.855  1.00  0.00     0.004 C 
BRANCH  17  18
ATOM     18  C   UNL     1      13.906  52.661  21.325  1.00  0.00     0.000 C 
BRANCH  18  19
ATOM     19  C   UNL     1      13.458  51.259  20.888  1.00  0.00    -0.003 C 
ATOM     20  C   UNL     1      12.032  50.969  21.351  1.00  0.00     0.004 C 
ENDBRANCH  18  19
ENDBRANCH  17  18
ENDBRANCH  16  17
ENDBRANCH  15  16
ENDBRANCH  13  14
ENDBRANCH  12  13
ENDBRANCH   1  11
TORSDOF 14
ENDMDL
MODEL 6
REMARK VINA RESULT:    -4.546      2.119      5.862
REMARK INTER + INTRA:          -9.979
REMARK INTER:                  -8.408
REMARK INTRA:                  -1.572
REMARK UNBOUND:                -1.713
REMARK SMILES CCCCCC=CCC=CCCCCCCCC(=O)[O-]
REMARK SMILES IDX 11 1 12 2 13 3 14 4 15 5 16 6 17 7 18 8 19 9 20 10 10 11
REMARK SMILES IDX 9 12 8 13 7 14 6 15 5 16 4 17 3 18 2 19 1 20
REMARK H PARENT
REMARK Flexibility Score: inf
ROOT
ATOM      1  C   UNL     1       8.281  51.205  25.125  1.00  0.00     0.027 C 
ENDROOT
BRANCH   1   2
ATOM      2  C   UNL     1       9.720  50.730  24.891  1.00  0.00     0.004 C 
BRANCH   2   3
ATOM      3  C   UNL     1      10.696  51.913  24.892  1.00  0.00     0.000 C 
BRANCH   3   4
ATOM      4  C   UNL     1      12.001  51.549  24.168  1.00  0.00     0.000 C 
BRANCH   4   5
ATOM      5  C   UNL     1      11.764  50.810  22.838  1.00  0.00     0.000 C 
BRANCH   5   6
ATOM      6  C   UNL     1      11.270  51.698  21.681  1.00  0.00     0.006 C 
BRANCH   6   7
ATOM      7  C   UNL     1      12.245  51.738  20.498  1.00  0.00     0.053 C 
BRANCH   7   8
ATOM      8  C   UNL     1      11.515  51.516  19.211  1.00  0.00     0.041 C 
ATOM      9  O   UNL     1      11.195  52.495  18.487  1.00  0.00    -0.550 OA
ATOM     10  O   UNL     1      11.145  50.231  18.835  1.00  0.00    -0.550 OA
ENDBRANCH   7   8
ENDBRANCH   6   7
ENDBRANCH   5   6
ENDBRANCH   4   5
ENDBRANCH   3   4
ENDBRANCH   2   3
ENDBRANCH   1   2
BRANCH   1  11
ATOM     11  C   UNL     1       7.825  52.121  24.024  1.00  0.00    -0.031 C 
ATOM     12  C   UNL     1       7.519  51.655  22.803  1.00  0.00    -0.027 C 
BRANCH  12  13
ATOM     13  C   UNL     1       7.057  52.570  21.707  1.00  0.00     0.054 C 
BRANCH  13  14
ATOM     14  C   UNL     1       7.988  52.477  20.523  1.00  0.00    -0.027 C 
ATOM     15  C   UNL     1       7.601  52.318  19.244  1.00  0.00    -0.031 C 
BRANCH  15  16
ATOM     16  C   UNL     1       6.172  52.160  18.790  1.00  0.00     0.027 C 
BRANCH  16  17
ATOM     17  C   UNL     1       5.850  53.119  17.634  1.00  0.00     0.004 C 
BRANCH  17  18
ATOM     18  C   UNL     1       5.748  52.399  16.281  1.00  0.00     0.000 C 
BRANCH  18  19
ATOM     19  C   UNL     1       4.424  51.641  16.114  1.00  0.00    -0.003 C 
ATOM     20  C   UNL     1       4.666  50.144  15.940  1.00  0.00     0.004 C 
ENDBRANCH  18  19
ENDBRANCH  17  18
ENDBRANCH  16  17
ENDBRANCH  15  16
ENDBRANCH  13  14
ENDBRANCH  12  13
ENDBRANCH   1  11
TORSDOF 14
ENDMDL
MODEL 7
REMARK VINA RESULT:    -4.544      2.523      3.971
REMARK INTER + INTRA:          -9.976
REMARK INTER:                  -8.219
REMARK INTRA:                  -1.757
REMARK UNBOUND:                -1.713
REMARK SMILES CCCCCC=CCC=CCCCCCCCC(=O)[O-]
REMARK SMILES IDX 11 1 12 2 13 3 14 4 15 5 16 6 17 7 18 8 19 9 20 10 10 11
REMARK SMILES IDX 9 12 8 13 7 14 6 15 5 16 4 17 3 18 2 19 1 20
REMARK H PARENT
REMARK Flexibility Score: inf
ROOT
ATOM      1  C   UNL     1       8.232  50.702  24.757  1.00  0.00     0.027 C 
ENDROOT
BRANCH   1   2
ATOM      2  C   UNL     1       7.468  52.020  24.929  1.00  0.00     0.004 C 
BRANCH   2   3
ATOM      3  C   UNL     1       6.716  52.392  23.646  1.00  0.00     0.000 C 
BRANCH   3   4
ATOM      4  C   UNL     1       7.351  51.716  22.420  1.00  0.00     0.000 C 
BRANCH   4   5
ATOM      5  C   UNL     1       7.878  52.726  21.384  1.00  0.00     0.000 C 
BRANCH   5   6
ATOM      6  C   UNL     1       9.314  53.220  21.632  1.00  0.00     0.006 C 
BRANCH   6   7
ATOM      7  C   UNL     1      10.380  52.256  21.097  1.00  0.00     0.053 C 
BRANCH   7   8
ATOM      8  C   UNL     1      10.903  52.732  19.778  1.00  0.00     0.041 C 
ATOM      9  O   UNL     1      10.397  52.309  18.706  1.00  0.00    -0.550 OA
ATOM     10  O   UNL     1      11.982  53.606  19.733  1.00  0.00    -0.550 OA
ENDBRANCH   7   8
ENDBRANCH   6   7
ENDBRANCH   5   6
ENDBRANCH   4   5
ENDBRANCH   3   4
ENDBRANCH   2   3
ENDBRANCH   1   2
BRANCH   1  11
ATOM     11  C   UNL     1       9.699  50.886  25.025  1.00  0.00    -0.031 C 
ATOM     12  C   UNL     1      10.311  52.062  24.812  1.00  0.00    -0.027 C 
BRANCH  12  13
ATOM     13  C   UNL     1      11.775  52.246  25.088  1.00  0.00     0.054 C 
BRANCH  13  14
ATOM     14  C   UNL     1      12.470  50.908  25.123  1.00  0.00    -0.027 C 
ATOM     15  C   UNL     1      13.790  50.716  24.943  1.00  0.00    -0.031 C 
BRANCH  15  16
ATOM     16  C   UNL     1      14.784  51.806  24.629  1.00  0.00     0.027 C 
BRANCH  16  17
ATOM     17  C   UNL     1      15.113  51.839  23.129  1.00  0.00     0.004 C 
BRANCH  17  18
ATOM     18  C   UNL     1      14.885  53.224  22.504  1.00  0.00     0.000 C 
BRANCH  18  19
ATOM     19  C   UNL     1      16.082  54.165  22.702  1.00  0.00    -0.003 C 
ATOM     20  C   UNL     1      15.811  55.535  22.086  1.00  0.00     0.004 C 
ENDBRANCH  18  19
ENDBRANCH  17  18
ENDBRANCH  16  17
ENDBRANCH  15  16
ENDBRANCH  13  14
ENDBRANCH  12  13
ENDBRANCH   1  11
TORSDOF 14
ENDMDL
MODEL 8
REMARK VINA RESULT:    -4.493      3.949      7.914
REMARK INTER + INTRA:          -9.883
REMARK INTER:                  -8.622
REMARK INTRA:                  -1.261
REMARK UNBOUND:                -1.713
REMARK SMILES CCCCCC=CCC=CCCCCCCCC(=O)[O-]
REMARK SMILES IDX 11 1 12 2 13 3 14 4 15 5 16 6 17 7 18 8 19 9 20 10 10 11
REMARK SMILES IDX 9 12 8 13 7 14 6 15 5 16 4 17 3 18 2 19 1 20
REMARK H PARENT
REMARK Flexibility Score: inf
ROOT
ATOM      1  C   UNL     1       9.170  52.540  22.804  1.00  0.00     0.027 C 
ENDROOT
BRANCH   1   2
ATOM      2  C   UNL     1       8.158  51.788  23.676  1.00  0.00     0.004 C 
BRANCH   2   3
ATOM      3  C   UNL     1       8.745  51.479  25.058  1.00  0.00     0.000 C 
BRANCH   3   4
ATOM      4  C   UNL     1      10.247  51.799  25.103  1.00  0.00     0.000 C 
BRANCH   4   5
ATOM      5  C   UNL     1      11.129  50.538  25.125  1.00  0.00     0.000 C 
BRANCH   5   6
ATOM      6  C   UNL     1      11.968  50.310  23.855  1.00  0.00     0.006 C 
BRANCH   6   7
ATOM      7  C   UNL     1      12.570  51.604  23.295  1.00  0.00     0.053 C 
BRANCH   7   8
ATOM      8  C   UNL     1      13.969  51.788  23.793  1.00  0.00     0.041 C 
ATOM      9  O   UNL     1      14.610  52.835  23.512  1.00  0.00    -0.550 OA
ATOM     10  O   UNL     1      14.584  50.782  24.527  1.00  0.00    -0.550 OA
ENDBRANCH   7   8
ENDBRANCH   6   7
ENDBRANCH   5   6
ENDBRANCH   4   5
ENDBRANCH   3   4
ENDBRANCH   2   3
ENDBRANCH   1   2
BRANCH   1  11
ATOM     11  C   UNL     1       8.517  53.091  21.567  1.00  0.00    -0.031 C 
ATOM     12  C   UNL     1       8.225  52.306  20.518  1.00  0.00    -0.027 C 
BRANCH  12  13
ATOM     13  C   UNL     1       7.566  52.856  19.286  1.00  0.00     0.054 C 
BRANCH  13  14
ATOM     14  C   UNL     1       6.511  51.899  18.790  1.00  0.00    -0.027 C 
ATOM     15  C   UNL     1       5.251  52.240  18.459  1.00  0.00    -0.031 C 
BRANCH  15  16
ATOM     16  C   UNL     1       4.676  53.628  18.575  1.00  0.00     0.027 C 
BRANCH  16  17
ATOM     17  C   UNL     1       4.137  53.887  19.990  1.00  0.00     0.004 C 
BRANCH  17  18
ATOM     18  C   UNL     1       4.789  55.108  20.657  1.00  0.00     0.000 C 
BRANCH  18  19
ATOM     19  C   UNL     1       3.843  56.316  20.731  1.00  0.00    -0.003 C 
ATOM     20  C   UNL     1       4.294  57.301  21.806  1.00  0.00     0.004 C 
ENDBRANCH  18  19
ENDBRANCH  17  18
ENDBRANCH  16  17
ENDBRANCH  15  16
ENDBRANCH  13  14
ENDBRANCH  12  13
ENDBRANCH   1  11
TORSDOF 14
ENDMDL
