MODEL 1
REMARK VINA RESULT:     1.101      0.000      0.000
REMARK INTER + INTRA:           6.858
REMARK INTER:                   1.455
REMARK INTRA:                   5.403
REMARK UNBOUND:                 5.403
REMARK SMILES CC[C@H](C=C[C@H](C)[C@@H]1CC[C@H]2[C@@H]3CC=C4C[C@H](O)CC[C@]4(C)[C@@H]3CC[C@]21C)C(C)C
REMARK SMILES IDX 6 1 7 2 5 3 4 4 3 5 2 6 1 7 28 8 29 9 30 10 8 11 9 12 26 13
REMARK SMILES IDX 10 14 11 15 25 16 27 17 12 18 24 19 23 20 13 21 21 22 14 23
REMARK SMILES IDX 15 24 20 25 22 26 16 27 19 28 17 29 18 30
REMARK H PARENT 18 31
REMARK Flexibility Score: inf
ROOT
ATOM      1  C   UNL     1       7.628 -34.493  12.687  1.00  0.00     0.012 C 
ATOM      2  C   UNL     1       6.471 -35.123  11.876  1.00  0.00     0.012 C 
ENDROOT
BRANCH   1   3
ATOM      3  C   UNL     1       8.055 -33.230  11.956  1.00  0.00    -0.028 C 
ATOM      4  C   UNL     1       8.599 -32.178  12.597  1.00  0.00    -0.027 C 
BRANCH   4   5
ATOM      5  C   UNL     1       9.029 -30.914  11.875  1.00  0.00     0.014 C 
BRANCH   5   6
ATOM      6  C   UNL     1       8.093 -29.735  12.279  1.00  0.00     0.004 C 
ATOM      7  C   UNL     1       6.610 -30.055  12.077  1.00  0.00     0.004 C 
ENDBRANCH   5   6
BRANCH   5   8
ATOM      8  C   UNL     1      10.545 -30.618  12.118  1.00  0.00    -0.011 C 
ATOM      9  C   UNL     1      10.746 -29.223  12.740  1.00  0.00     0.008 C 
ATOM     10  C   UNL     1      11.209 -31.665  13.027  1.00  0.00     0.008 C 
ENDBRANCH   5   8
ENDBRANCH   4   5
ENDBRANCH   1   3
BRANCH   1  11
ATOM     11  C   UNL     1       7.274 -34.221  14.207  1.00  0.00     0.002 C 
ATOM     12  C   UNL     1       5.878 -33.568  14.348  1.00  0.00     0.005 C 
ATOM     13  C   UNL     1       8.201 -33.216  14.990  1.00  0.00    -0.026 C 
ATOM     14  C   UNL     1       6.094 -32.063  14.400  1.00  0.00     0.005 C 
ATOM     15  C   UNL     1       7.596 -31.826  14.633  1.00  0.00    -0.001 C 
ATOM     16  C   UNL     1       8.090 -33.511  16.521  1.00  0.00     0.007 C 
ATOM     17  C   UNL     1       9.693 -33.328  14.594  1.00  0.00     0.012 C 
ATOM     18  C   UNL     1       7.839 -30.661  15.644  1.00  0.00     0.000 C 
ATOM     19  C   UNL     1       8.497 -32.337  17.425  1.00  0.00     0.005 C 
ATOM     20  C   UNL     1       7.641 -31.084  17.122  1.00  0.00     0.003 C 
ATOM     21  C   UNL     1       9.202 -29.985  15.428  1.00  0.00     0.031 C 
ATOM     22  C   UNL     1       7.823 -29.849  18.106  1.00  0.00    -0.008 C 
ATOM     23  C   UNL     1       9.479 -28.912  16.437  1.00  0.00    -0.027 C 
ATOM     24  C   UNL     1       8.961 -28.909  17.684  1.00  0.00    -0.065 C 
ATOM     25  C   UNL     1       8.097 -30.315  19.571  1.00  0.00     0.014 C 
ATOM     26  C   UNL     1       6.497 -29.034  18.083  1.00  0.00     0.016 C 
ATOM     27  C   UNL     1       9.369 -27.797  18.636  1.00  0.00     0.063 C 
ATOM     28  C   UNL     1       8.413 -29.163  20.542  1.00  0.00     0.033 C 
ATOM     29  C   UNL     1       9.606 -28.328  20.056  1.00  0.00     0.118 C 
BRANCH  29  30
ATOM     30  O   UNL     1      10.774 -29.107  20.089  1.00  0.00    -0.393 OA
ATOM     31  H   UNL     1      10.986 -29.267  21.045  1.00  0.00     0.210 HD
ENDBRANCH  29  30
ENDBRANCH   1  11
TORSDOF 6
ENDMDL
