MODEL 1
REMARK VINA RESULT:    -7.207      0.000      0.000
REMARK INTER + INTRA:         -23.076
REMARK INTER:                 -19.003
REMARK INTRA:                  -4.073
REMARK UNBOUND:                -4.073
REMARK SMILES CCCCCCCCCCCCCCCCCCCCCCCCCCCCCC(=O)[O-]
REMARK SMILES IDX 16 1 17 2 18 3 19 4 20 5 21 6 22 7 23 8 24 9 25 10 26 11
REMARK SMILES IDX 27 12 28 13 29 14 30 15 31 16 32 17 15 18 14 19 13 20 12 21
REMARK SMILES IDX 11 22 10 23 9 24 8 25 7 26 6 27 5 28 4 29 3 30 2 31 1 32
REMARK H PARENT
REMARK Flexibility Score: inf
ROOT
ATOM      1  C   UNL     1      14.149  69.936  74.451  1.00  0.00     0.000 C 
ENDROOT
BRANCH   1   2
ATOM      2  C   UNL     1      13.196  70.963  73.822  1.00  0.00     0.000 C 
BRANCH   2   3
ATOM      3  C   UNL     1      13.612  71.371  72.399  1.00  0.00     0.000 C 
BRANCH   3   4
ATOM      4  C   UNL     1      14.167  72.805  72.324  1.00  0.00     0.000 C 
BRANCH   4   5
ATOM      5  C   UNL     1      15.707  72.848  72.403  1.00  0.00     0.000 C 
BRANCH   5   6
ATOM      6  C   UNL     1      16.387  71.509  72.063  1.00  0.00     0.000 C 
BRANCH   6   7
ATOM      7  C   UNL     1      17.860  71.458  72.488  1.00  0.00     0.000 C 
BRANCH   7   8
ATOM      8  C   UNL     1      18.481  72.864  72.500  1.00  0.00     0.000 C 
BRANCH   8   9
ATOM      9  C   UNL     1      19.662  73.004  71.526  1.00  0.00     0.000 C 
BRANCH   9  10
ATOM     10  C   UNL     1      20.297  71.675  71.070  1.00  0.00     0.000 C 
BRANCH  10  11
ATOM     11  C   UNL     1      21.717  71.823  70.481  1.00  0.00     0.000 C 
BRANCH  11  12
ATOM     12  C   UNL     1      22.454  73.058  71.031  1.00  0.00     0.000 C 
BRANCH  12  13
ATOM     13  C   UNL     1      23.535  72.700  72.067  1.00  0.00     0.006 C 
BRANCH  13  14
ATOM     14  C   UNL     1      23.022  72.620  73.514  1.00  0.00     0.053 C 
BRANCH  14  15
ATOM     15  C   UNL     1      23.321  71.298  74.155  1.00  0.00     0.041 C 
ATOM     16  O   UNL     1      23.823  71.249  75.309  1.00  0.00    -0.550 OA
ATOM     17  O   UNL     1      23.045  70.119  73.474  1.00  0.00    -0.550 OA
ENDBRANCH  14  15
ENDBRANCH  13  14
ENDBRANCH  12  13
ENDBRANCH  11  12
ENDBRANCH  10  11
ENDBRANCH   9  10
ENDBRANCH   8   9
ENDBRANCH   7   8
ENDBRANCH   6   7
ENDBRANCH   5   6
ENDBRANCH   4   5
ENDBRANCH   3   4
ENDBRANCH   2   3
ENDBRANCH   1   2
BRANCH   1  18
ATOM     18  C   UNL     1      13.995  69.907  75.980  1.00  0.00     0.000 C 
BRANCH  18  19
ATOM     19  C   UNL     1      15.132  70.654  76.700  1.00  0.00     0.000 C 
BRANCH  19  20
ATOM     20  C   UNL     1      16.284  71.075  75.764  1.00  0.00     0.000 C 
BRANCH  20  21
ATOM     21  C   UNL     1      17.258  72.091  76.389  1.00  0.00     0.000 C 
BRANCH  21  22
ATOM     22  C   UNL     1      18.577  71.468  76.894  1.00  0.00     0.000 C 
BRANCH  22  23
ATOM     23  C   UNL     1      19.607  71.141  75.791  1.00  0.00     0.000 C 
BRANCH  23  24
ATOM     24  C   UNL     1      20.562  69.971  76.096  1.00  0.00    -0.000 C 
BRANCH  24  25
ATOM     25  C   UNL     1      20.057  69.055  77.218  1.00  0.00    -0.000 C 
BRANCH  25  26
ATOM     26  C   UNL     1      21.005  69.073  78.424  1.00  0.00    -0.000 C 
BRANCH  26  27
ATOM     27  C   UNL     1      20.373  68.471  79.700  1.00  0.00    -0.000 C 
BRANCH  27  28
ATOM     28  C   UNL     1      19.627  69.497  80.578  1.00  0.00    -0.000 C 
BRANCH  28  29
ATOM     29  C   UNL     1      18.657  68.884  81.603  1.00  0.00    -0.000 C 
BRANCH  29  30
ATOM     30  C   UNL     1      17.277  69.581  81.640  1.00  0.00    -0.000 C 
BRANCH  30  31
ATOM     31  C   UNL     1      16.710  69.827  80.235  1.00  0.00    -0.003 C 
ATOM     32  C   UNL     1      16.450  71.311  79.994  1.00  0.00     0.004 C 
ENDBRANCH  30  31
ENDBRANCH  29  30
ENDBRANCH  28  29
ENDBRANCH  27  28
ENDBRANCH  26  27
ENDBRANCH  25  26
ENDBRANCH  24  25
ENDBRANCH  23  24
ENDBRANCH  22  23
ENDBRANCH  21  22
ENDBRANCH  20  21
ENDBRANCH  19  20
ENDBRANCH  18  19
ENDBRANCH   1  18
TORSDOF 28
ENDMDL
MODEL 2
REMARK VINA RESULT:    -6.880      2.502      7.941
REMARK INTER + INTRA:         -22.215
REMARK INTER:                 -18.283
REMARK INTRA:                  -3.932
REMARK UNBOUND:                -4.073
REMARK SMILES CCCCCCCCCCCCCCCCCCCCCCCCCCCCCC(=O)[O-]
REMARK SMILES IDX 16 1 17 2 18 3 19 4 20 5 21 6 22 7 23 8 24 9 25 10 26 11
REMARK SMILES IDX 27 12 28 13 29 14 30 15 31 16 32 17 15 18 14 19 13 20 12 21
REMARK SMILES IDX 11 22 10 23 9 24 8 25 7 26 6 27 5 28 4 29 3 30 2 31 1 32
REMARK H PARENT
REMARK Flexibility Score: inf
ROOT
ATOM      1  C   UNL     1      20.176  71.211  70.864  1.00  0.00     0.000 C 
ENDROOT
BRANCH   1   2
ATOM      2  C   UNL     1      20.938  72.525  70.635  1.00  0.00     0.000 C 
BRANCH   2   3
ATOM      3  C   UNL     1      22.424  72.304  70.306  1.00  0.00     0.000 C 
BRANCH   3   4
ATOM      4  C   UNL     1      23.369  72.951  71.335  1.00  0.00     0.000 C 
BRANCH   4   5
ATOM      5  C   UNL     1      22.791  72.928  72.765  1.00  0.00     0.000 C 
BRANCH   5   6
ATOM      6  C   UNL     1      23.540  71.987  73.726  1.00  0.00     0.000 C 
BRANCH   6   7
ATOM      7  C   UNL     1      22.601  71.182  74.633  1.00  0.00     0.000 C 
BRANCH   7   8
ATOM      8  C   UNL     1      21.676  70.276  73.806  1.00  0.00     0.000 C 
BRANCH   8   9
ATOM      9  C   UNL     1      20.362  69.941  74.530  1.00  0.00     0.000 C 
BRANCH   9  10
ATOM     10  C   UNL     1      19.763  71.092  75.364  1.00  0.00     0.000 C 
BRANCH  10  11
ATOM     11  C   UNL     1      19.583  70.758  76.861  1.00  0.00     0.000 C 
BRANCH  11  12
ATOM     12  C   UNL     1      19.951  69.298  77.185  1.00  0.00     0.000 C 
BRANCH  12  13
ATOM     13  C   UNL     1      20.667  69.146  78.540  1.00  0.00     0.006 C 
BRANCH  13  14
ATOM     14  C   UNL     1      19.735  69.227  79.760  1.00  0.00     0.053 C 
BRANCH  14  15
ATOM     15  C   UNL     1      18.418  68.552  79.520  1.00  0.00     0.041 C 
ATOM     16  O   UNL     1      18.350  67.297  79.448  1.00  0.00    -0.550 OA
ATOM     17  O   UNL     1      17.265  69.313  79.376  1.00  0.00    -0.550 OA
ENDBRANCH  14  15
ENDBRANCH  13  14
ENDBRANCH  12  13
ENDBRANCH  11  12
ENDBRANCH  10  11
ENDBRANCH   9  10
ENDBRANCH   8   9
ENDBRANCH   7   8
ENDBRANCH   6   7
ENDBRANCH   5   6
ENDBRANCH   4   5
ENDBRANCH   3   4
ENDBRANCH   2   3
ENDBRANCH   1   2
BRANCH   1  18
ATOM     18  C   UNL     1      18.874  71.458  71.642  1.00  0.00     0.000 C 
BRANCH  18  19
ATOM     19  C   UNL     1      18.434  72.933  71.599  1.00  0.00     0.000 C 
BRANCH  19  20
ATOM     20  C   UNL     1      17.246  73.250  72.531  1.00  0.00     0.000 C 
BRANCH  20  21
ATOM     21  C   UNL     1      15.932  72.555  72.126  1.00  0.00     0.000 C 
BRANCH  21  22
ATOM     22  C   UNL     1      15.641  71.257  72.909  1.00  0.00     0.000 C 
BRANCH  22  23
ATOM     23  C   UNL     1      16.043  71.291  74.399  1.00  0.00     0.000 C 
BRANCH  23  24
ATOM     24  C   UNL     1      15.026  70.675  75.379  1.00  0.00    -0.000 C 
BRANCH  24  25
ATOM     25  C   UNL     1      13.654  70.416  74.742  1.00  0.00    -0.000 C 
BRANCH  25  26
ATOM     26  C   UNL     1      12.613  71.437  75.223  1.00  0.00    -0.000 C 
BRANCH  26  27
ATOM     27  C   UNL     1      11.617  71.852  74.117  1.00  0.00    -0.000 C 
BRANCH  27  28
ATOM     28  C   UNL     1      12.172  72.894  73.125  1.00  0.00    -0.000 C 
BRANCH  28  29
ATOM     29  C   UNL     1      12.114  72.474  71.646  1.00  0.00    -0.000 C 
BRANCH  29  30
ATOM     30  C   UNL     1      12.113  70.941  71.439  1.00  0.00    -0.000 C 
BRANCH  30  31
ATOM     31  C   UNL     1      10.837  70.447  70.744  1.00  0.00    -0.003 C 
ATOM     32  C   UNL     1       9.837  71.582  70.549  1.00  0.00     0.004 C 
ENDBRANCH  30  31
ENDBRANCH  29  30
ENDBRANCH  28  29
ENDBRANCH  27  28
ENDBRANCH  26  27
ENDBRANCH  25  26
ENDBRANCH  24  25
ENDBRANCH  23  24
ENDBRANCH  22  23
ENDBRANCH  21  22
ENDBRANCH  20  21
ENDBRANCH  19  20
ENDBRANCH  18  19
ENDBRANCH   1  18
TORSDOF 28
ENDMDL
MODEL 3
REMARK VINA RESULT:    -6.849      4.220      8.660
REMARK INTER + INTRA:         -22.134
REMARK INTER:                 -19.035
REMARK INTRA:                  -3.099
REMARK UNBOUND:                -4.073
REMARK SMILES CCCCCCCCCCCCCCCCCCCCCCCCCCCCCC(=O)[O-]
REMARK SMILES IDX 16 1 17 2 18 3 19 4 20 5 21 6 22 7 23 8 24 9 25 10 26 11
REMARK SMILES IDX 27 12 28 13 29 14 30 15 31 16 32 17 15 18 14 19 13 20 12 21
REMARK SMILES IDX 11 22 10 23 9 24 8 25 7 26 6 27 5 28 4 29 3 30 2 31 1 32
REMARK H PARENT
REMARK Flexibility Score: inf
ROOT
ATOM      1  C   UNL     1      17.428  71.316  79.740  1.00  0.00     0.000 C 
ENDROOT
BRANCH   1   2
ATOM      2  C   UNL     1      16.716  70.738  78.507  1.00  0.00     0.000 C 
BRANCH   2   3
ATOM      3  C   UNL     1      17.275  71.287  77.184  1.00  0.00     0.000 C 
BRANCH   3   4
ATOM      4  C   UNL     1      16.246  71.254  76.038  1.00  0.00     0.000 C 
BRANCH   4   5
ATOM      5  C   UNL     1      14.975  70.462  76.409  1.00  0.00     0.000 C 
BRANCH   5   6
ATOM      6  C   UNL     1      14.180  69.952  75.193  1.00  0.00     0.000 C 
BRANCH   6   7
ATOM      7  C   UNL     1      14.692  70.514  73.861  1.00  0.00     0.000 C 
BRANCH   7   8
ATOM      8  C   UNL     1      13.884  69.957  72.679  1.00  0.00     0.000 C 
BRANCH   8   9
ATOM      9  C   UNL     1      12.912  70.987  72.081  1.00  0.00     0.000 C 
BRANCH   9  10
ATOM     10  C   UNL     1      12.822  72.323  72.845  1.00  0.00     0.000 C 
BRANCH  10  11
ATOM     11  C   UNL     1      11.395  72.909  72.925  1.00  0.00     0.000 C 
BRANCH  11  12
ATOM     12  C   UNL     1      10.546  72.237  74.021  1.00  0.00     0.000 C 
BRANCH  12  13
ATOM     13  C   UNL     1      11.344  71.952  75.306  1.00  0.00     0.006 C 
BRANCH  13  14
ATOM     14  C   UNL     1      10.619  72.352  76.602  1.00  0.00     0.053 C 
BRANCH  14  15
ATOM     15  C   UNL     1       9.129  72.365  76.443  1.00  0.00     0.041 C 
ATOM     16  O   UNL     1       8.490  73.448  76.519  1.00  0.00    -0.550 OA
ATOM     17  O   UNL     1       8.445  71.178  76.210  1.00  0.00    -0.550 OA
ENDBRANCH  14  15
ENDBRANCH  13  14
ENDBRANCH  12  13
ENDBRANCH  11  12
ENDBRANCH  10  11
ENDBRANCH   9  10
ENDBRANCH   8   9
ENDBRANCH   7   8
ENDBRANCH   6   7
ENDBRANCH   5   6
ENDBRANCH   4   5
ENDBRANCH   3   4
ENDBRANCH   2   3
ENDBRANCH   1   2
BRANCH   1  18
ATOM     18  C   UNL     1      18.329  70.261  80.399  1.00  0.00     0.000 C 
BRANCH  18  19
ATOM     19  C   UNL     1      17.988  68.829  79.946  1.00  0.00     0.000 C 
BRANCH  19  20
ATOM     20  C   UNL     1      19.163  68.104  79.257  1.00  0.00     0.000 C 
BRANCH  20  21
ATOM     21  C   UNL     1      20.278  69.047  78.767  1.00  0.00     0.000 C 
BRANCH  21  22
ATOM     22  C   UNL     1      20.277  69.279  77.240  1.00  0.00     0.000 C 
BRANCH  22  23
ATOM     23  C   UNL     1      21.675  69.475  76.612  1.00  0.00     0.000 C 
BRANCH  23  24
ATOM     24  C   UNL     1      21.698  70.202  75.253  1.00  0.00    -0.000 C 
BRANCH  24  25
ATOM     25  C   UNL     1      20.300  70.580  74.746  1.00  0.00    -0.000 C 
BRANCH  25  26
ATOM     26  C   UNL     1      20.284  71.997  74.157  1.00  0.00    -0.000 C 
BRANCH  26  27
ATOM     27  C   UNL     1      19.060  72.262  73.252  1.00  0.00    -0.000 C 
BRANCH  27  28
ATOM     28  C   UNL     1      19.291  71.929  71.764  1.00  0.00    -0.000 C 
BRANCH  28  29
ATOM     29  C   UNL     1      20.768  71.809  71.350  1.00  0.00    -0.000 C 
BRANCH  29  30
ATOM     30  C   UNL     1      21.010  70.788  70.214  1.00  0.00    -0.000 C 
BRANCH  30  31
ATOM     31  C   UNL     1      20.456  69.397  70.552  1.00  0.00    -0.003 C 
ATOM     32  C   UNL     1      20.303  68.542  69.298  1.00  0.00     0.004 C 
ENDBRANCH  30  31
ENDBRANCH  29  30
ENDBRANCH  28  29
ENDBRANCH  27  28
ENDBRANCH  26  27
ENDBRANCH  25  26
ENDBRANCH  24  25
ENDBRANCH  23  24
ENDBRANCH  22  23
ENDBRANCH  21  22
ENDBRANCH  20  21
ENDBRANCH  19  20
ENDBRANCH  18  19
ENDBRANCH   1  18
TORSDOF 28
ENDMDL
MODEL 4
REMARK VINA RESULT:    -6.848      3.831      7.624
REMARK INTER + INTRA:         -22.130
REMARK INTER:                 -18.209
REMARK INTRA:                  -3.921
REMARK UNBOUND:                -4.073
REMARK SMILES CCCCCCCCCCCCCCCCCCCCCCCCCCCCCC(=O)[O-]
REMARK SMILES IDX 16 1 17 2 18 3 19 4 20 5 21 6 22 7 23 8 24 9 25 10 26 11
REMARK SMILES IDX 27 12 28 13 29 14 30 15 31 16 32 17 15 18 14 19 13 20 12 21
REMARK SMILES IDX 11 22 10 23 9 24 8 25 7 26 6 27 5 28 4 29 3 30 2 31 1 32
REMARK H PARENT
REMARK Flexibility Score: inf
ROOT
ATOM      1  C   UNL     1      19.591  72.937  71.537  1.00  0.00     0.000 C 
ENDROOT
BRANCH   1   2
ATOM      2  C   UNL     1      18.509  73.982  71.225  1.00  0.00     0.000 C 
BRANCH   2   3
ATOM      3  C   UNL     1      17.105  73.536  71.665  1.00  0.00     0.000 C 
BRANCH   3   4
ATOM      4  C   UNL     1      17.039  72.044  72.042  1.00  0.00     0.000 C 
BRANCH   4   5
ATOM      5  C   UNL     1      15.801  71.706  72.897  1.00  0.00     0.000 C 
BRANCH   5   6
ATOM      6  C   UNL     1      14.997  70.499  72.382  1.00  0.00     0.000 C 
BRANCH   6   7
ATOM      7  C   UNL     1      14.326  69.699  73.506  1.00  0.00     0.000 C 
BRANCH   7   8
ATOM      8  C   UNL     1      14.551  70.368  74.871  1.00  0.00     0.000 C 
BRANCH   8   9
ATOM      9  C   UNL     1      13.289  70.372  75.749  1.00  0.00     0.000 C 
BRANCH   9  10
ATOM     10  C   UNL     1      12.479  71.684  75.727  1.00  0.00     0.000 C 
BRANCH  10  11
ATOM     11  C   UNL     1      11.476  71.785  74.557  1.00  0.00     0.000 C 
BRANCH  11  12
ATOM     12  C   UNL     1      12.055  72.548  73.352  1.00  0.00     0.000 C 
BRANCH  12  13
ATOM     13  C   UNL     1      11.203  72.393  72.078  1.00  0.00     0.006 C 
BRANCH  13  14
ATOM     14  C   UNL     1      11.529  71.141  71.248  1.00  0.00     0.053 C 
BRANCH  14  15
ATOM     15  C   UNL     1      10.309  70.536  70.623  1.00  0.00     0.041 C 
ATOM     16  O   UNL     1       9.562  71.230  69.883  1.00  0.00    -0.550 OA
ATOM     17  O   UNL     1       9.996  69.203  70.858  1.00  0.00    -0.550 OA
ENDBRANCH  14  15
ENDBRANCH  13  14
ENDBRANCH  12  13
ENDBRANCH  11  12
ENDBRANCH  10  11
ENDBRANCH   9  10
ENDBRANCH   8   9
ENDBRANCH   7   8
ENDBRANCH   6   7
ENDBRANCH   5   6
ENDBRANCH   4   5
ENDBRANCH   3   4
ENDBRANCH   2   3
ENDBRANCH   1   2
BRANCH   1  18
ATOM     18  C   UNL     1      20.812  73.120  70.622  1.00  0.00     0.000 C 
BRANCH  18  19
ATOM     19  C   UNL     1      21.600  71.812  70.422  1.00  0.00     0.000 C 
BRANCH  19  20
ATOM     20  C   UNL     1      20.730  70.543  70.552  1.00  0.00     0.000 C 
BRANCH  20  21
ATOM     21  C   UNL     1      20.777  69.895  71.948  1.00  0.00     0.000 C 
BRANCH  21  22
ATOM     22  C   UNL     1      22.031  70.262  72.770  1.00  0.00     0.000 C 
BRANCH  22  23
ATOM     23  C   UNL     1      21.757  70.634  74.244  1.00  0.00     0.000 C 
BRANCH  23  24
ATOM     24  C   UNL     1      20.347  70.296  74.764  1.00  0.00    -0.000 C 
BRANCH  24  25
ATOM     25  C   UNL     1      19.467  71.535  74.975  1.00  0.00    -0.000 C 
BRANCH  25  26
ATOM     26  C   UNL     1      18.138  71.169  75.650  1.00  0.00    -0.000 C 
BRANCH  26  27
ATOM     27  C   UNL     1      17.965  71.825  77.039  1.00  0.00    -0.000 C 
BRANCH  27  28
ATOM     28  C   UNL     1      16.970  71.092  77.963  1.00  0.00    -0.000 C 
BRANCH  28  29
ATOM     29  C   UNL     1      17.588  69.974  78.821  1.00  0.00    -0.000 C 
BRANCH  29  30
ATOM     30  C   UNL     1      19.074  70.218  79.176  1.00  0.00    -0.000 C 
BRANCH  30  31
ATOM     31  C   UNL     1      19.894  68.921  79.173  1.00  0.00    -0.003 C 
ATOM     32  C   UNL     1      20.922  68.918  78.046  1.00  0.00     0.004 C 
ENDBRANCH  30  31
ENDBRANCH  29  30
ENDBRANCH  28  29
ENDBRANCH  27  28
ENDBRANCH  26  27
ENDBRANCH  25  26
ENDBRANCH  24  25
ENDBRANCH  23  24
ENDBRANCH  22  23
ENDBRANCH  21  22
ENDBRANCH  20  21
ENDBRANCH  19  20
ENDBRANCH  18  19
ENDBRANCH   1  18
TORSDOF 28
ENDMDL
MODEL 5
REMARK VINA RESULT:    -6.846      4.299      8.534
REMARK INTER + INTRA:         -22.126
REMARK INTER:                 -19.011
REMARK INTRA:                  -3.115
REMARK UNBOUND:                -4.073
REMARK SMILES CCCCCCCCCCCCCCCCCCCCCCCCCCCCCC(=O)[O-]
REMARK SMILES IDX 16 1 17 2 18 3 19 4 20 5 21 6 22 7 23 8 24 9 25 10 26 11
REMARK SMILES IDX 27 12 28 13 29 14 30 15 31 16 32 17 15 18 14 19 13 20 12 21
REMARK SMILES IDX 11 22 10 23 9 24 8 25 7 26 6 27 5 28 4 29 3 30 2 31 1 32
REMARK H PARENT
REMARK Flexibility Score: inf
ROOT
ATOM      1  C   UNL     1      13.522  73.046  71.772  1.00  0.00     0.000 C 
ENDROOT
BRANCH   1   2
ATOM      2  C   UNL     1      14.652  72.506  72.662  1.00  0.00     0.000 C 
BRANCH   2   3
ATOM      3  C   UNL     1      15.028  71.052  72.333  1.00  0.00     0.000 C 
BRANCH   3   4
ATOM      4  C   UNL     1      14.370  70.032  73.281  1.00  0.00     0.000 C 
BRANCH   4   5
ATOM      5  C   UNL     1      13.896  70.674  74.601  1.00  0.00     0.000 C 
BRANCH   5   6
ATOM      6  C   UNL     1      14.119  69.790  75.841  1.00  0.00     0.000 C 
BRANCH   6   7
ATOM      7  C   UNL     1      15.053  70.430  76.876  1.00  0.00     0.000 C 
BRANCH   7   8
ATOM      8  C   UNL     1      16.242  71.124  76.193  1.00  0.00     0.000 C 
BRANCH   8   9
ATOM      9  C   UNL     1      17.421  71.368  77.148  1.00  0.00     0.000 C 
BRANCH   9  10
ATOM     10  C   UNL     1      18.801  71.480  76.469  1.00  0.00     0.000 C 
BRANCH  10  11
ATOM     11  C   UNL     1      18.746  71.491  74.926  1.00  0.00     0.000 C 
BRANCH  11  12
ATOM     12  C   UNL     1      19.957  72.208  74.300  1.00  0.00     0.000 C 
BRANCH  12  13
ATOM     13  C   UNL     1      21.120  71.252  73.980  1.00  0.00     0.006 C 
BRANCH  13  14
ATOM     14  C   UNL     1      20.780  70.166  72.946  1.00  0.00     0.053 C 
BRANCH  14  15
ATOM     15  C   UNL     1      20.555  70.731  71.577  1.00  0.00     0.041 C 
ATOM     16  O   UNL     1      21.514  71.222  70.924  1.00  0.00    -0.550 OA
ATOM     17  O   UNL     1      19.282  70.715  71.020  1.00  0.00    -0.550 OA
ENDBRANCH  14  15
ENDBRANCH  13  14
ENDBRANCH  12  13
ENDBRANCH  11  12
ENDBRANCH  10  11
ENDBRANCH   9  10
ENDBRANCH   8   9
ENDBRANCH   7   8
ENDBRANCH   6   7
ENDBRANCH   5   6
ENDBRANCH   4   5
ENDBRANCH   3   4
ENDBRANCH   2   3
ENDBRANCH   1   2
BRANCH   1  18
ATOM     18  C   UNL     1      12.348  73.556  72.622  1.00  0.00     0.000 C 
BRANCH  18  19
ATOM     19  C   UNL     1      11.357  72.436  72.989  1.00  0.00     0.000 C 
BRANCH  19  20
ATOM     20  C   UNL     1      11.185  71.377  71.880  1.00  0.00     0.000 C 
BRANCH  20  21
ATOM     21  C   UNL     1       9.829  71.447  71.155  1.00  0.00     0.000 C 
BRANCH  21  22
ATOM     22  C   UNL     1       8.784  70.436  71.675  1.00  0.00     0.000 C 
BRANCH  22  23
ATOM     23  C   UNL     1       8.217  70.750  73.077  1.00  0.00     0.000 C 
BRANCH  23  24
ATOM     24  C   UNL     1       6.724  71.129  73.121  1.00  0.00    -0.000 C 
BRANCH  24  25
ATOM     25  C   UNL     1       6.236  71.500  74.528  1.00  0.00    -0.000 C 
BRANCH  25  26
ATOM     26  C   UNL     1       5.384  72.776  74.505  1.00  0.00    -0.000 C 
BRANCH  26  27
ATOM     27  C   UNL     1       5.675  73.720  75.694  1.00  0.00    -0.000 C 
BRANCH  27  28
ATOM     28  C   UNL     1       5.883  72.994  77.039  1.00  0.00    -0.000 C 
BRANCH  28  29
ATOM     29  C   UNL     1       7.096  73.479  77.853  1.00  0.00    -0.000 C 
BRANCH  29  30
ATOM     30  C   UNL     1       7.999  72.330  78.359  1.00  0.00    -0.000 C 
BRANCH  30  31
ATOM     31  C   UNL     1       8.583  71.498  77.209  1.00  0.00    -0.003 C 
ATOM     32  C   UNL     1       9.417  72.361  76.268  1.00  0.00     0.004 C 
ENDBRANCH  30  31
ENDBRANCH  29  30
ENDBRANCH  28  29
ENDBRANCH  27  28
ENDBRANCH  26  27
ENDBRANCH  25  26
ENDBRANCH  24  25
ENDBRANCH  23  24
ENDBRANCH  22  23
ENDBRANCH  21  22
ENDBRANCH  20  21
ENDBRANCH  19  20
ENDBRANCH  18  19
ENDBRANCH   1  18
TORSDOF 28
ENDMDL
MODEL 6
REMARK VINA RESULT:    -6.783      2.957      8.332
REMARK INTER + INTRA:         -21.960
REMARK INTER:                 -18.231
REMARK INTRA:                  -3.729
REMARK UNBOUND:                -4.073
REMARK SMILES CCCCCCCCCCCCCCCCCCCCCCCCCCCCCC(=O)[O-]
REMARK SMILES IDX 16 1 17 2 18 3 19 4 20 5 21 6 22 7 23 8 24 9 25 10 26 11
REMARK SMILES IDX 27 12 28 13 29 14 30 15 31 16 32 17 15 18 14 19 13 20 12 21
REMARK SMILES IDX 11 22 10 23 9 24 8 25 7 26 6 27 5 28 4 29 3 30 2 31 1 32
REMARK H PARENT
REMARK Flexibility Score: inf
ROOT
ATOM      1  C   UNL     1      17.104  72.843  72.579  1.00  0.00     0.000 C 
ENDROOT
BRANCH   1   2
ATOM      2  C   UNL     1      17.562  71.507  71.973  1.00  0.00     0.000 C 
BRANCH   2   3
ATOM      3  C   UNL     1      19.044  71.516  71.561  1.00  0.00     0.000 C 
BRANCH   3   4
ATOM      4  C   UNL     1      19.608  72.937  71.378  1.00  0.00     0.000 C 
BRANCH   4   5
ATOM      5  C   UNL     1      21.004  72.938  70.722  1.00  0.00     0.000 C 
BRANCH   5   6
ATOM      6  C   UNL     1      22.004  71.970  71.380  1.00  0.00     0.000 C 
BRANCH   6   7
ATOM      7  C   UNL     1      22.433  72.411  72.785  1.00  0.00     0.000 C 
BRANCH   7   8
ATOM      8  C   UNL     1      23.059  71.244  73.564  1.00  0.00     0.000 C 
BRANCH   8   9
ATOM      9  C   UNL     1      22.016  70.386  74.298  1.00  0.00     0.000 C 
BRANCH   9  10
ATOM     10  C   UNL     1      20.678  71.093  74.595  1.00  0.00     0.000 C 
BRANCH  10  11
ATOM     11  C   UNL     1      19.883  70.473  75.765  1.00  0.00     0.000 C 
BRANCH  11  12
ATOM     12  C   UNL     1      20.800  69.822  76.817  1.00  0.00     0.000 C 
BRANCH  12  13
ATOM     13  C   UNL     1      20.055  68.833  77.732  1.00  0.00     0.006 C 
BRANCH  13  14
ATOM     14  C   UNL     1      19.574  69.439  79.060  1.00  0.00     0.053 C 
BRANCH  14  15
ATOM     15  C   UNL     1      18.101  69.717  79.062  1.00  0.00     0.041 C 
ATOM     16  O   UNL     1      17.630  70.657  78.368  1.00  0.00    -0.550 OA
ATOM     17  O   UNL     1      17.248  68.936  79.832  1.00  0.00    -0.550 OA
ENDBRANCH  14  15
ENDBRANCH  13  14
ENDBRANCH  12  13
ENDBRANCH  11  12
ENDBRANCH  10  11
ENDBRANCH   9  10
ENDBRANCH   8   9
ENDBRANCH   7   8
ENDBRANCH   6   7
ENDBRANCH   5   6
ENDBRANCH   4   5
ENDBRANCH   3   4
ENDBRANCH   2   3
ENDBRANCH   1   2
BRANCH   1  18
ATOM     18  C   UNL     1      15.898  72.640  73.508  1.00  0.00     0.000 C 
BRANCH  18  19
ATOM     19  C   UNL     1      16.030  71.374  74.376  1.00  0.00     0.000 C 
BRANCH  19  20
ATOM     20  C   UNL     1      14.755  70.504  74.396  1.00  0.00     0.000 C 
BRANCH  20  21
ATOM     21  C   UNL     1      14.304  70.026  73.004  1.00  0.00     0.000 C 
BRANCH  21  22
ATOM     22  C   UNL     1      13.061  70.763  72.459  1.00  0.00     0.000 C 
BRANCH  22  23
ATOM     23  C   UNL     1      12.243  71.531  73.520  1.00  0.00     0.000 C 
BRANCH  23  24
ATOM     24  C   UNL     1      11.606  72.850  73.043  1.00  0.00    -0.000 C 
BRANCH  24  25
ATOM     25  C   UNL     1      12.585  73.755  72.284  1.00  0.00    -0.000 C 
BRANCH  25  26
ATOM     26  C   UNL     1      12.417  73.611  70.765  1.00  0.00    -0.000 C 
BRANCH  26  27
ATOM     27  C   UNL     1      10.985  73.205  70.352  1.00  0.00    -0.000 C 
BRANCH  27  28
ATOM     28  C   UNL     1      10.917  72.361  69.062  1.00  0.00    -0.000 C 
BRANCH  28  29
ATOM     29  C   UNL     1      11.010  70.841  69.279  1.00  0.00    -0.000 C 
BRANCH  29  30
ATOM     30  C   UNL     1       9.651  70.178  69.602  1.00  0.00    -0.000 C 
BRANCH  30  31
ATOM     31  C   UNL     1       9.592  69.638  71.037  1.00  0.00    -0.003 C 
ATOM     32  C   UNL     1       8.905  70.627  71.974  1.00  0.00     0.004 C 
ENDBRANCH  30  31
ENDBRANCH  29  30
ENDBRANCH  28  29
ENDBRANCH  27  28
ENDBRANCH  26  27
ENDBRANCH  25  26
ENDBRANCH  24  25
ENDBRANCH  23  24
ENDBRANCH  22  23
ENDBRANCH  21  22
ENDBRANCH  20  21
ENDBRANCH  19  20
ENDBRANCH  18  19
ENDBRANCH   1  18
TORSDOF 28
ENDMDL
MODEL 7
REMARK VINA RESULT:    -6.719      3.083      8.113
REMARK INTER + INTRA:         -21.790
REMARK INTER:                 -18.963
REMARK INTRA:                  -2.828
REMARK UNBOUND:                -4.073
REMARK SMILES CCCCCCCCCCCCCCCCCCCCCCCCCCCCCC(=O)[O-]
REMARK SMILES IDX 16 1 17 2 18 3 19 4 20 5 21 6 22 7 23 8 24 9 25 10 26 11
REMARK SMILES IDX 27 12 28 13 29 14 30 15 31 16 32 17 15 18 14 19 13 20 12 21
REMARK SMILES IDX 11 22 10 23 9 24 8 25 7 26 6 27 5 28 4 29 3 30 2 31 1 32
REMARK H PARENT
REMARK Flexibility Score: inf
ROOT
ATOM      1  C   UNL     1      20.390  73.038  70.827  1.00  0.00     0.000 C 
ENDROOT
BRANCH   1   2
ATOM      2  C   UNL     1      21.623  72.126  70.919  1.00  0.00     0.000 C 
BRANCH   2   3
ATOM      3  C   UNL     1      22.804  72.791  71.646  1.00  0.00     0.000 C 
BRANCH   3   4
ATOM      4  C   UNL     1      22.680  72.724  73.180  1.00  0.00     0.000 C 
BRANCH   4   5
ATOM      5  C   UNL     1      23.386  71.489  73.776  1.00  0.00     0.000 C 
BRANCH   5   6
ATOM      6  C   UNL     1      22.441  70.527  74.518  1.00  0.00     0.000 C 
BRANCH   6   7
ATOM      7  C   UNL     1      21.068  70.396  73.848  1.00  0.00     0.000 C 
BRANCH   7   8
ATOM      8  C   UNL     1      19.985  70.028  74.875  1.00  0.00     0.000 C 
BRANCH   8   9
ATOM      9  C   UNL     1      19.546  71.223  75.736  1.00  0.00     0.000 C 
BRANCH   9  10
ATOM     10  C   UNL     1      19.076  70.866  77.161  1.00  0.00     0.000 C 
BRANCH  10  11
ATOM     11  C   UNL     1      19.685  69.560  77.717  1.00  0.00     0.000 C 
BRANCH  11  12
ATOM     12  C   UNL     1      20.242  69.732  79.143  1.00  0.00     0.000 C 
BRANCH  12  13
ATOM     13  C   UNL     1      19.916  68.541  80.061  1.00  0.00     0.006 C 
BRANCH  13  14
ATOM     14  C   UNL     1      18.491  67.988  79.899  1.00  0.00     0.053 C 
BRANCH  14  15
ATOM     15  C   UNL     1      17.446  68.949  80.381  1.00  0.00     0.041 C 
ATOM     16  O   UNL     1      16.668  69.506  79.562  1.00  0.00    -0.550 OA
ATOM     17  O   UNL     1      17.334  69.230  81.737  1.00  0.00    -0.550 OA
ENDBRANCH  14  15
ENDBRANCH  13  14
ENDBRANCH  12  13
ENDBRANCH  11  12
ENDBRANCH  10  11
ENDBRANCH   9  10
ENDBRANCH   8   9
ENDBRANCH   7   8
ENDBRANCH   6   7
ENDBRANCH   5   6
ENDBRANCH   4   5
ENDBRANCH   3   4
ENDBRANCH   2   3
ENDBRANCH   1   2
BRANCH   1  18
ATOM     18  C   UNL     1      19.234  72.486  71.674  1.00  0.00     0.000 C 
BRANCH  18  19
ATOM     19  C   UNL     1      18.105  73.515  71.871  1.00  0.00     0.000 C 
BRANCH  19  20
ATOM     20  C   UNL     1      16.738  72.876  72.197  1.00  0.00     0.000 C 
BRANCH  20  21
ATOM     21  C   UNL     1      16.839  71.535  72.949  1.00  0.00     0.000 C 
BRANCH  21  22
ATOM     22  C   UNL     1      16.055  71.500  74.278  1.00  0.00     0.000 C 
BRANCH  22  23
ATOM     23  C   UNL     1      14.811  70.584  74.276  1.00  0.00     0.000 C 
BRANCH  23  24
ATOM     24  C   UNL     1      14.354  70.086  72.891  1.00  0.00    -0.000 C 
BRANCH  24  25
ATOM     25  C   UNL     1      13.117  70.823  72.362  1.00  0.00    -0.000 C 
BRANCH  25  26
ATOM     26  C   UNL     1      13.109  72.292  72.806  1.00  0.00    -0.000 C 
BRANCH  26  27
ATOM     27  C   UNL     1      11.683  72.865  72.974  1.00  0.00    -0.000 C 
BRANCH  27  28
ATOM     28  C   UNL     1      10.692  71.899  73.656  1.00  0.00    -0.000 C 
BRANCH  28  29
ATOM     29  C   UNL     1      10.382  72.223  75.128  1.00  0.00    -0.000 C 
BRANCH  29  30
ATOM     30  C   UNL     1       8.945  71.843  75.555  1.00  0.00    -0.000 C 
BRANCH  30  31
ATOM     31  C   UNL     1       8.770  71.844  77.079  1.00  0.00    -0.003 C 
ATOM     32  C   UNL     1       9.146  73.194  77.680  1.00  0.00     0.004 C 
ENDBRANCH  30  31
ENDBRANCH  29  30
ENDBRANCH  28  29
ENDBRANCH  27  28
ENDBRANCH  26  27
ENDBRANCH  25  26
ENDBRANCH  24  25
ENDBRANCH  23  24
ENDBRANCH  22  23
ENDBRANCH  21  22
ENDBRANCH  20  21
ENDBRANCH  19  20
ENDBRANCH  18  19
ENDBRANCH   1  18
TORSDOF 28
ENDMDL
MODEL 8
REMARK VINA RESULT:    -6.714      4.127      8.142
REMARK INTER + INTRA:         -21.778
REMARK INTER:                 -18.289
REMARK INTRA:                  -3.489
REMARK UNBOUND:                -4.073
REMARK SMILES CCCCCCCCCCCCCCCCCCCCCCCCCCCCCC(=O)[O-]
REMARK SMILES IDX 16 1 17 2 18 3 19 4 20 5 21 6 22 7 23 8 24 9 25 10 26 11
REMARK SMILES IDX 27 12 28 13 29 14 30 15 31 16 32 17 15 18 14 19 13 20 12 21
REMARK SMILES IDX 11 22 10 23 9 24 8 25 7 26 6 27 5 28 4 29 3 30 2 31 1 32
REMARK H PARENT
REMARK Flexibility Score: inf
ROOT
ATOM      1  C   UNL     1      11.419  73.474  71.552  1.00  0.00     0.000 C 
ENDROOT
BRANCH   1   2
ATOM      2  C   UNL     1      12.743  73.172  72.270  1.00  0.00     0.000 C 
BRANCH   2   3
ATOM      3  C   UNL     1      12.682  71.892  73.121  1.00  0.00     0.000 C 
BRANCH   3   4
ATOM      4  C   UNL     1      13.115  70.635  72.344  1.00  0.00     0.000 C 
BRANCH   4   5
ATOM      5  C   UNL     1      14.565  70.214  72.662  1.00  0.00     0.000 C 
BRANCH   5   6
ATOM      6  C   UNL     1      15.115  70.810  73.970  1.00  0.00     0.000 C 
BRANCH   6   7
ATOM      7  C   UNL     1      16.380  71.653  73.761  1.00  0.00     0.000 C 
BRANCH   7   8
ATOM      8  C   UNL     1      16.297  72.460  72.456  1.00  0.00     0.000 C 
BRANCH   8   9
ATOM      9  C   UNL     1      17.665  72.647  71.780  1.00  0.00     0.000 C 
BRANCH   9  10
ATOM     10  C   UNL     1      18.623  71.444  71.898  1.00  0.00     0.000 C 
BRANCH  10  11
ATOM     11  C   UNL     1      20.076  71.752  71.476  1.00  0.00     0.000 C 
BRANCH  11  12
ATOM     12  C   UNL     1      21.066  71.629  72.649  1.00  0.00     0.000 C 
BRANCH  12  13
ATOM     13  C   UNL     1      20.837  70.366  73.498  1.00  0.00     0.006 C 
BRANCH  13  14
ATOM     14  C   UNL     1      21.332  70.480  74.949  1.00  0.00     0.053 C 
BRANCH  14  15
ATOM     15  C   UNL     1      20.205  70.493  75.937  1.00  0.00     0.041 C 
ATOM     16  O   UNL     1      19.379  71.444  75.949  1.00  0.00    -0.550 OA
ATOM     17  O   UNL     1      20.067  69.451  76.846  1.00  0.00    -0.550 OA
ENDBRANCH  14  15
ENDBRANCH  13  14
ENDBRANCH  12  13
ENDBRANCH  11  12
ENDBRANCH  10  11
ENDBRANCH   9  10
ENDBRANCH   8   9
ENDBRANCH   7   8
ENDBRANCH   6   7
ENDBRANCH   5   6
ENDBRANCH   4   5
ENDBRANCH   3   4
ENDBRANCH   2   3
ENDBRANCH   1   2
BRANCH   1  18
ATOM     18  C   UNL     1      11.588  73.387  70.028  1.00  0.00     0.000 C 
BRANCH  18  19
ATOM     19  C   UNL     1      10.533  72.480  69.369  1.00  0.00     0.000 C 
BRANCH  19  20
ATOM     20  C   UNL     1      10.739  70.979  69.665  1.00  0.00     0.000 C 
BRANCH  20  21
ATOM     21  C   UNL     1       9.428  70.188  69.827  1.00  0.00     0.000 C 
BRANCH  21  22
ATOM     22  C   UNL     1       8.512  70.714  70.954  1.00  0.00     0.000 C 
BRANCH  22  23
ATOM     23  C   UNL     1       9.166  70.766  72.352  1.00  0.00     0.000 C 
BRANCH  23  24
ATOM     24  C   UNL     1       8.195  70.943  73.535  1.00  0.00    -0.000 C 
BRANCH  24  25
ATOM     25  C   UNL     1       6.741  71.160  73.096  1.00  0.00    -0.000 C 
BRANCH  25  26
ATOM     26  C   UNL     1       5.849  71.540  74.286  1.00  0.00    -0.000 C 
BRANCH  26  27
ATOM     27  C   UNL     1       6.605  72.324  75.382  1.00  0.00    -0.000 C 
BRANCH  27  28
ATOM     28  C   UNL     1       6.562  71.663  76.775  1.00  0.00    -0.000 C 
BRANCH  28  29
ATOM     29  C   UNL     1       7.800  71.920  77.652  1.00  0.00    -0.000 C 
BRANCH  29  30
ATOM     30  C   UNL     1       8.499  73.267  77.354  1.00  0.00    -0.000 C 
BRANCH  30  31
ATOM     31  C   UNL     1      10.026  73.132  77.301  1.00  0.00    -0.003 C 
ATOM     32  C   UNL     1      10.466  72.262  76.128  1.00  0.00     0.004 C 
ENDBRANCH  30  31
ENDBRANCH  29  30
ENDBRANCH  28  29
ENDBRANCH  27  28
ENDBRANCH  26  27
ENDBRANCH  25  26
ENDBRANCH  24  25
ENDBRANCH  23  24
ENDBRANCH  22  23
ENDBRANCH  21  22
ENDBRANCH  20  21
ENDBRANCH  19  20
ENDBRANCH  18  19
ENDBRANCH   1  18
TORSDOF 28
ENDMDL
MODEL 9
REMARK VINA RESULT:    -6.698      4.479      8.577
REMARK INTER + INTRA:         -21.734
REMARK INTER:                 -18.832
REMARK INTRA:                  -2.902
REMARK UNBOUND:                -4.073
REMARK SMILES CCCCCCCCCCCCCCCCCCCCCCCCCCCCCC(=O)[O-]
REMARK SMILES IDX 16 1 17 2 18 3 19 4 20 5 21 6 22 7 23 8 24 9 25 10 26 11
REMARK SMILES IDX 27 12 28 13 29 14 30 15 31 16 32 17 15 18 14 19 13 20 12 21
REMARK SMILES IDX 11 22 10 23 9 24 8 25 7 26 6 27 5 28 4 29 3 30 2 31 1 32
REMARK H PARENT
REMARK Flexibility Score: inf
ROOT
ATOM      1  C   UNL     1      11.379  73.656  70.635  1.00  0.00     0.000 C 
ENDROOT
BRANCH   1   2
ATOM      2  C   UNL     1      12.375  73.140  71.684  1.00  0.00     0.000 C 
BRANCH   2   3
ATOM      3  C   UNL     1      11.730  72.920  73.062  1.00  0.00     0.000 C 
BRANCH   3   4
ATOM      4  C   UNL     1      11.912  71.484  73.588  1.00  0.00     0.000 C 
BRANCH   4   5
ATOM      5  C   UNL     1      13.145  71.343  74.504  1.00  0.00     0.000 C 
BRANCH   5   6
ATOM      6  C   UNL     1      14.018  70.115  74.191  1.00  0.00     0.000 C 
BRANCH   6   7
ATOM      7  C   UNL     1      14.415  70.020  72.712  1.00  0.00     0.000 C 
BRANCH   7   8
ATOM      8  C   UNL     1      15.384  71.149  72.326  1.00  0.00     0.000 C 
BRANCH   8   9
ATOM      9  C   UNL     1      16.408  71.460  73.429  1.00  0.00     0.000 C 
BRANCH   9  10
ATOM     10  C   UNL     1      17.614  72.312  72.981  1.00  0.00     0.000 C 
BRANCH  10  11
ATOM     11  C   UNL     1      18.321  71.786  71.712  1.00  0.00     0.000 C 
BRANCH  11  12
ATOM     12  C   UNL     1      19.791  72.236  71.631  1.00  0.00     0.000 C 
BRANCH  12  13
ATOM     13  C   UNL     1      20.685  71.553  72.683  1.00  0.00     0.006 C 
BRANCH  13  14
ATOM     14  C   UNL     1      22.158  71.411  72.264  1.00  0.00     0.053 C 
BRANCH  14  15
ATOM     15  C   UNL     1      23.099  71.977  73.285  1.00  0.00     0.041 C 
ATOM     16  O   UNL     1      23.287  73.221  73.356  1.00  0.00    -0.550 OA
ATOM     17  O   UNL     1      23.769  71.129  74.157  1.00  0.00    -0.550 OA
ENDBRANCH  14  15
ENDBRANCH  13  14
ENDBRANCH  12  13
ENDBRANCH  11  12
ENDBRANCH  10  11
ENDBRANCH   9  10
ENDBRANCH   8   9
ENDBRANCH   7   8
ENDBRANCH   6   7
ENDBRANCH   5   6
ENDBRANCH   4   5
ENDBRANCH   3   4
ENDBRANCH   2   3
ENDBRANCH   1   2
BRANCH   1  18
ATOM     18  C   UNL     1      11.388  72.766  69.383  1.00  0.00     0.000 C 
BRANCH  18  19
ATOM     19  C   UNL     1      10.521  71.504  69.552  1.00  0.00     0.000 C 
BRANCH  19  20
ATOM     20  C   UNL     1       9.006  71.799  69.599  1.00  0.00     0.000 C 
BRANCH  20  21
ATOM     21  C   UNL     1       8.221  70.881  70.555  1.00  0.00     0.000 C 
BRANCH  21  22
ATOM     22  C   UNL     1       9.009  70.468  71.817  1.00  0.00     0.000 C 
BRANCH  22  23
ATOM     23  C   UNL     1       8.304  70.782  73.155  1.00  0.00     0.000 C 
BRANCH  23  24
ATOM     24  C   UNL     1       6.815  71.166  73.050  1.00  0.00    -0.000 C 
BRANCH  24  25
ATOM     25  C   UNL     1       6.192  71.548  74.399  1.00  0.00    -0.000 C 
BRANCH  25  26
ATOM     26  C   UNL     1       5.522  72.927  74.334  1.00  0.00    -0.000 C 
BRANCH  26  27
ATOM     27  C   UNL     1       5.124  73.472  75.725  1.00  0.00    -0.000 C 
BRANCH  27  28
ATOM     28  C   UNL     1       6.318  73.931  76.587  1.00  0.00    -0.000 C 
BRANCH  28  29
ATOM     29  C   UNL     1       6.961  72.824  77.441  1.00  0.00    -0.000 C 
BRANCH  29  30
ATOM     30  C   UNL     1       8.207  73.296  78.226  1.00  0.00    -0.000 C 
BRANCH  30  31
ATOM     31  C   UNL     1       9.497  73.169  77.406  1.00  0.00    -0.003 C 
ATOM     32  C   UNL     1       9.435  71.977  76.456  1.00  0.00     0.004 C 
ENDBRANCH  30  31
ENDBRANCH  29  30
ENDBRANCH  28  29
ENDBRANCH  27  28
ENDBRANCH  26  27
ENDBRANCH  25  26
ENDBRANCH  24  25
ENDBRANCH  23  24
ENDBRANCH  22  23
ENDBRANCH  21  22
ENDBRANCH  20  21
ENDBRANCH  19  20
ENDBRANCH  18  19
ENDBRANCH   1  18
TORSDOF 28
ENDMDL
