MODEL 1
REMARK VINA RESULT:    -3.622      0.000      0.000
REMARK INTER + INTRA:         -11.747
REMARK INTER:                  -8.280
REMARK INTRA:                  -3.468
REMARK UNBOUND:                -3.468
REMARK SMILES CCCCCCCCCCCCCCCCCCCCCCCC(=O)[O-]
REMARK SMILES IDX 13 1 14 2 15 3 16 4 17 5 18 6 19 7 20 8 21 9 22 10 23 11
REMARK SMILES IDX 24 12 25 13 26 14 12 15 11 16 10 17 9 18 8 19 7 20 6 21 5 22
REMARK SMILES IDX 4 23 3 24 2 25 1 26
REMARK H PARENT
REMARK Flexibility Score: inf
ROOT
ATOM      1  C   UNL     1      -5.773  -8.689   2.378  1.00  0.00     0.000 C 
ENDROOT
BRANCH   1   2
ATOM      2  C   UNL     1      -7.287  -8.947   2.489  1.00  0.00     0.000 C 
BRANCH   2   3
ATOM      3  C   UNL     1      -7.904  -9.472   1.181  1.00  0.00     0.000 C 
BRANCH   3   4
ATOM      4  C   UNL     1      -7.135  -9.002  -0.065  1.00  0.00     0.000 C 
BRANCH   4   5
ATOM      5  C   UNL     1      -7.981  -8.089  -0.969  1.00  0.00     0.000 C 
BRANCH   5   6
ATOM      6  C   UNL     1      -7.350  -6.699  -1.168  1.00  0.00     0.000 C 
BRANCH   6   7
ATOM      7  C   UNL     1      -6.870  -6.013   0.126  1.00  0.00     0.000 C 
BRANCH   7   8
ATOM      8  C   UNL     1      -8.018  -5.573   1.058  1.00  0.00     0.000 C 
BRANCH   8   9
ATOM      9  C   UNL     1      -7.499  -4.897   2.340  1.00  0.00     0.000 C 
BRANCH   9  10
ATOM     10  C   UNL     1      -8.026  -3.460   2.512  1.00  0.00     0.006 C 
BRANCH  10  11
ATOM     11  C   UNL     1      -7.818  -2.560   1.284  1.00  0.00     0.053 C 
BRANCH  11  12
ATOM     12  C   UNL     1      -6.445  -1.962   1.254  1.00  0.00     0.041 C 
ATOM     13  O   UNL     1      -5.647  -2.254   0.326  1.00  0.00    -0.550 OA
ATOM     14  O   UNL     1      -6.037  -1.109   2.271  1.00  0.00    -0.550 OA
ENDBRANCH  11  12
ENDBRANCH  10  11
ENDBRANCH   9  10
ENDBRANCH   8   9
ENDBRANCH   7   8
ENDBRANCH   6   7
ENDBRANCH   5   6
ENDBRANCH   4   5
ENDBRANCH   3   4
ENDBRANCH   2   3
ENDBRANCH   1   2
BRANCH   1  15
ATOM     15  C   UNL     1      -4.947  -9.055   3.626  1.00  0.00     0.000 C 
BRANCH  15  16
ATOM     16  C   UNL     1      -5.797  -9.674   4.747  1.00  0.00     0.000 C 
BRANCH  16  17
ATOM     17  C   UNL     1      -5.916  -8.762   5.981  1.00  0.00     0.000 C 
BRANCH  17  18
ATOM     18  C   UNL     1      -7.175  -7.871   6.026  1.00  0.00    -0.000 C 
BRANCH  18  19
ATOM     19  C   UNL     1      -6.954  -6.398   5.636  1.00  0.00    -0.000 C 
BRANCH  19  20
ATOM     20  C   UNL     1      -5.465  -6.037   5.490  1.00  0.00    -0.000 C 
BRANCH  20  21
ATOM     21  C   UNL     1      -5.242  -4.534   5.260  1.00  0.00    -0.000 C 
BRANCH  21  22
ATOM     22  C   UNL     1      -6.410  -3.675   5.771  1.00  0.00    -0.000 C 
BRANCH  22  23
ATOM     23  C   UNL     1      -6.130  -2.184   5.552  1.00  0.00    -0.000 C 
BRANCH  23  24
ATOM     24  C   UNL     1      -7.395  -1.346   5.790  1.00  0.00    -0.000 C 
BRANCH  24  25
ATOM     25  C   UNL     1      -7.160  -0.188   6.772  1.00  0.00    -0.003 C 
ATOM     26  C   UNL     1      -5.690  -0.027   7.158  1.00  0.00     0.004 C 
ENDBRANCH  24  25
ENDBRANCH  23  24
ENDBRANCH  22  23
ENDBRANCH  21  22
ENDBRANCH  20  21
ENDBRANCH  19  20
ENDBRANCH  18  19
ENDBRANCH  17  18
ENDBRANCH  16  17
ENDBRANCH  15  16
ENDBRANCH   1  15
TORSDOF 22
ENDMDL
MODEL 2
REMARK VINA RESULT:    -3.596      9.932     13.976
REMARK INTER + INTRA:         -11.689
REMARK INTER:                  -9.949
REMARK INTRA:                  -1.740
REMARK UNBOUND:                -3.468
REMARK SMILES CCCCCCCCCCCCCCCCCCCCCCCC(=O)[O-]
REMARK SMILES IDX 13 1 14 2 15 3 16 4 17 5 18 6 19 7 20 8 21 9 22 10 23 11
REMARK SMILES IDX 24 12 25 13 26 14 12 15 11 16 10 17 9 18 8 19 7 20 6 21 5 22
REMARK SMILES IDX 4 23 3 24 2 25 1 26
REMARK H PARENT
REMARK Flexibility Score: inf
ROOT
ATOM      1  C   UNL     1       0.010  -1.142  -7.428  1.00  0.00     0.000 C 
ENDROOT
BRANCH   1   2
ATOM      2  C   UNL     1       1.125  -0.714  -6.455  1.00  0.00     0.000 C 
BRANCH   2   3
ATOM      3  C   UNL     1       1.977  -1.897  -5.963  1.00  0.00     0.000 C 
BRANCH   3   4
ATOM      4  C   UNL     1       1.174  -3.204  -5.865  1.00  0.00     0.000 C 
BRANCH   4   5
ATOM      5  C   UNL     1       2.037  -4.447  -6.148  1.00  0.00     0.000 C 
BRANCH   5   6
ATOM      6  C   UNL     1       1.961  -4.902  -7.616  1.00  0.00     0.000 C 
BRANCH   6   7
ATOM      7  C   UNL     1       0.535  -5.152  -8.146  1.00  0.00     0.000 C 
BRANCH   7   8
ATOM      8  C   UNL     1       0.457  -6.260  -9.216  1.00  0.00     0.000 C 
BRANCH   8   9
ATOM      9  C   UNL     1      -0.978  -6.469  -9.733  1.00  0.00     0.000 C 
BRANCH   9  10
ATOM     10  C   UNL     1      -1.705  -7.626  -9.025  1.00  0.00     0.006 C 
BRANCH  10  11
ATOM     11  C   UNL     1      -3.215  -7.409  -8.848  1.00  0.00     0.053 C 
BRANCH  11  12
ATOM     12  C   UNL     1      -3.877  -8.582  -8.192  1.00  0.00     0.041 C 
ATOM     13  O   UNL     1      -4.481  -8.439  -7.097  1.00  0.00    -0.550 OA
ATOM     14  O   UNL     1      -3.796  -9.840  -8.775  1.00  0.00    -0.550 OA
ENDBRANCH  11  12
ENDBRANCH  10  11
ENDBRANCH   9  10
ENDBRANCH   8   9
ENDBRANCH   7   8
ENDBRANCH   6   7
ENDBRANCH   5   6
ENDBRANCH   4   5
ENDBRANCH   3   4
ENDBRANCH   2   3
ENDBRANCH   1   2
BRANCH   1  15
ATOM     15  C   UNL     1       0.457  -1.372  -8.883  1.00  0.00     0.000 C 
BRANCH  15  16
ATOM     16  C   UNL     1      -0.717  -1.398  -9.875  1.00  0.00     0.000 C 
BRANCH  16  17
ATOM     17  C   UNL     1      -1.710  -0.241  -9.657  1.00  0.00     0.000 C 
BRANCH  17  18
ATOM     18  C   UNL     1      -3.158  -0.518 -10.114  1.00  0.00    -0.000 C 
BRANCH  18  19
ATOM     19  C   UNL     1      -4.080  -1.131  -9.044  1.00  0.00    -0.000 C 
BRANCH  19  20
ATOM     20  C   UNL     1      -4.975  -2.252  -9.600  1.00  0.00    -0.000 C 
BRANCH  20  21
ATOM     21  C   UNL     1      -6.209  -2.512  -8.721  1.00  0.00    -0.000 C 
BRANCH  21  22
ATOM     22  C   UNL     1      -6.247  -3.942  -8.159  1.00  0.00    -0.000 C 
BRANCH  22  23
ATOM     23  C   UNL     1      -7.231  -4.045  -6.988  1.00  0.00    -0.000 C 
BRANCH  23  24
ATOM     24  C   UNL     1      -7.094  -5.396  -6.271  1.00  0.00    -0.000 C 
BRANCH  24  25
ATOM     25  C   UNL     1      -8.060  -5.536  -5.085  1.00  0.00    -0.003 C 
ATOM     26  C   UNL     1      -9.362  -4.761  -5.286  1.00  0.00     0.004 C 
ENDBRANCH  24  25
ENDBRANCH  23  24
ENDBRANCH  22  23
ENDBRANCH  21  22
ENDBRANCH  20  21
ENDBRANCH  19  20
ENDBRANCH  18  19
ENDBRANCH  17  18
ENDBRANCH  16  17
ENDBRANCH  15  16
ENDBRANCH   1  15
TORSDOF 22
ENDMDL
MODEL 3
REMARK VINA RESULT:    -3.579      2.618      5.885
REMARK INTER + INTRA:         -11.650
REMARK INTER:                  -8.735
REMARK INTRA:                  -2.914
REMARK UNBOUND:                -3.468
REMARK SMILES CCCCCCCCCCCCCCCCCCCCCCCC(=O)[O-]
REMARK SMILES IDX 13 1 14 2 15 3 16 4 17 5 18 6 19 7 20 8 21 9 22 10 23 11
REMARK SMILES IDX 24 12 25 13 26 14 12 15 11 16 10 17 9 18 8 19 7 20 6 21 5 22
REMARK SMILES IDX 4 23 3 24 2 25 1 26
REMARK H PARENT
REMARK Flexibility Score: inf
ROOT
ATOM      1  C   UNL     1      -7.397  -3.470   1.123  1.00  0.00     0.000 C 
ENDROOT
BRANCH   1   2
ATOM      2  C   UNL     1      -7.120  -4.934   1.514  1.00  0.00     0.000 C 
BRANCH   2   3
ATOM      3  C   UNL     1      -7.755  -5.325   2.860  1.00  0.00     0.000 C 
BRANCH   3   4
ATOM      4  C   UNL     1      -6.753  -5.271   4.025  1.00  0.00     0.000 C 
BRANCH   4   5
ATOM      5  C   UNL     1      -7.229  -6.076   5.247  1.00  0.00     0.000 C 
BRANCH   5   6
ATOM      6  C   UNL     1      -6.504  -7.426   5.389  1.00  0.00     0.000 C 
BRANCH   6   7
ATOM      7  C   UNL     1      -5.227  -7.570   4.537  1.00  0.00     0.000 C 
BRANCH   7   8
ATOM      8  C   UNL     1      -5.204  -8.843   3.665  1.00  0.00     0.000 C 
BRANCH   8   9
ATOM      9  C   UNL     1      -5.821  -8.607   2.276  1.00  0.00     0.000 C 
BRANCH   9  10
ATOM     10  C   UNL     1      -7.256  -9.154   2.159  1.00  0.00     0.006 C 
BRANCH  10  11
ATOM     11  C   UNL     1      -8.087  -8.514   1.037  1.00  0.00     0.053 C 
BRANCH  11  12
ATOM     12  C   UNL     1      -7.420  -8.643  -0.298  1.00  0.00     0.041 C 
ATOM     13  O   UNL     1      -7.170  -9.781  -0.774  1.00  0.00    -0.550 OA
ATOM     14  O   UNL     1      -7.044  -7.505  -0.999  1.00  0.00    -0.550 OA
ENDBRANCH  11  12
ENDBRANCH  10  11
ENDBRANCH   9  10
ENDBRANCH   8   9
ENDBRANCH   7   8
ENDBRANCH   6   7
ENDBRANCH   5   6
ENDBRANCH   4   5
ENDBRANCH   3   4
ENDBRANCH   2   3
ENDBRANCH   1   2
BRANCH   1  15
ATOM     15  C   UNL     1      -6.150  -2.619   0.824  1.00  0.00     0.000 C 
BRANCH  15  16
ATOM     16  C   UNL     1      -5.730  -1.733   2.008  1.00  0.00     0.000 C 
BRANCH  16  17
ATOM     17  C   UNL     1      -6.822  -1.617   3.086  1.00  0.00     0.000 C 
BRANCH  17  18
ATOM     18  C   UNL     1      -6.331  -1.750   4.543  1.00  0.00    -0.000 C 
BRANCH  18  19
ATOM     19  C   UNL     1      -7.411  -1.551   5.622  1.00  0.00    -0.000 C 
BRANCH  19  20
ATOM     20  C   UNL     1      -6.902  -0.754   6.835  1.00  0.00    -0.000 C 
BRANCH  20  21
ATOM     21  C   UNL     1      -5.476  -0.217   6.632  1.00  0.00    -0.000 C 
BRANCH  21  22
ATOM     22  C   UNL     1      -5.392   1.311   6.770  1.00  0.00    -0.000 C 
BRANCH  22  23
ATOM     23  C   UNL     1      -6.471   1.998   5.924  1.00  0.00    -0.000 C 
BRANCH  23  24
ATOM     24  C   UNL     1      -5.993   3.372   5.432  1.00  0.00    -0.000 C 
BRANCH  24  25
ATOM     25  C   UNL     1      -4.472   3.546   5.552  1.00  0.00    -0.003 C 
ATOM     26  C   UNL     1      -3.813   3.934   4.228  1.00  0.00     0.004 C 
ENDBRANCH  24  25
ENDBRANCH  23  24
ENDBRANCH  22  23
ENDBRANCH  21  22
ENDBRANCH  20  21
ENDBRANCH  19  20
ENDBRANCH  18  19
ENDBRANCH  17  18
ENDBRANCH  16  17
ENDBRANCH  15  16
ENDBRANCH   1  15
TORSDOF 22
ENDMDL
MODEL 4
REMARK VINA RESULT:    -3.577     11.559     14.240
REMARK INTER + INTRA:         -11.644
REMARK INTER:                  -9.326
REMARK INTRA:                  -2.318
REMARK UNBOUND:                -3.468
REMARK SMILES CCCCCCCCCCCCCCCCCCCCCCCC(=O)[O-]
REMARK SMILES IDX 13 1 14 2 15 3 16 4 17 5 18 6 19 7 20 8 21 9 22 10 23 11
REMARK SMILES IDX 24 12 25 13 26 14 12 15 11 16 10 17 9 18 8 19 7 20 6 21 5 22
REMARK SMILES IDX 4 23 3 24 2 25 1 26
REMARK H PARENT
REMARK Flexibility Score: inf
ROOT
ATOM      1  C   UNL     1       1.147  -3.234  -5.763  1.00  0.00     0.000 C 
ENDROOT
BRANCH   1   2
ATOM      2  C   UNL     1       1.935  -4.498  -6.155  1.00  0.00     0.000 C 
BRANCH   2   3
ATOM      3  C   UNL     1       2.722  -4.332  -7.467  1.00  0.00     0.000 C 
BRANCH   3   4
ATOM      4  C   UNL     1       2.153  -5.187  -8.610  1.00  0.00     0.000 C 
BRANCH   4   5
ATOM      5  C   UNL     1       1.163  -4.406  -9.492  1.00  0.00     0.000 C 
BRANCH   5   6
ATOM      6  C   UNL     1      -0.283  -4.914  -9.355  1.00  0.00     0.000 C 
BRANCH   6   7
ATOM      7  C   UNL     1      -0.419  -6.349  -8.808  1.00  0.00     0.000 C 
BRANCH   7   8
ATOM      8  C   UNL     1      -1.695  -7.075  -9.281  1.00  0.00     0.000 C 
BRANCH   8   9
ATOM      9  C   UNL     1      -1.457  -8.578  -9.511  1.00  0.00     0.000 C 
BRANCH   9  10
ATOM     10  C   UNL     1      -2.695  -9.434  -9.189  1.00  0.00     0.006 C 
BRANCH  10  11
ATOM     11  C   UNL     1      -4.026  -8.669  -9.248  1.00  0.00     0.053 C 
BRANCH  11  12
ATOM     12  C   UNL     1      -4.713  -8.636  -7.917  1.00  0.00     0.041 C 
ATOM     13  O   UNL     1      -4.859  -9.695  -7.253  1.00  0.00    -0.550 OA
ATOM     14  O   UNL     1      -5.222  -7.440  -7.428  1.00  0.00    -0.550 OA
ENDBRANCH  11  12
ENDBRANCH  10  11
ENDBRANCH   9  10
ENDBRANCH   8   9
ENDBRANCH   7   8
ENDBRANCH   6   7
ENDBRANCH   5   6
ENDBRANCH   4   5
ENDBRANCH   3   4
ENDBRANCH   2   3
ENDBRANCH   1   2
BRANCH   1  15
ATOM     15  C   UNL     1       1.766  -1.902  -6.223  1.00  0.00     0.000 C 
BRANCH  15  16
ATOM     16  C   UNL     1       0.738  -0.944  -6.844  1.00  0.00     0.000 C 
BRANCH  16  17
ATOM     17  C   UNL     1       0.654  -1.067  -8.376  1.00  0.00     0.000 C 
BRANCH  17  18
ATOM     18  C   UNL     1      -0.769  -1.229  -8.950  1.00  0.00    -0.000 C 
BRANCH  18  19
ATOM     19  C   UNL     1      -1.373   0.039  -9.580  1.00  0.00    -0.000 C 
BRANCH  19  20
ATOM     20  C   UNL     1      -2.784   0.352  -9.052  1.00  0.00    -0.000 C 
BRANCH  20  21
ATOM     21  C   UNL     1      -3.891  -0.163  -9.986  1.00  0.00    -0.000 C 
BRANCH  21  22
ATOM     22  C   UNL     1      -5.278  -0.155  -9.324  1.00  0.00    -0.000 C 
BRANCH  22  23
ATOM     23  C   UNL     1      -5.509  -1.441  -8.522  1.00  0.00    -0.000 C 
BRANCH  23  24
ATOM     24  C   UNL     1      -4.982  -2.667  -9.282  1.00  0.00    -0.000 C 
BRANCH  24  25
ATOM     25  C   UNL     1      -5.922  -3.877  -9.175  1.00  0.00    -0.003 C 
ATOM     26  C   UNL     1      -6.449  -4.094  -7.757  1.00  0.00     0.004 C 
ENDBRANCH  24  25
ENDBRANCH  23  24
ENDBRANCH  22  23
ENDBRANCH  21  22
ENDBRANCH  20  21
ENDBRANCH  19  20
ENDBRANCH  18  19
ENDBRANCH  17  18
ENDBRANCH  16  17
ENDBRANCH  15  16
ENDBRANCH   1  15
TORSDOF 22
ENDMDL
MODEL 5
REMARK VINA RESULT:    -3.563      2.687      7.835
REMARK INTER + INTRA:         -11.613
REMARK INTER:                  -8.232
REMARK INTRA:                  -3.381
REMARK UNBOUND:                -3.468
REMARK SMILES CCCCCCCCCCCCCCCCCCCCCCCC(=O)[O-]
REMARK SMILES IDX 13 1 14 2 15 3 16 4 17 5 18 6 19 7 20 8 21 9 22 10 23 11
REMARK SMILES IDX 24 12 25 13 26 14 12 15 11 16 10 17 9 18 8 19 7 20 6 21 5 22
REMARK SMILES IDX 4 23 3 24 2 25 1 26
REMARK H PARENT
REMARK Flexibility Score: inf
ROOT
ATOM      1  C   UNL     1      -6.326  -1.948   3.639  1.00  0.00     0.000 C 
ENDROOT
BRANCH   1   2
ATOM      2  C   UNL     1      -5.265  -2.783   4.379  1.00  0.00     0.000 C 
BRANCH   2   3
ATOM      3  C   UNL     1      -5.874  -3.748   5.412  1.00  0.00     0.000 C 
BRANCH   3   4
ATOM      4  C   UNL     1      -7.339  -3.418   5.737  1.00  0.00     0.000 C 
BRANCH   4   5
ATOM      5  C   UNL     1      -7.522  -2.907   7.177  1.00  0.00     0.000 C 
BRANCH   5   6
ATOM      6  C   UNL     1      -7.663  -1.376   7.251  1.00  0.00     0.000 C 
BRANCH   6   7
ATOM      7  C   UNL     1      -6.453  -0.641   7.861  1.00  0.00     0.000 C 
BRANCH   7   8
ATOM      8  C   UNL     1      -5.566   0.067   6.815  1.00  0.00     0.000 C 
BRANCH   8   9
ATOM      9  C   UNL     1      -6.366   1.056   5.950  1.00  0.00     0.000 C 
BRANCH   9  10
ATOM     10  C   UNL     1      -6.227   2.514   6.426  1.00  0.00     0.006 C 
BRANCH  10  11
ATOM     11  C   UNL     1      -5.314   3.381   5.546  1.00  0.00     0.053 C 
BRANCH  11  12
ATOM     12  C   UNL     1      -4.363   4.202   6.363  1.00  0.00     0.041 C 
ATOM     13  O   UNL     1      -3.145   3.893   6.417  1.00  0.00    -0.550 OA
ATOM     14  O   UNL     1      -4.832   5.288   7.091  1.00  0.00    -0.550 OA
ENDBRANCH  11  12
ENDBRANCH  10  11
ENDBRANCH   9  10
ENDBRANCH   8   9
ENDBRANCH   7   8
ENDBRANCH   6   7
ENDBRANCH   5   6
ENDBRANCH   4   5
ENDBRANCH   3   4
ENDBRANCH   2   3
ENDBRANCH   1   2
BRANCH   1  15
ATOM     15  C   UNL     1      -6.092  -1.772   2.128  1.00  0.00     0.000 C 
BRANCH  15  16
ATOM     16  C   UNL     1      -6.744  -2.881   1.286  1.00  0.00     0.000 C 
BRANCH  16  17
ATOM     17  C   UNL     1      -8.152  -3.258   1.781  1.00  0.00     0.000 C 
BRANCH  17  18
ATOM     18  C   UNL     1      -8.352  -4.747   2.132  1.00  0.00    -0.000 C 
BRANCH  18  19
ATOM     19  C   UNL     1      -7.060  -5.575   2.251  1.00  0.00    -0.000 C 
BRANCH  19  20
ATOM     20  C   UNL     1      -7.095  -6.567   3.427  1.00  0.00    -0.000 C 
BRANCH  20  21
ATOM     21  C   UNL     1      -5.817  -7.417   3.519  1.00  0.00    -0.000 C 
BRANCH  21  22
ATOM     22  C   UNL     1      -5.838  -8.626   2.570  1.00  0.00    -0.000 C 
BRANCH  22  23
ATOM     23  C   UNL     1      -7.179  -9.364   2.653  1.00  0.00    -0.000 C 
BRANCH  23  24
ATOM     24  C   UNL     1      -7.917  -9.317   1.307  1.00  0.00    -0.000 C 
BRANCH  24  25
ATOM     25  C   UNL     1      -6.979  -9.009   0.130  1.00  0.00    -0.003 C 
ATOM     26  C   UNL     1      -7.406  -7.772  -0.660  1.00  0.00     0.004 C 
ENDBRANCH  24  25
ENDBRANCH  23  24
ENDBRANCH  22  23
ENDBRANCH  21  22
ENDBRANCH  20  21
ENDBRANCH  19  20
ENDBRANCH  18  19
ENDBRANCH  17  18
ENDBRANCH  16  17
ENDBRANCH  15  16
ENDBRANCH   1  15
TORSDOF 22
ENDMDL
MODEL 6
REMARK VINA RESULT:    -3.552      2.013      6.635
REMARK INTER + INTRA:         -11.588
REMARK INTER:                  -7.534
REMARK INTRA:                  -4.054
REMARK UNBOUND:                -3.468
REMARK SMILES CCCCCCCCCCCCCCCCCCCCCCCC(=O)[O-]
REMARK SMILES IDX 13 1 14 2 15 3 16 4 17 5 18 6 19 7 20 8 21 9 22 10 23 11
REMARK SMILES IDX 24 12 25 13 26 14 12 15 11 16 10 17 9 18 8 19 7 20 6 21 5 22
REMARK SMILES IDX 4 23 3 24 2 25 1 26
REMARK H PARENT
REMARK Flexibility Score: inf
ROOT
ATOM      1  C   UNL     1      -6.793  -3.652   1.117  1.00  0.00     0.000 C 
ENDROOT
BRANCH   1   2
ATOM      2  C   UNL     1      -6.491  -2.155   0.921  1.00  0.00     0.000 C 
BRANCH   2   3
ATOM      3  C   UNL     1      -5.865  -1.502   2.166  1.00  0.00     0.000 C 
BRANCH   3   4
ATOM      4  C   UNL     1      -6.657  -1.799   3.450  1.00  0.00     0.000 C 
BRANCH   4   5
ATOM      5  C   UNL     1      -5.756  -2.301   4.593  1.00  0.00     0.000 C 
BRANCH   5   6
ATOM      6  C   UNL     1      -6.558  -2.891   5.766  1.00  0.00     0.000 C 
BRANCH   6   7
ATOM      7  C   UNL     1      -8.087  -2.902   5.568  1.00  0.00     0.000 C 
BRANCH   7   8
ATOM      8  C   UNL     1      -8.844  -1.966   6.533  1.00  0.00     0.000 C 
BRANCH   8   9
ATOM      9  C   UNL     1      -9.332  -0.684   5.835  1.00  0.00     0.000 C 
BRANCH   9  10
ATOM     10  C   UNL     1      -8.582   0.575   6.307  1.00  0.00     0.006 C 
BRANCH  10  11
ATOM     11  C   UNL     1      -7.883   1.354   5.182  1.00  0.00     0.053 C 
BRANCH  11  12
ATOM     12  C   UNL     1      -6.419   1.526   5.446  1.00  0.00     0.041 C 
ATOM     13  O   UNL     1      -5.834   0.788   6.280  1.00  0.00    -0.550 OA
ATOM     14  O   UNL     1      -5.710   2.527   4.794  1.00  0.00    -0.550 OA
ENDBRANCH  11  12
ENDBRANCH  10  11
ENDBRANCH   9  10
ENDBRANCH   8   9
ENDBRANCH   7   8
ENDBRANCH   6   7
ENDBRANCH   5   6
ENDBRANCH   4   5
ENDBRANCH   3   4
ENDBRANCH   2   3
ENDBRANCH   1   2
BRANCH   1  15
ATOM     15  C   UNL     1      -8.265  -3.995   1.413  1.00  0.00     0.000 C 
BRANCH  15  16
ATOM     16  C   UNL     1      -8.425  -5.061   2.507  1.00  0.00     0.000 C 
BRANCH  16  17
ATOM     17  C   UNL     1      -7.082  -5.493   3.123  1.00  0.00     0.000 C 
BRANCH  17  18
ATOM     18  C   UNL     1      -7.184  -6.307   4.430  1.00  0.00    -0.000 C 
BRANCH  18  19
ATOM     19  C   UNL     1      -5.895  -7.033   4.856  1.00  0.00    -0.000 C 
BRANCH  19  20
ATOM     20  C   UNL     1      -5.930  -8.540   4.549  1.00  0.00    -0.000 C 
BRANCH  20  21
ATOM     21  C   UNL     1      -4.943  -8.940   3.441  1.00  0.00    -0.000 C 
BRANCH  21  22
ATOM     22  C   UNL     1      -5.579  -8.916   2.042  1.00  0.00    -0.000 C 
BRANCH  22  23
ATOM     23  C   UNL     1      -7.092  -9.150   2.124  1.00  0.00    -0.000 C 
BRANCH  23  24
ATOM     24  C   UNL     1      -7.826  -8.399   1.003  1.00  0.00    -0.000 C 
BRANCH  24  25
ATOM     25  C   UNL     1      -6.870  -7.608   0.098  1.00  0.00    -0.003 C 
ATOM     26  C   UNL     1      -7.576  -6.978  -1.102  1.00  0.00     0.004 C 
ENDBRANCH  24  25
ENDBRANCH  23  24
ENDBRANCH  22  23
ENDBRANCH  21  22
ENDBRANCH  20  21
ENDBRANCH  19  20
ENDBRANCH  18  19
ENDBRANCH  17  18
ENDBRANCH  16  17
ENDBRANCH  15  16
ENDBRANCH   1  15
TORSDOF 22
ENDMDL
MODEL 7
REMARK VINA RESULT:    -3.517      1.425      5.921
REMARK INTER + INTRA:         -11.509
REMARK INTER:                  -7.143
REMARK INTRA:                  -4.366
REMARK UNBOUND:                -3.468
REMARK SMILES CCCCCCCCCCCCCCCCCCCCCCCC(=O)[O-]
REMARK SMILES IDX 13 1 14 2 15 3 16 4 17 5 18 6 19 7 20 8 21 9 22 10 23 11
REMARK SMILES IDX 24 12 25 13 26 14 12 15 11 16 10 17 9 18 8 19 7 20 6 21 5 22
REMARK SMILES IDX 4 23 3 24 2 25 1 26
REMARK H PARENT
REMARK Flexibility Score: inf
ROOT
ATOM      1  C   UNL     1      -5.667  -7.130   4.170  1.00  0.00     0.000 C 
ENDROOT
BRANCH   1   2
ATOM      2  C   UNL     1      -5.795  -7.036   5.702  1.00  0.00     0.000 C 
BRANCH   2   3
ATOM      3  C   UNL     1      -7.237  -6.770   6.168  1.00  0.00     0.000 C 
BRANCH   3   4
ATOM      4  C   UNL     1      -7.583  -5.272   6.192  1.00  0.00     0.000 C 
BRANCH   4   5
ATOM      5  C   UNL     1      -7.295  -4.624   7.558  1.00  0.00     0.000 C 
BRANCH   5   6
ATOM      6  C   UNL     1      -7.390  -3.089   7.518  1.00  0.00     0.000 C 
BRANCH   6   7
ATOM      7  C   UNL     1      -7.662  -2.490   6.123  1.00  0.00     0.000 C 
BRANCH   7   8
ATOM      8  C   UNL     1      -6.462  -1.719   5.535  1.00  0.00     0.000 C 
BRANCH   8   9
ATOM      9  C   UNL     1      -5.494  -2.644   4.775  1.00  0.00     0.000 C 
BRANCH   9  10
ATOM     10  C   UNL     1      -5.981  -2.979   3.353  1.00  0.00     0.006 C 
BRANCH  10  11
ATOM     11  C   UNL     1      -6.647  -1.805   2.620  1.00  0.00     0.053 C 
BRANCH  11  12
ATOM     12  C   UNL     1      -6.947  -2.134   1.190  1.00  0.00     0.041 C 
ATOM     13  O   UNL     1      -8.137  -2.160   0.782  1.00  0.00    -0.550 OA
ATOM     14  O   UNL     1      -5.912  -2.447   0.318  1.00  0.00    -0.550 OA
ENDBRANCH  11  12
ENDBRANCH  10  11
ENDBRANCH   9  10
ENDBRANCH   8   9
ENDBRANCH   7   8
ENDBRANCH   6   7
ENDBRANCH   5   6
ENDBRANCH   4   5
ENDBRANCH   3   4
ENDBRANCH   2   3
ENDBRANCH   1   2
BRANCH   1  15
ATOM     15  C   UNL     1      -5.516  -8.555   3.606  1.00  0.00     0.000 C 
BRANCH  15  16
ATOM     16  C   UNL     1      -5.865  -8.650   2.112  1.00  0.00     0.000 C 
BRANCH  16  17
ATOM     17  C   UNL     1      -7.212  -9.350   1.856  1.00  0.00     0.000 C 
BRANCH  17  18
ATOM     18  C   UNL     1      -8.319  -9.053   2.889  1.00  0.00    -0.000 C 
BRANCH  18  19
ATOM     19  C   UNL     1      -9.387  -8.041   2.437  1.00  0.00    -0.000 C 
BRANCH  19  20
ATOM     20  C   UNL     1      -9.361  -6.741   3.259  1.00  0.00    -0.000 C 
BRANCH  20  21
ATOM     21  C   UNL     1      -8.478  -5.656   2.621  1.00  0.00    -0.000 C 
BRANCH  21  22
ATOM     22  C   UNL     1      -8.552  -5.657   1.086  1.00  0.00    -0.000 C 
BRANCH  22  23
ATOM     23  C   UNL     1      -7.151  -5.751   0.470  1.00  0.00    -0.000 C 
BRANCH  23  24
ATOM     24  C   UNL     1      -7.151  -6.675  -0.757  1.00  0.00    -0.000 C 
BRANCH  24  25
ATOM     25  C   UNL     1      -8.566  -7.105  -1.173  1.00  0.00    -0.003 C 
ATOM     26  C   UNL     1      -8.700  -8.618  -1.341  1.00  0.00     0.004 C 
ENDBRANCH  24  25
ENDBRANCH  23  24
ENDBRANCH  22  23
ENDBRANCH  21  22
ENDBRANCH  20  21
ENDBRANCH  19  20
ENDBRANCH  18  19
ENDBRANCH  17  18
ENDBRANCH  16  17
ENDBRANCH  15  16
ENDBRANCH   1  15
TORSDOF 22
ENDMDL
MODEL 8
REMARK VINA RESULT:    -3.501      1.715      5.179
REMARK INTER + INTRA:         -11.470
REMARK INTER:                  -7.575
REMARK INTRA:                  -3.895
REMARK UNBOUND:                -3.468
REMARK SMILES CCCCCCCCCCCCCCCCCCCCCCCC(=O)[O-]
REMARK SMILES IDX 13 1 14 2 15 3 16 4 17 5 18 6 19 7 20 8 21 9 22 10 23 11
REMARK SMILES IDX 24 12 25 13 26 14 12 15 11 16 10 17 9 18 8 19 7 20 6 21 5 22
REMARK SMILES IDX 4 23 3 24 2 25 1 26
REMARK H PARENT
REMARK Flexibility Score: inf
ROOT
ATOM      1  C   UNL     1      -6.761  -9.068   1.924  1.00  0.00     0.000 C 
ENDROOT
BRANCH   1   2
ATOM      2  C   UNL     1      -5.605  -8.299   2.591  1.00  0.00     0.000 C 
BRANCH   2   3
ATOM      3  C   UNL     1      -4.885  -9.121   3.675  1.00  0.00     0.000 C 
BRANCH   3   4
ATOM      4  C   UNL     1      -5.851  -9.986   4.499  1.00  0.00     0.000 C 
BRANCH   4   5
ATOM      5  C   UNL     1      -5.976  -9.504   5.955  1.00  0.00     0.000 C 
BRANCH   5   6
ATOM      6  C   UNL     1      -7.334  -8.842   6.247  1.00  0.00     0.000 C 
BRANCH   6   7
ATOM      7  C   UNL     1      -7.488  -7.407   5.706  1.00  0.00     0.000 C 
BRANCH   7   8
ATOM      8  C   UNL     1      -6.434  -6.421   6.254  1.00  0.00     0.000 C 
BRANCH   8   9
ATOM      9  C   UNL     1      -5.641  -5.735   5.128  1.00  0.00     0.000 C 
BRANCH   9  10
ATOM     10  C   UNL     1      -5.526  -4.212   5.322  1.00  0.00     0.006 C 
BRANCH  10  11
ATOM     11  C   UNL     1      -6.771  -3.558   5.941  1.00  0.00     0.053 C 
BRANCH  11  12
ATOM     12  C   UNL     1      -6.485  -2.179   6.450  1.00  0.00     0.041 C 
ATOM     13  O   UNL     1      -5.795  -1.380   5.765  1.00  0.00    -0.550 OA
ATOM     14  O   UNL     1      -6.952  -1.789   7.698  1.00  0.00    -0.550 OA
ENDBRANCH  11  12
ENDBRANCH  10  11
ENDBRANCH   9  10
ENDBRANCH   8   9
ENDBRANCH   7   8
ENDBRANCH   6   7
ENDBRANCH   5   6
ENDBRANCH   4   5
ENDBRANCH   3   4
ENDBRANCH   2   3
ENDBRANCH   1   2
BRANCH   1  15
ATOM     15  C   UNL     1      -6.910  -8.850   0.407  1.00  0.00     0.000 C 
BRANCH  15  16
ATOM     16  C   UNL     1      -8.120  -9.586  -0.189  1.00  0.00     0.000 C 
BRANCH  16  17
ATOM     17  C   UNL     1      -9.255  -8.632  -0.606  1.00  0.00     0.000 C 
BRANCH  17  18
ATOM     18  C   UNL     1     -10.060  -8.015   0.557  1.00  0.00    -0.000 C 
BRANCH  18  19
ATOM     19  C   UNL     1      -9.826  -6.512   0.794  1.00  0.00    -0.000 C 
BRANCH  19  20
ATOM     20  C   UNL     1      -9.504  -6.183   2.262  1.00  0.00    -0.000 C 
BRANCH  20  21
ATOM     21  C   UNL     1      -8.099  -5.582   2.438  1.00  0.00    -0.000 C 
BRANCH  21  22
ATOM     22  C   UNL     1      -7.385  -5.342   1.099  1.00  0.00    -0.000 C 
BRANCH  22  23
ATOM     23  C   UNL     1      -6.768  -3.938   1.051  1.00  0.00    -0.000 C 
BRANCH  23  24
ATOM     24  C   UNL     1      -7.270  -3.077   2.220  1.00  0.00    -0.000 C 
BRANCH  24  25
ATOM     25  C   UNL     1      -6.466  -1.777   2.382  1.00  0.00    -0.003 C 
ATOM     26  C   UNL     1      -5.695  -1.396   1.119  1.00  0.00     0.004 C 
ENDBRANCH  24  25
ENDBRANCH  23  24
ENDBRANCH  22  23
ENDBRANCH  21  22
ENDBRANCH  20  21
ENDBRANCH  19  20
ENDBRANCH  18  19
ENDBRANCH  17  18
ENDBRANCH  16  17
ENDBRANCH  15  16
ENDBRANCH   1  15
TORSDOF 22
ENDMDL
MODEL 9
REMARK VINA RESULT:    -3.486      2.078      6.993
REMARK INTER + INTRA:         -11.437
REMARK INTER:                  -8.206
REMARK INTRA:                  -3.231
REMARK UNBOUND:                -3.468
REMARK SMILES CCCCCCCCCCCCCCCCCCCCCCCC(=O)[O-]
REMARK SMILES IDX 13 1 14 2 15 3 16 4 17 5 18 6 19 7 20 8 21 9 22 10 23 11
REMARK SMILES IDX 24 12 25 13 26 14 12 15 11 16 10 17 9 18 8 19 7 20 6 21 5 22
REMARK SMILES IDX 4 23 3 24 2 25 1 26
REMARK H PARENT
REMARK Flexibility Score: inf
ROOT
ATOM      1  C   UNL     1      -7.215  -2.306   1.232  1.00  0.00     0.000 C 
ENDROOT
BRANCH   1   2
ATOM      2  C   UNL     1      -6.001  -1.811   2.040  1.00  0.00     0.000 C 
BRANCH   2   3
ATOM      3  C   UNL     1      -6.227  -1.876   3.561  1.00  0.00     0.000 C 
BRANCH   3   4
ATOM      4  C   UNL     1      -5.102  -2.624   4.294  1.00  0.00     0.000 C 
BRANCH   4   5
ATOM      5  C   UNL     1      -5.639  -3.698   5.256  1.00  0.00     0.000 C 
BRANCH   5   6
ATOM      6  C   UNL     1      -7.071  -3.404   5.735  1.00  0.00     0.000 C 
BRANCH   6   7
ATOM      7  C   UNL     1      -7.169  -2.731   7.119  1.00  0.00     0.000 C 
BRANCH   7   8
ATOM      8  C   UNL     1      -7.347  -1.200   7.053  1.00  0.00     0.000 C 
BRANCH   8   9
ATOM      9  C   UNL     1      -6.002  -0.455   7.124  1.00  0.00     0.000 C 
BRANCH   9  10
ATOM     10  C   UNL     1      -6.037   0.909   6.411  1.00  0.00     0.006 C 
BRANCH  10  11
ATOM     11  C   UNL     1      -4.838   1.816   6.725  1.00  0.00     0.053 C 
BRANCH  11  12
ATOM     12  C   UNL     1      -4.864   3.079   5.919  1.00  0.00     0.041 C 
ATOM     13  O   UNL     1      -4.556   4.177   6.451  1.00  0.00    -0.550 OA
ATOM     14  O   UNL     1      -5.261   3.045   4.589  1.00  0.00    -0.550 OA
ENDBRANCH  11  12
ENDBRANCH  10  11
ENDBRANCH   9  10
ENDBRANCH   8   9
ENDBRANCH   7   8
ENDBRANCH   6   7
ENDBRANCH   5   6
ENDBRANCH   4   5
ENDBRANCH   3   4
ENDBRANCH   2   3
ENDBRANCH   1   2
BRANCH   1  15
ATOM     15  C   UNL     1      -7.961  -3.511   1.834  1.00  0.00     0.000 C 
BRANCH  15  16
ATOM     16  C   UNL     1      -7.213  -4.839   1.640  1.00  0.00     0.000 C 
BRANCH  16  17
ATOM     17  C   UNL     1      -7.979  -5.834   0.750  1.00  0.00     0.000 C 
BRANCH  17  18
ATOM     18  C   UNL     1      -7.139  -6.526  -0.344  1.00  0.00    -0.000 C 
BRANCH  18  19
ATOM     19  C   UNL     1      -7.481  -8.006  -0.598  1.00  0.00    -0.000 C 
BRANCH  19  20
ATOM     20  C   UNL     1      -6.786  -8.957   0.390  1.00  0.00    -0.000 C 
BRANCH  20  21
ATOM     21  C   UNL     1      -7.704  -9.380   1.548  1.00  0.00    -0.000 C 
BRANCH  21  22
ATOM     22  C   UNL     1      -7.108  -9.055   2.927  1.00  0.00    -0.000 C 
BRANCH  22  23
ATOM     23  C   UNL     1      -5.783  -8.297   2.786  1.00  0.00    -0.000 C 
BRANCH  23  24
ATOM     24  C   UNL     1      -5.565  -7.345   3.972  1.00  0.00    -0.000 C 
BRANCH  24  25
ATOM     25  C   UNL     1      -6.750  -7.339   4.950  1.00  0.00    -0.003 C 
ATOM     26  C   UNL     1      -6.318  -7.142   6.402  1.00  0.00     0.004 C 
ENDBRANCH  24  25
ENDBRANCH  23  24
ENDBRANCH  22  23
ENDBRANCH  21  22
ENDBRANCH  20  21
ENDBRANCH  19  20
ENDBRANCH  18  19
ENDBRANCH  17  18
ENDBRANCH  16  17
ENDBRANCH  15  16
ENDBRANCH   1  15
TORSDOF 22
ENDMDL
