MODEL 1
REMARK VINA RESULT:    -5.705      0.000      0.000
REMARK INTER + INTRA:         -12.977
REMARK INTER:                 -11.042
REMARK INTRA:                  -1.936
REMARK UNBOUND:                -1.936
REMARK SMILES CCCCCCCCCCCCCCCCCC(=O)[O-]
REMARK SMILES IDX 10 1 11 2 12 3 13 4 14 5 15 6 16 7 17 8 18 9 19 10 20 11
REMARK SMILES IDX 9 12 8 13 7 14 6 15 5 16 4 17 3 18 2 19 1 20
REMARK H PARENT
REMARK Flexibility Score: inf
ROOT
ATOM      1  C   UNL     1     -12.375  -9.285  11.132  1.00  0.00     0.000 C 
ENDROOT
BRANCH   1   2
ATOM      2  C   UNL     1     -13.561  -9.037  10.182  1.00  0.00     0.000 C 
BRANCH   2   3
ATOM      3  C   UNL     1     -13.382  -7.777   9.315  1.00  0.00     0.000 C 
BRANCH   3   4
ATOM      4  C   UNL     1     -11.922  -7.421   8.977  1.00  0.00     0.000 C 
BRANCH   4   5
ATOM      5  C   UNL     1     -11.368  -8.231   7.793  1.00  0.00     0.000 C 
BRANCH   5   6
ATOM      6  C   UNL     1      -9.840  -8.385   7.849  1.00  0.00     0.000 C 
BRANCH   6   7
ATOM      7  C   UNL     1      -9.363  -9.097   9.127  1.00  0.00     0.006 C 
BRANCH   7   8
ATOM      8  C   UNL     1      -9.389 -10.625   8.982  1.00  0.00     0.053 C 
BRANCH   8   9
ATOM      9  C   UNL     1      -8.928 -11.065   7.627  1.00  0.00     0.041 C 
ATOM     10  O   UNL     1      -9.734 -11.615   6.832  1.00  0.00    -0.550 OA
ATOM     11  O   UNL     1      -7.600 -10.898   7.255  1.00  0.00    -0.550 OA
ENDBRANCH   8   9
ENDBRANCH   7   8
ENDBRANCH   6   7
ENDBRANCH   5   6
ENDBRANCH   4   5
ENDBRANCH   3   4
ENDBRANCH   2   3
ENDBRANCH   1   2
BRANCH   1  12
ATOM     12  C   UNL     1     -12.425 -10.689  11.771  1.00  0.00     0.000 C 
BRANCH  12  13
ATOM     13  C   UNL     1     -13.115 -11.741  10.886  1.00  0.00    -0.000 C 
BRANCH  13  14
ATOM     14  C   UNL     1     -12.118 -12.625  10.122  1.00  0.00    -0.000 C 
BRANCH  14  15
ATOM     15  C   UNL     1     -12.845 -13.535   9.124  1.00  0.00    -0.000 C 
BRANCH  15  16
ATOM     16  C   UNL     1     -11.851 -14.187   8.152  1.00  0.00    -0.000 C 
BRANCH  16  17
ATOM     17  C   UNL     1     -10.457 -14.395   8.772  1.00  0.00    -0.000 C 
BRANCH  17  18
ATOM     18  C   UNL     1      -9.969 -15.857   8.809  1.00  0.00    -0.000 C 
BRANCH  18  19
ATOM     19  C   UNL     1     -10.693 -16.759   9.826  1.00  0.00    -0.003 C 
ATOM     20  C   UNL     1     -11.666 -17.736   9.165  1.00  0.00     0.004 C 
ENDBRANCH  18  19
ENDBRANCH  17  18
ENDBRANCH  16  17
ENDBRANCH  15  16
ENDBRANCH  14  15
ENDBRANCH  13  14
ENDBRANCH  12  13
ENDBRANCH   1  12
TORSDOF 16
ENDMDL
MODEL 2
REMARK VINA RESULT:    -5.660      2.260      5.676
REMARK INTER + INTRA:         -12.890
REMARK INTER:                 -10.653
REMARK INTRA:                  -2.237
REMARK UNBOUND:                -1.936
REMARK SMILES CCCCCCCCCCCCCCCCCC(=O)[O-]
REMARK SMILES IDX 10 1 11 2 12 3 13 4 14 5 15 6 16 7 17 8 18 9 19 10 20 11
REMARK SMILES IDX 9 12 8 13 7 14 6 15 5 16 4 17 3 18 2 19 1 20
REMARK H PARENT
REMARK Flexibility Score: inf
ROOT
ATOM      1  C   UNL     1     -11.972 -10.479  11.918  1.00  0.00     0.000 C 
ENDROOT
BRANCH   1   2
ATOM      2  C   UNL     1     -11.630 -11.557  10.874  1.00  0.00     0.000 C 
BRANCH   2   3
ATOM      3  C   UNL     1     -12.866 -12.334  10.386  1.00  0.00     0.000 C 
BRANCH   3   4
ATOM      4  C   UNL     1     -12.638 -13.202   9.134  1.00  0.00     0.000 C 
BRANCH   4   5
ATOM      5  C   UNL     1     -11.422 -12.749   8.308  1.00  0.00     0.000 C 
BRANCH   5   6
ATOM      6  C   UNL     1     -10.255 -13.747   8.384  1.00  0.00     0.000 C 
BRANCH   6   7
ATOM      7  C   UNL     1     -10.399 -14.739   9.551  1.00  0.00     0.006 C 
BRANCH   7   8
ATOM      8  C   UNL     1     -10.156 -16.189   9.112  1.00  0.00     0.053 C 
BRANCH   8   9
ATOM      9  C   UNL     1     -11.426 -16.983   9.081  1.00  0.00     0.041 C 
ATOM     10  O   UNL     1     -12.415 -16.570   8.421  1.00  0.00    -0.550 OA
ATOM     11  O   UNL     1     -11.529 -18.161   9.810  1.00  0.00    -0.550 OA
ENDBRANCH   8   9
ENDBRANCH   7   8
ENDBRANCH   6   7
ENDBRANCH   5   6
ENDBRANCH   4   5
ENDBRANCH   3   4
ENDBRANCH   2   3
ENDBRANCH   1   2
BRANCH   1  12
ATOM     12  C   UNL     1     -12.030  -9.067  11.299  1.00  0.00     0.000 C 
BRANCH  12  13
ATOM     13  C   UNL     1     -13.294  -8.818  10.458  1.00  0.00    -0.000 C 
BRANCH  13  14
ATOM     14  C   UNL     1     -13.335  -7.412   9.843  1.00  0.00    -0.000 C 
BRANCH  14  15
ATOM     15  C   UNL     1     -12.219  -7.232   8.807  1.00  0.00    -0.000 C 
BRANCH  15  16
ATOM     16  C   UNL     1     -12.364  -8.245   7.662  1.00  0.00    -0.000 C 
BRANCH  16  17
ATOM     17  C   UNL     1     -11.167  -9.208   7.560  1.00  0.00    -0.000 C 
BRANCH  17  18
ATOM     18  C   UNL     1      -9.940  -8.819   8.408  1.00  0.00    -0.000 C 
BRANCH  18  19
ATOM     19  C   UNL     1      -8.995  -9.983   8.758  1.00  0.00    -0.003 C 
ATOM     20  C   UNL     1      -8.404 -10.661   7.522  1.00  0.00     0.004 C 
ENDBRANCH  18  19
ENDBRANCH  17  18
ENDBRANCH  16  17
ENDBRANCH  15  16
ENDBRANCH  14  15
ENDBRANCH  13  14
ENDBRANCH  12  13
ENDBRANCH   1  12
TORSDOF 16
ENDMDL
MODEL 3
REMARK VINA RESULT:    -5.453      2.043      4.034
REMARK INTER + INTRA:         -12.489
REMARK INTER:                 -10.848
REMARK INTRA:                  -1.641
REMARK UNBOUND:                -1.936
REMARK SMILES CCCCCCCCCCCCCCCCCC(=O)[O-]
REMARK SMILES IDX 10 1 11 2 12 3 13 4 14 5 15 6 16 7 17 8 18 9 19 10 20 11
REMARK SMILES IDX 9 12 8 13 7 14 6 15 5 16 4 17 3 18 2 19 1 20
REMARK H PARENT
REMARK Flexibility Score: inf
ROOT
ATOM      1  C   UNL     1      -9.054  -9.256   9.243  1.00  0.00     0.000 C 
ENDROOT
BRANCH   1   2
ATOM      2  C   UNL     1     -10.297  -8.405   9.560  1.00  0.00     0.000 C 
BRANCH   2   3
ATOM      3  C   UNL     1     -11.077  -7.989   8.300  1.00  0.00     0.000 C 
BRANCH   3   4
ATOM      4  C   UNL     1     -12.601  -8.202   8.376  1.00  0.00     0.000 C 
BRANCH   4   5
ATOM      5  C   UNL     1     -13.168  -7.956   9.785  1.00  0.00     0.000 C 
BRANCH   5   6
ATOM      6  C   UNL     1     -14.489  -8.703  10.026  1.00  0.00     0.000 C 
BRANCH   6   7
ATOM      7  C   UNL     1     -14.299  -9.995  10.839  1.00  0.00     0.006 C 
BRANCH   7   8
ATOM      8  C   UNL     1     -13.065 -10.788  10.386  1.00  0.00     0.053 C 
BRANCH   8   9
ATOM      9  C   UNL     1     -12.102 -11.012  11.512  1.00  0.00     0.041 C 
ATOM     10  O   UNL     1     -12.439 -10.744  12.695  1.00  0.00    -0.550 OA
ATOM     11  O   UNL     1     -10.823 -11.485  11.250  1.00  0.00    -0.550 OA
ENDBRANCH   8   9
ENDBRANCH   7   8
ENDBRANCH   6   7
ENDBRANCH   5   6
ENDBRANCH   4   5
ENDBRANCH   3   4
ENDBRANCH   2   3
ENDBRANCH   1   2
BRANCH   1  12
ATOM     12  C   UNL     1      -8.695  -9.226   7.743  1.00  0.00     0.000 C 
BRANCH  12  13
ATOM     13  C   UNL     1      -7.872 -10.442   7.285  1.00  0.00    -0.000 C 
BRANCH  13  14
ATOM     14  C   UNL     1      -8.692 -11.740   7.251  1.00  0.00    -0.000 C 
BRANCH  14  15
ATOM     15  C   UNL     1     -10.183 -11.444   7.046  1.00  0.00    -0.000 C 
BRANCH  15  16
ATOM     16  C   UNL     1     -11.053 -12.437   7.829  1.00  0.00    -0.000 C 
BRANCH  16  17
ATOM     17  C   UNL     1     -10.227 -13.527   8.537  1.00  0.00    -0.000 C 
BRANCH  17  18
ATOM     18  C   UNL     1     -11.024 -14.774   8.969  1.00  0.00    -0.000 C 
BRANCH  18  19
ATOM     19  C   UNL     1     -10.228 -16.092   8.956  1.00  0.00    -0.003 C 
ATOM     20  C   UNL     1     -11.087 -17.309   9.300  1.00  0.00     0.004 C 
ENDBRANCH  18  19
ENDBRANCH  17  18
ENDBRANCH  16  17
ENDBRANCH  15  16
ENDBRANCH  14  15
ENDBRANCH  13  14
ENDBRANCH  12  13
ENDBRANCH   1  12
TORSDOF 16
ENDMDL
MODEL 4
REMARK VINA RESULT:    -5.410      2.230      5.469
REMARK INTER + INTRA:         -12.406
REMARK INTER:                  -9.988
REMARK INTRA:                  -2.418
REMARK UNBOUND:                -1.936
REMARK SMILES CCCCCCCCCCCCCCCCCC(=O)[O-]
REMARK SMILES IDX 10 1 11 2 12 3 13 4 14 5 15 6 16 7 17 8 18 9 19 10 20 11
REMARK SMILES IDX 9 12 8 13 7 14 6 15 5 16 4 17 3 18 2 19 1 20
REMARK H PARENT
REMARK Flexibility Score: inf
ROOT
ATOM      1  C   UNL     1     -15.587  -8.345   9.721  1.00  0.00     0.000 C 
ENDROOT
BRANCH   1   2
ATOM      2  C   UNL     1     -15.298  -9.503  10.694  1.00  0.00     0.000 C 
BRANCH   2   3
ATOM      3  C   UNL     1     -13.956 -10.201  10.414  1.00  0.00     0.000 C 
BRANCH   3   4
ATOM      4  C   UNL     1     -12.951 -10.174  11.581  1.00  0.00     0.000 C 
BRANCH   4   5
ATOM      5  C   UNL     1     -12.041 -11.413  11.615  1.00  0.00     0.000 C 
BRANCH   5   6
ATOM      6  C   UNL     1     -12.050 -12.187  10.286  1.00  0.00     0.000 C 
BRANCH   6   7
ATOM      7  C   UNL     1     -10.741 -12.956  10.039  1.00  0.00     0.006 C 
BRANCH   7   8
ATOM      8  C   UNL     1     -10.682 -13.563   8.631  1.00  0.00     0.053 C 
BRANCH   8   9
ATOM      9  C   UNL     1     -11.520 -14.800   8.521  1.00  0.00     0.041 C 
ATOM     10  O   UNL     1     -11.036 -15.921   8.824  1.00  0.00    -0.550 OA
ATOM     11  O   UNL     1     -12.825 -14.718   8.051  1.00  0.00    -0.550 OA
ENDBRANCH   8   9
ENDBRANCH   7   8
ENDBRANCH   6   7
ENDBRANCH   5   6
ENDBRANCH   4   5
ENDBRANCH   3   4
ENDBRANCH   2   3
ENDBRANCH   1   2
BRANCH   1  12
ATOM     12  C   UNL     1     -14.545  -7.213   9.837  1.00  0.00     0.000 C 
BRANCH  12  13
ATOM     13  C   UNL     1     -13.832  -6.898   8.511  1.00  0.00    -0.000 C 
BRANCH  13  14
ATOM     14  C   UNL     1     -12.374  -7.381   8.486  1.00  0.00    -0.000 C 
BRANCH  14  15
ATOM     15  C   UNL     1     -11.706  -7.182   9.852  1.00  0.00    -0.000 C 
BRANCH  15  16
ATOM     16  C   UNL     1     -10.468  -8.079   9.993  1.00  0.00    -0.000 C 
BRANCH  16  17
ATOM     17  C   UNL     1     -10.403  -9.182   8.921  1.00  0.00    -0.000 C 
BRANCH  17  18
ATOM     18  C   UNL     1      -9.078  -9.969   8.871  1.00  0.00    -0.000 C 
BRANCH  18  19
ATOM     19  C   UNL     1      -8.264  -9.792   7.576  1.00  0.00    -0.003 C 
ATOM     20  C   UNL     1      -8.156  -8.331   7.137  1.00  0.00     0.004 C 
ENDBRANCH  18  19
ENDBRANCH  17  18
ENDBRANCH  16  17
ENDBRANCH  15  16
ENDBRANCH  14  15
ENDBRANCH  13  14
ENDBRANCH  12  13
ENDBRANCH   1  12
TORSDOF 16
ENDMDL
MODEL 5
REMARK VINA RESULT:    -5.409      2.051      5.184
REMARK INTER + INTRA:         -12.404
REMARK INTER:                  -9.994
REMARK INTRA:                  -2.410
REMARK UNBOUND:                -1.936
REMARK SMILES CCCCCCCCCCCCCCCCCC(=O)[O-]
REMARK SMILES IDX 10 1 11 2 12 3 13 4 14 5 15 6 16 7 17 8 18 9 19 10 20 11
REMARK SMILES IDX 9 12 8 13 7 14 6 15 5 16 4 17 3 18 2 19 1 20
REMARK H PARENT
REMARK Flexibility Score: inf
ROOT
ATOM      1  C   UNL     1     -11.191  -7.121  10.031  1.00  0.00     0.000 C 
ENDROOT
BRANCH   1   2
ATOM      2  C   UNL     1     -10.417  -8.369   9.570  1.00  0.00     0.000 C 
BRANCH   2   3
ATOM      3  C   UNL     1     -10.646  -8.703   8.085  1.00  0.00     0.000 C 
BRANCH   3   4
ATOM      4  C   UNL     1     -10.845 -10.199   7.776  1.00  0.00     0.000 C 
BRANCH   4   5
ATOM      5  C   UNL     1      -9.735 -11.083   8.371  1.00  0.00     0.000 C 
BRANCH   5   6
ATOM      6  C   UNL     1      -9.733 -12.502   7.779  1.00  0.00     0.000 C 
BRANCH   6   7
ATOM      7  C   UNL     1     -10.981 -13.311   8.174  1.00  0.00     0.006 C 
BRANCH   7   8
ATOM      8  C   UNL     1     -10.723 -14.220   9.383  1.00  0.00     0.053 C 
BRANCH   8   9
ATOM      9  C   UNL     1     -10.337 -15.606   8.965  1.00  0.00     0.041 C 
ATOM     10  O   UNL     1     -11.196 -16.527   8.956  1.00  0.00    -0.550 OA
ATOM     11  O   UNL     1      -9.021 -15.888   8.620  1.00  0.00    -0.550 OA
ENDBRANCH   8   9
ENDBRANCH   7   8
ENDBRANCH   6   7
ENDBRANCH   5   6
ENDBRANCH   4   5
ENDBRANCH   3   4
ENDBRANCH   2   3
ENDBRANCH   1   2
BRANCH   1  12
ATOM     12  C   UNL     1     -12.452  -6.869   9.177  1.00  0.00     0.000 C 
BRANCH  12  13
ATOM     13  C   UNL     1     -13.513  -6.012   9.888  1.00  0.00    -0.000 C 
BRANCH  13  14
ATOM     14  C   UNL     1     -14.882  -6.702   9.972  1.00  0.00    -0.000 C 
BRANCH  14  15
ATOM     15  C   UNL     1     -14.861  -8.053   9.246  1.00  0.00    -0.000 C 
BRANCH  15  16
ATOM     16  C   UNL     1     -15.321  -9.183  10.177  1.00  0.00    -0.000 C 
BRANCH  16  17
ATOM     17  C   UNL     1     -14.189  -9.718  11.074  1.00  0.00    -0.000 C 
BRANCH  17  18
ATOM     18  C   UNL     1     -13.356 -10.863  10.463  1.00  0.00    -0.000 C 
BRANCH  18  19
ATOM     19  C   UNL     1     -12.108 -11.263  11.272  1.00  0.00    -0.003 C 
ATOM     20  C   UNL     1     -12.058 -10.606  12.651  1.00  0.00     0.004 C 
ENDBRANCH  18  19
ENDBRANCH  17  18
ENDBRANCH  16  17
ENDBRANCH  15  16
ENDBRANCH  14  15
ENDBRANCH  13  14
ENDBRANCH  12  13
ENDBRANCH   1  12
TORSDOF 16
ENDMDL
MODEL 6
REMARK VINA RESULT:    -5.400      2.080      6.315
REMARK INTER + INTRA:         -12.387
REMARK INTER:                 -10.384
REMARK INTRA:                  -2.003
REMARK UNBOUND:                -1.936
REMARK SMILES CCCCCCCCCCCCCCCCCC(=O)[O-]
REMARK SMILES IDX 10 1 11 2 12 3 13 4 14 5 15 6 16 7 17 8 18 9 19 10 20 11
REMARK SMILES IDX 9 12 8 13 7 14 6 15 5 16 4 17 3 18 2 19 1 20
REMARK H PARENT
REMARK Flexibility Score: inf
ROOT
ATOM      1  C   UNL     1      -9.571  -8.303   7.749  1.00  0.00     0.000 C 
ENDROOT
BRANCH   1   2
ATOM      2  C   UNL     1      -8.809  -9.430   8.468  1.00  0.00     0.000 C 
BRANCH   2   3
ATOM      3  C   UNL     1      -8.610 -10.677   7.587  1.00  0.00     0.000 C 
BRANCH   3   4
ATOM      4  C   UNL     1      -9.611 -11.820   7.840  1.00  0.00     0.000 C 
BRANCH   4   5
ATOM      5  C   UNL     1     -10.205 -11.790   9.258  1.00  0.00     0.000 C 
BRANCH   5   6
ATOM      6  C   UNL     1     -11.389 -12.758   9.421  1.00  0.00     0.000 C 
BRANCH   6   7
ATOM      7  C   UNL     1     -11.715 -13.517   8.123  1.00  0.00     0.006 C 
BRANCH   7   8
ATOM      8  C   UNL     1     -12.115 -14.974   8.389  1.00  0.00     0.053 C 
BRANCH   8   9
ATOM      9  C   UNL     1     -10.943 -15.805   8.814  1.00  0.00     0.041 C 
ATOM     10  O   UNL     1      -9.773 -15.355   8.699  1.00  0.00    -0.550 OA
ATOM     11  O   UNL     1     -11.141 -17.090   9.303  1.00  0.00    -0.550 OA
ENDBRANCH   8   9
ENDBRANCH   7   8
ENDBRANCH   6   7
ENDBRANCH   5   6
ENDBRANCH   4   5
ENDBRANCH   3   4
ENDBRANCH   2   3
ENDBRANCH   1   2
BRANCH   1  12
ATOM     12  C   UNL     1     -10.868  -7.912   8.489  1.00  0.00     0.000 C 
BRANCH  12  13
ATOM     13  C   UNL     1     -10.721  -7.900  10.020  1.00  0.00    -0.000 C 
BRANCH  13  14
ATOM     14  C   UNL     1     -11.827  -8.691  10.733  1.00  0.00    -0.000 C 
BRANCH  14  15
ATOM     15  C   UNL     1     -12.808  -9.297   9.723  1.00  0.00    -0.000 C 
BRANCH  15  16
ATOM     16  C   UNL     1     -14.073  -9.809  10.426  1.00  0.00    -0.000 C 
BRANCH  16  17
ATOM     17  C   UNL     1     -15.262  -8.838  10.301  1.00  0.00    -0.000 C 
BRANCH  17  18
ATOM     18  C   UNL     1     -14.938  -7.491   9.624  1.00  0.00    -0.000 C 
BRANCH  18  19
ATOM     19  C   UNL     1     -15.432  -7.358   8.171  1.00  0.00    -0.003 C 
ATOM     20  C   UNL     1     -14.322  -6.951   7.202  1.00  0.00     0.004 C 
ENDBRANCH  18  19
ENDBRANCH  17  18
ENDBRANCH  16  17
ENDBRANCH  15  16
ENDBRANCH  14  15
ENDBRANCH  13  14
ENDBRANCH  12  13
ENDBRANCH   1  12
TORSDOF 16
ENDMDL
MODEL 7
REMARK VINA RESULT:    -5.379      2.803      4.707
REMARK INTER + INTRA:         -12.345
REMARK INTER:                 -10.639
REMARK INTRA:                  -1.707
REMARK UNBOUND:                -1.936
REMARK SMILES CCCCCCCCCCCCCCCCCC(=O)[O-]
REMARK SMILES IDX 10 1 11 2 12 3 13 4 14 5 15 6 16 7 17 8 18 9 19 10 20 11
REMARK SMILES IDX 9 12 8 13 7 14 6 15 5 16 4 17 3 18 2 19 1 20
REMARK H PARENT
REMARK Flexibility Score: inf
ROOT
ATOM      1  C   UNL     1      -9.627  -8.354   7.818  1.00  0.00     0.000 C 
ENDROOT
BRANCH   1   2
ATOM      2  C   UNL     1     -10.930  -7.968   8.539  1.00  0.00     0.000 C 
BRANCH   2   3
ATOM      3  C   UNL     1     -10.808  -8.027  10.073  1.00  0.00     0.000 C 
BRANCH   3   4
ATOM      4  C   UNL     1     -11.820  -8.953  10.773  1.00  0.00     0.000 C 
BRANCH   4   5
ATOM      5  C   UNL     1     -12.886  -9.507   9.812  1.00  0.00     0.000 C 
BRANCH   5   6
ATOM      6  C   UNL     1     -14.291  -8.960  10.114  1.00  0.00     0.000 C 
BRANCH   6   7
ATOM      7  C   UNL     1     -14.616  -7.687   9.314  1.00  0.00     0.006 C 
BRANCH   7   8
ATOM      8  C   UNL     1     -14.205  -6.412  10.062  1.00  0.00     0.053 C 
BRANCH   8   9
ATOM      9  C   UNL     1     -13.770  -5.330   9.122  1.00  0.00     0.041 C 
ATOM     10  O   UNL     1     -13.323  -4.243   9.573  1.00  0.00    -0.550 OA
ATOM     11  O   UNL     1     -13.890  -5.509   7.750  1.00  0.00    -0.550 OA
ENDBRANCH   8   9
ENDBRANCH   7   8
ENDBRANCH   6   7
ENDBRANCH   5   6
ENDBRANCH   4   5
ENDBRANCH   3   4
ENDBRANCH   2   3
ENDBRANCH   1   2
BRANCH   1  12
ATOM     12  C   UNL     1      -8.942  -9.577   8.465  1.00  0.00     0.000 C 
BRANCH  12  13
ATOM     13  C   UNL     1      -8.416 -10.598   7.443  1.00  0.00    -0.000 C 
BRANCH  13  14
ATOM     14  C   UNL     1      -9.240 -11.894   7.414  1.00  0.00    -0.000 C 
BRANCH  14  15
ATOM     15  C   UNL     1     -10.532 -11.742   8.225  1.00  0.00    -0.000 C 
BRANCH  15  16
ATOM     16  C   UNL     1     -10.537 -12.689   9.432  1.00  0.00    -0.000 C 
BRANCH  16  17
ATOM     17  C   UNL     1     -11.080 -14.089   9.093  1.00  0.00    -0.000 C 
BRANCH  17  18
ATOM     18  C   UNL     1     -10.010 -15.191   8.956  1.00  0.00    -0.000 C 
BRANCH  18  19
ATOM     19  C   UNL     1     -10.495 -16.614   9.288  1.00  0.00    -0.003 C 
ATOM     20  C   UNL     1     -11.938 -16.868   8.850  1.00  0.00     0.004 C 
ENDBRANCH  18  19
ENDBRANCH  17  18
ENDBRANCH  16  17
ENDBRANCH  15  16
ENDBRANCH  14  15
ENDBRANCH  13  14
ENDBRANCH  12  13
ENDBRANCH   1  12
TORSDOF 16
ENDMDL
MODEL 8
REMARK VINA RESULT:    -5.330      3.179      5.195
REMARK INTER + INTRA:         -12.250
REMARK INTER:                  -9.742
REMARK INTRA:                  -2.508
REMARK UNBOUND:                -1.936
REMARK SMILES CCCCCCCCCCCCCCCCCC(=O)[O-]
REMARK SMILES IDX 10 1 11 2 12 3 13 4 14 5 15 6 16 7 17 8 18 9 19 10 20 11
REMARK SMILES IDX 9 12 8 13 7 14 6 15 5 16 4 17 3 18 2 19 1 20
REMARK H PARENT
REMARK Flexibility Score: inf
ROOT
ATOM      1  C   UNL     1     -12.016 -10.260  11.772  1.00  0.00     0.000 C 
ENDROOT
BRANCH   1   2
ATOM      2  C   UNL     1     -12.438  -9.364  10.595  1.00  0.00     0.000 C 
BRANCH   2   3
ATOM      3  C   UNL     1     -11.609  -8.070  10.498  1.00  0.00     0.000 C 
BRANCH   3   4
ATOM      4  C   UNL     1     -11.552  -7.436   9.096  1.00  0.00     0.000 C 
BRANCH   4   5
ATOM      5  C   UNL     1     -12.329  -8.245   8.043  1.00  0.00     0.000 C 
BRANCH   5   6
ATOM      6  C   UNL     1     -13.527  -7.469   7.472  1.00  0.00     0.000 C 
BRANCH   6   7
ATOM      7  C   UNL     1     -13.838  -6.189   8.267  1.00  0.00     0.006 C 
BRANCH   7   8
ATOM      8  C   UNL     1     -15.319  -6.092   8.653  1.00  0.00     0.053 C 
BRANCH   8   9
ATOM      9  C   UNL     1     -15.569  -6.599  10.040  1.00  0.00     0.041 C 
ATOM     10  O   UNL     1     -15.648  -7.837  10.257  1.00  0.00    -0.550 OA
ATOM     11  O   UNL     1     -15.750  -5.704  11.087  1.00  0.00    -0.550 OA
ENDBRANCH   8   9
ENDBRANCH   7   8
ENDBRANCH   6   7
ENDBRANCH   5   6
ENDBRANCH   4   5
ENDBRANCH   3   4
ENDBRANCH   2   3
ENDBRANCH   1   2
BRANCH   1  12
ATOM     12  C   UNL     1     -11.958 -11.751  11.377  1.00  0.00     0.000 C 
BRANCH  12  13
ATOM     13  C   UNL     1     -13.042 -12.160  10.366  1.00  0.00    -0.000 C 
BRANCH  13  14
ATOM     14  C   UNL     1     -12.518 -13.111   9.280  1.00  0.00    -0.000 C 
BRANCH  14  15
ATOM     15  C   UNL     1     -11.019 -13.377   9.459  1.00  0.00    -0.000 C 
BRANCH  15  16
ATOM     16  C   UNL     1     -10.228 -12.909   8.230  1.00  0.00    -0.000 C 
BRANCH  16  17
ATOM     17  C   UNL     1     -10.313 -11.387   8.006  1.00  0.00    -0.000 C 
BRANCH  17  18
ATOM     18  C   UNL     1      -9.349 -10.545   8.865  1.00  0.00    -0.000 C 
BRANCH  18  19
ATOM     19  C   UNL     1      -8.619  -9.419   8.109  1.00  0.00    -0.003 C 
ATOM     20  C   UNL     1      -7.477  -9.935   7.233  1.00  0.00     0.004 C 
ENDBRANCH  18  19
ENDBRANCH  17  18
ENDBRANCH  16  17
ENDBRANCH  15  16
ENDBRANCH  14  15
ENDBRANCH  13  14
ENDBRANCH  12  13
ENDBRANCH   1  12
TORSDOF 16
ENDMDL
MODEL 9
REMARK VINA RESULT:    -5.180      3.195      5.431
REMARK INTER + INTRA:         -11.962
REMARK INTER:                  -9.836
REMARK INTRA:                  -2.125
REMARK UNBOUND:                -1.936
REMARK SMILES CCCCCCCCCCCCCCCCCC(=O)[O-]
REMARK SMILES IDX 10 1 11 2 12 3 13 4 14 5 15 6 16 7 17 8 18 9 19 10 20 11
REMARK SMILES IDX 9 12 8 13 7 14 6 15 5 16 4 17 3 18 2 19 1 20
REMARK H PARENT
REMARK Flexibility Score: inf
ROOT
ATOM      1  C   UNL     1      -9.766  -9.116   9.547  1.00  0.00     0.000 C 
ENDROOT
BRANCH   1   2
ATOM      2  C   UNL     1     -10.763  -8.015   9.948  1.00  0.00     0.000 C 
BRANCH   2   3
ATOM      3  C   UNL     1     -12.117  -8.139   9.227  1.00  0.00     0.000 C 
BRANCH   3   4
ATOM      4  C   UNL     1     -13.328  -7.613  10.019  1.00  0.00     0.000 C 
BRANCH   4   5
ATOM      5  C   UNL     1     -14.587  -8.476   9.828  1.00  0.00     0.000 C 
BRANCH   5   6
ATOM      6  C   UNL     1     -15.885  -7.665   9.971  1.00  0.00     0.000 C 
BRANCH   6   7
ATOM      7  C   UNL     1     -15.805  -6.294   9.277  1.00  0.00     0.006 C 
BRANCH   7   8
ATOM      8  C   UNL     1     -15.910  -6.410   7.751  1.00  0.00     0.053 C 
BRANCH   8   9
ATOM      9  C   UNL     1     -14.780  -5.710   7.059  1.00  0.00     0.041 C 
ATOM     10  O   UNL     1     -13.942  -5.049   7.727  1.00  0.00    -0.550 OA
ATOM     11  O   UNL     1     -14.674  -5.758   5.675  1.00  0.00    -0.550 OA
ENDBRANCH   8   9
ENDBRANCH   7   8
ENDBRANCH   6   7
ENDBRANCH   5   6
ENDBRANCH   4   5
ENDBRANCH   3   4
ENDBRANCH   2   3
ENDBRANCH   1   2
BRANCH   1  12
ATOM     12  C   UNL     1     -10.188  -9.841   8.252  1.00  0.00     0.000 C 
BRANCH  12  13
ATOM     13  C   UNL     1      -9.026 -10.556   7.542  1.00  0.00    -0.000 C 
BRANCH  13  14
ATOM     14  C   UNL     1      -9.327 -12.031   7.240  1.00  0.00    -0.000 C 
BRANCH  14  15
ATOM     15  C   UNL     1     -10.073 -12.690   8.406  1.00  0.00    -0.000 C 
BRANCH  15  16
ATOM     16  C   UNL     1     -11.525 -13.004   8.021  1.00  0.00    -0.000 C 
BRANCH  16  17
ATOM     17  C   UNL     1     -12.470 -13.051   9.235  1.00  0.00    -0.000 C 
BRANCH  17  18
ATOM     18  C   UNL     1     -11.905 -12.429  10.528  1.00  0.00    -0.000 C 
BRANCH  18  19
ATOM     19  C   UNL     1     -12.761 -11.303  11.137  1.00  0.00    -0.003 C 
ATOM     20  C   UNL     1     -12.074 -10.602  12.309  1.00  0.00     0.004 C 
ENDBRANCH  18  19
ENDBRANCH  17  18
ENDBRANCH  16  17
ENDBRANCH  15  16
ENDBRANCH  14  15
ENDBRANCH  13  14
ENDBRANCH  12  13
ENDBRANCH   1  12
TORSDOF 16
ENDMDL
