MODEL 1
REMARK VINA RESULT:    -1.705      0.000      0.000
REMARK INTER + INTRA:          -0.777
REMARK INTER:                  -2.303
REMARK INTRA:                   1.527
REMARK UNBOUND:                 1.527
REMARK SMILES C=C(C)[C@H]1CC[C@H](C)C2=C(C1)[C@H](C)CC2
REMARK SMILES IDX 10 1 9 2 15 3 14 4 12 5 13 6 7 7 8 8 6 9 11 11 4 12 5 13
REMARK SMILES IDX 2 15 1 16 3 17
REMARK H PARENT
REMARK Flexibility Score: 80.00
ROOT
ATOM      1  C   UNL     1     138.316 136.830 124.218  1.00  0.00    -0.067 C 
ATOM      2  C   UNL     1     137.234 136.633 124.970  1.00  0.00    -0.068 C 
ATOM      3  C   UNL     1     137.406 135.451 125.872  1.00  0.00     0.032 C 
ATOM      4  C   UNL     1     138.870 135.044 125.703  1.00  0.00     0.012 C 
ATOM      5  C   UNL     1     139.378 135.807 124.470  1.00  0.00     0.012 C 
ATOM      6  C   UNL     1     139.547 134.881 123.260  1.00  0.00     0.012 C 
ENDROOT
BRANCH   2   7
ATOM      7  C   UNL     1     135.983 137.495 124.892  1.00  0.00     0.012 C 
ATOM      8  C   UNL     1     136.280 138.973 125.196  1.00  0.00     0.012 C 
BRANCH   7   9
ATOM      9  C   UNL     1     135.317 137.362 123.505  1.00  0.00     0.008 CG0
ATOM     10  G   UNL     1     136.288 136.885 122.412  1.00  0.00     0.000 G0
ENDBRANCH   7   9
ENDBRANCH   2   7
BRANCH   1  11
ATOM     11  C   UNL     1     138.477 137.956 123.227  1.00  0.00     0.039 C 
BRANCH  11  12
ATOM     12  C   UNL     1     137.431 137.872 122.093  1.00  0.00     0.018 C 
BRANCH  12  13
ATOM     13  C   UNL     1     136.292 136.879 122.417  1.00  0.00     0.009 CG0
ATOM     14  G   UNL     1     135.330 137.370 123.512  1.00  0.00     0.000 G0
ENDBRANCH  12  13
BRANCH  12  15
ATOM     15  C   UNL     1     138.103 137.473 120.785  1.00  0.00    -0.077 C 
ATOM     16  C   UNL     1     138.939 136.424 120.745  1.00  0.00     0.008 C 
ATOM     17  C   UNL     1     137.856 138.250 119.517  1.00  0.00     0.039 C 
ENDBRANCH  12  15
ENDBRANCH  11  12
ENDBRANCH   1  11
TORSDOF 1
ENDMDL
MODEL 2
REMARK VINA RESULT:    -1.447     15.102     16.566
REMARK INTER + INTRA:          -0.428
REMARK INTER:                  -1.730
REMARK INTRA:                   1.302
REMARK UNBOUND:                 1.527
REMARK SMILES C=C(C)[C@H]1CC[C@H](C)C2=C(C1)[C@H](C)CC2
REMARK SMILES IDX 10 1 9 2 15 3 14 4 12 5 13 6 7 7 8 8 6 9 11 11 4 12 5 13
REMARK SMILES IDX 2 15 1 16 3 17
REMARK H PARENT
REMARK Flexibility Score: 80.00
ROOT
ATOM      1  C   UNL     1     153.599 138.488 124.136  1.00  0.00    -0.067 C 
ATOM      2  C   UNL     1     154.083 137.556 124.957  1.00  0.00    -0.068 C 
ATOM      3  C   UNL     1     155.125 138.122 125.870  1.00  0.00     0.032 C 
ATOM      4  C   UNL     1     155.082 139.630 125.619  1.00  0.00     0.012 C 
ATOM      5  C   UNL     1     154.248 139.820 124.343  1.00  0.00     0.012 C 
ATOM      6  C   UNL     1     155.125 140.195 123.143  1.00  0.00     0.012 C 
ENDROOT
BRANCH   2   7
ATOM      7  C   UNL     1     153.636 136.102 124.940  1.00  0.00     0.012 C 
ATOM      8  C   UNL     1     152.130 135.956 125.209  1.00  0.00     0.012 C 
BRANCH   7   9
ATOM      9  C   UNL     1     154.002 135.438 123.593  1.00  0.00     0.008 CG0
ATOM     10  G   UNL     1     154.217 136.453 122.458  1.00  0.00     0.000 G0
ENDBRANCH   7   9
ENDBRANCH   2   7
BRANCH   1  11
ATOM     11  C   UNL     1     152.513 138.251 123.116  1.00  0.00     0.039 C 
BRANCH  11  12
ATOM     12  C   UNL     1     152.940 137.206 122.061  1.00  0.00     0.018 C 
BRANCH  12  13
ATOM     13  C   UNL     1     154.225 136.450 122.469  1.00  0.00     0.009 CG0
ATOM     14  G   UNL     1     154.017 135.440 123.610  1.00  0.00     0.000 G0
ENDBRANCH  12  13
BRANCH  12  15
ATOM     15  C   UNL     1     153.147 137.878 120.709  1.00  0.00    -0.077 C 
ATOM     16  C   UNL     1     154.206 138.675 120.504  1.00  0.00     0.008 C 
ATOM     17  C   UNL     1     152.166 137.672 119.582  1.00  0.00     0.039 C 
ENDBRANCH  12  15
ENDBRANCH  11  12
ENDBRANCH   1  11
TORSDOF 1
ENDMDL
MODEL 3
REMARK VINA RESULT:    -0.388      1.553      3.286
REMARK INTER + INTRA:           1.003
REMARK INTER:                   0.875
REMARK INTRA:                   0.128
REMARK UNBOUND:                 1.527
REMARK SMILES C=C(C)[C@H]1CC[C@H](C)C2=C(C1)[C@H](C)CC2
REMARK SMILES IDX 10 1 9 2 15 3 14 4 12 5 13 6 7 7 8 8 6 9 11 11 4 12 5 13
REMARK SMILES IDX 2 15 1 16 3 17
REMARK H PARENT
REMARK Flexibility Score: 80.00
ROOT
ATOM      1  C   UNL     1     137.030 137.956 123.288  1.00  0.00    -0.067 C 
ATOM      2  C   UNL     1     137.490 136.993 124.088  1.00  0.00    -0.068 C 
ATOM      3  C   UNL     1     136.540 136.718 125.210  1.00  0.00     0.032 C 
ATOM      4  C   UNL     1     135.295 137.541 124.875  1.00  0.00     0.012 C 
ATOM      5  C   UNL     1     135.715 138.499 123.750  1.00  0.00     0.012 C 
ATOM      6  C   UNL     1     135.864 139.938 124.257  1.00  0.00     0.012 C 
ENDROOT
BRANCH   2   7
ATOM      7  C   UNL     1     138.824 136.291 123.883  1.00  0.00     0.012 C 
ATOM      8  C   UNL     1     139.179 135.369 125.060  1.00  0.00     0.012 C 
BRANCH   7   9
ATOM      9  C   UNL     1     138.818 135.489 122.562  1.00  0.00     0.008 CG0
ATOM     10  G   UNL     1     139.061 136.366 121.322  1.00  0.00     0.000 G0
ENDBRANCH   7   9
ENDBRANCH   2   7
BRANCH   1  11
ATOM     11  C   UNL     1     137.734 138.448 122.048  1.00  0.00     0.039 C 
BRANCH  11  12
ATOM     12  C   UNL     1     137.883 137.327 120.995  1.00  0.00     0.018 C 
BRANCH  12  13
ATOM     13  C   UNL     1     139.050 136.367 121.319  1.00  0.00     0.009 CG0
ATOM     14  G   UNL     1     138.808 135.489 122.558  1.00  0.00     0.000 G0
ENDBRANCH  12  13
BRANCH  12  15
ATOM     15  C   UNL     1     138.085 137.931 119.610  1.00  0.00    -0.077 C 
ATOM     16  C   UNL     1     139.139 137.572 118.861  1.00  0.00     0.008 C 
ATOM     17  C   UNL     1     137.116 138.946 119.057  1.00  0.00     0.039 C 
ENDBRANCH  12  15
ENDBRANCH  11  12
ENDBRANCH   1  11
TORSDOF 1
ENDMDL
MODEL 4
REMARK VINA RESULT:    -0.281     14.716     16.203
REMARK INTER + INTRA:           1.147
REMARK INTER:                   1.021
REMARK INTRA:                   0.127
REMARK UNBOUND:                 1.527
REMARK SMILES C=C(C)[C@H]1CC[C@H](C)C2=C(C1)[C@H](C)CC2
REMARK SMILES IDX 10 1 9 2 15 3 14 4 12 5 13 6 7 7 8 8 6 9 11 11 4 12 5 13
REMARK SMILES IDX 2 15 1 16 3 17
REMARK H PARENT
REMARK Flexibility Score: 80.00
ROOT
ATOM      1  C   UNL     1     137.608 153.582 123.426  1.00  0.00    -0.067 C 
ATOM      2  C   UNL     1     136.585 152.999 124.051  1.00  0.00    -0.068 C 
ATOM      3  C   UNL     1     136.123 153.816 125.217  1.00  0.00     0.032 C 
ATOM      4  C   UNL     1     136.908 155.124 125.108  1.00  0.00     0.012 C 
ATOM      5  C   UNL     1     138.016 154.865 124.076  1.00  0.00     0.012 C 
ATOM      6  C   UNL     1     139.390 154.731 124.742  1.00  0.00     0.012 C 
ENDROOT
BRANCH   2   7
ATOM      7  C   UNL     1     135.990 151.663 123.633  1.00  0.00     0.012 C 
ATOM      8  C   UNL     1     134.969 151.139 124.656  1.00  0.00     0.012 C 
BRANCH   7   9
ATOM      9  C   UNL     1     135.337 151.772 122.238  1.00  0.00     0.008 CG0
ATOM     10  G   UNL     1     136.357 151.723 121.088  1.00  0.00     0.000 G0
ENDBRANCH   7   9
ENDBRANCH   2   7
BRANCH   1  11
ATOM     11  C   UNL     1     138.284 153.032 122.194  1.00  0.00     0.039 C 
BRANCH  11  12
ATOM     12  C   UNL     1     137.309 152.946 120.999  1.00  0.00     0.018 C 
BRANCH  12  13
ATOM     13  C   UNL     1     136.373 151.720 121.091  1.00  0.00     0.009 CG0
ATOM     14  G   UNL     1     135.358 151.796 122.243  1.00  0.00     0.000 G0
ENDBRANCH  12  13
BRANCH  12  15
ATOM     15  C   UNL     1     138.086 152.902 119.689  1.00  0.00    -0.077 C 
ATOM     16  C   UNL     1     137.958 151.854 118.860  1.00  0.00     0.008 C 
ATOM     17  C   UNL     1     139.018 154.022 119.301  1.00  0.00     0.039 C 
ENDBRANCH  12  15
ENDBRANCH  11  12
ENDBRANCH   1  11
TORSDOF 1
ENDMDL
MODEL 5
REMARK VINA RESULT:    -0.012     22.039     22.647
REMARK INTER + INTRA:           1.510
REMARK INTER:                   1.381
REMARK INTRA:                   0.129
REMARK UNBOUND:                 1.527
REMARK SMILES C=C(C)[C@H]1CC[C@H](C)C2=C(C1)[C@H](C)CC2
REMARK SMILES IDX 10 1 9 2 15 3 14 4 12 5 13 6 7 7 8 8 6 9 11 11 4 12 5 13
REMARK SMILES IDX 2 15 1 16 3 17
REMARK H PARENT
REMARK Flexibility Score: 80.00
ROOT
ATOM      1  C   UNL     1     153.627 152.695 123.313  1.00  0.00    -0.067 C 
ATOM      2  C   UNL     1     153.003 153.633 124.025  1.00  0.00    -0.068 C 
ATOM      3  C   UNL     1     153.788 154.002 125.244  1.00  0.00     0.032 C 
ATOM      4  C   UNL     1     155.122 153.272 125.082  1.00  0.00     0.012 C 
ATOM      5  C   UNL     1     154.913 152.264 123.942  1.00  0.00     0.012 C 
ATOM      6  C   UNL     1     154.813 150.827 124.468  1.00  0.00     0.012 C 
ENDROOT
BRANCH   2   7
ATOM      7  C   UNL     1     151.655 154.225 123.643  1.00  0.00     0.012 C 
ATOM      8  C   UNL     1     151.084 155.124 124.752  1.00  0.00     0.012 C 
BRANCH   7   9
ATOM      9  C   UNL     1     151.764 155.016 122.321  1.00  0.00     0.008 CG0
ATOM     10  G   UNL     1     151.744 154.115 121.075  1.00  0.00     0.000 G0
ENDBRANCH   7   9
ENDBRANCH   2   7
BRANCH   1  11
ATOM     11  C   UNL     1     153.117 152.127 122.011  1.00  0.00     0.039 C 
BRANCH  11  12
ATOM     12  C   UNL     1     153.007 153.213 120.919  1.00  0.00     0.018 C 
BRANCH  12  13
ATOM     13  C   UNL     1     151.748 154.093 121.089  1.00  0.00     0.009 CG0
ATOM     14  G   UNL     1     151.789 155.005 122.326  1.00  0.00     0.000 G0
ENDBRANCH  12  13
BRANCH  12  15
ATOM     15  C   UNL     1     153.002 152.571 119.537  1.00  0.00    -0.077 C 
ATOM     16  C   UNL     1     152.165 153.014 118.587  1.00  0.00     0.008 C 
ATOM     17  C   UNL     1     153.923 151.422 119.211  1.00  0.00     0.039 C 
ENDBRANCH  12  15
ENDBRANCH  11  12
ENDBRANCH   1  11
TORSDOF 1
ENDMDL
MODEL 6
REMARK VINA RESULT:     0.980      1.973      4.661
REMARK INTER + INTRA:           2.850
REMARK INTER:                   2.697
REMARK INTRA:                   0.153
REMARK UNBOUND:                 1.527
REMARK SMILES C=C(C)[C@H]1CC[C@H](C)C2=C(C1)[C@H](C)CC2
REMARK SMILES IDX 10 1 9 2 15 3 14 4 12 5 13 6 7 7 8 8 6 9 11 11 4 12 5 13
REMARK SMILES IDX 2 15 1 16 3 17
REMARK H PARENT
REMARK Flexibility Score: 80.00
ROOT
ATOM      1  C   UNL     1     137.402 137.374 123.885  1.00  0.00    -0.067 C 
ATOM      2  C   UNL     1     137.085 136.780 122.735  1.00  0.00    -0.068 C 
ATOM      3  C   UNL     1     136.220 137.660 121.888  1.00  0.00     0.032 C 
ATOM      4  C   UNL     1     136.203 139.004 122.618  1.00  0.00     0.012 C 
ATOM      5  C   UNL     1     136.789 138.733 124.012  1.00  0.00     0.012 C 
ATOM      6  C   UNL     1     135.705 138.747 125.095  1.00  0.00     0.012 C 
ENDROOT
BRANCH   2   7
ATOM      7  C   UNL     1     137.534 135.376 122.358  1.00  0.00     0.012 C 
ATOM      8  C   UNL     1     136.859 134.880 121.069  1.00  0.00     0.012 C 
BRANCH   7   9
ATOM      9  C   UNL     1     139.071 135.320 122.209  1.00  0.00     0.008 CG0
ATOM     10  G   UNL     1     139.806 135.252 123.558  1.00  0.00     0.000 G0
ENDBRANCH   7   9
ENDBRANCH   2   7
BRANCH   1  11
ATOM     11  C   UNL     1     138.286 136.769 124.947  1.00  0.00     0.039 C 
BRANCH  11  12
ATOM     12  C   UNL     1     139.717 136.517 124.422  1.00  0.00     0.018 C 
BRANCH  12  13
ATOM     13  C   UNL     1     139.812 135.236 123.563  1.00  0.00     0.009 CG0
ATOM     14  G   UNL     1     139.062 135.328 122.224  1.00  0.00     0.000 G0
ENDBRANCH  12  13
BRANCH  12  15
ATOM     15  C   UNL     1     140.696 136.428 125.586  1.00  0.00    -0.077 C 
ATOM     16  C   UNL     1     140.440 135.622 126.628  1.00  0.00     0.008 C 
ATOM     17  C   UNL     1     141.962 137.248 125.600  1.00  0.00     0.039 C 
ENDBRANCH  12  15
ENDBRANCH  11  12
ENDBRANCH   1  11
TORSDOF 1
ENDMDL
