MODEL 1
REMARK VINA RESULT:    -8.493      0.000      0.000
REMARK INTER + INTRA:          -9.823
REMARK INTER:                  -9.734
REMARK INTRA:                  -0.088
REMARK UNBOUND:                -0.088
REMARK SMILES CC1(C)CC[C@]23CO[C@@]4(C=C[C@@H]5[C@@]6(C)CC[C@@H](O)[C@](C)(CO)[C@H]6CC[C@]5(C)[C@]4(C)C[C@@H]2O)[C@H]3C1
REMARK SMILES IDX 1 1 2 2 4 3 5 4 6 5 7 6 8 7 9 8 33 9 34 10 10 11 11 12 12 13
REMARK SMILES IDX 13 14 15 15 16 16 17 17 19 18 23 19 24 20 25 21 26 22 28 23
REMARK SMILES IDX 30 24 31 25 29 26 27 27 20 28 14 29 3 30 32 31 21 33 22 34
REMARK SMILES IDX 18 36
REMARK H PARENT 32 32 22 35 18 37
REMARK Flexibility Score: inf
ROOT
ATOM      1  C   UNL     1       0.474 -16.682  49.067  1.00  0.00     0.011 C 
ATOM      2  C   UNL     1       0.701 -15.788  50.305  1.00  0.00    -0.035 C 
ATOM      3  C   UNL     1       2.216 -15.538  50.462  1.00  0.00     0.007 C 
ATOM      4  C   UNL     1       2.543 -14.526  51.569  1.00  0.00     0.013 C 
ATOM      5  C   UNL     1       1.735 -13.200  51.491  1.00  0.00     0.026 C 
ATOM      6  C   UNL     1       2.132 -12.305  50.318  1.00  0.00     0.171 C 
ATOM      7  O   UNL     1       1.010 -11.510  49.991  1.00  0.00    -0.369 OA
ATOM      8  C   UNL     1      -0.088 -11.924  50.798  1.00  0.00     0.096 C 
ATOM      9  C   UNL     1       0.251 -13.390  51.201  1.00  0.00     0.037 C 
ATOM     10  C   UNL     1      -0.017 -14.436  50.079  1.00  0.00     0.014 C 
ATOM     11  C   UNL     1      -1.343 -11.803  49.965  1.00  0.00     0.005 C 
ATOM     12  C   UNL     1      -2.186 -10.759  50.007  1.00  0.00    -0.024 C 
ATOM     13  C   UNL     1      -2.158  -9.604  51.033  1.00  0.00     0.024 C 
ATOM     14  C   UNL     1      -2.790  -8.251  50.413  1.00  0.00    -0.022 C 
ATOM     15  C   UNL     1      -3.216  -7.228  51.517  1.00  0.00     0.010 C 
ATOM     16  C   UNL     1      -3.743  -5.885  50.971  1.00  0.00     0.033 C 
ATOM     17  C   UNL     1      -2.736  -5.193  50.035  1.00  0.00     0.123 C 
ATOM     18  C   UNL     1      -2.225  -6.123  48.880  1.00  0.00     0.020 C 
ATOM     19  C   UNL     1      -1.758  -7.551  49.441  1.00  0.00     0.006 C 
ATOM     20  C   UNL     1      -0.348  -7.463  50.106  1.00  0.00     0.005 C 
ATOM     21  C   UNL     1       0.191  -8.799  50.628  1.00  0.00     0.008 C 
ATOM     22  C   UNL     1      -0.716  -9.500  51.688  1.00  0.00    -0.017 C 
ATOM     23  C   UNL     1      -0.200 -10.994  52.085  1.00  0.00     0.009 C 
ATOM     24  C   UNL     1       1.210 -11.006  52.788  1.00  0.00     0.043 C 
ATOM     25  C   UNL     1       1.895 -12.404  52.828  1.00  0.00     0.124 C 
ATOM     26  C   UNL     1      -1.223 -11.612  53.107  1.00  0.00     0.015 C 
ATOM     27  C   UNL     1      -0.743  -8.623  52.991  1.00  0.00     0.013 C 
ATOM     28  C   UNL     1      -1.054  -5.394  48.148  1.00  0.00     0.017 C 
ATOM     29  C   UNL     1      -4.114  -8.666  49.679  1.00  0.00     0.012 C 
ATOM     30  C   UNL     1       0.126 -16.526  51.538  1.00  0.00     0.011 C 
ENDROOT
BRANCH  25  31
ATOM     31  O   UNL     1       3.259 -12.241  53.125  1.00  0.00    -0.392 OA
ATOM     32  H   UNL     1       3.357 -12.357  54.106  1.00  0.00     0.210 HD
ENDBRANCH  25  31
BRANCH  18  33
ATOM     33  C   UNL     1      -3.348  -6.246  47.796  1.00  0.00     0.165 C 
BRANCH  33  34
ATOM     34  O   UNL     1      -3.969  -5.012  47.539  1.00  0.00    -0.396 OA
ATOM     35  H   UNL     1      -4.917  -5.099  47.818  1.00  0.00     0.210 HD
ENDBRANCH  33  34
ENDBRANCH  18  33
BRANCH  17  36
ATOM     36  O   UNL     1      -1.663  -4.700  50.802  1.00  0.00    -0.392 OA
ATOM     37  H   UNL     1      -2.014  -3.953  51.354  1.00  0.00     0.210 HD
ENDBRANCH  17  36
TORSDOF 4
ENDMDL
MODEL 2
REMARK VINA RESULT:    -8.111     12.578     16.661
REMARK INTER + INTRA:          -9.385
REMARK INTER:                  -9.320
REMARK INTRA:                  -0.065
REMARK UNBOUND:                -0.088
REMARK SMILES CC1(C)CC[C@]23CO[C@@]4(C=C[C@@H]5[C@@]6(C)CC[C@@H](O)[C@](C)(CO)[C@H]6CC[C@]5(C)[C@]4(C)C[C@@H]2O)[C@H]3C1
REMARK SMILES IDX 1 1 2 2 4 3 5 4 6 5 7 6 8 7 9 8 33 9 34 10 10 11 11 12 12 13
REMARK SMILES IDX 13 14 15 15 16 16 17 17 19 18 23 19 24 20 25 21 26 22 28 23
REMARK SMILES IDX 30 24 31 25 29 26 27 27 20 28 14 29 3 30 32 31 21 33 22 34
REMARK SMILES IDX 18 36
REMARK H PARENT 32 32 22 35 18 37
REMARK Flexibility Score: inf
ROOT
ATOM      1  C   UNL     1      -2.922  -2.840  38.241  1.00  0.00     0.011 C 
ATOM      2  C   UNL     1      -2.841  -3.554  36.874  1.00  0.00    -0.035 C 
ATOM      3  C   UNL     1      -1.500  -3.186  36.203  1.00  0.00     0.007 C 
ATOM      4  C   UNL     1      -1.245  -3.971  34.909  1.00  0.00     0.013 C 
ATOM      5  C   UNL     1      -1.432  -5.509  35.039  1.00  0.00     0.026 C 
ATOM      6  C   UNL     1      -0.349  -6.193  35.871  1.00  0.00     0.171 C 
ATOM      7  O   UNL     1      -0.912  -7.371  36.415  1.00  0.00    -0.369 OA
ATOM      8  C   UNL     1      -2.294  -7.410  36.077  1.00  0.00     0.096 C 
ATOM      9  C   UNL     1      -2.677  -5.922  35.815  1.00  0.00     0.037 C 
ATOM     10  C   UNL     1      -2.889  -5.083  37.109  1.00  0.00     0.014 C 
ATOM     11  C   UNL     1      -3.036  -8.027  37.239  1.00  0.00     0.005 C 
ATOM     12  C   UNL     1      -3.399  -9.317  37.311  1.00  0.00    -0.024 C 
ATOM     13  C   UNL     1      -3.319 -10.353  36.166  1.00  0.00     0.024 C 
ATOM     14  C   UNL     1      -3.154 -11.854  36.742  1.00  0.00    -0.022 C 
ATOM     15  C   UNL     1      -3.542 -12.946  35.691  1.00  0.00     0.010 C 
ATOM     16  C   UNL     1      -3.315 -14.396  36.165  1.00  0.00     0.033 C 
ATOM     17  C   UNL     1      -1.864 -14.650  36.611  1.00  0.00     0.123 C 
ATOM     18  C   UNL     1      -1.351 -13.612  37.669  1.00  0.00     0.020 C 
ATOM     19  C   UNL     1      -1.665 -12.107  37.213  1.00  0.00     0.006 C 
ATOM     20  C   UNL     1      -0.655 -11.624  36.125  1.00  0.00     0.005 C 
ATOM     21  C   UNL     1      -0.860 -10.175  35.669  1.00  0.00     0.008 C 
ATOM     22  C   UNL     1      -2.272  -9.871  35.076  1.00  0.00    -0.017 C 
ATOM     23  C   UNL     1      -2.510  -8.289  34.767  1.00  0.00     0.009 C 
ATOM     24  C   UNL     1      -1.549  -7.713  33.659  1.00  0.00     0.043 C 
ATOM     25  C   UNL     1      -1.481  -6.157  33.616  1.00  0.00     0.124 C 
ATOM     26  C   UNL     1      -3.979  -8.107  34.235  1.00  0.00     0.015 C 
ATOM     27  C   UNL     1      -2.440 -10.668  33.732  1.00  0.00     0.013 C 
ATOM     28  C   UNL     1       0.182 -13.832  37.866  1.00  0.00     0.017 C 
ATOM     29  C   UNL     1      -4.184 -12.005  37.916  1.00  0.00     0.012 C 
ATOM     30  C   UNL     1      -4.042  -3.084  36.018  1.00  0.00     0.011 C 
ENDROOT
BRANCH  25  31
ATOM     31  O   UNL     1      -0.351  -5.766  32.876  1.00  0.00    -0.392 OA
ATOM     32  H   UNL     1      -0.541  -4.860  32.517  1.00  0.00     0.210 HD
ENDBRANCH  25  31
BRANCH  18  33
ATOM     33  C   UNL     1      -1.978 -13.957  39.061  1.00  0.00     0.165 C 
BRANCH  33  34
ATOM     34  O   UNL     1      -1.078 -13.732  40.116  1.00  0.00    -0.396 OA
ATOM     35  H   UNL     1      -1.386 -12.920  40.594  1.00  0.00     0.210 HD
ENDBRANCH  33  34
ENDBRANCH  18  33
BRANCH  17  36
ATOM     36  O   UNL     1      -1.032 -14.670  35.475  1.00  0.00    -0.392 OA
ATOM     37  H   UNL     1      -1.451 -14.082  34.793  1.00  0.00     0.210 HD
ENDBRANCH  17  36
TORSDOF 4
ENDMDL
MODEL 3
REMARK VINA RESULT:    -7.932     14.180     16.674
REMARK INTER + INTRA:          -9.180
REMARK INTER:                  -9.091
REMARK INTRA:                  -0.088
REMARK UNBOUND:                -0.088
REMARK SMILES CC1(C)CC[C@]23CO[C@@]4(C=C[C@@H]5[C@@]6(C)CC[C@@H](O)[C@](C)(CO)[C@H]6CC[C@]5(C)[C@]4(C)C[C@@H]2O)[C@H]3C1
REMARK SMILES IDX 1 1 2 2 4 3 5 4 6 5 7 6 8 7 9 8 33 9 34 10 10 11 11 12 12 13
REMARK SMILES IDX 13 14 15 15 16 16 17 17 19 18 23 19 24 20 25 21 26 22 28 23
REMARK SMILES IDX 30 24 31 25 29 26 27 27 20 28 14 29 3 30 32 31 21 33 22 34
REMARK SMILES IDX 18 36
REMARK H PARENT 32 32 22 35 18 37
REMARK Flexibility Score: inf
ROOT
ATOM      1  C   UNL     1       7.032 -11.161  39.448  1.00  0.00     0.011 C 
ATOM      2  C   UNL     1       6.996 -10.617  38.004  1.00  0.00    -0.035 C 
ATOM      3  C   UNL     1       5.780 -11.231  37.275  1.00  0.00     0.007 C 
ATOM      4  C   UNL     1       5.555 -10.634  35.880  1.00  0.00     0.013 C 
ATOM      5  C   UNL     1       5.539  -9.079  35.839  1.00  0.00     0.026 C 
ATOM      6  C   UNL     1       4.306  -8.458  36.492  1.00  0.00     0.171 C 
ATOM      7  O   UNL     1       4.665  -7.164  36.934  1.00  0.00    -0.369 OA
ATOM      8  C   UNL     1       6.058  -6.979  36.706  1.00  0.00     0.096 C 
ATOM      9  C   UNL     1       6.644  -8.422  36.657  1.00  0.00     0.037 C 
ATOM     10  C   UNL     1       6.833  -9.079  38.056  1.00  0.00     0.014 C 
ATOM     11  C   UNL     1       6.604  -6.146  37.842  1.00  0.00     0.005 C 
ATOM     12  C   UNL     1       6.797  -4.818  37.787  1.00  0.00    -0.024 C 
ATOM     13  C   UNL     1       6.700  -3.933  36.524  1.00  0.00     0.024 C 
ATOM     14  C   UNL     1       6.297  -2.413  36.899  1.00  0.00    -0.022 C 
ATOM     15  C   UNL     1       6.647  -1.401  35.760  1.00  0.00     0.010 C 
ATOM     16  C   UNL     1       6.199   0.048  36.036  1.00  0.00     0.033 C 
ATOM     17  C   UNL     1       4.692   0.154  36.329  1.00  0.00     0.123 C 
ATOM     18  C   UNL     1       4.212  -0.821  37.460  1.00  0.00     0.020 C 
ATOM     19  C   UNL     1       4.751  -2.312  37.215  1.00  0.00     0.006 C 
ATOM     20  C   UNL     1       3.916  -3.041  36.115  1.00  0.00     0.005 C 
ATOM     21  C   UNL     1       4.341  -4.490  35.854  1.00  0.00     0.008 C 
ATOM     22  C   UNL     1       5.829  -4.666  35.418  1.00  0.00    -0.017 C 
ATOM     23  C   UNL     1       6.288  -6.227  35.323  1.00  0.00     0.009 C 
ATOM     24  C   UNL     1       5.516  -7.042  34.218  1.00  0.00     0.043 C 
ATOM     25  C   UNL     1       5.644  -8.589  34.356  1.00  0.00     0.124 C 
ATOM     26  C   UNL     1       7.813  -6.268  34.936  1.00  0.00     0.015 C 
ATOM     27  C   UNL     1       6.026  -4.005  34.006  1.00  0.00     0.013 C 
ATOM     28  C   UNL     1       2.652  -0.787  37.504  1.00  0.00     0.017 C 
ATOM     29  C   UNL     1       7.184  -2.000  38.127  1.00  0.00     0.012 C 
ATOM     30  C   UNL     1       8.321 -11.014  37.311  1.00  0.00     0.011 C 
ENDROOT
BRANCH  25  31
ATOM     31  O   UNL     1       4.647  -9.205  33.580  1.00  0.00    -0.392 OA
ATOM     32  H   UNL     1       3.851  -9.311  34.164  1.00  0.00     0.210 HD
ENDBRANCH  25  31
BRANCH  18  33
ATOM     33  C   UNL     1       4.656  -0.246  38.847  1.00  0.00     0.165 C 
BRANCH  33  34
ATOM     34  O   UNL     1       4.455   1.142  38.929  1.00  0.00    -0.396 OA
ATOM     35  H   UNL     1       5.210   1.515  39.453  1.00  0.00     0.210 HD
ENDBRANCH  33  34
ENDBRANCH  18  33
BRANCH  17  36
ATOM     36  O   UNL     1       3.977  -0.060  35.135  1.00  0.00    -0.392 OA
ATOM     37  H   UNL     1       3.015  -0.117  35.374  1.00  0.00     0.210 HD
ENDBRANCH  17  36
TORSDOF 4
ENDMDL
MODEL 4
REMARK VINA RESULT:    -7.931     12.520     15.142
REMARK INTER + INTRA:          -9.179
REMARK INTER:                  -9.094
REMARK INTRA:                  -0.085
REMARK UNBOUND:                -0.088
REMARK SMILES CC1(C)CC[C@]23CO[C@@]4(C=C[C@@H]5[C@@]6(C)CC[C@@H](O)[C@](C)(CO)[C@H]6CC[C@]5(C)[C@]4(C)C[C@@H]2O)[C@H]3C1
REMARK SMILES IDX 1 1 2 2 4 3 5 4 6 5 7 6 8 7 9 8 33 9 34 10 10 11 11 12 12 13
REMARK SMILES IDX 13 14 15 15 16 16 17 17 19 18 23 19 24 20 25 21 26 22 28 23
REMARK SMILES IDX 30 24 31 25 29 26 27 27 20 28 14 29 3 30 32 31 21 33 22 34
REMARK SMILES IDX 18 36
REMARK H PARENT 32 32 22 35 18 37
REMARK Flexibility Score: inf
ROOT
ATOM      1  C   UNL     1       1.090 -13.508  39.456  1.00  0.00     0.011 C 
ATOM      2  C   UNL     1      -0.109 -13.392  38.491  1.00  0.00    -0.035 C 
ATOM      3  C   UNL     1      -1.410 -13.630  39.289  1.00  0.00     0.007 C 
ATOM      4  C   UNL     1      -2.675 -13.378  38.458  1.00  0.00     0.013 C 
ATOM      5  C   UNL     1      -2.691 -12.018  37.702  1.00  0.00     0.026 C 
ATOM      6  C   UNL     1      -2.843 -10.806  38.620  1.00  0.00     0.171 C 
ATOM      7  O   UNL     1      -2.253  -9.701  37.964  1.00  0.00    -0.369 OA
ATOM      8  C   UNL     1      -1.646 -10.160  36.762  1.00  0.00     0.096 C 
ATOM      9  C   UNL     1      -1.378 -11.675  37.009  1.00  0.00     0.037 C 
ATOM     10  C   UNL     1      -0.131 -11.964  37.896  1.00  0.00     0.014 C 
ATOM     11  C   UNL     1      -0.386  -9.354  36.544  1.00  0.00     0.005 C 
ATOM     12  C   UNL     1      -0.299  -8.282  35.741  1.00  0.00    -0.024 C 
ATOM     13  C   UNL     1      -1.377  -7.796  34.747  1.00  0.00     0.024 C 
ATOM     14  C   UNL     1      -1.271  -6.202  34.496  1.00  0.00    -0.022 C 
ATOM     15  C   UNL     1      -1.992  -5.752  33.184  1.00  0.00     0.010 C 
ATOM     16  C   UNL     1      -1.994  -4.228  32.949  1.00  0.00     0.033 C 
ATOM     17  C   UNL     1      -2.607  -3.450  34.127  1.00  0.00     0.123 C 
ATOM     18  C   UNL     1      -1.967  -3.818  35.511  1.00  0.00     0.020 C 
ATOM     19  C   UNL     1      -1.888  -5.406  35.716  1.00  0.00     0.006 C 
ATOM     20  C   UNL     1      -3.280  -5.995  36.108  1.00  0.00     0.005 C 
ATOM     21  C   UNL     1      -3.279  -7.505  36.367  1.00  0.00     0.008 C 
ATOM     22  C   UNL     1      -2.795  -8.374  35.165  1.00  0.00    -0.017 C 
ATOM     23  C   UNL     1      -2.639  -9.953  35.536  1.00  0.00     0.009 C 
ATOM     24  C   UNL     1      -4.002 -10.645  35.922  1.00  0.00     0.043 C 
ATOM     25  C   UNL     1      -3.842 -12.016  36.643  1.00  0.00     0.124 C 
ATOM     26  C   UNL     1      -2.092 -10.706  34.267  1.00  0.00     0.015 C 
ATOM     27  C   UNL     1      -3.832  -8.241  33.992  1.00  0.00     0.013 C 
ATOM     28  C   UNL     1      -2.816  -3.146  36.635  1.00  0.00     0.017 C 
ATOM     29  C   UNL     1       0.251  -5.878  34.283  1.00  0.00     0.012 C 
ATOM     30  C   UNL     1       0.067 -14.456  37.381  1.00  0.00     0.011 C 
ENDROOT
BRANCH  25  31
ATOM     31  O   UNL     1      -5.058 -12.357  37.261  1.00  0.00    -0.392 OA
ATOM     32  H   UNL     1      -5.123 -13.347  37.245  1.00  0.00     0.210 HD
ENDBRANCH  25  31
BRANCH  18  33
ATOM     33  C   UNL     1      -0.564  -3.132  35.618  1.00  0.00     0.165 C 
BRANCH  33  34
ATOM     34  O   UNL     1      -0.571  -1.831  35.085  1.00  0.00    -0.396 OA
ATOM     35  H   UNL     1      -1.466  -1.445  35.273  1.00  0.00     0.210 HD
ENDBRANCH  33  34
ENDBRANCH  18  33
BRANCH  17  36
ATOM     36  O   UNL     1      -3.999  -3.660  34.139  1.00  0.00    -0.392 OA
ATOM     37  H   UNL     1      -4.427  -2.788  34.345  1.00  0.00     0.210 HD
ENDBRANCH  17  36
TORSDOF 4
ENDMDL
MODEL 5
REMARK VINA RESULT:    -7.908      7.057      9.531
REMARK INTER + INTRA:          -9.152
REMARK INTER:                  -9.102
REMARK INTRA:                  -0.050
REMARK UNBOUND:                -0.088
REMARK SMILES CC1(C)CC[C@]23CO[C@@]4(C=C[C@@H]5[C@@]6(C)CC[C@@H](O)[C@](C)(CO)[C@H]6CC[C@]5(C)[C@]4(C)C[C@@H]2O)[C@H]3C1
REMARK SMILES IDX 1 1 2 2 4 3 5 4 6 5 7 6 8 7 9 8 33 9 34 10 10 11 11 12 12 13
REMARK SMILES IDX 13 14 15 15 16 16 17 17 19 18 23 19 24 20 25 21 26 22 28 23
REMARK SMILES IDX 30 24 31 25 29 26 27 27 20 28 14 29 3 30 32 31 21 33 22 34
REMARK SMILES IDX 18 36
REMARK H PARENT 32 32 22 35 18 37
REMARK Flexibility Score: inf
ROOT
ATOM      1  C   UNL     1      12.890 -16.818  48.989  1.00  0.00     0.011 C 
ATOM      2  C   UNL     1      11.410 -16.759  49.426  1.00  0.00    -0.035 C 
ATOM      3  C   UNL     1      11.336 -17.002  50.950  1.00  0.00     0.007 C 
ATOM      4  C   UNL     1       9.924 -16.805  51.518  1.00  0.00     0.013 C 
ATOM      5  C   UNL     1       9.242 -15.470  51.103  1.00  0.00     0.026 C 
ATOM      6  C   UNL     1       9.863 -14.234  51.752  1.00  0.00     0.171 C 
ATOM      7  O   UNL     1       9.617 -13.136  50.895  1.00  0.00    -0.369 OA
ATOM      8  C   UNL     1       8.992 -13.618  49.711  1.00  0.00     0.096 C 
ATOM      9  C   UNL     1       9.405 -15.118  49.629  1.00  0.00     0.037 C 
ATOM     10  C   UNL     1      10.854 -15.350  49.108  1.00  0.00     0.014 C 
ATOM     11  C   UNL     1       9.498 -12.790  48.552  1.00  0.00     0.005 C 
ATOM     12  C   UNL     1       8.847 -11.741  48.025  1.00  0.00    -0.024 C 
ATOM     13  C   UNL     1       7.398 -11.311  48.347  1.00  0.00     0.024 C 
ATOM     14  C   UNL     1       7.191  -9.724  48.119  1.00  0.00    -0.022 C 
ATOM     15  C   UNL     1       5.685  -9.331  47.965  1.00  0.00     0.010 C 
ATOM     16  C   UNL     1       5.433  -7.815  47.836  1.00  0.00     0.033 C 
ATOM     17  C   UNL     1       6.023  -7.016  49.011  1.00  0.00     0.123 C 
ATOM     18  C   UNL     1       7.538  -7.326  49.272  1.00  0.00     0.020 C 
ATOM     19  C   UNL     1       7.812  -8.905  49.321  1.00  0.00     0.006 C 
ATOM     20  C   UNL     1       7.365  -9.513  50.689  1.00  0.00     0.005 C 
ATOM     21  C   UNL     1       7.637 -11.015  50.833  1.00  0.00     0.008 C 
ATOM     22  C   UNL     1       6.957 -11.908  49.749  1.00  0.00    -0.017 C 
ATOM     23  C   UNL     1       7.411 -13.472  49.831  1.00  0.00     0.009 C 
ATOM     24  C   UNL     1       6.981 -14.182  51.170  1.00  0.00     0.043 C 
ATOM     25  C   UNL     1       7.717 -15.527  51.447  1.00  0.00     0.124 C 
ATOM     26  C   UNL     1       6.709 -14.250  48.657  1.00  0.00     0.015 C 
ATOM     27  C   UNL     1       5.399 -11.835  49.936  1.00  0.00     0.013 C 
ATOM     28  C   UNL     1       7.953  -6.640  50.611  1.00  0.00     0.017 C 
ATOM     29  C   UNL     1       7.868  -9.372  46.747  1.00  0.00     0.012 C 
ATOM     30  C   UNL     1      10.639 -17.852  48.648  1.00  0.00     0.011 C 
ENDROOT
BRANCH  25  31
ATOM     31  O   UNL     1       7.546 -15.876  52.798  1.00  0.00    -0.392 OA
ATOM     32  H   UNL     1       8.335 -15.524  53.288  1.00  0.00     0.210 HD
ENDBRANCH  25  31
BRANCH  18  33
ATOM     33  C   UNL     1       8.397  -6.605  48.180  1.00  0.00     0.165 C 
BRANCH  33  34
ATOM     34  O   UNL     1       8.774  -5.311  48.576  1.00  0.00    -0.396 OA
ATOM     35  H   UNL     1       8.869  -5.324  49.563  1.00  0.00     0.210 HD
ENDBRANCH  33  34
ENDBRANCH  18  33
BRANCH  17  36
ATOM     36  O   UNL     1       5.249  -7.257  50.163  1.00  0.00    -0.392 OA
ATOM     37  H   UNL     1       5.260  -8.237  50.325  1.00  0.00     0.210 HD
ENDBRANCH  17  36
TORSDOF 4
ENDMDL
MODEL 6
REMARK VINA RESULT:    -7.884     13.944     17.396
REMARK INTER + INTRA:          -9.125
REMARK INTER:                  -9.012
REMARK INTRA:                  -0.113
REMARK UNBOUND:                -0.088
REMARK SMILES CC1(C)CC[C@]23CO[C@@]4(C=C[C@@H]5[C@@]6(C)CC[C@@H](O)[C@](C)(CO)[C@H]6CC[C@]5(C)[C@]4(C)C[C@@H]2O)[C@H]3C1
REMARK SMILES IDX 1 1 2 2 4 3 5 4 6 5 7 6 8 7 9 8 33 9 34 10 10 11 11 12 12 13
REMARK SMILES IDX 13 14 15 15 16 16 17 17 19 18 23 19 24 20 25 21 26 22 28 23
REMARK SMILES IDX 30 24 31 25 29 26 27 27 20 28 14 29 3 30 32 31 21 33 22 34
REMARK SMILES IDX 18 36
REMARK H PARENT 32 32 22 35 18 37
REMARK Flexibility Score: inf
ROOT
ATOM      1  C   UNL     1       1.803  -1.391  34.802  1.00  0.00     0.011 C 
ATOM      2  C   UNL     1       0.399  -1.780  35.312  1.00  0.00    -0.035 C 
ATOM      3  C   UNL     1      -0.650  -1.300  34.285  1.00  0.00     0.007 C 
ATOM      4  C   UNL     1      -2.070  -1.777  34.614  1.00  0.00     0.013 C 
ATOM      5  C   UNL     1      -2.188  -3.301  34.906  1.00  0.00     0.026 C 
ATOM      6  C   UNL     1      -1.994  -4.181  33.672  1.00  0.00     0.171 C 
ATOM      7  O   UNL     1      -1.522  -5.437  34.117  1.00  0.00    -0.369 OA
ATOM      8  C   UNL     1      -1.301  -5.366  35.521  1.00  0.00     0.096 C 
ATOM      9  C   UNL     1      -1.092  -3.849  35.811  1.00  0.00     0.037 C 
ATOM     10  C   UNL     1       0.324  -3.320  35.435  1.00  0.00     0.014 C 
ATOM     11  C   UNL     1      -0.092  -6.213  35.841  1.00  0.00     0.005 C 
ATOM     12  C   UNL     1      -0.145  -7.477  36.288  1.00  0.00    -0.024 C 
ATOM     13  C   UNL     1      -1.413  -8.228  36.752  1.00  0.00     0.024 C 
ATOM     14  C   UNL     1      -1.259  -9.825  36.548  1.00  0.00    -0.022 C 
ATOM     15  C   UNL     1      -2.274 -10.641  37.414  1.00  0.00     0.010 C 
ATOM     16  C   UNL     1      -2.225 -12.165  37.186  1.00  0.00     0.033 C 
ATOM     17  C   UNL     1      -2.434 -12.547  35.710  1.00  0.00     0.123 C 
ATOM     18  C   UNL     1      -1.471 -11.788  34.731  1.00  0.00     0.020 C 
ATOM     19  C   UNL     1      -1.460 -10.212  35.028  1.00  0.00     0.006 C 
ATOM     20  C   UNL     1      -2.733  -9.519  34.447  1.00  0.00     0.005 C 
ATOM     21  C   UNL     1      -2.775  -8.000  34.650  1.00  0.00     0.008 C 
ATOM     22  C   UNL     1      -2.703  -7.537  36.138  1.00  0.00    -0.017 C 
ATOM     23  C   UNL     1      -2.573  -5.921  36.301  1.00  0.00     0.009 C 
ATOM     24  C   UNL     1      -3.827  -5.132  35.764  1.00  0.00     0.043 C 
ATOM     25  C   UNL     1      -3.581  -3.609  35.549  1.00  0.00     0.124 C 
ATOM     26  C   UNL     1      -2.449  -5.589  37.834  1.00  0.00     0.015 C 
ATOM     27  C   UNL     1      -4.008  -8.006  36.879  1.00  0.00     0.013 C 
ATOM     28  C   UNL     1      -1.929 -12.083  33.269  1.00  0.00     0.017 C 
ATOM     29  C   UNL     1       0.166 -10.213  37.079  1.00  0.00     0.012 C 
ATOM     30  C   UNL     1       0.186  -1.099  36.686  1.00  0.00     0.011 C 
ENDROOT
BRANCH  25  31
ATOM     31  O   UNL     1      -4.605  -3.087  34.739  1.00  0.00    -0.392 OA
ATOM     32  H   UNL     1      -4.310  -2.185  34.445  1.00  0.00     0.210 HD
ENDBRANCH  25  31
BRANCH  18  33
ATOM     33  C   UNL     1      -0.044 -12.425  34.831  1.00  0.00     0.165 C 
BRANCH  33  34
ATOM     34  O   UNL     1       0.889 -11.756  34.021  1.00  0.00    -0.396 OA
ATOM     35  H   UNL     1       1.578 -11.374  34.624  1.00  0.00     0.210 HD
ENDBRANCH  33  34
ENDBRANCH  18  33
BRANCH  17  36
ATOM     36  O   UNL     1      -3.782 -12.329  35.367  1.00  0.00    -0.392 OA
ATOM     37  H   UNL     1      -3.914 -11.348  35.297  1.00  0.00     0.210 HD
ENDBRANCH  17  36
TORSDOF 4
ENDMDL
MODEL 7
REMARK VINA RESULT:    -7.827     10.147     13.783
REMARK INTER + INTRA:          -9.059
REMARK INTER:                  -9.001
REMARK INTRA:                  -0.058
REMARK UNBOUND:                -0.088
REMARK SMILES CC1(C)CC[C@]23CO[C@@]4(C=C[C@@H]5[C@@]6(C)CC[C@@H](O)[C@](C)(CO)[C@H]6CC[C@]5(C)[C@]4(C)C[C@@H]2O)[C@H]3C1
REMARK SMILES IDX 1 1 2 2 4 3 5 4 6 5 7 6 8 7 9 8 33 9 34 10 10 11 11 12 12 13
REMARK SMILES IDX 13 14 15 15 16 16 17 17 19 18 23 19 24 20 25 21 26 22 28 23
REMARK SMILES IDX 30 24 31 25 29 26 27 27 20 28 14 29 3 30 32 31 21 33 22 34
REMARK SMILES IDX 18 36
REMARK H PARENT 32 32 22 35 18 37
REMARK Flexibility Score: inf
ROOT
ATOM      1  C   UNL     1      11.612   2.063  46.944  1.00  0.00     0.011 C 
ATOM      2  C   UNL     1      10.842   1.194  45.926  1.00  0.00    -0.035 C 
ATOM      3  C   UNL     1      11.863   0.508  44.991  1.00  0.00     0.007 C 
ATOM      4  C   UNL     1      11.215  -0.509  44.042  1.00  0.00     0.013 C 
ATOM      5  C   UNL     1      10.276  -1.535  44.739  1.00  0.00     0.026 C 
ATOM      6  C   UNL     1      11.014  -2.554  45.605  1.00  0.00     0.171 C 
ATOM      7  O   UNL     1      10.115  -2.990  46.605  1.00  0.00    -0.369 OA
ATOM      8  C   UNL     1       8.914  -2.235  46.495  1.00  0.00     0.096 C 
ATOM      9  C   UNL     1       9.340  -0.922  45.773  1.00  0.00     0.037 C 
ATOM     10  C   UNL     1      10.051   0.110  46.697  1.00  0.00     0.014 C 
ATOM     11  C   UNL     1       8.381  -2.009  47.890  1.00  0.00     0.005 C 
ATOM     12  C   UNL     1       7.423  -2.751  48.468  1.00  0.00    -0.024 C 
ATOM     13  C   UNL     1       6.551  -3.819  47.771  1.00  0.00     0.024 C 
ATOM     14  C   UNL     1       6.050  -4.945  48.817  1.00  0.00    -0.022 C 
ATOM     15  C   UNL     1       4.816  -5.748  48.290  1.00  0.00     0.010 C 
ATOM     16  C   UNL     1       4.358  -6.893  49.216  1.00  0.00     0.033 C 
ATOM     17  C   UNL     1       5.489  -7.892  49.522  1.00  0.00     0.123 C 
ATOM     18  C   UNL     1       6.793  -7.205  50.058  1.00  0.00     0.020 C 
ATOM     19  C   UNL     1       7.219  -5.960  49.141  1.00  0.00     0.006 C 
ATOM     20  C   UNL     1       7.911  -6.439  47.825  1.00  0.00     0.005 C 
ATOM     21  C   UNL     1       8.390  -5.304  46.913  1.00  0.00     0.008 C 
ATOM     22  C   UNL     1       7.270  -4.322  46.449  1.00  0.00    -0.017 C 
ATOM     23  C   UNL     1       7.844  -3.035  45.630  1.00  0.00     0.009 C 
ATOM     24  C   UNL     1       8.541  -3.417  44.269  1.00  0.00     0.043 C 
ATOM     25  C   UNL     1       9.425  -2.286  43.663  1.00  0.00     0.124 C 
ATOM     26  C   UNL     1       6.632  -2.098  45.273  1.00  0.00     0.015 C 
ATOM     27  C   UNL     1       6.270  -5.096  45.516  1.00  0.00     0.013 C 
ATOM     28  C   UNL     1       7.924  -8.279  50.110  1.00  0.00     0.017 C 
ATOM     29  C   UNL     1       5.552  -4.183  50.097  1.00  0.00     0.012 C 
ATOM     30  C   UNL     1       9.891   2.119  45.131  1.00  0.00     0.011 C 
ENDROOT
BRANCH  25  31
ATOM     31  O   UNL     1      10.272  -2.838  42.685  1.00  0.00    -0.392 OA
ATOM     32  H   UNL     1       9.736  -3.506  42.183  1.00  0.00     0.210 HD
ENDBRANCH  25  31
BRANCH  18  33
ATOM     33  C   UNL     1       6.572  -6.797  51.553  1.00  0.00     0.165 C 
BRANCH  33  34
ATOM     34  O   UNL     1       7.620  -7.234  52.379  1.00  0.00    -0.396 OA
ATOM     35  H   UNL     1       8.349  -7.548  51.784  1.00  0.00     0.210 HD
ENDBRANCH  33  34
ENDBRANCH  18  33
BRANCH  17  36
ATOM     36  O   UNL     1       5.753  -8.651  48.366  1.00  0.00    -0.392 OA
ATOM     37  H   UNL     1       5.270  -8.220  47.613  1.00  0.00     0.210 HD
ENDBRANCH  17  36
TORSDOF 4
ENDMDL
MODEL 8
REMARK VINA RESULT:    -7.799     13.640     15.306
REMARK INTER + INTRA:          -9.027
REMARK INTER:                  -8.944
REMARK INTRA:                  -0.083
REMARK UNBOUND:                -0.088
REMARK SMILES CC1(C)CC[C@]23CO[C@@]4(C=C[C@@H]5[C@@]6(C)CC[C@@H](O)[C@](C)(CO)[C@H]6CC[C@]5(C)[C@]4(C)C[C@@H]2O)[C@H]3C1
REMARK SMILES IDX 1 1 2 2 4 3 5 4 6 5 7 6 8 7 9 8 33 9 34 10 10 11 11 12 12 13
REMARK SMILES IDX 13 14 15 15 16 16 17 17 19 18 23 19 24 20 25 21 26 22 28 23
REMARK SMILES IDX 30 24 31 25 29 26 27 27 20 28 14 29 3 30 32 31 21 33 22 34
REMARK SMILES IDX 18 36
REMARK H PARENT 32 32 22 35 18 37
REMARK Flexibility Score: inf
ROOT
ATOM      1  C   UNL     1      -5.125 -14.809  36.208  1.00  0.00     0.011 C 
ATOM      2  C   UNL     1      -3.662 -14.357  36.400  1.00  0.00    -0.035 C 
ATOM      3  C   UNL     1      -2.811 -14.937  35.250  1.00  0.00     0.007 C 
ATOM      4  C   UNL     1      -1.367 -14.415  35.252  1.00  0.00     0.013 C 
ATOM      5  C   UNL     1      -1.240 -12.869  35.353  1.00  0.00     0.026 C 
ATOM      6  C   UNL     1      -1.687 -12.130  34.093  1.00  0.00     0.171 C 
ATOM      7  O   UNL     1      -2.102 -10.837  34.483  1.00  0.00    -0.369 OA
ATOM      8  C   UNL     1      -2.054 -10.755  35.903  1.00  0.00     0.096 C 
ATOM      9  C   UNL     1      -2.163 -12.233  36.386  1.00  0.00     0.037 C 
ATOM     10  C   UNL     1      -3.608 -12.811  36.343  1.00  0.00     0.014 C 
ATOM     11  C   UNL     1      -3.206  -9.888  36.355  1.00  0.00     0.005 C 
ATOM     12  C   UNL     1      -3.106  -8.582  36.648  1.00  0.00    -0.024 C 
ATOM     13  C   UNL     1      -1.795  -7.775  36.781  1.00  0.00     0.024 C 
ATOM     14  C   UNL     1      -2.030  -6.212  36.443  1.00  0.00    -0.022 C 
ATOM     15  C   UNL     1      -0.894  -5.298  37.010  1.00  0.00     0.010 C 
ATOM     16  C   UNL     1      -1.028  -3.808  36.635  1.00  0.00     0.033 C 
ATOM     17  C   UNL     1      -1.110  -3.588  35.114  1.00  0.00     0.123 C 
ATOM     18  C   UNL     1      -2.217  -4.457  34.421  1.00  0.00     0.020 C 
ATOM     19  C   UNL     1      -2.128  -5.991  34.880  1.00  0.00     0.006 C 
ATOM     20  C   UNL     1      -0.967  -6.734  34.145  1.00  0.00     0.005 C 
ATOM     21  C   UNL     1      -0.845  -8.221  34.496  1.00  0.00     0.008 C 
ATOM     22  C   UNL     1      -0.624  -8.519  36.011  1.00  0.00    -0.017 C 
ATOM     23  C   UNL     1      -0.676 -10.109  36.366  1.00  0.00     0.009 C 
ATOM     24  C   UNL     1       0.477 -10.942  35.688  1.00  0.00     0.043 C 
ATOM     25  C   UNL     1       0.239 -12.481  35.685  1.00  0.00     0.124 C 
ATOM     26  C   UNL     1      -0.501 -10.272  37.921  1.00  0.00     0.015 C 
ATOM     27  C   UNL     1       0.783  -7.962  36.438  1.00  0.00     0.013 C 
ATOM     28  C   UNL     1      -2.049  -4.320  32.876  1.00  0.00     0.017 C 
ATOM     29  C   UNL     1      -3.341  -5.779  37.189  1.00  0.00     0.012 C 
ATOM     30  C   UNL     1      -3.176 -14.881  37.773  1.00  0.00     0.011 C 
ENDROOT
BRANCH  25  31
ATOM     31  O   UNL     1       1.108 -13.080  34.756  1.00  0.00    -0.392 OA
ATOM     32  H   UNL     1       0.892 -14.050  34.744  1.00  0.00     0.210 HD
ENDBRANCH  25  31
BRANCH  18  33
ATOM     33  C   UNL     1      -3.618  -3.825  34.721  1.00  0.00     0.165 C 
BRANCH  33  34
ATOM     34  O   UNL     1      -3.665  -2.463  34.379  1.00  0.00    -0.396 OA
ATOM     35  H   UNL     1      -4.613  -2.242  34.189  1.00  0.00     0.210 HD
ENDBRANCH  33  34
ENDBRANCH  18  33
BRANCH  17  36
ATOM     36  O   UNL     1       0.155  -3.831  34.548  1.00  0.00    -0.392 OA
ATOM     37  H   UNL     1       0.396  -3.033  34.009  1.00  0.00     0.210 HD
ENDBRANCH  17  36
TORSDOF 4
ENDMDL
MODEL 9
REMARK VINA RESULT:    -7.680     14.776     18.606
REMARK INTER + INTRA:          -8.891
REMARK INTER:                  -8.802
REMARK INTRA:                  -0.089
REMARK UNBOUND:                -0.088
REMARK SMILES CC1(C)CC[C@]23CO[C@@]4(C=C[C@@H]5[C@@]6(C)CC[C@@H](O)[C@](C)(CO)[C@H]6CC[C@]5(C)[C@]4(C)C[C@@H]2O)[C@H]3C1
REMARK SMILES IDX 1 1 2 2 4 3 5 4 6 5 7 6 8 7 9 8 33 9 34 10 10 11 11 12 12 13
REMARK SMILES IDX 13 14 15 15 16 16 17 17 19 18 23 19 24 20 25 21 26 22 28 23
REMARK SMILES IDX 30 24 31 25 29 26 27 27 20 28 14 29 3 30 32 31 21 33 22 34
REMARK SMILES IDX 18 36
REMARK H PARENT 32 32 22 35 18 37
REMARK Flexibility Score: inf
ROOT
ATOM      1  C   UNL     1       3.123   1.629  39.812  1.00  0.00     0.011 C 
ATOM      2  C   UNL     1       3.821   1.395  38.455  1.00  0.00    -0.035 C 
ATOM      3  C   UNL     1       5.255   1.961  38.534  1.00  0.00     0.007 C 
ATOM      4  C   UNL     1       6.095   1.637  37.290  1.00  0.00     0.013 C 
ATOM      5  C   UNL     1       6.077   0.140  36.872  1.00  0.00     0.026 C 
ATOM      6  C   UNL     1       6.833  -0.777  37.832  1.00  0.00     0.171 C 
ATOM      7  O   UNL     1       6.264  -2.067  37.723  1.00  0.00    -0.369 OA
ATOM      8  C   UNL     1       5.141  -1.994  36.853  1.00  0.00     0.096 C 
ATOM      9  C   UNL     1       4.695  -0.502  36.909  1.00  0.00     0.037 C 
ATOM     10  C   UNL     1       3.888  -0.127  38.187  1.00  0.00     0.014 C 
ATOM     11  C   UNL     1       4.095  -2.955  37.370  1.00  0.00     0.005 C 
ATOM     12  C   UNL     1       3.907  -4.199  36.902  1.00  0.00    -0.024 C 
ATOM     13  C   UNL     1       4.561  -4.808  35.642  1.00  0.00     0.024 C 
ATOM     14  C   UNL     1       4.688  -6.415  35.763  1.00  0.00    -0.022 C 
ATOM     15  C   UNL     1       4.886  -7.108  34.375  1.00  0.00     0.010 C 
ATOM     16  C   UNL     1       5.102  -8.633  34.449  1.00  0.00     0.033 C 
ATOM     17  C   UNL     1       6.286  -9.018  35.354  1.00  0.00     0.123 C 
ATOM     18  C   UNL     1       6.206  -8.378  36.784  1.00  0.00     0.020 C 
ATOM     19  C   UNL     1       5.896  -6.807  36.705  1.00  0.00     0.006 C 
ATOM     20  C   UNL     1       7.176  -5.997  36.323  1.00  0.00     0.005 C 
ATOM     21  C   UNL     1       6.973  -4.479  36.273  1.00  0.00     0.008 C 
ATOM     22  C   UNL     1       5.876  -4.000  35.272  1.00  0.00    -0.017 C 
ATOM     23  C   UNL     1       5.568  -2.403  35.375  1.00  0.00     0.009 C 
ATOM     24  C   UNL     1       6.798  -1.499  34.983  1.00  0.00     0.043 C 
ATOM     25  C   UNL     1       6.671  -0.013  35.432  1.00  0.00     0.124 C 
ATOM     26  C   UNL     1       4.411  -2.059  34.367  1.00  0.00     0.015 C 
ATOM     27  C   UNL     1       6.349  -4.319  33.808  1.00  0.00     0.013 C 
ATOM     28  C   UNL     1       7.557  -8.651  37.517  1.00  0.00     0.017 C 
ATOM     29  C   UNL     1       3.312  -6.938  36.310  1.00  0.00     0.012 C 
ATOM     30  C   UNL     1       2.995   2.118  37.363  1.00  0.00     0.011 C 
ENDROOT
BRANCH  25  31
ATOM     31  O   UNL     1       7.936   0.596  35.372  1.00  0.00    -0.392 OA
ATOM     32  H   UNL     1       8.266   0.486  34.442  1.00  0.00     0.210 HD
ENDBRANCH  25  31
BRANCH  18  33
ATOM     33  C   UNL     1       5.139  -9.156  37.626  1.00  0.00     0.165 C 
BRANCH  33  34
ATOM     34  O   UNL     1       5.256 -10.547  37.469  1.00  0.00    -0.396 OA
ATOM     35  H   UNL     1       6.041 -10.709  36.885  1.00  0.00     0.210 HD
ENDBRANCH  33  34
ENDBRANCH  18  33
BRANCH  17  36
ATOM     36  O   UNL     1       7.488  -8.669  34.708  1.00  0.00    -0.392 OA
ATOM     37  H   UNL     1       7.273  -8.510  33.752  1.00  0.00     0.210 HD
ENDBRANCH  17  36
TORSDOF 4
ENDMDL
