MODEL 1
REMARK VINA RESULT:    -4.538      0.000      0.000
REMARK INTER + INTRA:          -7.490
REMARK INTER:                  -6.527
REMARK INTRA:                  -0.963
REMARK UNBOUND:                -0.963
REMARK SMILES C=C[C@](C)(O)CCC=C(C)CCC=C(C)C
REMARK SMILES IDX 9 1 8 2 10 3 11 4 12 5 13 6 15 7 14 8 16 9 7 10 6 11 3 12
REMARK SMILES IDX 4 13 2 14 1 15 5 16
REMARK H PARENT 5 17
REMARK Flexibility Score: inf
ROOT
ATOM      1  C   UNL     1       1.255 -14.065  13.256  1.00  0.00    -0.077 C 
ATOM      2  C   UNL     1       1.639 -15.357  13.148  1.00  0.00    -0.028 C 
ATOM      3  C   UNL     1       0.946 -13.435  14.594  1.00  0.00     0.039 C 
ENDROOT
BRANCH   1   4
ATOM      4  C   UNL     1       1.110 -13.235  11.999  1.00  0.00     0.034 C 
BRANCH   4   5
ATOM      5  C   UNL     1       1.756 -13.943  10.804  1.00  0.00     0.032 C 
BRANCH   5   6
ATOM      6  C   UNL     1       0.705 -14.432   9.839  1.00  0.00    -0.028 C 
ATOM      7  C   UNL     1      -0.457 -16.035   8.382  1.00  0.00     0.039 C 
ATOM      8  C   UNL     1       0.678 -15.674   9.304  1.00  0.00    -0.080 C 
ATOM      9  C   UNL     1       1.759 -16.691   9.589  1.00  0.00     0.039 C 
ENDBRANCH   5   6
ENDBRANCH   4   5
ENDBRANCH   1   4
BRANCH   2  10
ATOM     10  C   UNL     1       1.871 -16.278  14.319  1.00  0.00     0.030 C 
BRANCH  10  11
ATOM     11  C   UNL     1       1.099 -17.595  14.132  1.00  0.00     0.043 C 
BRANCH  11  12
ATOM     12  C   UNL     1       0.270 -17.996  15.384  1.00  0.00     0.080 C 
ATOM     13  C   UNL     1      -0.185 -16.731  16.140  1.00  0.00     0.047 C 
BRANCH  12  14
ATOM     14  C   UNL     1       1.081 -18.878  16.319  1.00  0.00    -0.001 C 
ATOM     15  C   UNL     1       0.613 -20.016  16.845  1.00  0.00     0.007 C 
ENDBRANCH  12  14
BRANCH  12  16
ATOM     16  O   UNL     1      -0.871 -18.723  14.990  1.00  0.00    -0.386 OA
ATOM     17  H   UNL     1      -0.577 -19.626  14.700  1.00  0.00     0.211 HD
ENDBRANCH  12  16
ENDBRANCH  11  12
ENDBRANCH  10  11
ENDBRANCH   2  10
TORSDOF 8
ENDMDL
MODEL 2
REMARK VINA RESULT:    -4.493      0.894      1.504
REMARK INTER + INTRA:          -7.426
REMARK INTER:                  -6.442
REMARK INTRA:                  -0.984
REMARK UNBOUND:                -0.963
REMARK SMILES C=C[C@](C)(O)CCC=C(C)CCC=C(C)C
REMARK SMILES IDX 9 1 8 2 10 3 11 4 12 5 13 6 15 7 14 8 16 9 7 10 6 11 3 12
REMARK SMILES IDX 4 13 2 14 1 15 5 16
REMARK H PARENT 5 17
REMARK Flexibility Score: inf
ROOT
ATOM      1  C   UNL     1       1.733 -14.940  13.110  1.00  0.00    -0.077 C 
ATOM      2  C   UNL     1       1.203 -14.855  14.351  1.00  0.00    -0.028 C 
ATOM      3  C   UNL     1       2.644 -16.077  12.708  1.00  0.00     0.039 C 
ENDROOT
BRANCH   1   4
ATOM      4  C   UNL     1       1.421 -13.854  12.104  1.00  0.00     0.034 C 
BRANCH   4   5
ATOM      5  C   UNL     1       1.947 -14.232  10.715  1.00  0.00     0.032 C 
BRANCH   5   6
ATOM      6  C   UNL     1       0.811 -14.599   9.794  1.00  0.00    -0.028 C 
ATOM      7  C   UNL     1      -0.535 -16.038   8.324  1.00  0.00     0.039 C 
ATOM      8  C   UNL     1       0.676 -15.800   9.189  1.00  0.00    -0.080 C 
ATOM      9  C   UNL     1       1.708 -16.893   9.341  1.00  0.00     0.039 C 
ENDBRANCH   5   6
ENDBRANCH   4   5
ENDBRANCH   1   4
BRANCH   2  10
ATOM     10  C   UNL     1       1.390 -15.892  15.430  1.00  0.00     0.030 C 
BRANCH  10  11
ATOM     11  C   UNL     1       0.076 -16.653  15.682  1.00  0.00     0.043 C 
BRANCH  11  12
ATOM     12  C   UNL     1       0.262 -18.196  15.695  1.00  0.00     0.080 C 
ATOM     13  C   UNL     1       0.402 -18.697  17.147  1.00  0.00     0.047 C 
BRANCH  12  14
ATOM     14  C   UNL     1       1.490 -18.607  14.899  1.00  0.00    -0.001 C 
ATOM     15  C   UNL     1       2.215 -19.698  15.177  1.00  0.00     0.007 C 
ENDBRANCH  12  14
BRANCH  12  16
ATOM     16  O   UNL     1      -0.857 -18.817  15.107  1.00  0.00    -0.386 OA
ATOM     17  H   UNL     1      -0.578 -19.712  14.779  1.00  0.00     0.211 HD
ENDBRANCH  12  16
ENDBRANCH  11  12
ENDBRANCH  10  11
ENDBRANCH   2  10
TORSDOF 8
ENDMDL
MODEL 3
REMARK VINA RESULT:    -4.315      1.486      2.247
REMARK INTER + INTRA:          -7.170
REMARK INTER:                  -6.302
REMARK INTRA:                  -0.869
REMARK UNBOUND:                -0.963
REMARK SMILES C=C[C@](C)(O)CCC=C(C)CCC=C(C)C
REMARK SMILES IDX 9 1 8 2 10 3 11 4 12 5 13 6 15 7 14 8 16 9 7 10 6 11 3 12
REMARK SMILES IDX 4 13 2 14 1 15 5 16
REMARK H PARENT 5 17
REMARK Flexibility Score: inf
ROOT
ATOM      1  C   UNL     1       1.839 -15.549  11.747  1.00  0.00    -0.077 C 
ATOM      2  C   UNL     1       2.197 -16.732  12.295  1.00  0.00    -0.028 C 
ATOM      3  C   UNL     1       1.388 -14.382  12.593  1.00  0.00     0.039 C 
ENDROOT
BRANCH   1   4
ATOM      4  C   UNL     1       1.869 -15.400  10.241  1.00  0.00     0.034 C 
BRANCH   4   5
ATOM      5  C   UNL     1       0.474 -15.075   9.699  1.00  0.00     0.032 C 
BRANCH   5   6
ATOM      6  C   UNL     1       0.564 -14.176   8.492  1.00  0.00    -0.028 C 
ATOM      7  C   UNL     1       0.633 -12.055   7.252  1.00  0.00     0.039 C 
ATOM      8  C   UNL     1       0.487 -12.827   8.537  1.00  0.00    -0.080 C 
ATOM      9  C   UNL     1       0.240 -12.082   9.829  1.00  0.00     0.039 C 
ENDBRANCH   5   6
ENDBRANCH   4   5
ENDBRANCH   1   4
BRANCH   2  10
ATOM     10  C   UNL     1       2.261 -16.999  13.778  1.00  0.00     0.030 C 
BRANCH  10  11
ATOM     11  C   UNL     1       1.461 -18.263  14.135  1.00  0.00     0.043 C 
BRANCH  11  12
ATOM     12  C   UNL     1       0.487 -18.049  15.327  1.00  0.00     0.080 C 
ATOM     13  C   UNL     1       0.308 -16.541  15.596  1.00  0.00     0.047 C 
BRANCH  12  14
ATOM     14  C   UNL     1       1.003 -18.728  16.585  1.00  0.00    -0.001 C 
ATOM     15  C   UNL     1       1.359 -20.018  16.630  1.00  0.00     0.007 C 
ENDBRANCH  12  14
BRANCH  12  16
ATOM     16  O   UNL     1      -0.771 -18.607  15.024  1.00  0.00    -0.386 OA
ATOM     17  H   UNL     1      -1.313 -18.619  15.855  1.00  0.00     0.211 HD
ENDBRANCH  12  16
ENDBRANCH  11  12
ENDBRANCH  10  11
ENDBRANCH   2  10
TORSDOF 8
ENDMDL
MODEL 4
REMARK VINA RESULT:    -4.306      2.061      3.468
REMARK INTER + INTRA:          -7.157
REMARK INTER:                  -6.082
REMARK INTRA:                  -1.075
REMARK UNBOUND:                -0.963
REMARK SMILES C=C[C@](C)(O)CCC=C(C)CCC=C(C)C
REMARK SMILES IDX 9 1 8 2 10 3 11 4 12 5 13 6 15 7 14 8 16 9 7 10 6 11 3 12
REMARK SMILES IDX 4 13 2 14 1 15 5 16
REMARK H PARENT 5 17
REMARK Flexibility Score: inf
ROOT
ATOM      1  C   UNL     1       1.150 -15.440   9.993  1.00  0.00    -0.077 C 
ATOM      2  C   UNL     1       1.346 -14.829  11.183  1.00  0.00    -0.028 C 
ATOM      3  C   UNL     1       1.823 -16.748   9.647  1.00  0.00     0.039 C 
ENDROOT
BRANCH   1   4
ATOM      4  C   UNL     1       0.248 -14.782   8.971  1.00  0.00     0.034 C 
BRANCH   4   5
ATOM      5  C   UNL     1       0.398 -13.258   9.016  1.00  0.00     0.032 C 
BRANCH   5   6
ATOM      6  C   UNL     1       1.046 -12.746   7.753  1.00  0.00    -0.028 C 
ATOM      7  C   UNL     1       2.884 -12.078   6.265  1.00  0.00     0.039 C 
ATOM      8  C   UNL     1       2.376 -12.559   7.599  1.00  0.00    -0.080 C 
ATOM      9  C   UNL     1       3.353 -12.798   8.726  1.00  0.00     0.039 C 
ENDBRANCH   5   6
ENDBRANCH   4   5
ENDBRANCH   1   4
BRANCH   2  10
ATOM     10  C   UNL     1       2.176 -15.399  12.306  1.00  0.00     0.030 C 
BRANCH  10  11
ATOM     11  C   UNL     1       1.530 -15.088  13.667  1.00  0.00     0.043 C 
BRANCH  11  12
ATOM     12  C   UNL     1       1.323 -16.355  14.543  1.00  0.00     0.080 C 
ATOM     13  C   UNL     1       2.299 -16.336  15.737  1.00  0.00     0.047 C 
BRANCH  12  14
ATOM     14  C   UNL     1       1.541 -17.623  13.733  1.00  0.00    -0.001 C 
ATOM     15  C   UNL     1       2.277 -18.654  14.166  1.00  0.00     0.007 C 
ENDBRANCH  12  14
BRANCH  12  16
ATOM     16  O   UNL     1       0.003 -16.384  15.037  1.00  0.00    -0.386 OA
ATOM     17  H   UNL     1      -0.540 -15.744  14.506  1.00  0.00     0.211 HD
ENDBRANCH  12  16
ENDBRANCH  11  12
ENDBRANCH  10  11
ENDBRANCH   2  10
TORSDOF 8
ENDMDL
MODEL 5
REMARK VINA RESULT:    -4.253      2.206      2.806
REMARK INTER + INTRA:          -7.081
REMARK INTER:                  -6.056
REMARK INTRA:                  -1.025
REMARK UNBOUND:                -0.963
REMARK SMILES C=C[C@](C)(O)CCC=C(C)CCC=C(C)C
REMARK SMILES IDX 9 1 8 2 10 3 11 4 12 5 13 6 15 7 14 8 16 9 7 10 6 11 3 12
REMARK SMILES IDX 4 13 2 14 1 15 5 16
REMARK H PARENT 5 17
REMARK Flexibility Score: inf
ROOT
ATOM      1  C   UNL     1       2.310 -16.010  13.016  1.00  0.00    -0.077 C 
ATOM      2  C   UNL     1       1.605 -17.124  13.316  1.00  0.00    -0.028 C 
ATOM      3  C   UNL     1       3.821 -15.994  13.034  1.00  0.00     0.039 C 
ENDROOT
BRANCH   1   4
ATOM      4  C   UNL     1       1.563 -14.740  12.674  1.00  0.00     0.034 C 
BRANCH   4   5
ATOM      5  C   UNL     1       1.915 -14.266  11.260  1.00  0.00     0.032 C 
BRANCH   5   6
ATOM      6  C   UNL     1       0.828 -14.643  10.284  1.00  0.00    -0.028 C 
ATOM      7  C   UNL     1      -0.317 -16.007   8.590  1.00  0.00     0.039 C 
ATOM      8  C   UNL     1       0.861 -15.737   9.490  1.00  0.00    -0.080 C 
ATOM      9  C   UNL     1       2.045 -16.675   9.468  1.00  0.00     0.039 C 
ENDBRANCH   5   6
ENDBRANCH   4   5
ENDBRANCH   1   4
BRANCH   2  10
ATOM     10  C   UNL     1       2.221 -18.466  13.623  1.00  0.00     0.030 C 
BRANCH  10  11
ATOM     11  C   UNL     1       2.066 -18.803  15.116  1.00  0.00     0.043 C 
BRANCH  11  12
ATOM     12  C   UNL     1       2.810 -20.105  15.525  1.00  0.00     0.080 C 
ATOM     13  C   UNL     1       4.049 -19.759  16.375  1.00  0.00     0.047 C 
BRANCH  12  14
ATOM     14  C   UNL     1       3.242 -20.896  14.300  1.00  0.00    -0.001 C 
ATOM     15  C   UNL     1       4.250 -21.777  14.313  1.00  0.00     0.007 C 
ENDBRANCH  12  14
BRANCH  12  16
ATOM     16  O   UNL     1       1.953 -20.926  16.285  1.00  0.00    -0.386 OA
ATOM     17  H   UNL     1       1.254 -20.351  16.693  1.00  0.00     0.211 HD
ENDBRANCH  12  16
ENDBRANCH  11  12
ENDBRANCH  10  11
ENDBRANCH   2  10
TORSDOF 8
ENDMDL
MODEL 6
REMARK VINA RESULT:    -4.208      2.028      3.369
REMARK INTER + INTRA:          -7.015
REMARK INTER:                  -5.866
REMARK INTRA:                  -1.149
REMARK UNBOUND:                -0.963
REMARK SMILES C=C[C@](C)(O)CCC=C(C)CCC=C(C)C
REMARK SMILES IDX 9 1 8 2 10 3 11 4 12 5 13 6 15 7 14 8 16 9 7 10 6 11 3 12
REMARK SMILES IDX 4 13 2 14 1 15 5 16
REMARK H PARENT 5 17
REMARK Flexibility Score: inf
ROOT
ATOM      1  C   UNL     1       2.077 -16.381  10.050  1.00  0.00    -0.077 C 
ATOM      2  C   UNL     1       1.737 -16.378  11.359  1.00  0.00    -0.028 C 
ATOM      3  C   UNL     1       3.470 -16.021   9.588  1.00  0.00     0.039 C 
ENDROOT
BRANCH   1   4
ATOM      4  C   UNL     1       1.026 -16.731   9.020  1.00  0.00     0.034 C 
BRANCH   4   5
ATOM      5  C   UNL     1      -0.113 -15.706   9.036  1.00  0.00     0.032 C 
BRANCH   5   6
ATOM      6  C   UNL     1       0.230 -14.513   8.179  1.00  0.00    -0.028 C 
ATOM      7  C   UNL     1       0.912 -12.204   7.687  1.00  0.00     0.039 C 
ATOM      8  C   UNL     1       0.555 -13.293   8.664  1.00  0.00    -0.080 C 
ATOM      9  C   UNL     1       0.550 -12.994  10.145  1.00  0.00     0.039 C 
ENDBRANCH   5   6
ENDBRANCH   4   5
ENDBRANCH   1   4
BRANCH   2  10
ATOM     10  C   UNL     1       2.697 -16.098  12.488  1.00  0.00     0.030 C 
BRANCH  10  11
ATOM     11  C   UNL     1       2.806 -17.318  13.420  1.00  0.00     0.043 C 
BRANCH  11  12
ATOM     12  C   UNL     1       2.029 -17.133  14.754  1.00  0.00     0.080 C 
ATOM     13  C   UNL     1       2.870 -17.668  15.931  1.00  0.00     0.047 C 
BRANCH  12  14
ATOM     14  C   UNL     1       0.695 -17.860  14.716  1.00  0.00    -0.001 C 
ATOM     15  C   UNL     1      -0.351 -17.517  15.477  1.00  0.00     0.007 C 
ENDBRANCH  12  14
BRANCH  12  16
ATOM     16  O   UNL     1       1.767 -15.766  14.969  1.00  0.00    -0.386 OA
ATOM     17  H   UNL     1       1.355 -15.396  14.145  1.00  0.00     0.211 HD
ENDBRANCH  12  16
ENDBRANCH  11  12
ENDBRANCH  10  11
ENDBRANCH   2  10
TORSDOF 8
ENDMDL
MODEL 7
REMARK VINA RESULT:    -4.169      2.889      6.364
REMARK INTER + INTRA:          -6.959
REMARK INTER:                  -5.860
REMARK INTRA:                  -1.100
REMARK UNBOUND:                -0.963
REMARK SMILES C=C[C@](C)(O)CCC=C(C)CCC=C(C)C
REMARK SMILES IDX 9 1 8 2 10 3 11 4 12 5 13 6 15 7 14 8 16 9 7 10 6 11 3 12
REMARK SMILES IDX 4 13 2 14 1 15 5 16
REMARK H PARENT 5 17
REMARK Flexibility Score: inf
ROOT
ATOM      1  C   UNL     1       1.572 -16.762  13.799  1.00  0.00    -0.077 C 
ATOM      2  C   UNL     1       2.024 -17.023  12.551  1.00  0.00    -0.028 C 
ATOM      3  C   UNL     1       1.734 -15.402  14.436  1.00  0.00     0.039 C 
ENDROOT
BRANCH   1   4
ATOM      4  C   UNL     1       0.906 -17.871  14.584  1.00  0.00     0.034 C 
BRANCH   4   5
ATOM      5  C   UNL     1       1.916 -18.569  15.500  1.00  0.00     0.032 C 
BRANCH   5   6
ATOM      6  C   UNL     1       2.335 -19.898  14.921  1.00  0.00    -0.028 C 
ATOM      7  C   UNL     1       3.849 -21.545  13.905  1.00  0.00     0.039 C 
ATOM      8  C   UNL     1       3.561 -20.157  14.415  1.00  0.00    -0.080 C 
ATOM      9  C   UNL     1       4.633 -19.095  14.330  1.00  0.00     0.039 C 
ENDBRANCH   5   6
ENDBRANCH   4   5
ENDBRANCH   1   4
BRANCH   2  10
ATOM     10  C   UNL     1       2.658 -16.000  11.643  1.00  0.00     0.030 C 
BRANCH  10  11
ATOM     11  C   UNL     1       2.020 -16.051  10.244  1.00  0.00     0.043 C 
BRANCH  11  12
ATOM     12  C   UNL     1       1.449 -14.679   9.788  1.00  0.00     0.080 C 
ATOM     13  C   UNL     1       1.136 -13.803  11.018  1.00  0.00     0.047 C 
BRANCH  12  14
ATOM     14  C   UNL     1       0.186 -14.859   8.962  1.00  0.00    -0.001 C 
ATOM     15  C   UNL     1      -0.248 -16.051   8.532  1.00  0.00     0.007 C 
ENDBRANCH  12  14
BRANCH  12  16
ATOM     16  O   UNL     1       2.394 -14.010   8.985  1.00  0.00    -0.386 OA
ATOM     17  H   UNL     1       2.060 -13.091   8.812  1.00  0.00     0.211 HD
ENDBRANCH  12  16
ENDBRANCH  11  12
ENDBRANCH  10  11
ENDBRANCH   2  10
TORSDOF 8
ENDMDL
MODEL 8
REMARK VINA RESULT:    -4.149      1.559      2.148
REMARK INTER + INTRA:          -6.930
REMARK INTER:                  -6.276
REMARK INTRA:                  -0.654
REMARK UNBOUND:                -0.963
REMARK SMILES C=C[C@](C)(O)CCC=C(C)CCC=C(C)C
REMARK SMILES IDX 9 1 8 2 10 3 11 4 12 5 13 6 15 7 14 8 16 9 7 10 6 11 3 12
REMARK SMILES IDX 4 13 2 14 1 15 5 16
REMARK H PARENT 5 17
REMARK Flexibility Score: inf
ROOT
ATOM      1  C   UNL     1       2.789 -16.388  12.780  1.00  0.00    -0.077 C 
ATOM      2  C   UNL     1       1.716 -17.088  13.210  1.00  0.00    -0.028 C 
ATOM      3  C   UNL     1       4.193 -16.729  13.223  1.00  0.00     0.039 C 
ENDROOT
BRANCH   1   4
ATOM      4  C   UNL     1       2.575 -15.217  11.846  1.00  0.00     0.034 C 
BRANCH   4   5
ATOM      5  C   UNL     1       2.849 -15.622  10.394  1.00  0.00     0.032 C 
BRANCH   5   6
ATOM      6  C   UNL     1       1.601 -16.164   9.744  1.00  0.00    -0.028 C 
ATOM      7  C   UNL     1      -0.505 -16.089   8.479  1.00  0.00     0.039 C 
ATOM      8  C   UNL     1       0.675 -15.404   9.118  1.00  0.00    -0.080 C 
ATOM      9  C   UNL     1       0.782 -13.897   9.061  1.00  0.00     0.039 C 
ENDBRANCH   5   6
ENDBRANCH   4   5
ENDBRANCH   1   4
BRANCH   2  10
ATOM     10  C   UNL     1       1.792 -18.304  14.098  1.00  0.00     0.030 C 
BRANCH  10  11
ATOM     11  C   UNL     1       1.695 -17.899  15.579  1.00  0.00     0.043 C 
BRANCH  11  12
ATOM     12  C   UNL     1       0.263 -18.064  16.161  1.00  0.00     0.080 C 
ATOM     13  C   UNL     1      -0.381 -16.679  16.375  1.00  0.00     0.047 C 
BRANCH  12  14
ATOM     14  C   UNL     1       0.291 -18.817  17.480  1.00  0.00    -0.001 C 
ATOM     15  C   UNL     1       0.247 -18.211  18.673  1.00  0.00     0.007 C 
ENDBRANCH  12  14
BRANCH  12  16
ATOM     16  O   UNL     1      -0.536 -18.800  15.263  1.00  0.00    -0.386 OA
ATOM     17  H   UNL     1      -1.469 -18.469  15.335  1.00  0.00     0.211 HD
ENDBRANCH  12  16
ENDBRANCH  11  12
ENDBRANCH  10  11
ENDBRANCH   2  10
TORSDOF 8
ENDMDL
MODEL 9
REMARK VINA RESULT:    -4.129      3.297      4.257
REMARK INTER + INTRA:          -6.903
REMARK INTER:                  -6.262
REMARK INTRA:                  -0.641
REMARK UNBOUND:                -0.963
REMARK SMILES C=C[C@](C)(O)CCC=C(C)CCC=C(C)C
REMARK SMILES IDX 9 1 8 2 10 3 11 4 12 5 13 6 15 7 14 8 16 9 7 10 6 11 3 12
REMARK SMILES IDX 4 13 2 14 1 15 5 16
REMARK H PARENT 5 17
REMARK Flexibility Score: inf
ROOT
ATOM      1  C   UNL     1       1.527 -17.428  14.120  1.00  0.00    -0.077 C 
ATOM      2  C   UNL     1       2.483 -18.365  13.929  1.00  0.00    -0.028 C 
ATOM      3  C   UNL     1       0.314 -17.691  14.982  1.00  0.00     0.039 C 
ENDROOT
BRANCH   1   4
ATOM      4  C   UNL     1       1.666 -16.088  13.432  1.00  0.00     0.034 C 
BRANCH   4   5
ATOM      5  C   UNL     1       2.133 -16.266  11.983  1.00  0.00     0.032 C 
BRANCH   5   6
ATOM      6  C   UNL     1       1.553 -15.193  11.097  1.00  0.00    -0.028 C 
ATOM      7  C   UNL     1       0.495 -14.242   9.093  1.00  0.00     0.039 C 
ATOM      8  C   UNL     1       1.083 -15.406   9.848  1.00  0.00    -0.080 C 
ATOM      9  C   UNL     1       1.150 -16.764   9.188  1.00  0.00     0.039 C 
ENDBRANCH   5   6
ENDBRANCH   4   5
ENDBRANCH   1   4
BRANCH   2  10
ATOM     10  C   UNL     1       2.494 -19.719  14.592  1.00  0.00     0.030 C 
BRANCH  10  11
ATOM     11  C   UNL     1       3.931 -20.136  14.947  1.00  0.00     0.043 C 
BRANCH  11  12
ATOM     12  C   UNL     1       4.311 -21.538  14.392  1.00  0.00     0.080 C 
ATOM     13  C   UNL     1       4.481 -22.536  15.556  1.00  0.00     0.047 C 
BRANCH  12  14
ATOM     14  C   UNL     1       5.598 -21.477  13.587  1.00  0.00    -0.001 C 
ATOM     15  C   UNL     1       6.524 -20.524  13.751  1.00  0.00     0.007 C 
ENDBRANCH  12  14
BRANCH  12  16
ATOM     16  O   UNL     1       3.292 -22.006  13.539  1.00  0.00    -0.386 OA
ATOM     17  H   UNL     1       3.719 -22.386  12.727  1.00  0.00     0.211 HD
ENDBRANCH  12  16
ENDBRANCH  11  12
ENDBRANCH  10  11
ENDBRANCH   2  10
TORSDOF 8
ENDMDL
