MODEL 1
REMARK VINA RESULT:    -3.844      0.000      0.000
REMARK INTER + INTRA:          -7.950
REMARK INTER:                  -6.991
REMARK INTRA:                  -0.959
REMARK UNBOUND:                -0.959
REMARK SMILES CCCCCCCCCCCCCCCC(=O)[O-]
REMARK SMILES IDX 9 1 10 2 11 3 12 4 13 5 14 6 15 7 16 8 17 9 18 10 8 11 7 12
REMARK SMILES IDX 6 13 5 14 4 15 3 16 2 17 1 18
REMARK H PARENT
REMARK Flexibility Score: inf
ROOT
ATOM      1  C   UNL     1      14.052  -8.637   6.907  1.00  0.00     0.000 C 
ENDROOT
BRANCH   1   2
ATOM      2  C   UNL     1      12.905  -8.558   5.886  1.00  0.00     0.000 C 
BRANCH   2   3
ATOM      3  C   UNL     1      11.563  -8.154   6.525  1.00  0.00     0.000 C 
BRANCH   3   4
ATOM      4  C   UNL     1      10.309  -8.505   5.698  1.00  0.00     0.000 C 
BRANCH   4   5
ATOM      5  C   UNL     1       9.357  -9.520   6.355  1.00  0.00     0.000 C 
BRANCH   5   6
ATOM      6  C   UNL     1       8.321  -8.855   7.277  1.00  0.00     0.006 C 
BRANCH   6   7
ATOM      7  C   UNL     1       6.955  -8.702   6.594  1.00  0.00     0.053 C 
BRANCH   7   8
ATOM      8  C   UNL     1       6.744  -7.306   6.091  1.00  0.00     0.041 C 
ATOM      9  O   UNL     1       6.958  -7.028   4.882  1.00  0.00    -0.550 OA
ATOM     10  O   UNL     1       6.277  -6.321   6.951  1.00  0.00    -0.550 OA
ENDBRANCH   7   8
ENDBRANCH   6   7
ENDBRANCH   5   6
ENDBRANCH   4   5
ENDBRANCH   3   4
ENDBRANCH   2   3
ENDBRANCH   1   2
BRANCH   1  11
ATOM     11  C   UNL     1      15.306  -7.876   6.447  1.00  0.00     0.000 C 
BRANCH  11  12
ATOM     12  C   UNL     1      15.203  -7.397   4.988  1.00  0.00    -0.000 C 
BRANCH  12  13
ATOM     13  C   UNL     1      16.536  -6.847   4.453  1.00  0.00    -0.000 C 
BRANCH  13  14
ATOM     14  C   UNL     1      17.715  -7.799   4.702  1.00  0.00    -0.000 C 
BRANCH  14  15
ATOM     15  C   UNL     1      19.032  -7.024   4.816  1.00  0.00    -0.000 C 
BRANCH  15  16
ATOM     16  C   UNL     1      19.864  -7.524   6.007  1.00  0.00    -0.000 C 
BRANCH  16  17
ATOM     17  C   UNL     1      18.992  -8.004   7.177  1.00  0.00    -0.003 C 
ATOM     18  C   UNL     1      19.001  -7.034   8.358  1.00  0.00     0.004 C 
ENDBRANCH  16  17
ENDBRANCH  15  16
ENDBRANCH  14  15
ENDBRANCH  13  14
ENDBRANCH  12  13
ENDBRANCH  11  12
ENDBRANCH   1  11
TORSDOF 14
ENDMDL
MODEL 2
REMARK VINA RESULT:    -3.731      4.372      9.320
REMARK INTER + INTRA:          -7.743
REMARK INTER:                  -6.442
REMARK INTRA:                  -1.301
REMARK UNBOUND:                -0.959
REMARK SMILES CCCCCCCCCCCCCCCC(=O)[O-]
REMARK SMILES IDX 9 1 10 2 11 3 12 4 13 5 14 6 15 7 16 8 17 9 18 10 8 11 7 12
REMARK SMILES IDX 6 13 5 14 4 15 3 16 2 17 1 18
REMARK H PARENT
REMARK Flexibility Score: inf
ROOT
ATOM      1  C   UNL     1      12.060  -8.226   6.445  1.00  0.00     0.000 C 
ENDROOT
BRANCH   1   2
ATOM      2  C   UNL     1      13.556  -8.531   6.254  1.00  0.00     0.000 C 
BRANCH   2   3
ATOM      3  C   UNL     1      14.118  -7.963   4.938  1.00  0.00     0.000 C 
BRANCH   3   4
ATOM      4  C   UNL     1      15.467  -7.226   5.063  1.00  0.00     0.000 C 
BRANCH   4   5
ATOM      5  C   UNL     1      16.373  -7.712   6.208  1.00  0.00     0.000 C 
BRANCH   5   6
ATOM      6  C   UNL     1      17.466  -8.684   5.731  1.00  0.00     0.006 C 
BRANCH   6   7
ATOM      7  C   UNL     1      18.603  -8.818   6.752  1.00  0.00     0.053 C 
BRANCH   7   8
ATOM      8  C   UNL     1      19.247  -7.496   7.039  1.00  0.00     0.041 C 
ATOM      9  O   UNL     1      19.902  -6.902   6.142  1.00  0.00    -0.550 OA
ATOM     10  O   UNL     1      19.095  -6.904   8.285  1.00  0.00    -0.550 OA
ENDBRANCH   7   8
ENDBRANCH   6   7
ENDBRANCH   5   6
ENDBRANCH   4   5
ENDBRANCH   3   4
ENDBRANCH   2   3
ENDBRANCH   1   2
BRANCH   1  11
ATOM     11  C   UNL     1      11.464  -7.435   5.269  1.00  0.00     0.000 C 
BRANCH  11  12
ATOM     12  C   UNL     1      10.233  -8.126   4.657  1.00  0.00    -0.000 C 
BRANCH  12  13
ATOM     13  C   UNL     1      10.129  -9.608   5.057  1.00  0.00    -0.000 C 
BRANCH  13  14
ATOM     14  C   UNL     1       8.761  -9.966   5.659  1.00  0.00    -0.000 C 
BRANCH  14  15
ATOM     15  C   UNL     1       8.770  -9.792   7.182  1.00  0.00    -0.000 C 
BRANCH  15  16
ATOM     16  C   UNL     1       7.771  -8.710   7.618  1.00  0.00    -0.000 C 
BRANCH  16  17
ATOM     17  C   UNL     1       6.814  -8.299   6.488  1.00  0.00    -0.003 C 
ATOM     18  C   UNL     1       6.514  -6.800   6.482  1.00  0.00     0.004 C 
ENDBRANCH  16  17
ENDBRANCH  15  16
ENDBRANCH  14  15
ENDBRANCH  13  14
ENDBRANCH  12  13
ENDBRANCH  11  12
ENDBRANCH   1  11
TORSDOF 14
ENDMDL
MODEL 3
REMARK VINA RESULT:    -3.695      4.388      9.387
REMARK INTER + INTRA:          -7.677
REMARK INTER:                  -6.580
REMARK INTRA:                  -1.097
REMARK UNBOUND:                -0.959
REMARK SMILES CCCCCCCCCCCCCCCC(=O)[O-]
REMARK SMILES IDX 9 1 10 2 11 3 12 4 13 5 14 6 15 7 16 8 17 9 18 10 8 11 7 12
REMARK SMILES IDX 6 13 5 14 4 15 3 16 2 17 1 18
REMARK H PARENT
REMARK Flexibility Score: inf
ROOT
ATOM      1  C   UNL     1      14.218  -8.510   6.556  1.00  0.00     0.000 C 
ENDROOT
BRANCH   1   2
ATOM      2  C   UNL     1      15.666  -8.003   6.678  1.00  0.00     0.000 C 
BRANCH   2   3
ATOM      3  C   UNL     1      15.968  -6.825   5.735  1.00  0.00     0.000 C 
BRANCH   3   4
ATOM      4  C   UNL     1      17.024  -7.108   4.647  1.00  0.00     0.000 C 
BRANCH   4   5
ATOM      5  C   UNL     1      18.032  -8.219   4.990  1.00  0.00     0.000 C 
BRANCH   5   6
ATOM      6  C   UNL     1      19.287  -7.687   5.702  1.00  0.00     0.006 C 
BRANCH   6   7
ATOM      7  C   UNL     1      19.762  -8.630   6.815  1.00  0.00     0.053 C 
BRANCH   7   8
ATOM      8  C   UNL     1      19.375  -8.122   8.171  1.00  0.00     0.041 C 
ATOM      9  O   UNL     1      18.733  -7.045   8.285  1.00  0.00    -0.550 OA
ATOM     10  O   UNL     1      19.693  -8.856   9.306  1.00  0.00    -0.550 OA
ENDBRANCH   7   8
ENDBRANCH   6   7
ENDBRANCH   5   6
ENDBRANCH   4   5
ENDBRANCH   3   4
ENDBRANCH   2   3
ENDBRANCH   1   2
BRANCH   1  11
ATOM     11  C   UNL     1      13.797  -8.745   5.096  1.00  0.00     0.000 C 
BRANCH  11  12
ATOM     12  C   UNL     1      12.494  -8.011   4.732  1.00  0.00    -0.000 C 
BRANCH  12  13
ATOM     13  C   UNL     1      11.564  -7.825   5.943  1.00  0.00    -0.000 C 
BRANCH  13  14
ATOM     14  C   UNL     1      10.096  -8.141   5.618  1.00  0.00    -0.000 C 
BRANCH  14  15
ATOM     15  C   UNL     1       9.558  -9.248   6.532  1.00  0.00    -0.000 C 
BRANCH  15  16
ATOM     16  C   UNL     1       8.025  -9.319   6.467  1.00  0.00    -0.000 C 
BRANCH  16  17
ATOM     17  C   UNL     1       7.347  -8.217   7.297  1.00  0.00    -0.003 C 
ATOM     18  C   UNL     1       6.611  -7.194   6.433  1.00  0.00     0.004 C 
ENDBRANCH  16  17
ENDBRANCH  15  16
ENDBRANCH  14  15
ENDBRANCH  13  14
ENDBRANCH  12  13
ENDBRANCH  11  12
ENDBRANCH   1  11
TORSDOF 14
ENDMDL
MODEL 4
REMARK VINA RESULT:    -3.559      0.949      2.185
REMARK INTER + INTRA:          -7.430
REMARK INTER:                  -6.530
REMARK INTRA:                  -0.901
REMARK UNBOUND:                -0.959
REMARK SMILES CCCCCCCCCCCCCCCC(=O)[O-]
REMARK SMILES IDX 9 1 10 2 11 3 12 4 13 5 14 6 15 7 16 8 17 9 18 10 8 11 7 12
REMARK SMILES IDX 6 13 5 14 4 15 3 16 2 17 1 18
REMARK H PARENT
REMARK Flexibility Score: inf
ROOT
ATOM      1  C   UNL     1      11.323  -7.861   6.195  1.00  0.00     0.000 C 
ENDROOT
BRANCH   1   2
ATOM      2  C   UNL     1      10.109  -8.240   5.330  1.00  0.00     0.000 C 
BRANCH   2   3
ATOM      3  C   UNL     1       9.439  -9.550   5.783  1.00  0.00     0.000 C 
BRANCH   3   4
ATOM      4  C   UNL     1       8.772  -9.500   7.173  1.00  0.00     0.000 C 
BRANCH   4   5
ATOM      5  C   UNL     1       7.250  -9.730   7.176  1.00  0.00     0.000 C 
BRANCH   5   6
ATOM      6  C   UNL     1       6.653  -9.783   5.759  1.00  0.00     0.006 C 
BRANCH   6   7
ATOM      7  C   UNL     1       5.643  -8.654   5.516  1.00  0.00     0.053 C 
BRANCH   7   8
ATOM      8  C   UNL     1       6.310  -7.313   5.490  1.00  0.00     0.041 C 
ATOM      9  O   UNL     1       6.938  -6.936   4.466  1.00  0.00    -0.550 OA
ATOM     10  O   UNL     1       6.209  -6.465   6.585  1.00  0.00    -0.550 OA
ENDBRANCH   7   8
ENDBRANCH   6   7
ENDBRANCH   5   6
ENDBRANCH   4   5
ENDBRANCH   3   4
ENDBRANCH   2   3
ENDBRANCH   1   2
BRANCH   1  11
ATOM     11  C   UNL     1      12.608  -8.585   5.760  1.00  0.00     0.000 C 
BRANCH  11  12
ATOM     12  C   UNL     1      13.654  -8.657   6.886  1.00  0.00    -0.000 C 
BRANCH  12  13
ATOM     13  C   UNL     1      15.072  -8.929   6.358  1.00  0.00    -0.000 C 
BRANCH  13  14
ATOM     14  C   UNL     1      15.729  -7.681   5.749  1.00  0.00    -0.000 C 
BRANCH  14  15
ATOM     15  C   UNL     1      16.907  -7.206   6.608  1.00  0.00    -0.000 C 
BRANCH  15  16
ATOM     16  C   UNL     1      18.245  -7.669   6.012  1.00  0.00    -0.000 C 
BRANCH  16  17
ATOM     17  C   UNL     1      19.397  -7.604   7.026  1.00  0.00    -0.003 C 
ATOM     18  C   UNL     1      18.956  -7.070   8.388  1.00  0.00     0.004 C 
ENDBRANCH  16  17
ENDBRANCH  15  16
ENDBRANCH  14  15
ENDBRANCH  13  14
ENDBRANCH  12  13
ENDBRANCH  11  12
ENDBRANCH   1  11
TORSDOF 14
ENDMDL
MODEL 5
REMARK VINA RESULT:    -3.473      1.150      1.983
REMARK INTER + INTRA:          -7.275
REMARK INTER:                  -6.034
REMARK INTRA:                  -1.240
REMARK UNBOUND:                -0.959
REMARK SMILES CCCCCCCCCCCCCCCC(=O)[O-]
REMARK SMILES IDX 9 1 10 2 11 3 12 4 13 5 14 6 15 7 16 8 17 9 18 10 8 11 7 12
REMARK SMILES IDX 6 13 5 14 4 15 3 16 2 17 1 18
REMARK H PARENT
REMARK Flexibility Score: inf
ROOT
ATOM      1  C   UNL     1      15.514  -8.144   6.800  1.00  0.00     0.000 C 
ENDROOT
BRANCH   1   2
ATOM      2  C   UNL     1      14.162  -8.876   6.822  1.00  0.00     0.000 C 
BRANCH   2   3
ATOM      3  C   UNL     1      13.091  -8.181   5.961  1.00  0.00     0.000 C 
BRANCH   3   4
ATOM      4  C   UNL     1      12.611  -8.983   4.734  1.00  0.00     0.000 C 
BRANCH   4   5
ATOM      5  C   UNL     1      11.109  -9.319   4.721  1.00  0.00     0.000 C 
BRANCH   5   6
ATOM      6  C   UNL     1      10.302  -8.482   5.728  1.00  0.00     0.006 C 
BRANCH   6   7
ATOM      7  C   UNL     1       9.455  -9.359   6.660  1.00  0.00     0.053 C 
BRANCH   7   8
ATOM      8  C   UNL     1       8.156  -8.700   7.008  1.00  0.00     0.041 C 
ATOM      9  O   UNL     1       7.629  -8.892   8.135  1.00  0.00    -0.550 OA
ATOM     10  O   UNL     1       7.544  -7.845   6.100  1.00  0.00    -0.550 OA
ENDBRANCH   7   8
ENDBRANCH   6   7
ENDBRANCH   5   6
ENDBRANCH   4   5
ENDBRANCH   3   4
ENDBRANCH   2   3
ENDBRANCH   1   2
BRANCH   1  11
ATOM     11  C   UNL     1      15.610  -7.116   5.660  1.00  0.00     0.000 C 
BRANCH  11  12
ATOM     12  C   UNL     1      16.428  -7.636   4.464  1.00  0.00    -0.000 C 
BRANCH  12  13
ATOM     13  C   UNL     1      17.872  -7.108   4.463  1.00  0.00    -0.000 C 
BRANCH  13  14
ATOM     14  C   UNL     1      18.909  -8.211   4.720  1.00  0.00    -0.000 C 
BRANCH  14  15
ATOM     15  C   UNL     1      19.818  -7.848   5.900  1.00  0.00    -0.000 C 
BRANCH  15  16
ATOM     16  C   UNL     1      19.787  -8.942   6.977  1.00  0.00    -0.000 C 
BRANCH  16  17
ATOM     17  C   UNL     1      19.497  -8.384   8.378  1.00  0.00    -0.003 C 
ATOM     18  C   UNL     1      18.800  -7.024   8.341  1.00  0.00     0.004 C 
ENDBRANCH  16  17
ENDBRANCH  15  16
ENDBRANCH  14  15
ENDBRANCH  13  14
ENDBRANCH  12  13
ENDBRANCH  11  12
ENDBRANCH   1  11
TORSDOF 14
ENDMDL
MODEL 6
REMARK VINA RESULT:    -3.419      1.361      2.040
REMARK INTER + INTRA:          -7.177
REMARK INTER:                  -6.392
REMARK INTRA:                  -0.785
REMARK UNBOUND:                -0.959
REMARK SMILES CCCCCCCCCCCCCCCC(=O)[O-]
REMARK SMILES IDX 9 1 10 2 11 3 12 4 13 5 14 6 15 7 16 8 17 9 18 10 8 11 7 12
REMARK SMILES IDX 6 13 5 14 4 15 3 16 2 17 1 18
REMARK H PARENT
REMARK Flexibility Score: inf
ROOT
ATOM      1  C   UNL     1      14.008  -8.343   6.765  1.00  0.00     0.000 C 
ENDROOT
BRANCH   1   2
ATOM      2  C   UNL     1      12.790  -8.791   5.940  1.00  0.00     0.000 C 
BRANCH   2   3
ATOM      3  C   UNL     1      11.530  -7.957   6.234  1.00  0.00     0.000 C 
BRANCH   3   4
ATOM      4  C   UNL     1      10.870  -7.306   5.001  1.00  0.00     0.000 C 
BRANCH   4   5
ATOM      5  C   UNL     1       9.384  -7.654   4.796  1.00  0.00     0.000 C 
BRANCH   5   6
ATOM      6  C   UNL     1       9.001  -9.013   5.405  1.00  0.00     0.006 C 
BRANCH   6   7
ATOM      7  C   UNL     1       7.523  -9.066   5.815  1.00  0.00     0.053 C 
BRANCH   7   8
ATOM      8  C   UNL     1       7.244  -8.178   6.989  1.00  0.00     0.041 C 
ATOM      9  O   UNL     1       7.667  -8.489   8.134  1.00  0.00    -0.550 OA
ATOM     10  O   UNL     1       6.546  -6.991   6.813  1.00  0.00    -0.550 OA
ENDBRANCH   7   8
ENDBRANCH   6   7
ENDBRANCH   5   6
ENDBRANCH   4   5
ENDBRANCH   3   4
ENDBRANCH   2   3
ENDBRANCH   1   2
BRANCH   1  11
ATOM     11  C   UNL     1      15.326  -8.457   5.981  1.00  0.00     0.000 C 
BRANCH  11  12
ATOM     12  C   UNL     1      16.120  -7.138   5.966  1.00  0.00    -0.000 C 
BRANCH  12  13
ATOM     13  C   UNL     1      16.689  -6.808   4.576  1.00  0.00    -0.000 C 
BRANCH  13  14
ATOM     14  C   UNL     1      18.083  -7.411   4.346  1.00  0.00    -0.000 C 
BRANCH  14  15
ATOM     15  C   UNL     1      18.865  -7.504   5.662  1.00  0.00    -0.000 C 
BRANCH  15  16
ATOM     16  C   UNL     1      20.214  -6.778   5.553  1.00  0.00    -0.000 C 
BRANCH  16  17
ATOM     17  C   UNL     1      20.453  -6.182   4.157  1.00  0.00    -0.003 C 
ATOM     18  C   UNL     1      21.061  -4.781   4.208  1.00  0.00     0.004 C 
ENDBRANCH  16  17
ENDBRANCH  15  16
ENDBRANCH  14  15
ENDBRANCH  13  14
ENDBRANCH  12  13
ENDBRANCH  11  12
ENDBRANCH   1  11
TORSDOF 14
ENDMDL
MODEL 7
REMARK VINA RESULT:    -3.349      4.455      9.332
REMARK INTER + INTRA:          -7.049
REMARK INTER:                  -5.867
REMARK INTRA:                  -1.182
REMARK UNBOUND:                -0.959
REMARK SMILES CCCCCCCCCCCCCCCC(=O)[O-]
REMARK SMILES IDX 9 1 10 2 11 3 12 4 13 5 14 6 15 7 16 8 17 9 18 10 8 11 7 12
REMARK SMILES IDX 6 13 5 14 4 15 3 16 2 17 1 18
REMARK H PARENT
REMARK Flexibility Score: inf
ROOT
ATOM      1  C   UNL     1      11.501  -8.099   5.796  1.00  0.00     0.000 C 
ENDROOT
BRANCH   1   2
ATOM      2  C   UNL     1      12.881  -7.828   5.173  1.00  0.00     0.000 C 
BRANCH   2   3
ATOM      3  C   UNL     1      13.769  -9.085   5.119  1.00  0.00     0.000 C 
BRANCH   3   4
ATOM      4  C   UNL     1      15.257  -8.826   4.805  1.00  0.00     0.000 C 
BRANCH   4   5
ATOM      5  C   UNL     1      15.819  -7.501   5.352  1.00  0.00     0.000 C 
BRANCH   5   6
ATOM      6  C   UNL     1      16.658  -7.691   6.627  1.00  0.00     0.006 C 
BRANCH   6   7
ATOM      7  C   UNL     1      18.154  -7.469   6.370  1.00  0.00     0.053 C 
BRANCH   7   8
ATOM      8  C   UNL     1      18.963  -7.672   7.615  1.00  0.00     0.041 C 
ATOM      9  O   UNL     1      19.682  -8.698   7.745  1.00  0.00    -0.550 OA
ATOM     10  O   UNL     1      18.950  -6.711   8.617  1.00  0.00    -0.550 OA
ENDBRANCH   7   8
ENDBRANCH   6   7
ENDBRANCH   5   6
ENDBRANCH   4   5
ENDBRANCH   3   4
ENDBRANCH   2   3
ENDBRANCH   1   2
BRANCH   1  11
ATOM     11  C   UNL     1      10.696  -9.149   5.014  1.00  0.00     0.000 C 
BRANCH  11  12
ATOM     12  C   UNL     1       9.675  -8.514   4.053  1.00  0.00    -0.000 C 
BRANCH  12  13
ATOM     13  C   UNL     1       9.275  -7.090   4.474  1.00  0.00    -0.000 C 
BRANCH  13  14
ATOM     14  C   UNL     1       7.847  -7.015   5.033  1.00  0.00    -0.000 C 
BRANCH  14  15
ATOM     15  C   UNL     1       7.086  -8.321   4.774  1.00  0.00    -0.000 C 
BRANCH  15  16
ATOM     16  C   UNL     1       6.611  -8.953   6.090  1.00  0.00    -0.000 C 
BRANCH  16  17
ATOM     17  C   UNL     1       7.544  -8.635   7.268  1.00  0.00    -0.003 C 
ATOM     18  C   UNL     1       7.964  -9.884   8.044  1.00  0.00     0.004 C 
ENDBRANCH  16  17
ENDBRANCH  15  16
ENDBRANCH  14  15
ENDBRANCH  13  14
ENDBRANCH  12  13
ENDBRANCH  11  12
ENDBRANCH   1  11
TORSDOF 14
ENDMDL
MODEL 8
REMARK VINA RESULT:    -3.278      5.131      9.704
REMARK INTER + INTRA:          -6.919
REMARK INTER:                  -5.915
REMARK INTRA:                  -1.005
REMARK UNBOUND:                -0.959
REMARK SMILES CCCCCCCCCCCCCCCC(=O)[O-]
REMARK SMILES IDX 9 1 10 2 11 3 12 4 13 5 14 6 15 7 16 8 17 9 18 10 8 11 7 12
REMARK SMILES IDX 6 13 5 14 4 15 3 16 2 17 1 18
REMARK H PARENT
REMARK Flexibility Score: inf
ROOT
ATOM      1  C   UNL     1      15.780  -6.974   4.934  1.00  0.00     0.000 C 
ENDROOT
BRANCH   1   2
ATOM      2  C   UNL     1      16.053  -7.936   6.103  1.00  0.00     0.000 C 
BRANCH   2   3
ATOM      3  C   UNL     1      17.520  -8.399   6.164  1.00  0.00     0.000 C 
BRANCH   3   4
ATOM      4  C   UNL     1      18.427  -7.585   7.109  1.00  0.00     0.000 C 
BRANCH   4   5
ATOM      5  C   UNL     1      19.752  -7.105   6.488  1.00  0.00     0.000 C 
BRANCH   5   6
ATOM      6  C   UNL     1      19.882  -7.477   5.002  1.00  0.00     0.006 C 
BRANCH   6   7
ATOM      7  C   UNL     1      19.948  -6.236   4.100  1.00  0.00     0.053 C 
BRANCH   7   8
ATOM      8  C   UNL     1      21.179  -5.425   4.367  1.00  0.00     0.041 C 
ATOM      9  O   UNL     1      21.112  -4.168   4.415  1.00  0.00    -0.550 OA
ATOM     10  O   UNL     1      22.393  -6.059   4.596  1.00  0.00    -0.550 OA
ENDBRANCH   7   8
ENDBRANCH   6   7
ENDBRANCH   5   6
ENDBRANCH   4   5
ENDBRANCH   3   4
ENDBRANCH   2   3
ENDBRANCH   1   2
BRANCH   1  11
ATOM     11  C   UNL     1      14.742  -7.527   3.943  1.00  0.00     0.000 C 
BRANCH  11  12
ATOM     12  C   UNL     1      14.324  -8.971   4.272  1.00  0.00    -0.000 C 
BRANCH  12  13
ATOM     13  C   UNL     1      12.831  -9.089   4.616  1.00  0.00    -0.000 C 
BRANCH  13  14
ATOM     14  C   UNL     1      12.287  -7.846   5.336  1.00  0.00    -0.000 C 
BRANCH  14  15
ATOM     15  C   UNL     1      11.243  -8.234   6.390  1.00  0.00    -0.000 C 
BRANCH  15  16
ATOM     16  C   UNL     1      10.104  -9.052   5.762  1.00  0.00    -0.000 C 
BRANCH  16  17
ATOM     17  C   UNL     1       8.786  -8.924   6.541  1.00  0.00    -0.003 C 
ATOM     18  C   UNL     1       8.560 -10.078   7.517  1.00  0.00     0.004 C 
ENDBRANCH  16  17
ENDBRANCH  15  16
ENDBRANCH  14  15
ENDBRANCH  13  14
ENDBRANCH  12  13
ENDBRANCH  11  12
ENDBRANCH   1  11
TORSDOF 14
ENDMDL
MODEL 9
REMARK VINA RESULT:    -3.176      4.077      9.111
REMARK INTER + INTRA:          -6.733
REMARK INTER:                  -5.763
REMARK INTRA:                  -0.970
REMARK UNBOUND:                -0.959
REMARK SMILES CCCCCCCCCCCCCCCC(=O)[O-]
REMARK SMILES IDX 9 1 10 2 11 3 12 4 13 5 14 6 15 7 16 8 17 9 18 10 8 11 7 12
REMARK SMILES IDX 6 13 5 14 4 15 3 16 2 17 1 18
REMARK H PARENT
REMARK Flexibility Score: inf
ROOT
ATOM      1  C   UNL     1      16.393  -6.507   3.877  1.00  0.00     0.000 C 
ENDROOT
BRANCH   1   2
ATOM      2  C   UNL     1      17.590  -7.419   4.196  1.00  0.00     0.000 C 
BRANCH   2   3
ATOM      3  C   UNL     1      18.946  -6.739   3.930  1.00  0.00     0.000 C 
BRANCH   3   4
ATOM      4  C   UNL     1      20.176  -7.665   4.028  1.00  0.00     0.000 C 
BRANCH   4   5
ATOM      5  C   UNL     1      20.015  -8.865   4.978  1.00  0.00     0.000 C 
BRANCH   5   6
ATOM      6  C   UNL     1      20.465  -8.552   6.415  1.00  0.00     0.006 C 
BRANCH   6   7
ATOM      7  C   UNL     1      19.313  -8.682   7.421  1.00  0.00     0.053 C 
BRANCH   7   8
ATOM      8  C   UNL     1      18.763  -7.342   7.806  1.00  0.00     0.041 C 
ATOM      9  O   UNL     1      19.534  -6.435   8.218  1.00  0.00    -0.550 OA
ATOM     10  O   UNL     1      17.405  -7.085   7.678  1.00  0.00    -0.550 OA
ENDBRANCH   7   8
ENDBRANCH   6   7
ENDBRANCH   5   6
ENDBRANCH   4   5
ENDBRANCH   3   4
ENDBRANCH   2   3
ENDBRANCH   1   2
BRANCH   1  11
ATOM     11  C   UNL     1      15.042  -7.189   4.149  1.00  0.00     0.000 C 
BRANCH  11  12
ATOM     12  C   UNL     1      15.156  -8.339   5.165  1.00  0.00    -0.000 C 
BRANCH  12  13
ATOM     13  C   UNL     1      14.005  -8.343   6.184  1.00  0.00    -0.000 C 
BRANCH  13  14
ATOM     14  C   UNL     1      12.622  -8.411   5.517  1.00  0.00    -0.000 C 
BRANCH  14  15
ATOM     15  C   UNL     1      11.504  -8.301   6.560  1.00  0.00    -0.000 C 
BRANCH  15  16
ATOM     16  C   UNL     1      10.127  -8.527   5.918  1.00  0.00    -0.000 C 
BRANCH  16  17
ATOM     17  C   UNL     1       9.228  -9.448   6.757  1.00  0.00    -0.003 C 
ATOM     18  C   UNL     1       7.993  -8.733   7.303  1.00  0.00     0.004 C 
ENDBRANCH  16  17
ENDBRANCH  15  16
ENDBRANCH  14  15
ENDBRANCH  13  14
ENDBRANCH  12  13
ENDBRANCH  11  12
ENDBRANCH   1  11
TORSDOF 14
ENDMDL
