MODEL 1
REMARK VINA RESULT:    -4.706      0.000      0.000
REMARK INTER + INTRA:          -4.706
REMARK INTER:                  -4.706
REMARK INTRA:                   0.000
REMARK UNBOUND:                 0.000
REMARK SMILES CC(C)=C1CC[C@H](C)CC1=O
REMARK SMILES IDX 8 1 7 2 6 3 5 4 4 5 2 6 1 7 3 8 10 9 11 10 9 11
REMARK H PARENT
REMARK Flexibility Score: inf
ROOT
ATOM      1  C   UNL     1       2.819   9.440  15.306  1.00  0.00     0.008 C 
ATOM      2  C   UNL     1       3.849   9.032  14.240  1.00  0.00    -0.006 C 
ATOM      3  C   UNL     1       3.347   7.875  13.357  1.00  0.00     0.008 C 
ATOM      4  C   UNL     1       2.157   8.270  12.468  1.00  0.00     0.039 C 
ATOM      5  C   UNL     1       2.392   9.566  11.702  1.00  0.00    -0.006 C 
ATOM      6  C   UNL     1       1.811   9.781  10.485  1.00  0.00    -0.070 C 
ATOM      7  C   UNL     1       2.078  11.036   9.686  1.00  0.00     0.039 C 
ATOM      8  C   UNL     1       0.899   8.752   9.858  1.00  0.00     0.039 C 
ATOM      9  C   UNL     1       3.184  10.617  12.406  1.00  0.00     0.159 C 
ATOM     10  O   UNL     1       2.955  11.842  12.222  1.00  0.00    -0.295 OA
ATOM     11  C   UNL     1       4.269  10.224  13.367  1.00  0.00     0.084 C 
ENDROOT
TORSDOF 0
ENDMDL
MODEL 2
REMARK VINA RESULT:    -4.308      1.599      2.596
REMARK INTER + INTRA:          -4.308
REMARK INTER:                  -4.308
REMARK INTRA:                   0.000
REMARK UNBOUND:                 0.000
REMARK SMILES CC(C)=C1CC[C@H](C)CC1=O
REMARK SMILES IDX 8 1 7 2 6 3 5 4 4 5 2 6 1 7 3 8 10 9 11 10 9 11
REMARK H PARENT
REMARK Flexibility Score: inf
ROOT
ATOM      1  C   UNL     1       4.802   9.646  13.596  1.00  0.00     0.008 C 
ATOM      2  C   UNL     1       3.311   9.910  13.866  1.00  0.00    -0.006 C 
ATOM      3  C   UNL     1       2.865  11.296  13.366  1.00  0.00     0.008 C 
ATOM      4  C   UNL     1       2.906  11.427  11.836  1.00  0.00     0.039 C 
ATOM      5  C   UNL     1       2.217  10.270  11.122  1.00  0.00    -0.006 C 
ATOM      6  C   UNL     1       1.619  10.446   9.907  1.00  0.00    -0.070 C 
ATOM      7  C   UNL     1       0.883   9.324   9.213  1.00  0.00     0.039 C 
ATOM      8  C   UNL     1       1.632  11.789   9.215  1.00  0.00     0.039 C 
ATOM      9  C   UNL     1       2.340   8.928  11.765  1.00  0.00     0.159 C 
ATOM     10  O   UNL     1       2.391   7.875  11.076  1.00  0.00    -0.295 OA
ATOM     11  C   UNL     1       2.420   8.815  13.260  1.00  0.00     0.084 C 
ENDROOT
TORSDOF 0
ENDMDL
MODEL 3
REMARK VINA RESULT:    -4.212     12.143     13.982
REMARK INTER + INTRA:          -4.212
REMARK INTER:                  -4.212
REMARK INTRA:                   0.000
REMARK UNBOUND:                 0.000
REMARK SMILES CC(C)=C1CC[C@H](C)CC1=O
REMARK SMILES IDX 8 1 7 2 6 3 5 4 4 5 2 6 1 7 3 8 10 9 11 10 9 11
REMARK H PARENT
REMARK Flexibility Score: inf
ROOT
ATOM      1  C   UNL     1       3.118  20.494   7.719  1.00  0.00     0.008 C 
ATOM      2  C   UNL     1       3.205  21.868   7.035  1.00  0.00    -0.006 C 
ATOM      3  C   UNL     1       4.605  22.145   6.459  1.00  0.00     0.008 C 
ATOM      4  C   UNL     1       4.968  21.218   5.287  1.00  0.00     0.039 C 
ATOM      5  C   UNL     1       3.875  21.146   4.228  1.00  0.00    -0.006 C 
ATOM      6  C   UNL     1       4.178  20.917   2.916  1.00  0.00    -0.070 C 
ATOM      7  C   UNL     1       3.113  20.899   1.844  1.00  0.00     0.039 C 
ATOM      8  C   UNL     1       5.606  20.711   2.466  1.00  0.00     0.039 C 
ATOM      9  C   UNL     1       2.468  21.216   4.722  1.00  0.00     0.159 C 
ATOM     10  O   UNL     1       1.539  20.593   4.142  1.00  0.00    -0.295 OA
ATOM     11  C   UNL     1       2.139  22.028   5.941  1.00  0.00     0.084 C 
ENDROOT
TORSDOF 0
ENDMDL
MODEL 4
REMARK VINA RESULT:    -4.187     13.011     14.235
REMARK INTER + INTRA:          -4.187
REMARK INTER:                  -4.187
REMARK INTRA:                   0.000
REMARK UNBOUND:                 0.000
REMARK SMILES CC(C)=C1CC[C@H](C)CC1=O
REMARK SMILES IDX 8 1 7 2 6 3 5 4 4 5 2 6 1 7 3 8 10 9 11 10 9 11
REMARK H PARENT
REMARK Flexibility Score: inf
ROOT
ATOM      1  C   UNL     1       2.170  21.357   7.379  1.00  0.00     0.008 C 
ATOM      2  C   UNL     1       2.676  22.552   6.555  1.00  0.00    -0.006 C 
ATOM      3  C   UNL     1       4.202  22.728   6.660  1.00  0.00     0.008 C 
ATOM      4  C   UNL     1       4.987  21.579   6.008  1.00  0.00     0.039 C 
ATOM      5  C   UNL     1       4.504  21.255   4.599  1.00  0.00    -0.006 C 
ATOM      6  C   UNL     1       5.359  20.756   3.658  1.00  0.00    -0.070 C 
ATOM      7  C   UNL     1       4.910  20.483   2.241  1.00  0.00     0.039 C 
ATOM      8  C   UNL     1       6.811  20.488   3.981  1.00  0.00     0.039 C 
ATOM      9  C   UNL     1       3.040  21.400   4.351  1.00  0.00     0.159 C 
ATOM     10  O   UNL     1       2.435  20.646   3.542  1.00  0.00    -0.295 OA
ATOM     11  C   UNL     1       2.253  22.449   5.083  1.00  0.00     0.084 C 
ENDROOT
TORSDOF 0
ENDMDL
MODEL 5
REMARK VINA RESULT:    -4.135     12.803     14.514
REMARK INTER + INTRA:          -4.135
REMARK INTER:                  -4.135
REMARK INTRA:                   0.000
REMARK UNBOUND:                 0.000
REMARK SMILES CC(C)=C1CC[C@H](C)CC1=O
REMARK SMILES IDX 8 1 7 2 6 3 5 4 4 5 2 6 1 7 3 8 10 9 11 10 9 11
REMARK H PARENT
REMARK Flexibility Score: inf
ROOT
ATOM      1  C   UNL     1       4.597  22.478   6.956  1.00  0.00     0.008 C 
ATOM      2  C   UNL     1       3.569  21.466   6.424  1.00  0.00    -0.006 C 
ATOM      3  C   UNL     1       2.581  22.106   5.432  1.00  0.00     0.008 C 
ATOM      4  C   UNL     1       3.248  22.551   4.121  1.00  0.00     0.039 C 
ATOM      5  C   UNL     1       4.121  21.466   3.501  1.00  0.00    -0.006 C 
ATOM      6  C   UNL     1       4.299  21.392   2.149  1.00  0.00    -0.070 C 
ATOM      7  C   UNL     1       5.115  20.290   1.514  1.00  0.00     0.039 C 
ATOM      8  C   UNL     1       3.653  22.391   1.216  1.00  0.00     0.039 C 
ATOM      9  C   UNL     1       4.853  20.581   4.453  1.00  0.00     0.159 C 
ATOM     10  O   UNL     1       5.987  20.111   4.169  1.00  0.00    -0.295 OA
ATOM     11  C   UNL     1       4.248  20.246   5.786  1.00  0.00     0.084 C 
ENDROOT
TORSDOF 0
ENDMDL
MODEL 6
REMARK VINA RESULT:    -4.113     11.247     12.656
REMARK INTER + INTRA:          -4.113
REMARK INTER:                  -4.113
REMARK INTRA:                   0.000
REMARK UNBOUND:                 0.000
REMARK SMILES CC(C)=C1CC[C@H](C)CC1=O
REMARK SMILES IDX 8 1 7 2 6 3 5 4 4 5 2 6 1 7 3 8 10 9 11 10 9 11
REMARK H PARENT
REMARK Flexibility Score: inf
ROOT
ATOM      1  C   UNL     1       2.361  21.146   7.883  1.00  0.00     0.008 C 
ATOM      2  C   UNL     1       2.017  20.609   6.484  1.00  0.00    -0.006 C 
ATOM      3  C   UNL     1       2.675  21.435   5.364  1.00  0.00     0.008 C 
ATOM      4  C   UNL     1       4.207  21.314   5.348  1.00  0.00     0.039 C 
ATOM      5  C   UNL     1       4.690  19.870   5.406  1.00  0.00    -0.006 C 
ATOM      6  C   UNL     1       5.867  19.496   4.824  1.00  0.00    -0.070 C 
ATOM      7  C   UNL     1       6.332  18.058   4.822  1.00  0.00     0.039 C 
ATOM      8  C   UNL     1       6.746  20.500   4.115  1.00  0.00     0.039 C 
ATOM      9  C   UNL     1       3.871  18.931   6.227  1.00  0.00     0.159 C 
ATOM     10  O   UNL     1       4.402  17.973   6.851  1.00  0.00    -0.295 OA
ATOM     11  C   UNL     1       2.386  19.125   6.337  1.00  0.00     0.084 C 
ENDROOT
TORSDOF 0
ENDMDL
MODEL 7
REMARK VINA RESULT:    -4.103     13.486     15.904
REMARK INTER + INTRA:          -4.103
REMARK INTER:                  -4.103
REMARK INTRA:                   0.000
REMARK UNBOUND:                 0.000
REMARK SMILES CC(C)=C1CC[C@H](C)CC1=O
REMARK SMILES IDX 8 1 7 2 6 3 5 4 4 5 2 6 1 7 3 8 10 9 11 10 9 11
REMARK H PARENT
REMARK Flexibility Score: inf
ROOT
ATOM      1  C   UNL     1       4.433  23.481   0.284  1.00  0.00     0.008 C 
ATOM      2  C   UNL     1       3.686  22.146   0.438  1.00  0.00    -0.006 C 
ATOM      3  C   UNL     1       4.647  20.946   0.515  1.00  0.00     0.008 C 
ATOM      4  C   UNL     1       5.505  20.942   1.790  1.00  0.00     0.039 C 
ATOM      5  C   UNL     1       4.685  21.150   3.058  1.00  0.00    -0.006 C 
ATOM      6  C   UNL     1       5.079  20.610   4.249  1.00  0.00    -0.070 C 
ATOM      7  C   UNL     1       4.249  20.759   5.503  1.00  0.00     0.039 C 
ATOM      8  C   UNL     1       6.349  19.800   4.360  1.00  0.00     0.039 C 
ATOM      9  C   UNL     1       3.512  22.066   2.944  1.00  0.00     0.159 C 
ATOM     10  O   UNL     1       3.149  22.786   3.913  1.00  0.00    -0.295 OA
ATOM     11  C   UNL     1       2.749  22.155   1.655  1.00  0.00     0.084 C 
ENDROOT
TORSDOF 0
ENDMDL
MODEL 8
REMARK VINA RESULT:    -3.913     11.129     13.425
REMARK INTER + INTRA:          -3.913
REMARK INTER:                  -3.913
REMARK INTRA:                   0.000
REMARK UNBOUND:                 0.000
REMARK SMILES CC(C)=C1CC[C@H](C)CC1=O
REMARK SMILES IDX 8 1 7 2 6 3 5 4 4 5 2 6 1 7 3 8 10 9 11 10 9 11
REMARK H PARENT
REMARK Flexibility Score: inf
ROOT
ATOM      1  C   UNL     1       4.206  18.340   6.610  1.00  0.00     0.008 C 
ATOM      2  C   UNL     1       2.819  18.967   6.821  1.00  0.00    -0.006 C 
ATOM      3  C   UNL     1       2.852  20.131   7.828  1.00  0.00     0.008 C 
ATOM      4  C   UNL     1       3.641  21.347   7.317  1.00  0.00     0.039 C 
ATOM      5  C   UNL     1       3.236  21.769   5.910  1.00  0.00    -0.006 C 
ATOM      6  C   UNL     1       3.325  23.072   5.511  1.00  0.00    -0.070 C 
ATOM      7  C   UNL     1       2.874  23.516   4.138  1.00  0.00     0.039 C 
ATOM      8  C   UNL     1       3.843  24.143   6.442  1.00  0.00     0.039 C 
ATOM      9  C   UNL     1       2.859  20.670   4.973  1.00  0.00     0.159 C 
ATOM     10  O   UNL     1       3.098  20.753   3.738  1.00  0.00    -0.295 OA
ATOM     11  C   UNL     1       2.195  19.429   5.496  1.00  0.00     0.084 C 
ENDROOT
TORSDOF 0
ENDMDL
