MODEL 1
REMARK VINA RESULT:    -5.663      0.000      0.000
REMARK INTER + INTRA:         -10.973
REMARK INTER:                  -9.967
REMARK INTRA:                  -1.006
REMARK UNBOUND:                -1.006
REMARK SMILES CCCCCCC=CCCCCCCCC(=O)[O-]
REMARK SMILES IDX 10 1 11 2 12 3 13 4 14 5 15 6 16 7 17 8 18 9 9 10 8 11 7 12
REMARK SMILES IDX 6 13 5 14 4 15 3 16 2 17 1 18
REMARK H PARENT
REMARK Flexibility Score: inf
ROOT
ATOM      1  C   UNL     1     -10.072 -67.675 -30.813  1.00  0.00     0.004 C 
ENDROOT
BRANCH   1   2
ATOM      2  C   UNL     1     -10.093 -66.953 -32.172  1.00  0.00     0.000 C 
BRANCH   2   3
ATOM      3  C   UNL     1     -11.479 -66.861 -32.844  1.00  0.00     0.000 C 
BRANCH   3   4
ATOM      4  C   UNL     1     -11.455 -66.505 -34.341  1.00  0.00     0.000 C 
BRANCH   4   5
ATOM      5  C   UNL     1     -12.144 -67.566 -35.217  1.00  0.00     0.006 C 
BRANCH   5   6
ATOM      6  C   UNL     1     -13.673 -67.474 -35.141  1.00  0.00     0.053 C 
BRANCH   6   7
ATOM      7  C   UNL     1     -14.283 -67.268 -36.493  1.00  0.00     0.041 C 
ATOM      8  O   UNL     1     -15.485 -66.911 -36.600  1.00  0.00    -0.550 OA
ATOM      9  O   UNL     1     -13.512 -67.436 -37.636  1.00  0.00    -0.550 OA
ENDBRANCH   6   7
ENDBRANCH   5   6
ENDBRANCH   4   5
ENDBRANCH   3   4
ENDBRANCH   2   3
ENDBRANCH   1   2
BRANCH   1  10
ATOM     10  C   UNL     1      -8.766 -67.447 -30.038  1.00  0.00     0.027 C 
BRANCH  10  11
ATOM     11  C   UNL     1      -7.635 -67.109 -30.970  1.00  0.00    -0.031 C 
ATOM     12  C   UNL     1      -6.999 -65.933 -30.875  1.00  0.00    -0.031 C 
BRANCH  12  13
ATOM     13  C   UNL     1      -5.867 -65.570 -31.799  1.00  0.00     0.027 C 
BRANCH  13  14
ATOM     14  C   UNL     1      -6.363 -64.987 -33.131  1.00  0.00     0.004 C 
BRANCH  14  15
ATOM     15  C   UNL     1      -7.741 -64.318 -32.992  1.00  0.00     0.000 C 
BRANCH  15  16
ATOM     16  C   UNL     1      -8.472 -64.167 -34.339  1.00  0.00    -0.000 C 
BRANCH  16  17
ATOM     17  C   UNL     1      -7.869 -63.117 -35.289  1.00  0.00    -0.003 C 
ATOM     18  C   UNL     1      -8.312 -63.299 -36.740  1.00  0.00     0.004 C 
ENDBRANCH  16  17
ENDBRANCH  15  16
ENDBRANCH  14  15
ENDBRANCH  13  14
ENDBRANCH  12  13
ENDBRANCH  10  11
ENDBRANCH   1  10
TORSDOF 13
ENDMDL
MODEL 2
REMARK VINA RESULT:    -5.649      3.403      7.335
REMARK INTER + INTRA:         -10.949
REMARK INTER:                  -9.881
REMARK INTRA:                  -1.068
REMARK UNBOUND:                -1.006
REMARK SMILES CCCCCCC=CCCCCCCCC(=O)[O-]
REMARK SMILES IDX 10 1 11 2 12 3 13 4 14 5 15 6 16 7 17 8 18 9 9 10 8 11 7 12
REMARK SMILES IDX 6 13 5 14 4 15 3 16 2 17 1 18
REMARK H PARENT
REMARK Flexibility Score: inf
ROOT
ATOM      1  C   UNL     1     -10.118 -65.321 -33.419  1.00  0.00     0.004 C 
ENDROOT
BRANCH   1   2
ATOM      2  C   UNL     1      -8.685 -65.255 -32.862  1.00  0.00     0.000 C 
BRANCH   2   3
ATOM      3  C   UNL     1      -7.718 -64.342 -33.644  1.00  0.00     0.000 C 
BRANCH   3   4
ATOM      4  C   UNL     1      -8.280 -63.773 -34.959  1.00  0.00     0.000 C 
BRANCH   4   5
ATOM      5  C   UNL     1      -7.186 -63.193 -35.873  1.00  0.00     0.006 C 
BRANCH   5   6
ATOM      6  C   UNL     1      -5.953 -64.101 -35.946  1.00  0.00     0.053 C 
BRANCH   6   7
ATOM      7  C   UNL     1      -5.528 -64.344 -37.362  1.00  0.00     0.041 C 
ATOM      8  O   UNL     1      -4.306 -64.378 -37.662  1.00  0.00    -0.550 OA
ATOM      9  O   UNL     1      -6.483 -64.569 -38.346  1.00  0.00    -0.550 OA
ENDBRANCH   6   7
ENDBRANCH   5   6
ENDBRANCH   4   5
ENDBRANCH   3   4
ENDBRANCH   2   3
ENDBRANCH   1   2
BRANCH   1  10
ATOM     10  C   UNL     1     -10.844 -66.621 -33.043  1.00  0.00     0.027 C 
BRANCH  10  11
ATOM     11  C   UNL     1     -12.041 -66.848 -33.925  1.00  0.00    -0.031 C 
ATOM     12  C   UNL     1     -11.895 -67.339 -35.163  1.00  0.00    -0.031 C 
BRANCH  12  13
ATOM     13  C   UNL     1     -13.077 -67.570 -36.067  1.00  0.00     0.027 C 
BRANCH  13  14
ATOM     14  C   UNL     1     -14.305 -68.088 -35.304  1.00  0.00     0.004 C 
BRANCH  14  15
ATOM     15  C   UNL     1     -15.550 -67.219 -35.554  1.00  0.00     0.000 C 
BRANCH  15  16
ATOM     16  C   UNL     1     -15.723 -66.104 -34.507  1.00  0.00    -0.000 C 
BRANCH  16  17
ATOM     17  C   UNL     1     -15.764 -66.589 -33.046  1.00  0.00    -0.003 C 
ATOM     18  C   UNL     1     -14.784 -65.844 -32.141  1.00  0.00     0.004 C 
ENDBRANCH  16  17
ENDBRANCH  15  16
ENDBRANCH  14  15
ENDBRANCH  13  14
ENDBRANCH  12  13
ENDBRANCH  10  11
ENDBRANCH   1  10
TORSDOF 13
ENDMDL
MODEL 3
REMARK VINA RESULT:    -5.608      5.285      7.614
REMARK INTER + INTRA:         -10.876
REMARK INTER:                 -10.106
REMARK INTRA:                  -0.770
REMARK UNBOUND:                -1.006
REMARK SMILES CCCCCCC=CCCCCCCCC(=O)[O-]
REMARK SMILES IDX 10 1 11 2 12 3 13 4 14 5 15 6 16 7 17 8 18 9 9 10 8 11 7 12
REMARK SMILES IDX 6 13 5 14 4 15 3 16 2 17 1 18
REMARK H PARENT
REMARK Flexibility Score: inf
ROOT
ATOM      1  C   UNL     1      -8.707 -67.633 -27.775  1.00  0.00     0.004 C 
ENDROOT
BRANCH   1   2
ATOM      2  C   UNL     1      -8.869 -66.903 -26.430  1.00  0.00     0.000 C 
BRANCH   2   3
ATOM      3  C   UNL     1      -9.655 -67.680 -25.353  1.00  0.00     0.000 C 
BRANCH   3   4
ATOM      4  C   UNL     1     -11.055 -67.122 -25.039  1.00  0.00     0.000 C 
BRANCH   4   5
ATOM      5  C   UNL     1     -11.013 -65.697 -24.461  1.00  0.00     0.006 C 
BRANCH   5   6
ATOM      6  C   UNL     1     -12.391 -65.230 -23.976  1.00  0.00     0.053 C 
BRANCH   6   7
ATOM      7  C   UNL     1     -13.148 -64.523 -25.059  1.00  0.00     0.041 C 
ATOM      8  O   UNL     1     -14.113 -65.091 -25.633  1.00  0.00    -0.550 OA
ATOM      9  O   UNL     1     -12.809 -63.223 -25.409  1.00  0.00    -0.550 OA
ENDBRANCH   6   7
ENDBRANCH   5   6
ENDBRANCH   4   5
ENDBRANCH   3   4
ENDBRANCH   2   3
ENDBRANCH   1   2
BRANCH   1  10
ATOM     10  C   UNL     1      -9.907 -68.528 -28.116  1.00  0.00     0.027 C 
BRANCH  10  11
ATOM     11  C   UNL     1     -10.246 -68.446 -29.580  1.00  0.00    -0.031 C 
ATOM     12  C   UNL     1      -9.601 -67.590 -30.384  1.00  0.00    -0.031 C 
BRANCH  12  13
ATOM     13  C   UNL     1      -9.926 -67.485 -31.851  1.00  0.00     0.027 C 
BRANCH  13  14
ATOM     14  C   UNL     1      -9.633 -66.088 -32.417  1.00  0.00     0.004 C 
BRANCH  14  15
ATOM     15  C   UNL     1     -10.653 -65.673 -33.490  1.00  0.00     0.000 C 
BRANCH  15  16
ATOM     16  C   UNL     1     -11.804 -66.684 -33.644  1.00  0.00    -0.000 C 
BRANCH  16  17
ATOM     17  C   UNL     1     -11.897 -67.353 -35.028  1.00  0.00    -0.003 C 
ATOM     18  C   UNL     1     -13.335 -67.516 -35.518  1.00  0.00     0.004 C 
ENDBRANCH  16  17
ENDBRANCH  15  16
ENDBRANCH  14  15
ENDBRANCH  13  14
ENDBRANCH  12  13
ENDBRANCH  10  11
ENDBRANCH   1  10
TORSDOF 13
ENDMDL
MODEL 4
REMARK VINA RESULT:    -5.575      4.010      6.646
REMARK INTER + INTRA:         -10.818
REMARK INTER:                 -10.108
REMARK INTRA:                  -0.711
REMARK UNBOUND:                -1.006
REMARK SMILES CCCCCCC=CCCCCCCCC(=O)[O-]
REMARK SMILES IDX 10 1 11 2 12 3 13 4 14 5 15 6 16 7 17 8 18 9 9 10 8 11 7 12
REMARK SMILES IDX 6 13 5 14 4 15 3 16 2 17 1 18
REMARK H PARENT
REMARK Flexibility Score: inf
ROOT
ATOM      1  C   UNL     1      -8.834 -67.654 -30.010  1.00  0.00     0.004 C 
ENDROOT
BRANCH   1   2
ATOM      2  C   UNL     1      -8.964 -66.952 -31.374  1.00  0.00     0.000 C 
BRANCH   2   3
ATOM      3  C   UNL     1     -10.262 -67.261 -32.150  1.00  0.00     0.000 C 
BRANCH   3   4
ATOM      4  C   UNL     1     -10.880 -66.061 -32.890  1.00  0.00     0.000 C 
BRANCH   4   5
ATOM      5  C   UNL     1     -12.109 -66.448 -33.730  1.00  0.00     0.006 C 
BRANCH   5   6
ATOM      6  C   UNL     1     -11.739 -67.352 -34.913  1.00  0.00     0.053 C 
BRANCH   6   7
ATOM      7  C   UNL     1     -12.913 -67.593 -35.812  1.00  0.00     0.041 C 
ATOM      8  O   UNL     1     -12.812 -67.405 -37.053  1.00  0.00    -0.550 OA
ATOM      9  O   UNL     1     -14.110 -68.060 -35.283  1.00  0.00    -0.550 OA
ENDBRANCH   6   7
ENDBRANCH   5   6
ENDBRANCH   4   5
ENDBRANCH   3   4
ENDBRANCH   2   3
ENDBRANCH   1   2
BRANCH   1  10
ATOM     10  C   UNL     1     -10.109 -68.408 -29.604  1.00  0.00     0.027 C 
BRANCH  10  11
ATOM     11  C   UNL     1     -10.182 -68.586 -28.113  1.00  0.00    -0.031 C 
ATOM     12  C   UNL     1      -9.465 -67.803 -27.295  1.00  0.00    -0.031 C 
BRANCH  12  13
ATOM     13  C   UNL     1      -9.517 -67.966 -25.798  1.00  0.00     0.027 C 
BRANCH  13  14
ATOM     14  C   UNL     1     -10.956 -67.991 -25.262  1.00  0.00     0.004 C 
BRANCH  14  15
ATOM     15  C   UNL     1     -11.216 -66.862 -24.250  1.00  0.00     0.000 C 
BRANCH  15  16
ATOM     16  C   UNL     1     -11.811 -65.600 -24.901  1.00  0.00    -0.000 C 
BRANCH  16  17
ATOM     17  C   UNL     1     -12.715 -64.761 -23.980  1.00  0.00    -0.003 C 
ATOM     18  C   UNL     1     -12.380 -64.930 -22.498  1.00  0.00     0.004 C 
ENDBRANCH  16  17
ENDBRANCH  15  16
ENDBRANCH  14  15
ENDBRANCH  13  14
ENDBRANCH  12  13
ENDBRANCH  10  11
ENDBRANCH   1  10
TORSDOF 13
ENDMDL
MODEL 5
REMARK VINA RESULT:    -5.564      4.675      8.000
REMARK INTER + INTRA:         -10.798
REMARK INTER:                  -9.741
REMARK INTRA:                  -1.057
REMARK UNBOUND:                -1.006
REMARK SMILES CCCCCCC=CCCCCCCCC(=O)[O-]
REMARK SMILES IDX 10 1 11 2 12 3 13 4 14 5 15 6 16 7 17 8 18 9 9 10 8 11 7 12
REMARK SMILES IDX 6 13 5 14 4 15 3 16 2 17 1 18
REMARK H PARENT
REMARK Flexibility Score: inf
ROOT
ATOM      1  C   UNL     1     -10.366 -67.168 -31.975  1.00  0.00     0.004 C 
ENDROOT
BRANCH   1   2
ATOM      2  C   UNL     1      -8.920 -66.867 -31.539  1.00  0.00     0.000 C 
BRANCH   2   3
ATOM      3  C   UNL     1      -8.451 -67.606 -30.269  1.00  0.00     0.000 C 
BRANCH   3   4
ATOM      4  C   UNL     1      -9.580 -68.124 -29.361  1.00  0.00     0.000 C 
BRANCH   4   5
ATOM      5  C   UNL     1      -9.257 -67.978 -27.864  1.00  0.00     0.006 C 
BRANCH   5   6
ATOM      6  C   UNL     1      -8.663 -69.262 -27.273  1.00  0.00     0.053 C 
BRANCH   6   7
ATOM      7  C   UNL     1      -9.667 -70.005 -26.445  1.00  0.00     0.041 C 
ATOM      8  O   UNL     1      -9.435 -71.185 -26.073  1.00  0.00    -0.550 OA
ATOM      9  O   UNL     1     -10.844 -69.380 -26.052  1.00  0.00    -0.550 OA
ENDBRANCH   6   7
ENDBRANCH   5   6
ENDBRANCH   4   5
ENDBRANCH   3   4
ENDBRANCH   2   3
ENDBRANCH   1   2
BRANCH   1  10
ATOM     10  C   UNL     1     -10.810 -66.332 -33.183  1.00  0.00     0.027 C 
BRANCH  10  11
ATOM     11  C   UNL     1     -11.858 -67.052 -33.985  1.00  0.00    -0.031 C 
ATOM     12  C   UNL     1     -11.883 -66.956 -35.322  1.00  0.00    -0.031 C 
BRANCH  12  13
ATOM     13  C   UNL     1     -12.926 -67.664 -36.147  1.00  0.00     0.027 C 
BRANCH  13  14
ATOM     14  C   UNL     1     -14.191 -67.986 -35.338  1.00  0.00     0.004 C 
BRANCH  14  15
ATOM     15  C   UNL     1     -15.374 -67.086 -35.732  1.00  0.00     0.000 C 
BRANCH  15  16
ATOM     16  C   UNL     1     -15.737 -66.062 -34.640  1.00  0.00    -0.000 C 
BRANCH  16  17
ATOM     17  C   UNL     1     -15.631 -66.590 -33.198  1.00  0.00    -0.003 C 
ATOM     18  C   UNL     1     -14.693 -65.758 -32.325  1.00  0.00     0.004 C 
ENDBRANCH  16  17
ENDBRANCH  15  16
ENDBRANCH  14  15
ENDBRANCH  13  14
ENDBRANCH  12  13
ENDBRANCH  10  11
ENDBRANCH   1  10
TORSDOF 13
ENDMDL
MODEL 6
REMARK VINA RESULT:    -5.502      4.855      7.415
REMARK INTER + INTRA:         -10.690
REMARK INTER:                  -9.508
REMARK INTRA:                  -1.182
REMARK UNBOUND:                -1.006
REMARK SMILES CCCCCCC=CCCCCCCCC(=O)[O-]
REMARK SMILES IDX 10 1 11 2 12 3 13 4 14 5 15 6 16 7 17 8 18 9 9 10 8 11 7 12
REMARK SMILES IDX 6 13 5 14 4 15 3 16 2 17 1 18
REMARK H PARENT
REMARK Flexibility Score: inf
ROOT
ATOM      1  C   UNL     1      -8.977 -69.490 -27.212  1.00  0.00     0.004 C 
ENDROOT
BRANCH   1   2
ATOM      2  C   UNL     1      -9.045 -69.563 -28.748  1.00  0.00     0.000 C 
BRANCH   2   3
ATOM      3  C   UNL     1      -9.540 -68.278 -29.444  1.00  0.00     0.000 C 
BRANCH   3   4
ATOM      4  C   UNL     1      -8.445 -67.452 -30.143  1.00  0.00     0.000 C 
BRANCH   4   5
ATOM      5  C   UNL     1      -8.917 -66.843 -31.475  1.00  0.00     0.006 C 
BRANCH   5   6
ATOM      6  C   UNL     1     -10.364 -67.227 -31.806  1.00  0.00     0.053 C 
BRANCH   6   7
ATOM      7  C   UNL     1     -10.866 -66.500 -33.016  1.00  0.00     0.041 C 
ATOM      8  O   UNL     1     -10.521 -65.308 -33.230  1.00  0.00    -0.550 OA
ATOM      9  O   UNL     1     -11.687 -67.151 -33.928  1.00  0.00    -0.550 OA
ENDBRANCH   6   7
ENDBRANCH   5   6
ENDBRANCH   4   5
ENDBRANCH   3   4
ENDBRANCH   2   3
ENDBRANCH   1   2
BRANCH   1  10
ATOM     10  C   UNL     1     -10.359 -69.588 -26.550  1.00  0.00     0.027 C 
BRANCH  10  11
ATOM     11  C   UNL     1     -10.646 -68.371 -25.714  1.00  0.00    -0.031 C 
ATOM     12  C   UNL     1      -9.983 -67.225 -25.923  1.00  0.00    -0.031 C 
BRANCH  12  13
ATOM     13  C   UNL     1     -10.249 -65.995 -25.096  1.00  0.00     0.027 C 
BRANCH  13  14
ATOM     14  C   UNL     1     -10.904 -66.327 -23.747  1.00  0.00     0.004 C 
BRANCH  14  15
ATOM     15  C   UNL     1     -12.276 -65.651 -23.588  1.00  0.00     0.000 C 
BRANCH  15  16
ATOM     16  C   UNL     1     -13.144 -65.754 -24.856  1.00  0.00    -0.000 C 
BRANCH  16  17
ATOM     17  C   UNL     1     -13.680 -64.411 -25.384  1.00  0.00    -0.003 C 
ATOM     18  C   UNL     1     -12.727 -63.244 -25.126  1.00  0.00     0.004 C 
ENDBRANCH  16  17
ENDBRANCH  15  16
ENDBRANCH  14  15
ENDBRANCH  13  14
ENDBRANCH  12  13
ENDBRANCH  10  11
ENDBRANCH   1  10
TORSDOF 13
ENDMDL
MODEL 7
REMARK VINA RESULT:    -5.463      4.731      8.069
REMARK INTER + INTRA:         -10.622
REMARK INTER:                  -9.656
REMARK INTRA:                  -0.965
REMARK UNBOUND:                -1.006
REMARK SMILES CCCCCCC=CCCCCCCCC(=O)[O-]
REMARK SMILES IDX 10 1 11 2 12 3 13 4 14 5 15 6 16 7 17 8 18 9 9 10 8 11 7 12
REMARK SMILES IDX 6 13 5 14 4 15 3 16 2 17 1 18
REMARK H PARENT
REMARK Flexibility Score: inf
ROOT
ATOM      1  C   UNL     1     -10.115 -67.240 -32.136  1.00  0.00     0.004 C 
ENDROOT
BRANCH   1   2
ATOM      2  C   UNL     1      -8.861 -66.737 -31.398  1.00  0.00     0.000 C 
BRANCH   2   3
ATOM      3  C   UNL     1      -8.596 -67.397 -30.029  1.00  0.00     0.000 C 
BRANCH   3   4
ATOM      4  C   UNL     1      -7.656 -66.611 -29.098  1.00  0.00     0.000 C 
BRANCH   4   5
ATOM      5  C   UNL     1      -7.949 -66.857 -27.608  1.00  0.00     0.006 C 
BRANCH   5   6
ATOM      6  C   UNL     1      -9.033 -67.921 -27.400  1.00  0.00     0.053 C 
BRANCH   6   7
ATOM      7  C   UNL     1      -9.680 -67.797 -26.054  1.00  0.00     0.041 C 
ATOM      8  O   UNL     1     -10.805 -68.318 -25.840  1.00  0.00    -0.550 OA
ATOM      9  O   UNL     1      -9.021 -67.135 -25.025  1.00  0.00    -0.550 OA
ENDBRANCH   6   7
ENDBRANCH   5   6
ENDBRANCH   4   5
ENDBRANCH   3   4
ENDBRANCH   2   3
ENDBRANCH   1   2
BRANCH   1  10
ATOM     10  C   UNL     1     -10.965 -66.099 -32.712  1.00  0.00     0.027 C 
BRANCH  10  11
ATOM     11  C   UNL     1     -12.428 -66.448 -32.688  1.00  0.00    -0.031 C 
ATOM     12  C   UNL     1     -13.326 -65.594 -32.180  1.00  0.00    -0.031 C 
BRANCH  12  13
ATOM     13  C   UNL     1     -14.795 -65.922 -32.140  1.00  0.00     0.027 C 
BRANCH  13  14
ATOM     14  C   UNL     1     -15.422 -65.973 -33.541  1.00  0.00     0.004 C 
BRANCH  14  15
ATOM     15  C   UNL     1     -16.186 -67.285 -33.786  1.00  0.00     0.000 C 
BRANCH  15  16
ATOM     16  C   UNL     1     -15.624 -68.092 -34.972  1.00  0.00    -0.000 C 
BRANCH  16  17
ATOM     17  C   UNL     1     -14.667 -67.311 -35.890  1.00  0.00    -0.003 C 
ATOM     18  C   UNL     1     -13.225 -67.811 -35.814  1.00  0.00     0.004 C 
ENDBRANCH  16  17
ENDBRANCH  15  16
ENDBRANCH  14  15
ENDBRANCH  13  14
ENDBRANCH  12  13
ENDBRANCH  10  11
ENDBRANCH   1  10
TORSDOF 13
ENDMDL
MODEL 8
REMARK VINA RESULT:    -5.425      3.187      6.000
REMARK INTER + INTRA:         -10.555
REMARK INTER:                  -9.923
REMARK INTRA:                  -0.631
REMARK UNBOUND:                -1.006
REMARK SMILES CCCCCCC=CCCCCCCCC(=O)[O-]
REMARK SMILES IDX 10 1 11 2 12 3 13 4 14 5 15 6 16 7 17 8 18 9 9 10 8 11 7 12
REMARK SMILES IDX 6 13 5 14 4 15 3 16 2 17 1 18
REMARK H PARENT
REMARK Flexibility Score: inf
ROOT
ATOM      1  C   UNL     1     -10.441 -67.297 -31.656  1.00  0.00     0.004 C 
ENDROOT
BRANCH   1   2
ATOM      2  C   UNL     1     -10.557 -66.364 -32.875  1.00  0.00     0.000 C 
BRANCH   2   3
ATOM      3  C   UNL     1     -11.841 -66.536 -33.713  1.00  0.00     0.000 C 
BRANCH   3   4
ATOM      4  C   UNL     1     -11.741 -67.562 -34.855  1.00  0.00     0.000 C 
BRANCH   4   5
ATOM      5  C   UNL     1     -12.837 -67.379 -35.919  1.00  0.00     0.006 C 
BRANCH   5   6
ATOM      6  C   UNL     1     -14.157 -68.043 -35.508  1.00  0.00     0.053 C 
BRANCH   6   7
ATOM      7  C   UNL     1     -15.254 -67.035 -35.341  1.00  0.00     0.041 C 
ATOM      8  O   UNL     1     -15.956 -66.690 -36.327  1.00  0.00    -0.550 OA
ATOM      9  O   UNL     1     -15.523 -66.504 -34.086  1.00  0.00    -0.550 OA
ENDBRANCH   6   7
ENDBRANCH   5   6
ENDBRANCH   4   5
ENDBRANCH   3   4
ENDBRANCH   2   3
ENDBRANCH   1   2
BRANCH   1  10
ATOM     10  C   UNL     1      -9.081 -67.192 -30.952  1.00  0.00     0.027 C 
BRANCH  10  11
ATOM     11  C   UNL     1      -9.069 -67.982 -29.672  1.00  0.00    -0.031 C 
ATOM     12  C   UNL     1     -10.187 -68.567 -29.220  1.00  0.00    -0.031 C 
BRANCH  12  13
ATOM     13  C   UNL     1     -10.203 -69.360 -27.940  1.00  0.00     0.027 C 
BRANCH  13  14
ATOM     14  C   UNL     1      -9.639 -68.564 -26.752  1.00  0.00     0.004 C 
BRANCH  14  15
ATOM     15  C   UNL     1     -10.705 -68.300 -25.676  1.00  0.00     0.000 C 
BRANCH  15  16
ATOM     16  C   UNL     1     -10.770 -66.822 -25.247  1.00  0.00    -0.000 C 
BRANCH  16  17
ATOM     17  C   UNL     1     -12.183 -66.303 -24.927  1.00  0.00    -0.003 C 
ATOM     18  C   UNL     1     -12.176 -64.955 -24.208  1.00  0.00     0.004 C 
ENDBRANCH  16  17
ENDBRANCH  15  16
ENDBRANCH  14  15
ENDBRANCH  13  14
ENDBRANCH  12  13
ENDBRANCH  10  11
ENDBRANCH   1  10
TORSDOF 13
ENDMDL
MODEL 9
REMARK VINA RESULT:    -5.425      5.578      8.238
REMARK INTER + INTRA:         -10.555
REMARK INTER:                  -9.963
REMARK INTRA:                  -0.592
REMARK UNBOUND:                -1.006
REMARK SMILES CCCCCCC=CCCCCCCCC(=O)[O-]
REMARK SMILES IDX 10 1 11 2 12 3 13 4 14 5 15 6 16 7 17 8 18 9 9 10 8 11 7 12
REMARK SMILES IDX 6 13 5 14 4 15 3 16 2 17 1 18
REMARK H PARENT
REMARK Flexibility Score: inf
ROOT
ATOM      1  C   UNL     1     -10.122 -68.658 -29.209  1.00  0.00     0.004 C 
ENDROOT
BRANCH   1   2
ATOM      2  C   UNL     1     -10.018 -68.958 -27.703  1.00  0.00     0.000 C 
BRANCH   2   3
ATOM      3  C   UNL     1      -9.744 -67.732 -26.808  1.00  0.00     0.000 C 
BRANCH   3   4
ATOM      4  C   UNL     1     -10.370 -67.798 -25.403  1.00  0.00     0.000 C 
BRANCH   4   5
ATOM      5  C   UNL     1     -11.353 -66.646 -25.134  1.00  0.00     0.006 C 
BRANCH   5   6
ATOM      6  C   UNL     1     -11.798 -66.597 -23.667  1.00  0.00     0.053 C 
BRANCH   6   7
ATOM      7  C   UNL     1     -13.237 -66.200 -23.539  1.00  0.00     0.041 C 
ATOM      8  O   UNL     1     -14.036 -66.392 -24.492  1.00  0.00    -0.550 OA
ATOM      9  O   UNL     1     -13.703 -65.650 -22.351  1.00  0.00    -0.550 OA
ENDBRANCH   6   7
ENDBRANCH   5   6
ENDBRANCH   4   5
ENDBRANCH   3   4
ENDBRANCH   2   3
ENDBRANCH   1   2
BRANCH   1  10
ATOM     10  C   UNL     1      -8.823 -68.085 -29.794  1.00  0.00     0.027 C 
BRANCH  10  11
ATOM     11  C   UNL     1      -9.089 -67.326 -31.065  1.00  0.00    -0.031 C 
ATOM     12  C   UNL     1     -10.335 -67.206 -31.542  1.00  0.00    -0.031 C 
BRANCH  12  13
ATOM     13  C   UNL     1     -10.626 -66.455 -32.815  1.00  0.00     0.027 C 
BRANCH  13  14
ATOM     14  C   UNL     1     -11.965 -66.867 -33.444  1.00  0.00     0.004 C 
BRANCH  14  15
ATOM     15  C   UNL     1     -11.806 -67.295 -34.913  1.00  0.00     0.000 C 
BRANCH  15  16
ATOM     16  C   UNL     1     -13.152 -67.603 -35.595  1.00  0.00    -0.000 C 
BRANCH  16  17
ATOM     17  C   UNL     1     -14.392 -67.085 -34.844  1.00  0.00    -0.003 C 
ATOM     18  C   UNL     1     -15.626 -67.963 -35.050  1.00  0.00     0.004 C 
ENDBRANCH  16  17
ENDBRANCH  15  16
ENDBRANCH  14  15
ENDBRANCH  13  14
ENDBRANCH  12  13
ENDBRANCH  10  11
ENDBRANCH   1  10
TORSDOF 13
ENDMDL
