MODEL 1
REMARK VINA RESULT:    -5.679      0.000      0.000
REMARK INTER + INTRA:         -19.440
REMARK INTER:                 -14.976
REMARK INTRA:                  -4.465
REMARK UNBOUND:                -4.465
REMARK SMILES CCCCCCCCCCCCCCCCCCCCCCCCCCCCCC(=O)[O-]
REMARK SMILES IDX 16 1 17 2 18 3 19 4 20 5 21 6 22 7 23 8 24 9 25 10 26 11
REMARK SMILES IDX 27 12 28 13 29 14 30 15 31 16 32 17 15 18 14 19 13 20 12 21
REMARK SMILES IDX 11 22 10 23 9 24 8 25 7 26 6 27 5 28 4 29 3 30 2 31 1 32
REMARK H PARENT
REMARK Flexibility Score: inf
ROOT
ATOM      1  C   UNL     1      20.860   1.167 -20.612  1.00  0.00     0.000 C 
ENDROOT
BRANCH   1   2
ATOM      2  C   UNL     1      20.154   0.446 -19.452  1.00  0.00     0.000 C 
BRANCH   2   3
ATOM      3  C   UNL     1      20.929  -0.798 -18.985  1.00  0.00     0.000 C 
BRANCH   3   4
ATOM      4  C   UNL     1      19.992  -1.964 -18.625  1.00  0.00     0.000 C 
BRANCH   4   5
ATOM      5  C   UNL     1      20.057  -2.345 -17.135  1.00  0.00     0.000 C 
BRANCH   5   6
ATOM      6  C   UNL     1      19.689  -1.211 -16.156  1.00  0.00     0.000 C 
BRANCH   6   7
ATOM      7  C   UNL     1      20.668  -1.012 -14.984  1.00  0.00     0.000 C 
BRANCH   7   8
ATOM      8  C   UNL     1      22.161  -1.099 -15.356  1.00  0.00     0.000 C 
BRANCH   8   9
ATOM      9  C   UNL     1      22.720   0.186 -16.005  1.00  0.00     0.000 C 
BRANCH   9  10
ATOM     10  C   UNL     1      22.786   1.370 -15.022  1.00  0.00     0.000 C 
BRANCH  10  11
ATOM     11  C   UNL     1      21.606   2.344 -15.183  1.00  0.00     0.000 C 
BRANCH  11  12
ATOM     12  C   UNL     1      21.227   2.678 -16.640  1.00  0.00     0.000 C 
BRANCH  12  13
ATOM     13  C   UNL     1      19.712   2.746 -16.924  1.00  0.00     0.006 C 
BRANCH  13  14
ATOM     14  C   UNL     1      18.833   2.797 -15.664  1.00  0.00     0.053 C 
BRANCH  14  15
ATOM     15  C   UNL     1      17.651   1.882 -15.765  1.00  0.00     0.041 C 
ATOM     16  O   UNL     1      16.817   2.024 -16.698  1.00  0.00    -0.550 OA
ATOM     17  O   UNL     1      17.469   0.874 -14.825  1.00  0.00    -0.550 OA
ENDBRANCH  14  15
ENDBRANCH  13  14
ENDBRANCH  12  13
ENDBRANCH  11  12
ENDBRANCH  10  11
ENDBRANCH   9  10
ENDBRANCH   8   9
ENDBRANCH   7   8
ENDBRANCH   6   7
ENDBRANCH   5   6
ENDBRANCH   4   5
ENDBRANCH   3   4
ENDBRANCH   2   3
ENDBRANCH   1   2
BRANCH   1  18
ATOM     18  C   UNL     1      19.943   1.380 -21.827  1.00  0.00     0.000 C 
BRANCH  18  19
ATOM     19  C   UNL     1      18.481   0.927 -21.630  1.00  0.00     0.000 C 
BRANCH  19  20
ATOM     20  C   UNL     1      17.511   1.312 -22.763  1.00  0.00     0.000 C 
BRANCH  20  21
ATOM     21  C   UNL     1      16.704   0.115 -23.291  1.00  0.00     0.000 C 
BRANCH  21  22
ATOM     22  C   UNL     1      16.050   0.392 -24.657  1.00  0.00     0.000 C 
BRANCH  22  23
ATOM     23  C   UNL     1      16.350   1.777 -25.258  1.00  0.00     0.000 C 
BRANCH  23  24
ATOM     24  C   UNL     1      17.238   1.707 -26.510  1.00  0.00    -0.000 C 
BRANCH  24  25
ATOM     25  C   UNL     1      17.409   0.255 -26.983  1.00  0.00    -0.000 C 
BRANCH  25  26
ATOM     26  C   UNL     1      18.846  -0.055 -27.437  1.00  0.00    -0.000 C 
BRANCH  26  27
ATOM     27  C   UNL     1      19.328  -1.440 -26.973  1.00  0.00    -0.000 C 
BRANCH  27  28
ATOM     28  C   UNL     1      19.110  -1.679 -25.468  1.00  0.00    -0.000 C 
BRANCH  28  29
ATOM     29  C   UNL     1      20.057  -0.895 -24.539  1.00  0.00    -0.000 C 
BRANCH  29  30
ATOM     30  C   UNL     1      21.529  -0.985 -24.976  1.00  0.00    -0.000 C 
BRANCH  30  31
ATOM     31  C   UNL     1      22.268   0.355 -24.835  1.00  0.00    -0.003 C 
ATOM     32  C   UNL     1      21.422   1.545 -25.290  1.00  0.00     0.004 C 
ENDBRANCH  30  31
ENDBRANCH  29  30
ENDBRANCH  28  29
ENDBRANCH  27  28
ENDBRANCH  26  27
ENDBRANCH  25  26
ENDBRANCH  24  25
ENDBRANCH  23  24
ENDBRANCH  22  23
ENDBRANCH  21  22
ENDBRANCH  20  21
ENDBRANCH  19  20
ENDBRANCH  18  19
ENDBRANCH   1  18
TORSDOF 28
ENDMDL
MODEL 2
REMARK VINA RESULT:    -5.321      2.913      9.529
REMARK INTER + INTRA:         -18.494
REMARK INTER:                 -14.147
REMARK INTRA:                  -4.348
REMARK UNBOUND:                -4.465
REMARK SMILES CCCCCCCCCCCCCCCCCCCCCCCCCCCCCC(=O)[O-]
REMARK SMILES IDX 16 1 17 2 18 3 19 4 20 5 21 6 22 7 23 8 24 9 25 10 26 11
REMARK SMILES IDX 27 12 28 13 29 14 30 15 31 16 32 17 15 18 14 19 13 20 12 21
REMARK SMILES IDX 11 22 10 23 9 24 8 25 7 26 6 27 5 28 4 29 3 30 2 31 1 32
REMARK H PARENT
REMARK Flexibility Score: inf
ROOT
ATOM      1  C   UNL     1      21.249   0.972 -19.197  1.00  0.00     0.000 C 
ENDROOT
BRANCH   1   2
ATOM      2  C   UNL     1      21.356   1.219 -20.710  1.00  0.00     0.000 C 
BRANCH   2   3
ATOM      3  C   UNL     1      20.239   0.509 -21.494  1.00  0.00     0.000 C 
BRANCH   3   4
ATOM      4  C   UNL     1      20.409   0.664 -23.014  1.00  0.00     0.000 C 
BRANCH   4   5
ATOM      5  C   UNL     1      19.619   1.855 -23.587  1.00  0.00     0.000 C 
BRANCH   5   6
ATOM      6  C   UNL     1      18.375   2.263 -22.771  1.00  0.00     0.000 C 
BRANCH   6   7
ATOM      7  C   UNL     1      17.032   1.743 -23.317  1.00  0.00     0.000 C 
BRANCH   7   8
ATOM      8  C   UNL     1      16.814   0.223 -23.179  1.00  0.00     0.000 C 
BRANCH   8   9
ATOM      9  C   UNL     1      16.319  -0.458 -24.473  1.00  0.00     0.000 C 
BRANCH   9  10
ATOM     10  C   UNL     1      16.146   0.532 -25.639  1.00  0.00     0.000 C 
BRANCH  10  11
ATOM     11  C   UNL     1      17.088   0.236 -26.819  1.00  0.00     0.000 C 
BRANCH  11  12
ATOM     12  C   UNL     1      18.583   0.498 -26.543  1.00  0.00     0.000 C 
BRANCH  12  13
ATOM     13  C   UNL     1      19.562  -0.362 -27.369  1.00  0.00     0.006 C 
BRANCH  13  14
ATOM     14  C   UNL     1      19.396  -1.877 -27.171  1.00  0.00     0.053 C 
BRANCH  14  15
ATOM     15  C   UNL     1      19.691  -2.296 -25.763  1.00  0.00     0.041 C 
ATOM     16  O   UNL     1      20.823  -2.068 -25.258  1.00  0.00    -0.550 OA
ATOM     17  O   UNL     1      18.718  -2.942 -25.010  1.00  0.00    -0.550 OA
ENDBRANCH  14  15
ENDBRANCH  13  14
ENDBRANCH  12  13
ENDBRANCH  11  12
ENDBRANCH  10  11
ENDBRANCH   9  10
ENDBRANCH   8   9
ENDBRANCH   7   8
ENDBRANCH   6   7
ENDBRANCH   5   6
ENDBRANCH   4   5
ENDBRANCH   3   4
ENDBRANCH   2   3
ENDBRANCH   1   2
BRANCH   1  18
ATOM     18  C   UNL     1      20.203   1.872 -18.518  1.00  0.00     0.000 C 
BRANCH  18  19
ATOM     19  C   UNL     1      18.972   1.132 -17.954  1.00  0.00     0.000 C 
BRANCH  19  20
ATOM     20  C   UNL     1      18.292   1.805 -16.747  1.00  0.00     0.000 C 
BRANCH  20  21
ATOM     21  C   UNL     1      18.359   0.951 -15.470  1.00  0.00     0.000 C 
BRANCH  21  22
ATOM     22  C   UNL     1      19.435   1.438 -14.482  1.00  0.00     0.000 C 
BRANCH  22  23
ATOM     23  C   UNL     1      20.128   2.757 -14.867  1.00  0.00     0.000 C 
BRANCH  23  24
ATOM     24  C   UNL     1      21.647   2.722 -14.644  1.00  0.00    -0.000 C 
BRANCH  24  25
ATOM     25  C   UNL     1      22.331   1.795 -15.661  1.00  0.00    -0.000 C 
BRANCH  25  26
ATOM     26  C   UNL     1      23.547   1.061 -15.069  1.00  0.00    -0.000 C 
BRANCH  26  27
ATOM     27  C   UNL     1      23.451  -0.466 -15.224  1.00  0.00    -0.000 C 
BRANCH  27  28
ATOM     28  C   UNL     1      22.008  -0.990 -15.120  1.00  0.00    -0.000 C 
BRANCH  28  29
ATOM     29  C   UNL     1      21.344  -1.344 -16.463  1.00  0.00    -0.000 C 
BRANCH  29  30
ATOM     30  C   UNL     1      20.011  -2.093 -16.291  1.00  0.00    -0.000 C 
BRANCH  30  31
ATOM     31  C   UNL     1      19.612  -2.881 -17.548  1.00  0.00    -0.003 C 
ATOM     32  C   UNL     1      20.143  -2.248 -18.835  1.00  0.00     0.004 C 
ENDBRANCH  30  31
ENDBRANCH  29  30
ENDBRANCH  28  29
ENDBRANCH  27  28
ENDBRANCH  26  27
ENDBRANCH  25  26
ENDBRANCH  24  25
ENDBRANCH  23  24
ENDBRANCH  22  23
ENDBRANCH  21  22
ENDBRANCH  20  21
ENDBRANCH  19  20
ENDBRANCH  18  19
ENDBRANCH   1  18
TORSDOF 28
ENDMDL
MODEL 3
REMARK VINA RESULT:    -5.291      3.039      5.156
REMARK INTER + INTRA:         -18.416
REMARK INTER:                 -14.618
REMARK INTRA:                  -3.798
REMARK UNBOUND:                -4.465
REMARK SMILES CCCCCCCCCCCCCCCCCCCCCCCCCCCCCC(=O)[O-]
REMARK SMILES IDX 16 1 17 2 18 3 19 4 20 5 21 6 22 7 23 8 24 9 25 10 26 11
REMARK SMILES IDX 27 12 28 13 29 14 30 15 31 16 32 17 15 18 14 19 13 20 12 21
REMARK SMILES IDX 11 22 10 23 9 24 8 25 7 26 6 27 5 28 4 29 3 30 2 31 1 32
REMARK H PARENT
REMARK Flexibility Score: inf
ROOT
ATOM      1  C   UNL     1      20.091  -1.367 -18.972  1.00  0.00     0.000 C 
ENDROOT
BRANCH   1   2
ATOM      2  C   UNL     1      19.707  -2.118 -17.686  1.00  0.00     0.000 C 
BRANCH   2   3
ATOM      3  C   UNL     1      20.633  -1.765 -16.510  1.00  0.00     0.000 C 
BRANCH   3   4
ATOM      4  C   UNL     1      19.852  -1.229 -15.298  1.00  0.00     0.000 C 
BRANCH   4   5
ATOM      5  C   UNL     1      19.240   0.160 -15.548  1.00  0.00     0.000 C 
BRANCH   5   6
ATOM      6  C   UNL     1      19.615   1.235 -14.507  1.00  0.00     0.000 C 
BRANCH   6   7
ATOM      7  C   UNL     1      20.243   2.517 -15.084  1.00  0.00     0.000 C 
BRANCH   7   8
ATOM      8  C   UNL     1      21.230   2.296 -16.247  1.00  0.00     0.000 C 
BRANCH   8   9
ATOM      9  C   UNL     1      22.697   2.630 -15.896  1.00  0.00     0.000 C 
BRANCH   9  10
ATOM     10  C   UNL     1      23.340   1.584 -14.967  1.00  0.00     0.000 C 
BRANCH  10  11
ATOM     11  C   UNL     1      23.400   0.182 -15.599  1.00  0.00     0.000 C 
BRANCH  11  12
ATOM     12  C   UNL     1      23.504  -0.983 -14.595  1.00  0.00     0.000 C 
BRANCH  12  13
ATOM     13  C   UNL     1      24.941  -1.395 -14.214  1.00  0.00     0.006 C 
BRANCH  13  14
ATOM     14  C   UNL     1      25.473  -0.729 -12.935  1.00  0.00     0.053 C 
BRANCH  14  15
ATOM     15  C   UNL     1      26.455  -1.602 -12.214  1.00  0.00     0.041 C 
ATOM     16  O   UNL     1      27.043  -2.533 -12.824  1.00  0.00    -0.550 OA
ATOM     17  O   UNL     1      26.716  -1.388 -10.865  1.00  0.00    -0.550 OA
ENDBRANCH  14  15
ENDBRANCH  13  14
ENDBRANCH  12  13
ENDBRANCH  11  12
ENDBRANCH  10  11
ENDBRANCH   9  10
ENDBRANCH   8   9
ENDBRANCH   7   8
ENDBRANCH   6   7
ENDBRANCH   5   6
ENDBRANCH   4   5
ENDBRANCH   3   4
ENDBRANCH   2   3
ENDBRANCH   1   2
BRANCH   1  18
ATOM     18  C   UNL     1      21.269  -0.399 -18.767  1.00  0.00     0.000 C 
BRANCH  18  19
ATOM     19  C   UNL     1      21.195   0.902 -19.594  1.00  0.00     0.000 C 
BRANCH  19  20
ATOM     20  C   UNL     1      19.944   1.052 -20.480  1.00  0.00     0.000 C 
BRANCH  20  21
ATOM     21  C   UNL     1      20.283   1.397 -21.939  1.00  0.00     0.000 C 
BRANCH  21  22
ATOM     22  C   UNL     1      20.394   0.151 -22.837  1.00  0.00     0.000 C 
BRANCH  22  23
ATOM     23  C   UNL     1      21.283   0.319 -24.083  1.00  0.00     0.000 C 
BRANCH  23  24
ATOM     24  C   UNL     1      21.137  -0.838 -25.082  1.00  0.00    -0.000 C 
BRANCH  24  25
ATOM     25  C   UNL     1      19.661  -1.214 -25.278  1.00  0.00    -0.000 C 
BRANCH  25  26
ATOM     26  C   UNL     1      19.305  -1.473 -26.752  1.00  0.00    -0.000 C 
BRANCH  26  27
ATOM     27  C   UNL     1      18.607  -0.273 -27.414  1.00  0.00    -0.000 C 
BRANCH  27  28
ATOM     28  C   UNL     1      18.284   0.857 -26.419  1.00  0.00    -0.000 C 
BRANCH  28  29
ATOM     29  C   UNL     1      16.902   1.512 -26.603  1.00  0.00    -0.000 C 
BRANCH  29  30
ATOM     30  C   UNL     1      16.039   1.450 -25.331  1.00  0.00    -0.000 C 
BRANCH  30  31
ATOM     31  C   UNL     1      16.876   1.554 -24.047  1.00  0.00    -0.003 C 
ATOM     32  C   UNL     1      16.644   0.379 -23.096  1.00  0.00     0.004 C 
ENDBRANCH  30  31
ENDBRANCH  29  30
ENDBRANCH  28  29
ENDBRANCH  27  28
ENDBRANCH  26  27
ENDBRANCH  25  26
ENDBRANCH  24  25
ENDBRANCH  23  24
ENDBRANCH  22  23
ENDBRANCH  21  22
ENDBRANCH  20  21
ENDBRANCH  19  20
ENDBRANCH  18  19
ENDBRANCH   1  18
TORSDOF 28
ENDMDL
MODEL 4
REMARK VINA RESULT:    -5.225      4.000     10.956
REMARK INTER + INTRA:         -18.241
REMARK INTER:                 -14.882
REMARK INTRA:                  -3.359
REMARK UNBOUND:                -4.465
REMARK SMILES CCCCCCCCCCCCCCCCCCCCCCCCCCCCCC(=O)[O-]
REMARK SMILES IDX 16 1 17 2 18 3 19 4 20 5 21 6 22 7 23 8 24 9 25 10 26 11
REMARK SMILES IDX 27 12 28 13 29 14 30 15 31 16 32 17 15 18 14 19 13 20 12 21
REMARK SMILES IDX 11 22 10 23 9 24 8 25 7 26 6 27 5 28 4 29 3 30 2 31 1 32
REMARK H PARENT
REMARK Flexibility Score: inf
ROOT
ATOM      1  C   UNL     1      20.763  -1.837 -16.134  1.00  0.00     0.000 C 
ENDROOT
BRANCH   1   2
ATOM      2  C   UNL     1      19.728  -2.218 -17.205  1.00  0.00     0.000 C 
BRANCH   2   3
ATOM      3  C   UNL     1      20.156  -1.765 -18.612  1.00  0.00     0.000 C 
BRANCH   3   4
ATOM      4  C   UNL     1      21.300  -0.739 -18.567  1.00  0.00     0.000 C 
BRANCH   4   5
ATOM      5  C   UNL     1      20.874   0.655 -19.062  1.00  0.00     0.000 C 
BRANCH   5   6
ATOM      6  C   UNL     1      19.731   0.657 -20.098  1.00  0.00     0.000 C 
BRANCH   6   7
ATOM      7  C   UNL     1      20.178   0.559 -21.568  1.00  0.00     0.000 C 
BRANCH   7   8
ATOM      8  C   UNL     1      19.066   0.187 -22.568  1.00  0.00     0.000 C 
BRANCH   8   9
ATOM      9  C   UNL     1      17.709   0.864 -22.275  1.00  0.00     0.000 C 
BRANCH   9  10
ATOM     10  C   UNL     1      16.588   0.381 -23.214  1.00  0.00     0.000 C 
BRANCH  10  11
ATOM     11  C   UNL     1      16.425   1.274 -24.457  1.00  0.00     0.000 C 
BRANCH  11  12
ATOM     12  C   UNL     1      16.407   0.523 -25.803  1.00  0.00     0.000 C 
BRANCH  12  13
ATOM     13  C   UNL     1      17.574   0.857 -26.755  1.00  0.00     0.006 C 
BRANCH  13  14
ATOM     14  C   UNL     1      18.940   0.325 -26.294  1.00  0.00     0.053 C 
BRANCH  14  15
ATOM     15  C   UNL     1      19.021  -1.168 -26.382  1.00  0.00     0.041 C 
ATOM     16  O   UNL     1      19.264  -1.852 -25.352  1.00  0.00    -0.550 OA
ATOM     17  O   UNL     1      18.833  -1.804 -27.603  1.00  0.00    -0.550 OA
ENDBRANCH  14  15
ENDBRANCH  13  14
ENDBRANCH  12  13
ENDBRANCH  11  12
ENDBRANCH  10  11
ENDBRANCH   9  10
ENDBRANCH   8   9
ENDBRANCH   7   8
ENDBRANCH   6   7
ENDBRANCH   5   6
ENDBRANCH   4   5
ENDBRANCH   3   4
ENDBRANCH   2   3
ENDBRANCH   1   2
BRANCH   1  18
ATOM     18  C   UNL     1      20.159  -1.010 -14.987  1.00  0.00     0.000 C 
BRANCH  18  19
ATOM     19  C   UNL     1      19.401   0.260 -15.427  1.00  0.00     0.000 C 
BRANCH  19  20
ATOM     20  C   UNL     1      20.038   1.593 -14.992  1.00  0.00     0.000 C 
BRANCH  20  21
ATOM     21  C   UNL     1      21.354   1.894 -15.727  1.00  0.00     0.000 C 
BRANCH  21  22
ATOM     22  C   UNL     1      22.438   2.472 -14.799  1.00  0.00     0.000 C 
BRANCH  22  23
ATOM     23  C   UNL     1      23.665   1.567 -14.583  1.00  0.00     0.000 C 
BRANCH  23  24
ATOM     24  C   UNL     1      23.589   0.256 -15.379  1.00  0.00    -0.000 C 
BRANCH  24  25
ATOM     25  C   UNL     1      24.056  -0.934 -14.526  1.00  0.00    -0.000 C 
BRANCH  25  26
ATOM     26  C   UNL     1      25.069  -0.526 -13.443  1.00  0.00    -0.000 C 
BRANCH  26  27
ATOM     27  C   UNL     1      26.261  -1.494 -13.351  1.00  0.00    -0.000 C 
BRANCH  27  28
ATOM     28  C   UNL     1      26.581  -1.916 -11.905  1.00  0.00    -0.000 C 
BRANCH  28  29
ATOM     29  C   UNL     1      25.781  -1.176 -10.818  1.00  0.00    -0.000 C 
BRANCH  29  30
ATOM     30  C   UNL     1      26.591  -0.956  -9.528  1.00  0.00    -0.000 C 
BRANCH  30  31
ATOM     31  C   UNL     1      27.954  -0.300  -9.794  1.00  0.00    -0.003 C 
ATOM     32  C   UNL     1      27.833   1.170 -10.197  1.00  0.00     0.004 C 
ENDBRANCH  30  31
ENDBRANCH  29  30
ENDBRANCH  28  29
ENDBRANCH  27  28
ENDBRANCH  26  27
ENDBRANCH  25  26
ENDBRANCH  24  25
ENDBRANCH  23  24
ENDBRANCH  22  23
ENDBRANCH  21  22
ENDBRANCH  20  21
ENDBRANCH  19  20
ENDBRANCH  18  19
ENDBRANCH   1  18
TORSDOF 28
ENDMDL
MODEL 5
REMARK VINA RESULT:    -5.169      2.795      4.357
REMARK INTER + INTRA:         -18.094
REMARK INTER:                 -13.308
REMARK INTRA:                  -4.786
REMARK UNBOUND:                -4.465
REMARK SMILES CCCCCCCCCCCCCCCCCCCCCCCCCCCCCC(=O)[O-]
REMARK SMILES IDX 16 1 17 2 18 3 19 4 20 5 21 6 22 7 23 8 24 9 25 10 26 11
REMARK SMILES IDX 27 12 28 13 29 14 30 15 31 16 32 17 15 18 14 19 13 20 12 21
REMARK SMILES IDX 11 22 10 23 9 24 8 25 7 26 6 27 5 28 4 29 3 30 2 31 1 32
REMARK H PARENT
REMARK Flexibility Score: inf
ROOT
ATOM      1  C   UNL     1      20.510   0.114 -20.100  1.00  0.00     0.000 C 
ENDROOT
BRANCH   1   2
ATOM      2  C   UNL     1      19.897   1.048 -19.043  1.00  0.00     0.000 C 
BRANCH   2   3
ATOM      3  C   UNL     1      20.944   1.988 -18.423  1.00  0.00     0.000 C 
BRANCH   3   4
ATOM      4  C   UNL     1      20.325   2.947 -17.393  1.00  0.00     0.000 C 
BRANCH   4   5
ATOM      5  C   UNL     1      21.075   2.947 -16.049  1.00  0.00     0.000 C 
BRANCH   5   6
ATOM      6  C   UNL     1      20.339   2.241 -14.891  1.00  0.00     0.000 C 
BRANCH   6   7
ATOM      7  C   UNL     1      18.963   1.651 -15.251  1.00  0.00     0.000 C 
BRANCH   7   8
ATOM      8  C   UNL     1      18.957   0.140 -15.554  1.00  0.00     0.000 C 
BRANCH   8   9
ATOM      9  C   UNL     1      20.254  -0.587 -15.137  1.00  0.00     0.000 C 
BRANCH   9  10
ATOM     10  C   UNL     1      20.893  -1.377 -16.294  1.00  0.00     0.000 C 
BRANCH  10  11
ATOM     11  C   UNL     1      22.333  -0.928 -16.599  1.00  0.00     0.000 C 
BRANCH  11  12
ATOM     12  C   UNL     1      23.031  -0.152 -15.463  1.00  0.00     0.000 C 
BRANCH  12  13
ATOM     13  C   UNL     1      23.968  -0.995 -14.573  1.00  0.00     0.006 C 
BRANCH  13  14
ATOM     14  C   UNL     1      25.003  -0.175 -13.788  1.00  0.00     0.053 C 
BRANCH  14  15
ATOM     15  C   UNL     1      25.822  -1.033 -12.872  1.00  0.00     0.041 C 
ATOM     16  O   UNL     1      25.769  -0.860 -11.625  1.00  0.00    -0.550 OA
ATOM     17  O   UNL     1      26.647  -2.020 -13.396  1.00  0.00    -0.550 OA
ENDBRANCH  14  15
ENDBRANCH  13  14
ENDBRANCH  12  13
ENDBRANCH  11  12
ENDBRANCH  10  11
ENDBRANCH   9  10
ENDBRANCH   8   9
ENDBRANCH   7   8
ENDBRANCH   6   7
ENDBRANCH   5   6
ENDBRANCH   4   5
ENDBRANCH   3   4
ENDBRANCH   2   3
ENDBRANCH   1   2
BRANCH   1  18
ATOM     18  C   UNL     1      20.072   0.464 -21.532  1.00  0.00     0.000 C 
BRANCH  18  19
ATOM     19  C   UNL     1      18.714   1.188 -21.640  1.00  0.00     0.000 C 
BRANCH  19  20
ATOM     20  C   UNL     1      18.674   2.374 -22.622  1.00  0.00     0.000 C 
BRANCH  20  21
ATOM     21  C   UNL     1      19.611   2.185 -23.826  1.00  0.00     0.000 C 
BRANCH  21  22
ATOM     22  C   UNL     1      18.905   2.417 -25.175  1.00  0.00     0.000 C 
BRANCH  22  23
ATOM     23  C   UNL     1      17.367   2.444 -25.113  1.00  0.00     0.000 C 
BRANCH  23  24
ATOM     24  C   UNL     1      16.709   1.593 -26.208  1.00  0.00    -0.000 C 
BRANCH  24  25
ATOM     25  C   UNL     1      15.886   0.449 -25.597  1.00  0.00    -0.000 C 
BRANCH  25  26
ATOM     26  C   UNL     1      16.416   0.006 -24.222  1.00  0.00    -0.000 C 
BRANCH  26  27
ATOM     27  C   UNL     1      17.071  -1.385 -24.260  1.00  0.00    -0.000 C 
BRANCH  27  28
ATOM     28  C   UNL     1      18.600  -1.323 -24.429  1.00  0.00    -0.000 C 
BRANCH  28  29
ATOM     29  C   UNL     1      19.095  -1.320 -25.887  1.00  0.00    -0.000 C 
BRANCH  29  30
ATOM     30  C   UNL     1      20.578  -0.927 -26.012  1.00  0.00    -0.000 C 
BRANCH  30  31
ATOM     31  C   UNL     1      21.242  -0.691 -24.647  1.00  0.00    -0.003 C 
ATOM     32  C   UNL     1      22.758  -0.520 -24.750  1.00  0.00     0.004 C 
ENDBRANCH  30  31
ENDBRANCH  29  30
ENDBRANCH  28  29
ENDBRANCH  27  28
ENDBRANCH  26  27
ENDBRANCH  25  26
ENDBRANCH  24  25
ENDBRANCH  23  24
ENDBRANCH  22  23
ENDBRANCH  21  22
ENDBRANCH  20  21
ENDBRANCH  19  20
ENDBRANCH  18  19
ENDBRANCH   1  18
TORSDOF 28
ENDMDL
MODEL 6
REMARK VINA RESULT:    -5.151      3.567     10.645
REMARK INTER + INTRA:         -18.047
REMARK INTER:                 -15.007
REMARK INTRA:                  -3.040
REMARK UNBOUND:                -4.465
REMARK SMILES CCCCCCCCCCCCCCCCCCCCCCCCCCCCCC(=O)[O-]
REMARK SMILES IDX 16 1 17 2 18 3 19 4 20 5 21 6 22 7 23 8 24 9 25 10 26 11
REMARK SMILES IDX 27 12 28 13 29 14 30 15 31 16 32 17 15 18 14 19 13 20 12 21
REMARK SMILES IDX 11 22 10 23 9 24 8 25 7 26 6 27 5 28 4 29 3 30 2 31 1 32
REMARK H PARENT
REMARK Flexibility Score: inf
ROOT
ATOM      1  C   UNL     1      20.893  -1.225 -18.758  1.00  0.00     0.000 C 
ENDROOT
BRANCH   1   2
ATOM      2  C   UNL     1      20.259   0.060 -19.317  1.00  0.00     0.000 C 
BRANCH   2   3
ATOM      3  C   UNL     1      21.173   0.760 -20.337  1.00  0.00     0.000 C 
BRANCH   3   4
ATOM      4  C   UNL     1      20.406   1.776 -21.200  1.00  0.00     0.000 C 
BRANCH   4   5
ATOM      5  C   UNL     1      19.301   1.124 -22.051  1.00  0.00     0.000 C 
BRANCH   5   6
ATOM      6  C   UNL     1      18.360   2.115 -22.766  1.00  0.00     0.000 C 
BRANCH   6   7
ATOM      7  C   UNL     1      16.913   1.624 -22.957  1.00  0.00     0.000 C 
BRANCH   7   8
ATOM      8  C   UNL     1      16.774   0.166 -23.437  1.00  0.00     0.000 C 
BRANCH   8   9
ATOM      9  C   UNL     1      15.958   0.011 -24.740  1.00  0.00     0.000 C 
BRANCH   9  10
ATOM     10  C   UNL     1      16.077   1.236 -25.666  1.00  0.00     0.000 C 
BRANCH  10  11
ATOM     11  C   UNL     1      17.350   1.209 -26.529  1.00  0.00     0.000 C 
BRANCH  11  12
ATOM     12  C   UNL     1      18.150  -0.108 -26.475  1.00  0.00     0.000 C 
BRANCH  12  13
ATOM     13  C   UNL     1      19.572   0.013 -25.888  1.00  0.00     0.006 C 
BRANCH  13  14
ATOM     14  C   UNL     1      20.003  -1.181 -25.021  1.00  0.00     0.053 C 
BRANCH  14  15
ATOM     15  C   UNL     1      19.210  -2.414 -25.327  1.00  0.00     0.041 C 
ATOM     16  O   UNL     1      18.270  -2.769 -24.567  1.00  0.00    -0.550 OA
ATOM     17  O   UNL     1      19.511  -3.173 -26.452  1.00  0.00    -0.550 OA
ENDBRANCH  14  15
ENDBRANCH  13  14
ENDBRANCH  12  13
ENDBRANCH  11  12
ENDBRANCH  10  11
ENDBRANCH   9  10
ENDBRANCH   8   9
ENDBRANCH   7   8
ENDBRANCH   6   7
ENDBRANCH   5   6
ENDBRANCH   4   5
ENDBRANCH   3   4
ENDBRANCH   2   3
ENDBRANCH   1   2
BRANCH   1  18
ATOM     18  C   UNL     1      19.848  -2.249 -18.286  1.00  0.00     0.000 C 
BRANCH  18  19
ATOM     19  C   UNL     1      19.800  -2.479 -16.761  1.00  0.00     0.000 C 
BRANCH  19  20
ATOM     20  C   UNL     1      20.631  -1.492 -15.918  1.00  0.00     0.000 C 
BRANCH  20  21
ATOM     21  C   UNL     1      19.768  -0.429 -15.220  1.00  0.00     0.000 C 
BRANCH  21  22
ATOM     22  C   UNL     1      20.181   1.009 -15.584  1.00  0.00     0.000 C 
BRANCH  22  23
ATOM     23  C   UNL     1      21.625   1.166 -16.093  1.00  0.00     0.000 C 
BRANCH  23  24
ATOM     24  C   UNL     1      22.483   2.066 -15.191  1.00  0.00    -0.000 C 
BRANCH  24  25
ATOM     25  C   UNL     1      23.838   1.410 -14.888  1.00  0.00    -0.000 C 
BRANCH  25  26
ATOM     26  C   UNL     1      23.814  -0.117 -15.076  1.00  0.00    -0.000 C 
BRANCH  26  27
ATOM     27  C   UNL     1      24.666  -0.857 -14.031  1.00  0.00    -0.000 C 
BRANCH  27  28
ATOM     28  C   UNL     1      25.580   0.084 -13.226  1.00  0.00    -0.000 C 
BRANCH  28  29
ATOM     29  C   UNL     1      26.836  -0.580 -12.630  1.00  0.00    -0.000 C 
BRANCH  29  30
ATOM     30  C   UNL     1      26.503  -1.768 -11.712  1.00  0.00    -0.000 C 
BRANCH  30  31
ATOM     31  C   UNL     1      26.514  -1.384 -10.224  1.00  0.00    -0.003 C 
ATOM     32  C   UNL     1      25.270  -1.871  -9.480  1.00  0.00     0.004 C 
ENDBRANCH  30  31
ENDBRANCH  29  30
ENDBRANCH  28  29
ENDBRANCH  27  28
ENDBRANCH  26  27
ENDBRANCH  25  26
ENDBRANCH  24  25
ENDBRANCH  23  24
ENDBRANCH  22  23
ENDBRANCH  21  22
ENDBRANCH  20  21
ENDBRANCH  19  20
ENDBRANCH  18  19
ENDBRANCH   1  18
TORSDOF 28
ENDMDL
MODEL 7
REMARK VINA RESULT:    -5.107      3.128      5.114
REMARK INTER + INTRA:         -17.932
REMARK INTER:                 -13.938
REMARK INTRA:                  -3.994
REMARK UNBOUND:                -4.465
REMARK SMILES CCCCCCCCCCCCCCCCCCCCCCCCCCCCCC(=O)[O-]
REMARK SMILES IDX 16 1 17 2 18 3 19 4 20 5 21 6 22 7 23 8 24 9 25 10 26 11
REMARK SMILES IDX 27 12 28 13 29 14 30 15 31 16 32 17 15 18 14 19 13 20 12 21
REMARK SMILES IDX 11 22 10 23 9 24 8 25 7 26 6 27 5 28 4 29 3 30 2 31 1 32
REMARK H PARENT
REMARK Flexibility Score: inf
ROOT
ATOM      1  C   UNL     1      20.456  -1.957 -18.581  1.00  0.00     0.000 C 
ENDROOT
BRANCH   1   2
ATOM      2  C   UNL     1      21.046  -1.404 -17.273  1.00  0.00     0.000 C 
BRANCH   2   3
ATOM      3  C   UNL     1      20.219  -1.818 -16.044  1.00  0.00     0.000 C 
BRANCH   3   4
ATOM      4  C   UNL     1      19.960  -0.636 -15.095  1.00  0.00     0.000 C 
BRANCH   4   5
ATOM      5  C   UNL     1      18.947   0.375 -15.662  1.00  0.00     0.000 C 
BRANCH   5   6
ATOM      6  C   UNL     1      19.204   1.845 -15.270  1.00  0.00     0.000 C 
BRANCH   6   7
ATOM      7  C   UNL     1      20.633   2.155 -14.786  1.00  0.00     0.000 C 
BRANCH   7   8
ATOM      8  C   UNL     1      21.597   2.664 -15.875  1.00  0.00     0.000 C 
BRANCH   8   9
ATOM      9  C   UNL     1      22.667   1.633 -16.296  1.00  0.00     0.000 C 
BRANCH   9  10
ATOM     10  C   UNL     1      23.567   1.196 -15.126  1.00  0.00     0.000 C 
BRANCH  10  11
ATOM     11  C   UNL     1      23.669  -0.333 -14.990  1.00  0.00     0.000 C 
BRANCH  11  12
ATOM     12  C   UNL     1      24.782  -0.833 -14.047  1.00  0.00     0.000 C 
BRANCH  12  13
ATOM     13  C   UNL     1      25.379   0.239 -13.112  1.00  0.00     0.006 C 
BRANCH  13  14
ATOM     14  C   UNL     1      26.681  -0.183 -12.413  1.00  0.00     0.053 C 
BRANCH  14  15
ATOM     15  C   UNL     1      26.609  -1.585 -11.889  1.00  0.00     0.041 C 
ATOM     16  O   UNL     1      26.931  -2.555 -12.625  1.00  0.00    -0.550 OA
ATOM     17  O   UNL     1      26.180  -1.820 -10.588  1.00  0.00    -0.550 OA
ENDBRANCH  14  15
ENDBRANCH  13  14
ENDBRANCH  12  13
ENDBRANCH  11  12
ENDBRANCH  10  11
ENDBRANCH   9  10
ENDBRANCH   8   9
ENDBRANCH   7   8
ENDBRANCH   6   7
ENDBRANCH   5   6
ENDBRANCH   4   5
ENDBRANCH   3   4
ENDBRANCH   2   3
ENDBRANCH   1   2
BRANCH   1  18
ATOM     18  C   UNL     1      19.880  -0.856 -19.487  1.00  0.00     0.000 C 
BRANCH  18  19
ATOM     19  C   UNL     1      20.372   0.572 -19.174  1.00  0.00     0.000 C 
BRANCH  19  20
ATOM     20  C   UNL     1      21.342   1.178 -20.206  1.00  0.00     0.000 C 
BRANCH  20  21
ATOM     21  C   UNL     1      20.890   0.947 -21.657  1.00  0.00     0.000 C 
BRANCH  21  22
ATOM     22  C   UNL     1      20.361   2.227 -22.329  1.00  0.00     0.000 C 
BRANCH  22  23
ATOM     23  C   UNL     1      18.906   2.153 -22.824  1.00  0.00     0.000 C 
BRANCH  23  24
ATOM     24  C   UNL     1      18.031   1.221 -21.973  1.00  0.00    -0.000 C 
BRANCH  24  25
ATOM     25  C   UNL     1      16.765   0.803 -22.738  1.00  0.00    -0.000 C 
BRANCH  25  26
ATOM     26  C   UNL     1      17.050  -0.243 -23.829  1.00  0.00    -0.000 C 
BRANCH  26  27
ATOM     27  C   UNL     1      16.038  -0.183 -24.986  1.00  0.00    -0.000 C 
BRANCH  27  28
ATOM     28  C   UNL     1      16.692   0.150 -26.339  1.00  0.00    -0.000 C 
BRANCH  28  29
ATOM     29  C   UNL     1      18.012   0.939 -26.250  1.00  0.00    -0.000 C 
BRANCH  29  30
ATOM     30  C   UNL     1      19.239   0.093 -26.629  1.00  0.00    -0.000 C 
BRANCH  30  31
ATOM     31  C   UNL     1      20.439   0.348 -25.705  1.00  0.00    -0.003 C 
ATOM     32  C   UNL     1      20.893  -0.912 -24.966  1.00  0.00     0.004 C 
ENDBRANCH  30  31
ENDBRANCH  29  30
ENDBRANCH  28  29
ENDBRANCH  27  28
ENDBRANCH  26  27
ENDBRANCH  25  26
ENDBRANCH  24  25
ENDBRANCH  23  24
ENDBRANCH  22  23
ENDBRANCH  21  22
ENDBRANCH  20  21
ENDBRANCH  19  20
ENDBRANCH  18  19
ENDBRANCH   1  18
TORSDOF 28
ENDMDL
MODEL 8
REMARK VINA RESULT:    -5.105      1.834      5.038
REMARK INTER + INTRA:         -17.926
REMARK INTER:                 -12.785
REMARK INTRA:                  -5.141
REMARK UNBOUND:                -4.465
REMARK SMILES CCCCCCCCCCCCCCCCCCCCCCCCCCCCCC(=O)[O-]
REMARK SMILES IDX 16 1 17 2 18 3 19 4 20 5 21 6 22 7 23 8 24 9 25 10 26 11
REMARK SMILES IDX 27 12 28 13 29 14 30 15 31 16 32 17 15 18 14 19 13 20 12 21
REMARK SMILES IDX 11 22 10 23 9 24 8 25 7 26 6 27 5 28 4 29 3 30 2 31 1 32
REMARK H PARENT
REMARK Flexibility Score: inf
ROOT
ATOM      1  C   UNL     1      22.331  -0.623 -24.628  1.00  0.00     0.000 C 
ENDROOT
BRANCH   1   2
ATOM      2  C   UNL     1      23.323   0.226 -25.439  1.00  0.00     0.000 C 
BRANCH   2   3
ATOM      3  C   UNL     1      24.557   0.625 -24.611  1.00  0.00     0.000 C 
BRANCH   3   4
ATOM      4  C   UNL     1      24.711   2.151 -24.500  1.00  0.00     0.000 C 
BRANCH   4   5
ATOM      5  C   UNL     1      23.832   2.762 -23.394  1.00  0.00     0.000 C 
BRANCH   5   6
ATOM      6  C   UNL     1      23.601   1.853 -22.169  1.00  0.00     0.000 C 
BRANCH   6   7
ATOM      7  C   UNL     1      22.387   2.223 -21.297  1.00  0.00     0.000 C 
BRANCH   7   8
ATOM      8  C   UNL     1      21.535   1.030 -20.820  1.00  0.00     0.000 C 
BRANCH   8   9
ATOM      9  C   UNL     1      20.541   1.383 -19.692  1.00  0.00     0.000 C 
BRANCH   9  10
ATOM     10  C   UNL     1      19.733   0.165 -19.209  1.00  0.00     0.000 C 
BRANCH  10  11
ATOM     11  C   UNL     1      20.615  -1.067 -18.938  1.00  0.00     0.000 C 
BRANCH  11  12
ATOM     12  C   UNL     1      19.933  -2.198 -18.142  1.00  0.00     0.000 C 
BRANCH  12  13
ATOM     13  C   UNL     1      19.900  -1.996 -16.613  1.00  0.00     0.006 C 
BRANCH  13  14
ATOM     14  C   UNL     1      21.167  -1.348 -16.032  1.00  0.00     0.053 C 
BRANCH  14  15
ATOM     15  C   UNL     1      20.869  -0.050 -15.345  1.00  0.00     0.041 C 
ATOM     16  O   UNL     1      21.636   0.938 -15.497  1.00  0.00    -0.550 OA
ATOM     17  O   UNL     1      19.747   0.067 -14.533  1.00  0.00    -0.550 OA
ENDBRANCH  14  15
ENDBRANCH  13  14
ENDBRANCH  12  13
ENDBRANCH  11  12
ENDBRANCH  10  11
ENDBRANCH   9  10
ENDBRANCH   8   9
ENDBRANCH   7   8
ENDBRANCH   6   7
ENDBRANCH   5   6
ENDBRANCH   4   5
ENDBRANCH   3   4
ENDBRANCH   2   3
ENDBRANCH   1   2
BRANCH   1  18
ATOM     18  C   UNL     1      21.052   0.145 -24.258  1.00  0.00     0.000 C 
BRANCH  18  19
ATOM     19  C   UNL     1      20.692   1.309 -25.206  1.00  0.00     0.000 C 
BRANCH  19  20
ATOM     20  C   UNL     1      20.426   2.662 -24.520  1.00  0.00     0.000 C 
BRANCH  20  21
ATOM     21  C   UNL     1      18.947   2.867 -24.155  1.00  0.00     0.000 C 
BRANCH  21  22
ATOM     22  C   UNL     1      18.625   2.442 -22.710  1.00  0.00     0.000 C 
BRANCH  22  23
ATOM     23  C   UNL     1      17.372   1.561 -22.552  1.00  0.00     0.000 C 
BRANCH  23  24
ATOM     24  C   UNL     1      17.576   0.131 -23.073  1.00  0.00    -0.000 C 
BRANCH  24  25
ATOM     25  C   UNL     1      16.413  -0.296 -23.980  1.00  0.00    -0.000 C 
BRANCH  25  26
ATOM     26  C   UNL     1      16.141   0.712 -25.110  1.00  0.00    -0.000 C 
BRANCH  26  27
ATOM     27  C   UNL     1      16.422   0.130 -26.506  1.00  0.00    -0.000 C 
BRANCH  27  28
ATOM     28  C   UNL     1      17.860   0.395 -26.988  1.00  0.00    -0.000 C 
BRANCH  28  29
ATOM     29  C   UNL     1      18.418  -0.644 -27.978  1.00  0.00    -0.000 C 
BRANCH  29  30
ATOM     30  C   UNL     1      19.563  -1.481 -27.381  1.00  0.00    -0.000 C 
BRANCH  30  31
ATOM     31  C   UNL     1      19.163  -2.176 -26.071  1.00  0.00    -0.003 C 
ATOM     32  C   UNL     1      20.050  -3.380 -25.747  1.00  0.00     0.004 C 
ENDBRANCH  30  31
ENDBRANCH  29  30
ENDBRANCH  28  29
ENDBRANCH  27  28
ENDBRANCH  26  27
ENDBRANCH  25  26
ENDBRANCH  24  25
ENDBRANCH  23  24
ENDBRANCH  22  23
ENDBRANCH  21  22
ENDBRANCH  20  21
ENDBRANCH  19  20
ENDBRANCH  18  19
ENDBRANCH   1  18
TORSDOF 28
ENDMDL
MODEL 9
REMARK VINA RESULT:    -5.094      3.410     10.316
REMARK INTER + INTRA:         -17.897
REMARK INTER:                 -14.163
REMARK INTRA:                  -3.734
REMARK UNBOUND:                -4.465
REMARK SMILES CCCCCCCCCCCCCCCCCCCCCCCCCCCCCC(=O)[O-]
REMARK SMILES IDX 16 1 17 2 18 3 19 4 20 5 21 6 22 7 23 8 24 9 25 10 26 11
REMARK SMILES IDX 27 12 28 13 29 14 30 15 31 16 32 17 15 18 14 19 13 20 12 21
REMARK SMILES IDX 11 22 10 23 9 24 8 25 7 26 6 27 5 28 4 29 3 30 2 31 1 32
REMARK H PARENT
REMARK Flexibility Score: inf
ROOT
ATOM      1  C   UNL     1      21.309  -1.210 -17.711  1.00  0.00     0.000 C 
ENDROOT
BRANCH   1   2
ATOM      2  C   UNL     1      20.142  -1.098 -18.706  1.00  0.00     0.000 C 
BRANCH   2   3
ATOM      3  C   UNL     1      20.057   0.299 -19.344  1.00  0.00     0.000 C 
BRANCH   3   4
ATOM      4  C   UNL     1      19.770   0.231 -20.853  1.00  0.00     0.000 C 
BRANCH   4   5
ATOM      5  C   UNL     1      20.905   0.826 -21.705  1.00  0.00     0.000 C 
BRANCH   5   6
ATOM      6  C   UNL     1      20.504   1.219 -23.142  1.00  0.00     0.000 C 
BRANCH   6   7
ATOM      7  C   UNL     1      21.077   0.320 -24.253  1.00  0.00     0.000 C 
BRANCH   7   8
ATOM      8  C   UNL     1      20.361   0.422 -25.614  1.00  0.00     0.000 C 
BRANCH   8   9
ATOM      9  C   UNL     1      19.335  -0.705 -25.867  1.00  0.00     0.000 C 
BRANCH   9  10
ATOM     10  C   UNL     1      19.327  -1.765 -24.751  1.00  0.00     0.000 C 
BRANCH  10  11
ATOM     11  C   UNL     1      18.136  -1.612 -23.790  1.00  0.00     0.000 C 
BRANCH  11  12
ATOM     12  C   UNL     1      16.871  -0.984 -24.410  1.00  0.00     0.000 C 
BRANCH  12  13
ATOM     13  C   UNL     1      16.377   0.307 -23.725  1.00  0.00     0.006 C 
BRANCH  13  14
ATOM     14  C   UNL     1      16.960   1.601 -24.315  1.00  0.00     0.053 C 
BRANCH  14  15
ATOM     15  C   UNL     1      16.321   1.960 -25.622  1.00  0.00     0.041 C 
ATOM     16  O   UNL     1      15.195   2.523 -25.644  1.00  0.00    -0.550 OA
ATOM     17  O   UNL     1      16.969   1.667 -26.817  1.00  0.00    -0.550 OA
ENDBRANCH  14  15
ENDBRANCH  13  14
ENDBRANCH  12  13
ENDBRANCH  11  12
ENDBRANCH  10  11
ENDBRANCH   9  10
ENDBRANCH   8   9
ENDBRANCH   7   8
ENDBRANCH   6   7
ENDBRANCH   5   6
ENDBRANCH   4   5
ENDBRANCH   3   4
ENDBRANCH   2   3
ENDBRANCH   1   2
BRANCH   1  18
ATOM     18  C   UNL     1      20.881  -1.791 -16.354  1.00  0.00     0.000 C 
BRANCH  18  19
ATOM     19  C   UNL     1      19.713  -1.052 -15.666  1.00  0.00     0.000 C 
BRANCH  19  20
ATOM     20  C   UNL     1      20.106   0.203 -14.865  1.00  0.00     0.000 C 
BRANCH  20  21
ATOM     21  C   UNL     1      19.613   1.506 -15.515  1.00  0.00     0.000 C 
BRANCH  21  22
ATOM     22  C   UNL     1      20.738   2.538 -15.712  1.00  0.00     0.000 C 
BRANCH  22  23
ATOM     23  C   UNL     1      22.140   1.943 -15.935  1.00  0.00     0.000 C 
BRANCH  23  24
ATOM     24  C   UNL     1      23.196   2.527 -14.985  1.00  0.00    -0.000 C 
BRANCH  24  25
ATOM     25  C   UNL     1      24.308   1.505 -14.702  1.00  0.00    -0.000 C 
BRANCH  25  26
ATOM     26  C   UNL     1      23.876   0.060 -15.008  1.00  0.00    -0.000 C 
BRANCH  26  27
ATOM     27  C   UNL     1      24.229  -0.917 -13.873  1.00  0.00    -0.000 C 
BRANCH  27  28
ATOM     28  C   UNL     1      25.384  -1.867 -14.236  1.00  0.00    -0.000 C 
BRANCH  28  29
ATOM     29  C   UNL     1      26.463  -2.026 -13.148  1.00  0.00    -0.000 C 
BRANCH  29  30
ATOM     30  C   UNL     1      26.559  -0.803 -12.219  1.00  0.00    -0.000 C 
BRANCH  30  31
ATOM     31  C   UNL     1      26.786  -1.195 -10.752  1.00  0.00    -0.003 C 
ATOM     32  C   UNL     1      25.524  -1.747 -10.086  1.00  0.00     0.004 C 
ENDBRANCH  30  31
ENDBRANCH  29  30
ENDBRANCH  28  29
ENDBRANCH  27  28
ENDBRANCH  26  27
ENDBRANCH  25  26
ENDBRANCH  24  25
ENDBRANCH  23  24
ENDBRANCH  22  23
ENDBRANCH  21  22
ENDBRANCH  20  21
ENDBRANCH  19  20
ENDBRANCH  18  19
ENDBRANCH   1  18
TORSDOF 28
ENDMDL
