MODEL 1
REMARK VINA RESULT:    -4.845      0.000      0.000
REMARK INTER + INTRA:          -7.300
REMARK INTER:                  -6.544
REMARK INTRA:                  -0.756
REMARK UNBOUND:                -0.756
REMARK SMILES CC(=O)CCC=C(C)CCC=C(C)C
REMARK SMILES IDX 7 1 6 2 8 3 9 4 10 5 11 6 13 7 12 8 14 9 5 10 4 11 2 12 3 13
REMARK SMILES IDX 1 14
REMARK H PARENT
REMARK Flexibility Score: inf
ROOT
ATOM      1  C   UNL     1     -12.922   0.825  30.415  1.00  0.00    -0.077 C 
ATOM      2  C   UNL     1     -12.390   2.032  30.717  1.00  0.00    -0.028 C 
ATOM      3  C   UNL     1     -12.850  -0.340  31.373  1.00  0.00     0.039 C 
ENDROOT
BRANCH   1   4
ATOM      4  C   UNL     1     -13.594   0.638  29.071  1.00  0.00     0.034 C 
BRANCH   4   5
ATOM      5  C   UNL     1     -13.606   1.956  28.287  1.00  0.00     0.032 C 
BRANCH   5   6
ATOM      6  C   UNL     1     -14.998   2.308  27.822  1.00  0.00    -0.028 C 
ATOM      7  C   UNL     1     -14.773   4.652  28.655  1.00  0.00     0.039 C 
ATOM      8  C   UNL     1     -15.537   3.535  27.985  1.00  0.00    -0.080 C 
ATOM      9  C   UNL     1     -16.937   3.783  27.483  1.00  0.00     0.039 C 
ENDBRANCH   5   6
ENDBRANCH   4   5
ENDBRANCH   1   4
BRANCH   2  10
ATOM     10  C   UNL     1     -11.795   2.395  32.056  1.00  0.00     0.035 C 
BRANCH  10  11
ATOM     11  C   UNL     1     -10.690   3.451  31.912  1.00  0.00     0.079 C 
BRANCH  11  12
ATOM     12  C   UNL     1     -11.211   4.840  32.184  1.00  0.00     0.130 C 
ATOM     13  O   UNL     1     -11.170   5.288  33.319  1.00  0.00    -0.300 OA
ATOM     14  C   UNL     1     -11.774   5.689  31.082  1.00  0.00     0.087 C 
ENDBRANCH  11  12
ENDBRANCH  10  11
ENDBRANCH   2  10
TORSDOF 6
ENDMDL
MODEL 2
REMARK VINA RESULT:    -4.759      9.316     11.568
REMARK INTER + INTRA:          -7.184
REMARK INTER:                  -6.038
REMARK INTRA:                  -1.147
REMARK UNBOUND:                -0.756
REMARK SMILES CC(=O)CCC=C(C)CCC=C(C)C
REMARK SMILES IDX 7 1 6 2 8 3 9 4 10 5 11 6 13 7 12 8 14 9 5 10 4 11 2 12 3 13
REMARK SMILES IDX 1 14
REMARK H PARENT
REMARK Flexibility Score: inf
ROOT
ATOM      1  C   UNL     1      -1.247   2.410  29.678  1.00  0.00    -0.077 C 
ATOM      2  C   UNL     1      -1.936   1.864  30.707  1.00  0.00    -0.028 C 
ATOM      3  C   UNL     1      -1.705   3.677  28.996  1.00  0.00     0.039 C 
ENDROOT
BRANCH   1   4
ATOM      4  C   UNL     1       0.011   1.721  29.193  1.00  0.00     0.034 C 
BRANCH   4   5
ATOM      5  C   UNL     1      -0.297   0.283  28.757  1.00  0.00     0.032 C 
BRANCH   5   6
ATOM      6  C   UNL     1      -0.868   0.241  27.361  1.00  0.00    -0.028 C 
ATOM      7  C   UNL     1      -3.059  -0.622  28.194  1.00  0.00     0.039 C 
ATOM      8  C   UNL     1      -2.127  -0.170  27.095  1.00  0.00    -0.080 C 
ATOM      9  C   UNL     1      -2.601  -0.173  25.664  1.00  0.00     0.039 C 
ENDBRANCH   5   6
ENDBRANCH   4   5
ENDBRANCH   1   4
BRANCH   2  10
ATOM     10  C   UNL     1      -3.136   2.499  31.367  1.00  0.00     0.035 C 
BRANCH  10  11
ATOM     11  C   UNL     1      -4.433   1.765  31.002  1.00  0.00     0.079 C 
BRANCH  11  12
ATOM     12  C   UNL     1      -4.750   0.672  31.992  1.00  0.00     0.130 C 
ATOM     13  O   UNL     1      -4.773   0.928  33.185  1.00  0.00    -0.300 OA
ATOM     14  C   UNL     1      -5.045  -0.728  31.538  1.00  0.00     0.087 C 
ENDBRANCH  11  12
ENDBRANCH  10  11
ENDBRANCH   2  10
TORSDOF 6
ENDMDL
MODEL 3
REMARK VINA RESULT:    -4.721      8.935     10.995
REMARK INTER + INTRA:          -7.133
REMARK INTER:                  -6.127
REMARK INTRA:                  -1.006
REMARK UNBOUND:                -0.756
REMARK SMILES CC(=O)CCC=C(C)CCC=C(C)C
REMARK SMILES IDX 7 1 6 2 8 3 9 4 10 5 11 6 13 7 12 8 14 9 5 10 4 11 2 12 3 13
REMARK SMILES IDX 1 14
REMARK H PARENT
REMARK Flexibility Score: inf
ROOT
ATOM      1  C   UNL     1      -2.435   0.542  30.194  1.00  0.00    -0.077 C 
ATOM      2  C   UNL     1      -3.464  -0.336  30.225  1.00  0.00    -0.028 C 
ATOM      3  C   UNL     1      -2.654   2.031  30.322  1.00  0.00     0.039 C 
ENDROOT
BRANCH   1   4
ATOM      4  C   UNL     1      -1.028   0.014  30.011  1.00  0.00     0.034 C 
BRANCH   4   5
ATOM      5  C   UNL     1      -0.443   0.491  28.676  1.00  0.00     0.032 C 
BRANCH   5   6
ATOM      6  C   UNL     1      -1.138  -0.160  27.506  1.00  0.00    -0.028 C 
ATOM      7  C   UNL     1      -1.930   2.045  26.643  1.00  0.00     0.039 C 
ATOM      8  C   UNL     1      -1.817   0.541  26.574  1.00  0.00    -0.080 C 
ATOM      9  C   UNL     1      -2.476  -0.207  25.442  1.00  0.00     0.039 C 
ENDBRANCH   5   6
ENDBRANCH   4   5
ENDBRANCH   1   4
BRANCH   2  10
ATOM     10  C   UNL     1      -4.898   0.034  30.515  1.00  0.00     0.035 C 
BRANCH  10  11
ATOM     11  C   UNL     1      -5.370  -0.549  31.853  1.00  0.00     0.079 C 
BRANCH  11  12
ATOM     12  C   UNL     1      -5.976   0.511  32.739  1.00  0.00     0.130 C 
ATOM     13  O   UNL     1      -7.042   0.295  33.294  1.00  0.00    -0.300 OA
ATOM     14  C   UNL     1      -5.290   1.827  32.958  1.00  0.00     0.087 C 
ENDBRANCH  11  12
ENDBRANCH  10  11
ENDBRANCH   2  10
TORSDOF 6
ENDMDL
MODEL 4
REMARK VINA RESULT:    -4.694      3.132      5.809
REMARK INTER + INTRA:          -7.097
REMARK INTER:                  -6.289
REMARK INTRA:                  -0.807
REMARK UNBOUND:                -0.756
REMARK SMILES CC(=O)CCC=C(C)CCC=C(C)C
REMARK SMILES IDX 7 1 6 2 8 3 9 4 10 5 11 6 13 7 12 8 14 9 5 10 4 11 2 12 3 13
REMARK SMILES IDX 1 14
REMARK H PARENT
REMARK Flexibility Score: inf
ROOT
ATOM      1  C   UNL     1     -12.408   1.283  27.242  1.00  0.00    -0.077 C 
ATOM      2  C   UNL     1     -13.462   2.045  26.870  1.00  0.00    -0.028 C 
ATOM      3  C   UNL     1     -11.009   1.557  26.742  1.00  0.00     0.039 C 
ENDROOT
BRANCH   1   4
ATOM      4  C   UNL     1     -12.643   0.115  28.177  1.00  0.00     0.034 C 
BRANCH   4   5
ATOM      5  C   UNL     1     -13.611   0.511  29.299  1.00  0.00     0.032 C 
BRANCH   5   6
ATOM      6  C   UNL     1     -13.014   0.247  30.660  1.00  0.00    -0.028 C 
ATOM      7  C   UNL     1     -12.103   2.569  30.801  1.00  0.00     0.039 C 
ATOM      8  C   UNL     1     -12.326   1.180  31.352  1.00  0.00    -0.080 C 
ATOM      9  C   UNL     1     -11.771   0.815  32.705  1.00  0.00     0.039 C 
ENDBRANCH   5   6
ENDBRANCH   4   5
ENDBRANCH   1   4
BRANCH   2  10
ATOM     10  C   UNL     1     -13.359   3.302  26.040  1.00  0.00     0.035 C 
BRANCH  10  11
ATOM     11  C   UNL     1     -14.516   4.266  26.336  1.00  0.00     0.079 C 
BRANCH  11  12
ATOM     12  C   UNL     1     -15.856   3.616  26.100  1.00  0.00     0.130 C 
ATOM     13  O   UNL     1     -16.153   3.239  24.977  1.00  0.00    -0.300 OA
ATOM     14  C   UNL     1     -16.833   3.416  27.222  1.00  0.00     0.087 C 
ENDBRANCH  11  12
ENDBRANCH  10  11
ENDBRANCH   2  10
TORSDOF 6
ENDMDL
MODEL 5
REMARK VINA RESULT:    -4.692      9.567     11.418
REMARK INTER + INTRA:          -7.095
REMARK INTER:                  -5.583
REMARK INTRA:                  -1.511
REMARK UNBOUND:                -0.756
REMARK SMILES CC(=O)CCC=C(C)CCC=C(C)C
REMARK SMILES IDX 7 1 6 2 8 3 9 4 10 5 11 6 13 7 12 8 14 9 5 10 4 11 2 12 3 13
REMARK SMILES IDX 1 14
REMARK H PARENT
REMARK Flexibility Score: inf
ROOT
ATOM      1  C   UNL     1      -0.889   0.998  27.786  1.00  0.00    -0.077 C 
ATOM      2  C   UNL     1      -1.341   2.248  27.533  1.00  0.00    -0.028 C 
ATOM      3  C   UNL     1       0.069   0.711  28.918  1.00  0.00     0.039 C 
ENDROOT
BRANCH   1   4
ATOM      4  C   UNL     1      -1.347  -0.139  26.898  1.00  0.00     0.034 C 
BRANCH   4   5
ATOM      5  C   UNL     1      -2.870  -0.302  26.975  1.00  0.00     0.032 C 
BRANCH   5   6
ATOM      6  C   UNL     1      -3.307  -0.770  28.341  1.00  0.00    -0.028 C 
ATOM      7  C   UNL     1      -4.819   1.198  28.623  1.00  0.00     0.039 C 
ATOM      8  C   UNL     1      -4.196  -0.093  29.099  1.00  0.00    -0.080 C 
ATOM      9  C   UNL     1      -4.566  -0.647  30.451  1.00  0.00     0.039 C 
ENDBRANCH   5   6
ENDBRANCH   4   5
ENDBRANCH   1   4
BRANCH   2  10
ATOM     10  C   UNL     1      -1.061   3.452  28.400  1.00  0.00     0.035 C 
BRANCH  10  11
ATOM     11  C   UNL     1      -2.198   3.701  29.400  1.00  0.00     0.079 C 
BRANCH  11  12
ATOM     12  C   UNL     1      -1.851   3.185  30.774  1.00  0.00     0.130 C 
ATOM     13  O   UNL     1      -0.718   3.334  31.205  1.00  0.00    -0.300 OA
ATOM     14  C   UNL     1      -2.875   2.497  31.628  1.00  0.00     0.087 C 
ENDBRANCH  11  12
ENDBRANCH  10  11
ENDBRANCH   2  10
TORSDOF 6
ENDMDL
MODEL 6
REMARK VINA RESULT:    -4.656      5.957      7.725
REMARK INTER + INTRA:          -7.045
REMARK INTER:                  -6.031
REMARK INTRA:                  -1.014
REMARK UNBOUND:                -0.756
REMARK SMILES CC(=O)CCC=C(C)CCC=C(C)C
REMARK SMILES IDX 7 1 6 2 8 3 9 4 10 5 11 6 13 7 12 8 14 9 5 10 4 11 2 12 3 13
REMARK SMILES IDX 1 14
REMARK H PARENT
REMARK Flexibility Score: inf
ROOT
ATOM      1  C   UNL     1      -9.754   9.552  31.928  1.00  0.00    -0.077 C 
ATOM      2  C   UNL     1     -10.061   9.741  33.233  1.00  0.00    -0.028 C 
ATOM      3  C   UNL     1      -9.169   8.253  31.426  1.00  0.00     0.039 C 
ENDROOT
BRANCH   1   4
ATOM      4  C   UNL     1      -9.992  10.683  30.950  1.00  0.00     0.034 C 
BRANCH   4   5
ATOM      5  C   UNL     1     -11.313  11.397  31.264  1.00  0.00     0.032 C 
BRANCH   5   6
ATOM      6  C   UNL     1     -12.497  10.620  30.742  1.00  0.00    -0.028 C 
ATOM      7  C   UNL     1     -13.804  12.712  30.352  1.00  0.00     0.039 C 
ATOM      8  C   UNL     1     -13.636  11.212  30.324  1.00  0.00    -0.080 C 
ATOM      9  C   UNL     1     -14.760  10.343  29.819  1.00  0.00     0.039 C 
ENDBRANCH   5   6
ENDBRANCH   4   5
ENDBRANCH   1   4
BRANCH   2  10
ATOM     10  C   UNL     1      -9.985   8.670  34.294  1.00  0.00     0.035 C 
BRANCH  10  11
ATOM     11  C   UNL     1     -11.380   8.152  34.671  1.00  0.00     0.079 C 
BRANCH  11  12
ATOM     12  C   UNL     1     -11.889   7.146  33.669  1.00  0.00     0.130 C 
ATOM     13  O   UNL     1     -11.405   6.025  33.643  1.00  0.00    -0.300 OA
ATOM     14  C   UNL     1     -12.986   7.494  32.706  1.00  0.00     0.087 C 
ENDBRANCH  11  12
ENDBRANCH  10  11
ENDBRANCH   2  10
TORSDOF 6
ENDMDL
MODEL 7
REMARK VINA RESULT:    -4.654      6.262      8.954
REMARK INTER + INTRA:          -7.042
REMARK INTER:                  -6.149
REMARK INTRA:                  -0.893
REMARK UNBOUND:                -0.756
REMARK SMILES CC(=O)CCC=C(C)CCC=C(C)C
REMARK SMILES IDX 7 1 6 2 8 3 9 4 10 5 11 6 13 7 12 8 14 9 5 10 4 11 2 12 3 13
REMARK SMILES IDX 1 14
REMARK H PARENT
REMARK Flexibility Score: inf
ROOT
ATOM      1  C   UNL     1     -13.163  11.251  30.516  1.00  0.00    -0.077 C 
ATOM      2  C   UNL     1     -13.544   9.958  30.399  1.00  0.00    -0.028 C 
ATOM      3  C   UNL     1     -14.027  12.385  30.017  1.00  0.00     0.039 C 
ENDROOT
BRANCH   1   4
ATOM      4  C   UNL     1     -11.825  11.564  31.151  1.00  0.00     0.034 C 
BRANCH   4   5
ATOM      5  C   UNL     1     -10.896  10.347  31.078  1.00  0.00     0.032 C 
BRANCH   5   6
ATOM      6  C   UNL     1     -10.183  10.117  32.388  1.00  0.00    -0.028 C 
ATOM      7  C   UNL     1     -11.527   8.063  32.853  1.00  0.00     0.039 C 
ATOM      8  C   UNL     1     -10.464   9.078  33.203  1.00  0.00    -0.080 C 
ATOM      9  C   UNL     1      -9.693   8.938  34.491  1.00  0.00     0.039 C 
ENDBRANCH   5   6
ENDBRANCH   4   5
ENDBRANCH   1   4
BRANCH   2  10
ATOM     10  C   UNL     1     -14.893   9.505  29.895  1.00  0.00     0.035 C 
BRANCH  10  11
ATOM     11  C   UNL     1     -15.912   9.394  31.037  1.00  0.00     0.079 C 
BRANCH  11  12
ATOM     12  C   UNL     1     -15.855   8.042  31.702  1.00  0.00     0.130 C 
ATOM     13  O   UNL     1     -16.315   7.067  31.126  1.00  0.00    -0.300 OA
ATOM     14  C   UNL     1     -15.238   7.866  33.058  1.00  0.00     0.087 C 
ENDBRANCH  11  12
ENDBRANCH  10  11
ENDBRANCH   2  10
TORSDOF 6
ENDMDL
MODEL 8
REMARK VINA RESULT:    -4.533      9.085     11.459
REMARK INTER + INTRA:          -6.879
REMARK INTER:                  -5.571
REMARK INTRA:                  -1.308
REMARK UNBOUND:                -0.756
REMARK SMILES CC(=O)CCC=C(C)CCC=C(C)C
REMARK SMILES IDX 7 1 6 2 8 3 9 4 10 5 11 6 13 7 12 8 14 9 5 10 4 11 2 12 3 13
REMARK SMILES IDX 1 14
REMARK H PARENT
REMARK Flexibility Score: inf
ROOT
ATOM      1  C   UNL     1      -2.764   0.099  28.075  1.00  0.00    -0.077 C 
ATOM      2  C   UNL     1      -3.241  -0.728  29.034  1.00  0.00    -0.028 C 
ATOM      3  C   UNL     1      -3.643   1.123  27.397  1.00  0.00     0.039 C 
ENDROOT
BRANCH   1   4
ATOM      4  C   UNL     1      -1.312  -0.019  27.664  1.00  0.00     0.034 C 
BRANCH   4   5
ATOM      5  C   UNL     1      -0.391   0.388  28.820  1.00  0.00     0.032 C 
BRANCH   5   6
ATOM      6  C   UNL     1      -0.248   1.888  28.909  1.00  0.00    -0.028 C 
ATOM      7  C   UNL     1      -1.533   1.965  31.050  1.00  0.00     0.039 C 
ATOM      8  C   UNL     1      -0.765   2.614  29.923  1.00  0.00    -0.080 C 
ATOM      9  C   UNL     1      -0.566   4.109  29.918  1.00  0.00     0.039 C 
ENDBRANCH   5   6
ENDBRANCH   4   5
ENDBRANCH   1   4
BRANCH   2  10
ATOM     10  C   UNL     1      -4.629  -0.647  29.623  1.00  0.00     0.035 C 
BRANCH  10  11
ATOM     11  C   UNL     1      -4.594  -0.704  31.156  1.00  0.00     0.079 C 
BRANCH  11  12
ATOM     12  C   UNL     1      -4.878   0.645  31.768  1.00  0.00     0.130 C 
ATOM     13  O   UNL     1      -4.724   0.805  32.969  1.00  0.00    -0.300 OA
ATOM     14  C   UNL     1      -5.341   1.799  30.929  1.00  0.00     0.087 C 
ENDBRANCH  11  12
ENDBRANCH  10  11
ENDBRANCH   2  10
TORSDOF 6
ENDMDL
MODEL 9
REMARK VINA RESULT:    -4.523      9.719     11.980
REMARK INTER + INTRA:          -6.865
REMARK INTER:                  -5.799
REMARK INTRA:                  -1.066
REMARK UNBOUND:                -0.756
REMARK SMILES CC(=O)CCC=C(C)CCC=C(C)C
REMARK SMILES IDX 7 1 6 2 8 3 9 4 10 5 11 6 13 7 12 8 14 9 5 10 4 11 2 12 3 13
REMARK SMILES IDX 1 14
REMARK H PARENT
REMARK Flexibility Score: inf
ROOT
ATOM      1  C   UNL     1      -1.142   0.197  28.265  1.00  0.00    -0.077 C 
ATOM      2  C   UNL     1      -2.251   0.036  29.025  1.00  0.00    -0.028 C 
ATOM      3  C   UNL     1      -1.124  -0.157  26.797  1.00  0.00     0.039 C 
ENDROOT
BRANCH   1   4
ATOM      4  C   UNL     1       0.116   0.734  28.913  1.00  0.00     0.034 C 
BRANCH   4   5
ATOM      5  C   UNL     1      -0.197   1.985  29.744  1.00  0.00     0.032 C 
BRANCH   5   6
ATOM      6  C   UNL     1       0.051   3.247  28.955  1.00  0.00    -0.028 C 
ATOM      7  C   UNL     1      -2.398   3.678  28.717  1.00  0.00     0.039 C 
ATOM      8  C   UNL     1      -0.947   4.025  28.484  1.00  0.00    -0.080 C 
ATOM      9  C   UNL     1      -0.591   5.267  27.707  1.00  0.00     0.039 C 
ENDBRANCH   5   6
ENDBRANCH   4   5
ENDBRANCH   1   4
BRANCH   2  10
ATOM     10  C   UNL     1      -3.601  -0.378  28.493  1.00  0.00     0.035 C 
BRANCH  10  11
ATOM     11  C   UNL     1      -4.736   0.393  29.179  1.00  0.00     0.079 C 
BRANCH  11  12
ATOM     12  C   UNL     1      -4.827   0.059  30.647  1.00  0.00     0.130 C 
ATOM     13  O   UNL     1      -5.121  -1.075  30.989  1.00  0.00    -0.300 OA
ATOM     14  C   UNL     1      -4.554   1.094  31.698  1.00  0.00     0.087 C 
ENDBRANCH  11  12
ENDBRANCH  10  11
ENDBRANCH   2  10
TORSDOF 6
ENDMDL
