MODEL 1
REMARK VINA RESULT:     5.016      0.000      0.000
REMARK INTER + INTRA:           6.486
REMARK INTER:                   6.483
REMARK INTRA:                   0.003
REMARK UNBOUND:                 0.003
REMARK SMILES CO[C@@]1(CO)O[C@H](CO)[C@@H](O)[C@H]1O
REMARK SMILES IDX 3 1 12 2 10 3 7 4 6 5 2 6 1 7 4 8 5 9 13 11 11 13 8 15 9 16
REMARK H PARENT 5 10 13 12 11 14 9 17
REMARK Flexibility Score: inf
ROOT
ATOM      1  C   UNL     1      83.902 107.789 104.119  1.00  0.00     0.221 C 
ATOM      2  C   UNL     1      84.204 108.369 102.719  1.00  0.00     0.207 C 
ATOM      3  C   UNL     1      83.070 107.839 101.876  1.00  0.00     0.180 C 
ATOM      4  C   UNL     1      82.742 106.526 102.575  1.00  0.00     0.179 C 
ATOM      5  O   UNL     1      83.126 106.619 103.931  1.00  0.00    -0.337 OA
ENDROOT
BRANCH   1   6
ATOM      6  O   UNL     1      83.095 108.690 104.884  1.00  0.00    -0.349 OA
ATOM      7  C   UNL     1      81.877 108.145 105.357  1.00  0.00     0.198 C 
ENDBRANCH   1   6
BRANCH   1   8
ATOM      8  C   UNL     1      85.208 107.337 104.827  1.00  0.00     0.224 C 
BRANCH   8   9
ATOM      9  O   UNL     1      85.434 108.120 105.968  1.00  0.00    -0.391 OA
ATOM     10  H   UNL     1      85.185 109.048 105.719  1.00  0.00     0.210 HD
ENDBRANCH   8   9
ENDBRANCH   1   8
BRANCH   2  11
ATOM     11  O   UNL     1      84.250 109.773 102.702  1.00  0.00    -0.385 OA
ATOM     12  H   UNL     1      85.155 110.031 103.017  1.00  0.00     0.211 HD
ENDBRANCH   2  11
BRANCH   3  13
ATOM     13  O   UNL     1      81.954 108.693 101.942  1.00  0.00    -0.387 OA
ATOM     14  H   UNL     1      82.095 109.402 101.263  1.00  0.00     0.211 HD
ENDBRANCH   3  13
BRANCH   4  15
ATOM     15  C   UNL     1      83.458 105.335 101.919  1.00  0.00     0.191 C 
BRANCH  15  16
ATOM     16  O   UNL     1      82.628 104.205 101.919  1.00  0.00    -0.394 OA
ATOM     17  H   UNL     1      82.477 103.959 100.970  1.00  0.00     0.210 HD
ENDBRANCH  15  16
ENDBRANCH   4  15
TORSDOF 7
ENDMDL
MODEL 2
REMARK VINA RESULT:     7.081      1.508      3.613
REMARK INTER + INTRA:           9.153
REMARK INTER:                   9.496
REMARK INTRA:                  -0.343
REMARK UNBOUND:                 0.003
REMARK SMILES CO[C@@]1(CO)O[C@H](CO)[C@@H](O)[C@H]1O
REMARK SMILES IDX 3 1 12 2 10 3 7 4 6 5 2 6 1 7 4 8 5 9 13 11 11 13 8 15 9 16
REMARK H PARENT 5 10 13 12 11 14 9 17
REMARK Flexibility Score: inf
ROOT
ATOM      1  C   UNL     1      84.236 107.727 102.802  1.00  0.00     0.221 C 
ATOM      2  C   UNL     1      82.907 107.111 103.294  1.00  0.00     0.207 C 
ATOM      3  C   UNL     1      82.593 107.918 104.530  1.00  0.00     0.180 C 
ATOM      4  C   UNL     1      83.982 108.300 105.023  1.00  0.00     0.179 C 
ATOM      5  O   UNL     1      84.871 108.309 103.926  1.00  0.00    -0.337 OA
ENDROOT
BRANCH   1   6
ATOM      6  O   UNL     1      83.995 108.794 101.877  1.00  0.00    -0.349 OA
ATOM      7  C   UNL     1      84.781 109.952 102.085  1.00  0.00     0.198 C 
ENDBRANCH   1   6
BRANCH   1   8
ATOM      8  C   UNL     1      85.198 106.628 102.277  1.00  0.00     0.224 C 
BRANCH   8   9
ATOM      9  O   UNL     1      84.469 105.499 101.876  1.00  0.00    -0.391 OA
ATOM     10  H   UNL     1      84.984 104.712 102.192  1.00  0.00     0.210 HD
ENDBRANCH   8   9
ENDBRANCH   1   8
BRANCH   2  11
ATOM     11  O   UNL     1      81.875 107.195 102.345  1.00  0.00    -0.385 OA
ATOM     12  H   UNL     1      81.520 108.120 102.392  1.00  0.00     0.211 HD
ENDBRANCH   2  11
BRANCH   3  13
ATOM     13  O   UNL     1      81.879 109.085 104.201  1.00  0.00    -0.387 OA
ATOM     14  H   UNL     1      80.915 108.868 104.293  1.00  0.00     0.211 HD
ENDBRANCH   3  13
BRANCH   4  15
ATOM     15  C   UNL     1      84.498 107.323 106.092  1.00  0.00     0.191 C 
BRANCH  15  16
ATOM     16  O   UNL     1      85.893 107.205 106.014  1.00  0.00    -0.394 OA
ATOM     17  H   UNL     1      86.272 108.065 106.335  1.00  0.00     0.210 HD
ENDBRANCH  15  16
ENDBRANCH   4  15
TORSDOF 7
ENDMDL
MODEL 3
REMARK VINA RESULT:     7.216      1.420      2.468
REMARK INTER + INTRA:           9.328
REMARK INTER:                   9.325
REMARK INTRA:                   0.003
REMARK UNBOUND:                 0.003
REMARK SMILES CO[C@@]1(CO)O[C@H](CO)[C@@H](O)[C@H]1O
REMARK SMILES IDX 3 1 12 2 10 3 7 4 6 5 2 6 1 7 4 8 5 9 13 11 11 13 8 15 9 16
REMARK H PARENT 5 10 13 12 11 14 9 17
REMARK Flexibility Score: inf
ROOT
ATOM      1  C   UNL     1      83.986 108.659 103.407  1.00  0.00     0.221 C 
ATOM      2  C   UNL     1      82.449 108.807 103.376  1.00  0.00     0.207 C 
ATOM      3  C   UNL     1      81.965 107.436 103.779  1.00  0.00     0.180 C 
ATOM      4  C   UNL     1      83.085 106.540 103.268  1.00  0.00     0.179 C 
ATOM      5  O   UNL     1      84.281 107.288 103.212  1.00  0.00    -0.337 OA
ENDROOT
BRANCH   1   6
ATOM      6  O   UNL     1      84.509 109.004 104.695  1.00  0.00    -0.349 OA
ATOM      7  C   UNL     1      85.198 107.961 105.358  1.00  0.00     0.198 C 
ENDBRANCH   1   6
BRANCH   1   8
ATOM      8  C   UNL     1      84.643 109.420 102.223  1.00  0.00     0.224 C 
BRANCH   8   9
ATOM      9  O   UNL     1      84.520 110.804 102.412  1.00  0.00    -0.391 OA
ATOM     10  H   UNL     1      83.609 111.045 102.100  1.00  0.00     0.210 HD
ENDBRANCH   8   9
ENDBRANCH   1   8
BRANCH   2  11
ATOM     11  O   UNL     1      81.973 109.802 104.247  1.00  0.00    -0.385 OA
ATOM     12  H   UNL     1      80.997 109.651 104.344  1.00  0.00     0.211 HD
ENDBRANCH   2  11
BRANCH   3  13
ATOM     13  O   UNL     1      81.882 107.324 105.180  1.00  0.00    -0.387 OA
ATOM     14  H   UNL     1      81.763 106.360 105.384  1.00  0.00     0.211 HD
ENDBRANCH   3  13
BRANCH   4  15
ATOM     15  C   UNL     1      82.770 105.971 101.875  1.00  0.00     0.191 C 
BRANCH  15  16
ATOM     16  O   UNL     1      82.551 104.587 101.951  1.00  0.00    -0.394 OA
ATOM     17  H   UNL     1      81.582 104.441 101.793  1.00  0.00     0.210 HD
ENDBRANCH  15  16
ENDBRANCH   4  15
TORSDOF 7
ENDMDL
MODEL 4
REMARK VINA RESULT:     7.447      1.318      3.038
REMARK INTER + INTRA:           9.626
REMARK INTER:                   9.638
REMARK INTRA:                  -0.011
REMARK UNBOUND:                 0.003
REMARK SMILES CO[C@@]1(CO)O[C@H](CO)[C@@H](O)[C@H]1O
REMARK SMILES IDX 3 1 12 2 10 3 7 4 6 5 2 6 1 7 4 8 5 9 13 11 11 13 8 15 9 16
REMARK H PARENT 5 10 13 12 11 14 9 17
REMARK Flexibility Score: inf
ROOT
ATOM      1  C   UNL     1      84.488 107.723 103.475  1.00  0.00     0.221 C 
ATOM      2  C   UNL     1      83.541 106.554 103.120  1.00  0.00     0.207 C 
ATOM      3  C   UNL     1      82.178 107.203 103.130  1.00  0.00     0.180 C 
ATOM      4  C   UNL     1      82.363 108.317 104.152  1.00  0.00     0.179 C 
ATOM      5  O   UNL     1      83.728 108.675 104.198  1.00  0.00    -0.337 OA
ENDROOT
BRANCH   1   6
ATOM      6  O   UNL     1      84.948 108.387 102.293  1.00  0.00    -0.349 OA
ATOM      7  C   UNL     1      84.701 109.780 102.258  1.00  0.00     0.198 C 
ENDBRANCH   1   6
BRANCH   1   8
ATOM      8  C   UNL     1      85.619 107.252 104.429  1.00  0.00     0.224 C 
BRANCH   8   9
ATOM      9  O   UNL     1      85.485 107.872 105.680  1.00  0.00    -0.391 OA
ATOM     10  H   UNL     1      86.407 108.003 106.023  1.00  0.00     0.210 HD
ENDBRANCH   8   9
ENDBRANCH   1   8
BRANCH   2  11
ATOM     11  O   UNL     1      83.829 105.970 101.875  1.00  0.00    -0.385 OA
ATOM     12  H   UNL     1      84.440 106.594 101.404  1.00  0.00     0.211 HD
ENDBRANCH   2  11
BRANCH   3  13
ATOM     13  O   UNL     1      81.882 107.767 101.875  1.00  0.00    -0.387 OA
ATOM     14  H   UNL     1      81.962 107.038 101.207  1.00  0.00     0.211 HD
ENDBRANCH   3  13
BRANCH   4  15
ATOM     15  C   UNL     1      81.897 107.890 105.552  1.00  0.00     0.191 C 
BRANCH  15  16
ATOM     16  O   UNL     1      82.998 107.733 106.407  1.00  0.00    -0.394 OA
ATOM     17  H   UNL     1      83.399 108.632 106.525  1.00  0.00     0.210 HD
ENDBRANCH  15  16
ENDBRANCH   4  15
TORSDOF 7
ENDMDL
MODEL 5
REMARK VINA RESULT:     7.848      1.427      3.384
REMARK INTER + INTRA:          10.145
REMARK INTER:                  10.264
REMARK INTRA:                  -0.120
REMARK UNBOUND:                 0.003
REMARK SMILES CO[C@@]1(CO)O[C@H](CO)[C@@H](O)[C@H]1O
REMARK SMILES IDX 3 1 12 2 10 3 7 4 6 5 2 6 1 7 4 8 5 9 13 11 11 13 8 15 9 16
REMARK H PARENT 5 10 13 12 11 14 9 17
REMARK Flexibility Score: inf
ROOT
ATOM      1  C   UNL     1      83.112 107.935 103.237  1.00  0.00     0.221 C 
ATOM      2  C   UNL     1      83.993 109.195 103.089  1.00  0.00     0.207 C 
ATOM      3  C   UNL     1      85.395 108.642 103.151  1.00  0.00     0.180 C 
ATOM      4  C   UNL     1      85.214 107.413 104.032  1.00  0.00     0.179 C 
ATOM      5  O   UNL     1      83.880 106.962 103.921  1.00  0.00    -0.337 OA
ENDROOT
BRANCH   1   6
ATOM      6  O   UNL     1      82.799 107.375 101.957  1.00  0.00    -0.349 OA
ATOM      7  C   UNL     1      82.692 105.964 101.934  1.00  0.00     0.198 C 
ENDBRANCH   1   6
BRANCH   1   8
ATOM      8  C   UNL     1      81.875 108.222 104.132  1.00  0.00     0.224 C 
BRANCH   8   9
ATOM      9  O   UNL     1      81.907 107.409 105.273  1.00  0.00    -0.391 OA
ATOM     10  H   UNL     1      82.632 107.768 105.848  1.00  0.00     0.210 HD
ENDBRANCH   8   9
ENDBRANCH   1   8
BRANCH   2  11
ATOM     11  O   UNL     1      83.762 109.891 101.891  1.00  0.00    -0.385 OA
ATOM     12  H   UNL     1      84.407 109.534 101.226  1.00  0.00     0.211 HD
ENDBRANCH   2  11
BRANCH   3  13
ATOM     13  O   UNL     1      85.833 108.239 101.875  1.00  0.00    -0.387 OA
ATOM     14  H   UNL     1      86.732 108.637 101.742  1.00  0.00     0.211 HD
ENDBRANCH   3  13
BRANCH   4  15
ATOM     15  C   UNL     1      85.533 107.715 105.505  1.00  0.00     0.191 C 
BRANCH  15  16
ATOM     16  O   UNL     1      84.385 108.167 106.171  1.00  0.00    -0.394 OA
ATOM     17  H   UNL     1      84.279 109.127 105.940  1.00  0.00     0.210 HD
ENDBRANCH  15  16
ENDBRANCH   4  15
TORSDOF 7
ENDMDL
