MODEL 1
REMARK VINA RESULT:    -3.766      0.000      0.000
REMARK INTER + INTRA:          -3.766
REMARK INTER:                  -3.766
REMARK INTRA:                   0.000
REMARK UNBOUND:                 0.000
REMARK SMILES CC1=CC(=O)[C@H]2C[C@@H]1C2(C)C
REMARK SMILES IDX 1 1 2 2 3 3 4 4 5 5 6 6 7 7 8 8 9 9 10 10 11 11
REMARK H PARENT
REMARK Flexibility Score: inf
ROOT
ATOM      1  C   UNL     1     -31.882   5.178  59.323  1.00  0.00     0.040 C 
ATOM      2  C   UNL     1     -32.764   4.017  58.992  1.00  0.00    -0.066 C 
ATOM      3  C   UNL     1     -33.003   3.028  59.898  1.00  0.00     0.047 C 
ATOM      4  C   UNL     1     -33.879   1.902  59.436  1.00  0.00     0.159 C 
ATOM      5  O   UNL     1     -34.141   0.912  60.165  1.00  0.00    -0.295 OA
ATOM      6  C   UNL     1     -34.427   2.041  58.015  1.00  0.00     0.067 C 
ATOM      7  C   UNL     1     -34.920   3.503  57.942  1.00  0.00     0.021 C 
ATOM      8  C   UNL     1     -33.459   3.888  57.620  1.00  0.00     0.022 C 
ATOM      9  C   UNL     1     -33.260   2.446  57.070  1.00  0.00    -0.019 C 
ATOM     10  C   UNL     1     -33.644   2.327  55.574  1.00  0.00     0.012 C 
ATOM     11  C   UNL     1     -31.876   1.767  57.274  1.00  0.00     0.012 C 
ENDROOT
TORSDOF 0
ENDMDL
MODEL 2
REMARK VINA RESULT:    -3.738     20.796     22.503
REMARK INTER + INTRA:          -3.738
REMARK INTER:                  -3.738
REMARK INTRA:                   0.000
REMARK UNBOUND:                 0.000
REMARK SMILES CC1=CC(=O)[C@H]2C[C@@H]1C2(C)C
REMARK SMILES IDX 1 1 2 2 3 3 4 4 5 5 6 6 7 7 8 8 9 9 10 10 11 11
REMARK H PARENT
REMARK Flexibility Score: inf
ROOT
ATOM      1  C   UNL     1     -51.373   1.566  41.990  1.00  0.00     0.040 C 
ATOM      2  C   UNL     1     -51.331   0.928  43.342  1.00  0.00    -0.066 C 
ATOM      3  C   UNL     1     -51.847   1.554  44.437  1.00  0.00     0.047 C 
ATOM      4  C   UNL     1     -51.717   0.825  45.740  1.00  0.00     0.159 C 
ATOM      5  O   UNL     1     -52.117   1.316  46.827  1.00  0.00    -0.295 OA
ATOM      6  C   UNL     1     -51.062  -0.554  45.657  1.00  0.00     0.067 C 
ATOM      7  C   UNL     1     -51.746  -1.224  44.445  1.00  0.00     0.021 C 
ATOM      8  C   UNL     1     -50.723  -0.473  43.562  1.00  0.00     0.022 C 
ATOM      9  C   UNL     1     -49.772  -0.438  44.794  1.00  0.00    -0.019 C 
ATOM     10  C   UNL     1     -48.884  -1.703  44.890  1.00  0.00     0.012 C 
ATOM     11  C   UNL     1     -48.865   0.810  44.987  1.00  0.00     0.012 C 
ENDROOT
TORSDOF 0
ENDMDL
MODEL 3
REMARK VINA RESULT:    -3.696     21.573     22.618
REMARK INTER + INTRA:          -3.696
REMARK INTER:                  -3.696
REMARK INTRA:                   0.000
REMARK UNBOUND:                 0.000
REMARK SMILES CC1=CC(=O)[C@H]2C[C@@H]1C2(C)C
REMARK SMILES IDX 1 1 2 2 3 3 4 4 5 5 6 6 7 7 8 8 9 9 10 10 11 11
REMARK H PARENT
REMARK Flexibility Score: inf
ROOT
ATOM      1  C   UNL     1     -51.202   1.976  46.841  1.00  0.00     0.040 C 
ATOM      2  C   UNL     1     -50.895   1.512  45.452  1.00  0.00    -0.066 C 
ATOM      3  C   UNL     1     -51.430   2.133  44.363  1.00  0.00     0.047 C 
ATOM      4  C   UNL     1     -51.070   1.555  43.028  1.00  0.00     0.159 C 
ATOM      5  O   UNL     1     -51.531   2.013  41.951  1.00  0.00    -0.295 OA
ATOM      6  C   UNL     1     -50.106   0.369  43.066  1.00  0.00     0.067 C 
ATOM      7  C   UNL     1     -49.005   0.809  44.056  1.00  0.00     0.021 C 
ATOM      8  C   UNL     1     -49.946   0.326  45.183  1.00  0.00     0.022 C 
ATOM      9  C   UNL     1     -50.599  -0.636  44.147  1.00  0.00    -0.019 C 
ATOM     10  C   UNL     1     -49.866  -1.998  44.063  1.00  0.00     0.012 C 
ATOM     11  C   UNL     1     -52.125  -0.910  44.259  1.00  0.00     0.012 C 
ENDROOT
TORSDOF 0
ENDMDL
MODEL 4
REMARK VINA RESULT:    -3.651     13.790     15.776
REMARK INTER + INTRA:          -3.651
REMARK INTER:                  -3.651
REMARK INTRA:                   0.000
REMARK UNBOUND:                 0.000
REMARK SMILES CC1=CC(=O)[C@H]2C[C@@H]1C2(C)C
REMARK SMILES IDX 1 1 2 2 3 3 4 4 5 5 6 6 7 7 8 8 9 9 10 10 11 11
REMARK H PARENT
REMARK Flexibility Score: inf
ROOT
ATOM      1  C   UNL     1     -37.620  -8.824  46.738  1.00  0.00     0.040 C 
ATOM      2  C   UNL     1     -36.304  -8.129  46.585  1.00  0.00    -0.066 C 
ATOM      3  C   UNL     1     -35.174  -8.615  47.172  1.00  0.00     0.047 C 
ATOM      4  C   UNL     1     -33.925  -7.812  46.970  1.00  0.00     0.159 C 
ATOM      5  O   UNL     1     -32.827  -8.135  47.492  1.00  0.00    -0.295 OA
ATOM      6  C   UNL     1     -34.078  -6.572  46.088  1.00  0.00     0.067 C 
ATOM      7  C   UNL     1     -34.898  -7.070  44.877  1.00  0.00     0.021 C 
ATOM      8  C   UNL     1     -36.156  -6.843  45.746  1.00  0.00     0.022 C 
ATOM      9  C   UNL     1     -35.341  -5.789  46.550  1.00  0.00    -0.019 C 
ATOM     10  C   UNL     1     -35.420  -4.376  45.921  1.00  0.00     0.012 C 
ATOM     11  C   UNL     1     -35.611  -5.659  48.076  1.00  0.00     0.012 C 
ENDROOT
TORSDOF 0
ENDMDL
MODEL 5
REMARK VINA RESULT:    -3.603      1.592      2.816
REMARK INTER + INTRA:          -3.603
REMARK INTER:                  -3.603
REMARK INTRA:                   0.000
REMARK UNBOUND:                 0.000
REMARK SMILES CC1=CC(=O)[C@H]2C[C@@H]1C2(C)C
REMARK SMILES IDX 1 1 2 2 3 3 4 4 5 5 6 6 7 7 8 8 9 9 10 10 11 11
REMARK H PARENT
REMARK Flexibility Score: inf
ROOT
ATOM      1  C   UNL     1     -32.980   0.024  59.932  1.00  0.00     0.040 C 
ATOM      2  C   UNL     1     -33.098   1.361  59.273  1.00  0.00    -0.066 C 
ATOM      3  C   UNL     1     -33.514   2.459  59.966  1.00  0.00     0.047 C 
ATOM      4  C   UNL     1     -33.621   3.734  59.186  1.00  0.00     0.159 C 
ATOM      5  O   UNL     1     -34.030   4.806  59.702  1.00  0.00    -0.295 OA
ATOM      6  C   UNL     1     -33.201   3.641  57.718  1.00  0.00     0.067 C 
ATOM      7  C   UNL     1     -31.875   2.850  57.755  1.00  0.00     0.021 C 
ATOM      8  C   UNL     1     -32.741   1.570  57.786  1.00  0.00     0.022 C 
ATOM      9  C   UNL     1     -33.870   2.385  57.091  1.00  0.00    -0.019 C 
ATOM     10  C   UNL     1     -33.748   2.362  55.546  1.00  0.00     0.012 C 
ATOM     11  C   UNL     1     -35.344   2.067  57.467  1.00  0.00     0.012 C 
ENDROOT
TORSDOF 0
ENDMDL
MODEL 6
REMARK VINA RESULT:    -3.601     20.827     22.370
REMARK INTER + INTRA:          -3.601
REMARK INTER:                  -3.601
REMARK INTRA:                   0.000
REMARK UNBOUND:                 0.000
REMARK SMILES CC1=CC(=O)[C@H]2C[C@@H]1C2(C)C
REMARK SMILES IDX 1 1 2 2 3 3 4 4 5 5 6 6 7 7 8 8 9 9 10 10 11 11
REMARK H PARENT
REMARK Flexibility Score: inf
ROOT
ATOM      1  C   UNL     1     -51.981   1.716  46.859  1.00  0.00     0.040 C 
ATOM      2  C   UNL     1     -51.163   1.016  45.822  1.00  0.00    -0.066 C 
ATOM      3  C   UNL     1     -49.823   1.237  45.707  1.00  0.00     0.047 C 
ATOM      4  C   UNL     1     -49.121   0.498  44.609  1.00  0.00     0.159 C 
ATOM      5  O   UNL     1     -47.894   0.647  44.376  1.00  0.00    -0.295 OA
ATOM      6  C   UNL     1     -50.000  -0.447  43.789  1.00  0.00     0.067 C 
ATOM      7  C   UNL     1     -50.824  -1.210  44.849  1.00  0.00     0.021 C 
ATOM      8  C   UNL     1     -51.788  -0.002  44.844  1.00  0.00     0.022 C 
ATOM      9  C   UNL     1     -51.304   0.305  43.397  1.00  0.00    -0.019 C 
ATOM     10  C   UNL     1     -52.125  -0.458  42.326  1.00  0.00     0.012 C 
ATOM     11  C   UNL     1     -51.195   1.793  42.958  1.00  0.00     0.012 C 
ENDROOT
TORSDOF 0
ENDMDL
MODEL 7
REMARK VINA RESULT:    -3.592      1.956      3.130
REMARK INTER + INTRA:          -3.592
REMARK INTER:                  -3.592
REMARK INTRA:                   0.000
REMARK UNBOUND:                 0.000
REMARK SMILES CC1=CC(=O)[C@H]2C[C@@H]1C2(C)C
REMARK SMILES IDX 1 1 2 2 3 3 4 4 5 5 6 6 7 7 8 8 9 9 10 10 11 11
REMARK H PARENT
REMARK Flexibility Score: inf
ROOT
ATOM      1  C   UNL     1     -34.253   5.482  58.837  1.00  0.00     0.040 C 
ATOM      2  C   UNL     1     -33.826   4.230  58.140  1.00  0.00    -0.066 C 
ATOM      3  C   UNL     1     -34.126   4.011  56.829  1.00  0.00     0.047 C 
ATOM      4  C   UNL     1     -33.669   2.704  56.253  1.00  0.00     0.159 C 
ATOM      5  O   UNL     1     -33.919   2.369  55.067  1.00  0.00    -0.295 OA
ATOM      6  C   UNL     1     -32.882   1.807  57.209  1.00  0.00     0.067 C 
ATOM      7  C   UNL     1     -31.875   2.765  57.883  1.00  0.00     0.021 C 
ATOM      8  C   UNL     1     -33.013   3.134  58.861  1.00  0.00     0.022 C 
ATOM      9  C   UNL     1     -33.642   1.742  58.565  1.00  0.00    -0.019 C 
ATOM     10  C   UNL     1     -33.089   0.634  59.497  1.00  0.00     0.012 C 
ATOM     11  C   UNL     1     -35.192   1.626  58.539  1.00  0.00     0.012 C 
ENDROOT
TORSDOF 0
ENDMDL
MODEL 8
REMARK VINA RESULT:    -3.547     14.026     15.462
REMARK INTER + INTRA:          -3.547
REMARK INTER:                  -3.547
REMARK INTRA:                   0.000
REMARK UNBOUND:                 0.000
REMARK SMILES CC1=CC(=O)[C@H]2C[C@@H]1C2(C)C
REMARK SMILES IDX 1 1 2 2 3 3 4 4 5 5 6 6 7 7 8 8 9 9 10 10 11 11
REMARK H PARENT
REMARK Flexibility Score: inf
ROOT
ATOM      1  C   UNL     1     -35.591  -3.898  46.085  1.00  0.00     0.040 C 
ATOM      2  C   UNL     1     -35.345  -5.350  46.344  1.00  0.00    -0.066 C 
ATOM      3  C   UNL     1     -35.248  -5.837  47.613  1.00  0.00     0.047 C 
ATOM      4  C   UNL     1     -34.970  -7.304  47.741  1.00  0.00     0.159 C 
ATOM      5  O   UNL     1     -34.819  -7.865  48.856  1.00  0.00    -0.295 OA
ATOM      6  C   UNL     1     -34.879  -8.070  46.420  1.00  0.00     0.067 C 
ATOM      7  C   UNL     1     -36.092  -7.567  45.608  1.00  0.00     0.021 C 
ATOM      8  C   UNL     1     -35.207  -6.369  45.194  1.00  0.00     0.022 C 
ATOM      9  C   UNL     1     -33.965  -7.272  45.446  1.00  0.00    -0.019 C 
ATOM     10  C   UNL     1     -33.573  -8.099  44.196  1.00  0.00     0.012 C 
ATOM     11  C   UNL     1     -32.679  -6.610  46.016  1.00  0.00     0.012 C 
ENDROOT
TORSDOF 0
ENDMDL
MODEL 9
REMARK VINA RESULT:    -3.537      2.095      3.611
REMARK INTER + INTRA:          -3.537
REMARK INTER:                  -3.537
REMARK INTRA:                   0.000
REMARK UNBOUND:                 0.000
REMARK SMILES CC1=CC(=O)[C@H]2C[C@@H]1C2(C)C
REMARK SMILES IDX 1 1 2 2 3 3 4 4 5 5 6 6 7 7 8 8 9 9 10 10 11 11
REMARK H PARENT
REMARK Flexibility Score: inf
ROOT
ATOM      1  C   UNL     1     -36.988   1.604  57.375  1.00  0.00     0.040 C 
ATOM      2  C   UNL     1     -35.758   2.450  57.449  1.00  0.00    -0.066 C 
ATOM      3  C   UNL     1     -35.771   3.755  57.055  1.00  0.00     0.047 C 
ATOM      4  C   UNL     1     -34.467   4.489  57.148  1.00  0.00     0.159 C 
ATOM      5  O   UNL     1     -34.341   5.684  56.778  1.00  0.00    -0.295 OA
ATOM      6  C   UNL     1     -33.302   3.682  57.722  1.00  0.00     0.067 C 
ATOM      7  C   UNL     1     -33.901   2.981  58.961  1.00  0.00     0.021 C 
ATOM      8  C   UNL     1     -34.422   1.899  57.989  1.00  0.00     0.022 C 
ATOM      9  C   UNL     1     -33.268   2.293  57.021  1.00  0.00    -0.019 C 
ATOM     10  C   UNL     1     -31.960   1.516  57.315  1.00  0.00     0.012 C 
ATOM     11  C   UNL     1     -33.539   2.231  55.492  1.00  0.00     0.012 C 
ENDROOT
TORSDOF 0
ENDMDL
