MODEL 1
REMARK VINA RESULT:    -3.225      0.000      0.000
REMARK INTER + INTRA:          -3.672
REMARK INTER:                  -3.602
REMARK INTRA:                  -0.070
REMARK UNBOUND:                -0.070
REMARK SMILES CCCC(=O)[O-]
REMARK SMILES IDX 3 1 4 2 5 3 6 4 2 5 1 6
REMARK H PARENT
REMARK Flexibility Score: inf
ROOT
ATOM      1  C   UNL     1      -2.404  36.476  15.406  1.00  0.00     0.052 C 
ENDROOT
BRANCH   1   2
ATOM      2  C   UNL     1      -3.041  36.330  16.751  1.00  0.00     0.041 C 
ATOM      3  O   UNL     1      -3.800  35.354  16.991  1.00  0.00    -0.550 OA
ATOM      4  O   UNL     1      -2.836  37.298  17.726  1.00  0.00    -0.550 OA
ENDBRANCH   1   2
BRANCH   1   5
ATOM      5  C   UNL     1      -3.473  36.565  14.314  1.00  0.00     0.003 C 
ATOM      6  C   UNL     1      -4.174  37.920  14.338  1.00  0.00     0.004 C 
ENDBRANCH   1   5
TORSDOF 2
ENDMDL
MODEL 2
REMARK VINA RESULT:    -3.162      1.235      1.619
REMARK INTER + INTRA:          -3.601
REMARK INTER:                  -3.565
REMARK INTRA:                  -0.037
REMARK UNBOUND:                -0.070
REMARK SMILES CCCC(=O)[O-]
REMARK SMILES IDX 3 1 4 2 5 3 6 4 2 5 1 6
REMARK H PARENT
REMARK Flexibility Score: inf
ROOT
ATOM      1  C   UNL     1      -3.454  35.949  16.569  1.00  0.00     0.052 C 
ENDROOT
BRANCH   1   2
ATOM      2  C   UNL     1      -3.049  36.861  17.683  1.00  0.00     0.041 C 
ATOM      3  O   UNL     1      -1.855  37.250  17.781  1.00  0.00    -0.550 OA
ATOM      4  O   UNL     1      -3.978  37.241  18.643  1.00  0.00    -0.550 OA
ENDBRANCH   1   2
BRANCH   1   5
ATOM      5  C   UNL     1      -2.893  36.451  15.235  1.00  0.00     0.003 C 
ATOM      6  C   UNL     1      -3.929  37.279  14.479  1.00  0.00     0.004 C 
ENDBRANCH   1   5
TORSDOF 2
ENDMDL
MODEL 3
REMARK VINA RESULT:    -3.105      1.228      1.445
REMARK INTER + INTRA:          -3.537
REMARK INTER:                  -3.510
REMARK INTRA:                  -0.027
REMARK UNBOUND:                -0.070
REMARK SMILES CCCC(=O)[O-]
REMARK SMILES IDX 3 1 4 2 5 3 6 4 2 5 1 6
REMARK H PARENT
REMARK Flexibility Score: inf
ROOT
ATOM      1  C   UNL     1      -3.482  35.974  16.505  1.00  0.00     0.052 C 
ENDROOT
BRANCH   1   2
ATOM      2  C   UNL     1      -3.015  36.825  17.642  1.00  0.00     0.041 C 
ATOM      3  O   UNL     1      -3.835  37.237  18.505  1.00  0.00    -0.550 OA
ATOM      4  O   UNL     1      -1.682  37.207  17.723  1.00  0.00    -0.550 OA
ENDBRANCH   1   2
BRANCH   1   5
ATOM      5  C   UNL     1      -2.891  36.473  15.184  1.00  0.00     0.003 C 
ATOM      6  C   UNL     1      -3.946  37.191  14.346  1.00  0.00     0.004 C 
ENDBRANCH   1   5
TORSDOF 2
ENDMDL
MODEL 4
REMARK VINA RESULT:    -3.068      2.089      3.130
REMARK INTER + INTRA:          -3.496
REMARK INTER:                  -3.482
REMARK INTRA:                  -0.014
REMARK UNBOUND:                -0.070
REMARK SMILES CCCC(=O)[O-]
REMARK SMILES IDX 3 1 4 2 5 3 6 4 2 5 1 6
REMARK H PARENT
REMARK Flexibility Score: inf
ROOT
ATOM      1  C   UNL     1      -3.299  36.093  16.750  1.00  0.00     0.052 C 
ENDROOT
BRANCH   1   2
ATOM      2  C   UNL     1      -3.102  36.700  15.398  1.00  0.00     0.041 C 
ATOM      3  O   UNL     1      -2.259  36.212  14.600  1.00  0.00    -0.550 OA
ATOM      4  O   UNL     1      -3.815  37.837  15.036  1.00  0.00    -0.550 OA
ENDBRANCH   1   2
BRANCH   1   5
ATOM      5  C   UNL     1      -2.989  37.116  17.847  1.00  0.00     0.003 C 
ATOM      6  C   UNL     1      -3.847  36.873  19.085  1.00  0.00     0.004 C 
ENDBRANCH   1   5
TORSDOF 2
ENDMDL
MODEL 5
REMARK VINA RESULT:    -3.048      1.641      2.530
REMARK INTER + INTRA:          -3.474
REMARK INTER:                  -3.463
REMARK INTRA:                  -0.011
REMARK UNBOUND:                -0.070
REMARK SMILES CCCC(=O)[O-]
REMARK SMILES IDX 3 1 4 2 5 3 6 4 2 5 1 6
REMARK H PARENT
REMARK Flexibility Score: inf
ROOT
ATOM      1  C   UNL     1      -3.088  37.142  17.442  1.00  0.00     0.052 C 
ENDROOT
BRANCH   1   2
ATOM      2  C   UNL     1      -3.445  36.777  18.848  1.00  0.00     0.041 C 
ATOM      3  O   UNL     1      -2.841  37.312  19.814  1.00  0.00    -0.550 OA
ATOM      4  O   UNL     1      -4.410  35.807  19.090  1.00  0.00    -0.550 OA
ENDBRANCH   1   2
BRANCH   1   5
ATOM      5  C   UNL     1      -3.192  35.918  16.528  1.00  0.00     0.003 C 
ATOM      6  C   UNL     1      -3.240  36.330  15.059  1.00  0.00     0.004 C 
ENDBRANCH   1   5
TORSDOF 2
ENDMDL
MODEL 6
REMARK VINA RESULT:    -3.013      4.546      5.887
REMARK INTER + INTRA:          -3.435
REMARK INTER:                  -3.401
REMARK INTRA:                  -0.034
REMARK UNBOUND:                -0.070
REMARK SMILES CCCC(=O)[O-]
REMARK SMILES IDX 3 1 4 2 5 3 6 4 2 5 1 6
REMARK H PARENT
REMARK Flexibility Score: inf
ROOT
ATOM      1  C   UNL     1      -4.707  35.591  20.616  1.00  0.00     0.052 C 
ENDROOT
BRANCH   1   2
ATOM      2  C   UNL     1      -4.671  36.903  19.899  1.00  0.00     0.041 C 
ATOM      3  O   UNL     1      -5.494  37.810  20.195  1.00  0.00    -0.550 OA
ATOM      4  O   UNL     1      -3.760  37.108  18.870  1.00  0.00    -0.550 OA
ENDBRANCH   1   2
BRANCH   1   5
ATOM      5  C   UNL     1      -6.028  35.431  21.375  1.00  0.00     0.003 C 
ATOM      6  C   UNL     1      -5.781  35.128  22.850  1.00  0.00     0.004 C 
ENDBRANCH   1   5
TORSDOF 2
ENDMDL
MODEL 7
REMARK VINA RESULT:    -2.889      3.908      4.844
REMARK INTER + INTRA:          -3.296
REMARK INTER:                  -3.260
REMARK INTRA:                  -0.037
REMARK UNBOUND:                -0.070
REMARK SMILES CCCC(=O)[O-]
REMARK SMILES IDX 3 1 4 2 5 3 6 4 2 5 1 6
REMARK H PARENT
REMARK Flexibility Score: inf
ROOT
ATOM      1  C   UNL     1      -5.052  37.125  20.183  1.00  0.00     0.052 C 
ENDROOT
BRANCH   1   2
ATOM      2  C   UNL     1      -5.661  35.815  20.568  1.00  0.00     0.041 C 
ATOM      3  O   UNL     1      -5.946  34.964  19.685  1.00  0.00    -0.550 OA
ATOM      4  O   UNL     1      -5.961  35.552  21.899  1.00  0.00    -0.550 OA
ENDBRANCH   1   2
BRANCH   1   5
ATOM      5  C   UNL     1      -3.590  36.935  19.770  1.00  0.00     0.003 C 
ATOM      6  C   UNL     1      -3.430  37.033  18.255  1.00  0.00     0.004 C 
ENDBRANCH   1   5
TORSDOF 2
ENDMDL
MODEL 8
REMARK VINA RESULT:    -2.885      2.999      4.500
REMARK INTER + INTRA:          -3.291
REMARK INTER:                  -3.286
REMARK INTRA:                  -0.005
REMARK UNBOUND:                -0.070
REMARK SMILES CCCC(=O)[O-]
REMARK SMILES IDX 3 1 4 2 5 3 6 4 2 5 1 6
REMARK H PARENT
REMARK Flexibility Score: inf
ROOT
ATOM      1  C   UNL     1      -4.329  37.092  19.428  1.00  0.00     0.052 C 
ENDROOT
BRANCH   1   2
ATOM      2  C   UNL     1      -3.168  37.130  18.486  1.00  0.00     0.041 C 
ATOM      3  O   UNL     1      -2.059  37.592  18.865  1.00  0.00    -0.550 OA
ATOM      4  O   UNL     1      -3.323  36.701  17.174  1.00  0.00    -0.550 OA
ENDBRANCH   1   2
BRANCH   1   5
ATOM      5  C   UNL     1      -4.618  35.653  19.864  1.00  0.00     0.003 C 
ATOM      6  C   UNL     1      -5.592  35.619  21.038  1.00  0.00     0.004 C 
ENDBRANCH   1   5
TORSDOF 2
ENDMDL
MODEL 9
REMARK VINA RESULT:    -2.541     17.125     17.945
REMARK INTER + INTRA:          -2.907
REMARK INTER:                  -2.875
REMARK INTRA:                  -0.032
REMARK UNBOUND:                -0.070
REMARK SMILES CCCC(=O)[O-]
REMARK SMILES IDX 3 1 4 2 5 3 6 4 2 5 1 6
REMARK H PARENT
REMARK Flexibility Score: inf
ROOT
ATOM      1  C   UNL     1      -5.329  25.922  29.272  1.00  0.00     0.052 C 
ENDROOT
BRANCH   1   2
ATOM      2  C   UNL     1      -5.294  27.138  30.141  1.00  0.00     0.041 C 
ATOM      3  O   UNL     1      -6.105  28.082  29.944  1.00  0.00    -0.550 OA
ATOM      4  O   UNL     1      -4.332  27.254  31.137  1.00  0.00    -0.550 OA
ENDBRANCH   1   2
BRANCH   1   5
ATOM      5  C   UNL     1      -4.452  24.815  29.865  1.00  0.00     0.003 C 
ATOM      6  C   UNL     1      -5.298  23.634  30.334  1.00  0.00     0.004 C 
ENDBRANCH   1   5
TORSDOF 2
ENDMDL
