MODEL 1
REMARK VINA RESULT:     4.294      0.000      0.000
REMARK INTER + INTRA:           9.917
REMARK INTER:                   9.816
REMARK INTRA:                   0.101
REMARK UNBOUND:                 0.101
REMARK SMILES CCCCCCCCCCCCCCCCCCCCCCCC(=O)[O-]
REMARK SMILES IDX 13 1 14 2 15 3 16 4 17 5 18 6 19 7 20 8 21 9 22 10 23 11
REMARK SMILES IDX 24 12 25 13 26 14 12 15 11 16 10 17 9 18 8 19 7 20 6 21 5 22
REMARK SMILES IDX 4 23 3 24 2 25 1 26
REMARK H PARENT
REMARK Flexibility Score: inf
ROOT
ATOM      1  C   UNL     1      -5.410  38.295  21.113  1.00  0.00     0.000 C 
ENDROOT
BRANCH   1   2
ATOM      2  C   UNL     1      -5.640  39.745  21.555  1.00  0.00     0.000 C 
BRANCH   2   3
ATOM      3  C   UNL     1      -5.056  39.994  22.955  1.00  0.00     0.000 C 
BRANCH   3   4
ATOM      4  C   UNL     1      -4.659  38.691  23.667  1.00  0.00     0.000 C 
BRANCH   4   5
ATOM      5  C   UNL     1      -5.421  38.486  24.988  1.00  0.00     0.000 C 
BRANCH   5   6
ATOM      6  C   UNL     1      -4.566  37.791  26.057  1.00  0.00     0.000 C 
BRANCH   6   7
ATOM      7  C   UNL     1      -4.523  36.263  25.879  1.00  0.00     0.000 C 
BRANCH   7   8
ATOM      8  C   UNL     1      -5.913  35.657  25.628  1.00  0.00     0.000 C 
BRANCH   8   9
ATOM      9  C   UNL     1      -6.125  35.247  24.163  1.00  0.00     0.000 C 
BRANCH   9  10
ATOM     10  C   UNL     1      -4.781  35.146  23.425  1.00  0.00     0.006 C 
BRANCH  10  11
ATOM     11  C   UNL     1      -4.557  33.757  22.811  1.00  0.00     0.053 C 
BRANCH  11  12
ATOM     12  C   UNL     1      -3.313  33.710  21.976  1.00  0.00     0.041 C 
ATOM     13  O   UNL     1      -2.693  32.622  21.823  1.00  0.00    -0.550 OA
ATOM     14  O   UNL     1      -2.850  34.862  21.351  1.00  0.00    -0.550 OA
ENDBRANCH  11  12
ENDBRANCH  10  11
ENDBRANCH   9  10
ENDBRANCH   8   9
ENDBRANCH   7   8
ENDBRANCH   6   7
ENDBRANCH   5   6
ENDBRANCH   4   5
ENDBRANCH   3   4
ENDBRANCH   2   3
ENDBRANCH   1   2
BRANCH   1  15
ATOM     15  C   UNL     1      -5.255  38.203  19.588  1.00  0.00     0.000 C 
BRANCH  15  16
ATOM     16  C   UNL     1      -5.047  36.760  19.100  1.00  0.00     0.000 C 
BRANCH  16  17
ATOM     17  C   UNL     1      -5.627  35.717  20.073  1.00  0.00     0.000 C 
BRANCH  17  18
ATOM     18  C   UNL     1      -5.469  34.279  19.561  1.00  0.00    -0.000 C 
BRANCH  18  19
ATOM     19  C   UNL     1      -5.334  34.205  18.028  1.00  0.00    -0.000 C 
BRANCH  19  20
ATOM     20  C   UNL     1      -4.308  35.220  17.503  1.00  0.00    -0.000 C 
BRANCH  20  21
ATOM     21  C   UNL     1      -3.438  34.644  16.366  1.00  0.00    -0.000 C 
BRANCH  21  22
ATOM     22  C   UNL     1      -2.546  35.712  15.712  1.00  0.00    -0.000 C 
BRANCH  22  23
ATOM     23  C   UNL     1      -2.932  35.958  14.243  1.00  0.00    -0.000 C 
BRANCH  23  24
ATOM     24  C   UNL     1      -4.175  36.856  14.139  1.00  0.00    -0.000 C 
BRANCH  24  25
ATOM     25  C   UNL     1      -3.840  38.349  14.288  1.00  0.00    -0.003 C 
ATOM     26  C   UNL     1      -5.038  39.260  14.010  1.00  0.00     0.004 C 
ENDBRANCH  24  25
ENDBRANCH  23  24
ENDBRANCH  22  23
ENDBRANCH  21  22
ENDBRANCH  20  21
ENDBRANCH  19  20
ENDBRANCH  18  19
ENDBRANCH  17  18
ENDBRANCH  16  17
ENDBRANCH  15  16
ENDBRANCH   1  15
TORSDOF 22
ENDMDL
MODEL 2
REMARK VINA RESULT:     5.795      2.881      4.254
REMARK INTER + INTRA:          13.349
REMARK INTER:                  10.784
REMARK INTRA:                   2.566
REMARK UNBOUND:                 0.101
REMARK SMILES CCCCCCCCCCCCCCCCCCCCCCCC(=O)[O-]
REMARK SMILES IDX 13 1 14 2 15 3 16 4 17 5 18 6 19 7 20 8 21 9 22 10 23 11
REMARK SMILES IDX 24 12 25 13 26 14 12 15 11 16 10 17 9 18 8 19 7 20 6 21 5 22
REMARK SMILES IDX 4 23 3 24 2 25 1 26
REMARK H PARENT
REMARK Flexibility Score: inf
ROOT
ATOM      1  C   UNL     1      -5.915  36.028  23.007  1.00  0.00     0.000 C 
ENDROOT
BRANCH   1   2
ATOM      2  C   UNL     1      -6.085  34.623  22.418  1.00  0.00     0.000 C 
BRANCH   2   3
ATOM      3  C   UNL     1      -6.001  33.550  23.515  1.00  0.00     0.000 C 
BRANCH   3   4
ATOM      4  C   UNL     1      -6.124  34.143  24.927  1.00  0.00     0.000 C 
BRANCH   4   5
ATOM      5  C   UNL     1      -5.980  35.675  24.938  1.00  0.00     0.000 C 
BRANCH   5   6
ATOM      6  C   UNL     1      -4.663  36.136  25.579  1.00  0.00     0.000 C 
BRANCH   6   7
ATOM      7  C   UNL     1      -4.775  37.532  26.219  1.00  0.00     0.000 C 
BRANCH   7   8
ATOM      8  C   UNL     1      -3.482  37.962  26.930  1.00  0.00     0.000 C 
BRANCH   8   9
ATOM      9  C   UNL     1      -2.345  36.945  26.758  1.00  0.00     0.000 C 
BRANCH   9  10
ATOM     10  C   UNL     1      -1.935  36.348  28.113  1.00  0.00     0.006 C 
BRANCH  10  11
ATOM     11  C   UNL     1      -2.286  34.857  28.223  1.00  0.00     0.053 C 
BRANCH  11  12
ATOM     12  C   UNL     1      -1.651  34.222  29.423  1.00  0.00     0.041 C 
ATOM     13  O   UNL     1      -2.339  33.985  30.454  1.00  0.00    -0.550 OA
ATOM     14  O   UNL     1      -0.305  33.874  29.397  1.00  0.00    -0.550 OA
ENDBRANCH  11  12
ENDBRANCH  10  11
ENDBRANCH   9  10
ENDBRANCH   8   9
ENDBRANCH   7   8
ENDBRANCH   6   7
ENDBRANCH   5   6
ENDBRANCH   4   5
ENDBRANCH   3   4
ENDBRANCH   2   3
ENDBRANCH   1   2
BRANCH   1  15
ATOM     15  C   UNL     1      -5.106  36.928  22.061  1.00  0.00     0.000 C 
BRANCH  15  16
ATOM     16  C   UNL     1      -6.000  37.794  21.158  1.00  0.00     0.000 C 
BRANCH  16  17
ATOM     17  C   UNL     1      -5.264  38.294  19.902  1.00  0.00     0.000 C 
BRANCH  17  18
ATOM     18  C   UNL     1      -4.693  37.146  19.057  1.00  0.00    -0.000 C 
BRANCH  18  19
ATOM     19  C   UNL     1      -5.358  35.792  19.365  1.00  0.00    -0.000 C 
BRANCH  19  20
ATOM     20  C   UNL     1      -5.012  34.738  18.303  1.00  0.00    -0.000 C 
BRANCH  20  21
ATOM     21  C   UNL     1      -3.714  35.075  17.540  1.00  0.00    -0.000 C 
BRANCH  21  22
ATOM     22  C   UNL     1      -3.905  35.036  16.013  1.00  0.00    -0.000 C 
BRANCH  22  23
ATOM     23  C   UNL     1      -2.693  35.627  15.271  1.00  0.00    -0.000 C 
BRANCH  23  24
ATOM     24  C   UNL     1      -3.140  36.517  14.101  1.00  0.00    -0.000 C 
BRANCH  24  25
ATOM     25  C   UNL     1      -3.575  37.920  14.558  1.00  0.00    -0.003 C 
ATOM     26  C   UNL     1      -4.859  38.398  13.875  1.00  0.00     0.004 C 
ENDBRANCH  24  25
ENDBRANCH  23  24
ENDBRANCH  22  23
ENDBRANCH  21  22
ENDBRANCH  20  21
ENDBRANCH  19  20
ENDBRANCH  18  19
ENDBRANCH  17  18
ENDBRANCH  16  17
ENDBRANCH  15  16
ENDBRANCH   1  15
TORSDOF 22
ENDMDL
MODEL 3
REMARK VINA RESULT:     5.926      2.988      9.301
REMARK INTER + INTRA:          13.649
REMARK INTER:                  13.320
REMARK INTRA:                   0.329
REMARK UNBOUND:                 0.101
REMARK SMILES CCCCCCCCCCCCCCCCCCCCCCCC(=O)[O-]
REMARK SMILES IDX 13 1 14 2 15 3 16 4 17 5 18 6 19 7 20 8 21 9 22 10 23 11
REMARK SMILES IDX 24 12 25 13 26 14 12 15 11 16 10 17 9 18 8 19 7 20 6 21 5 22
REMARK SMILES IDX 4 23 3 24 2 25 1 26
REMARK H PARENT
REMARK Flexibility Score: inf
ROOT
ATOM      1  C   UNL     1      -4.832  36.900  21.596  1.00  0.00     0.000 C 
ENDROOT
BRANCH   1   2
ATOM      2  C   UNL     1      -5.290  37.356  20.206  1.00  0.00     0.000 C 
BRANCH   2   3
ATOM      3  C   UNL     1      -5.143  36.224  19.177  1.00  0.00     0.000 C 
BRANCH   3   4
ATOM      4  C   UNL     1      -4.469  34.977  19.768  1.00  0.00     0.000 C 
BRANCH   4   5
ATOM      5  C   UNL     1      -4.585  33.751  18.846  1.00  0.00     0.000 C 
BRANCH   5   6
ATOM      6  C   UNL     1      -4.831  34.139  17.381  1.00  0.00     0.000 C 
BRANCH   6   7
ATOM      7  C   UNL     1      -4.140  35.459  16.996  1.00  0.00     0.000 C 
BRANCH   7   8
ATOM      8  C   UNL     1      -2.660  35.267  16.625  1.00  0.00     0.000 C 
BRANCH   8   9
ATOM      9  C   UNL     1      -2.441  35.145  15.110  1.00  0.00     0.000 C 
BRANCH   9  10
ATOM     10  C   UNL     1      -3.572  35.840  14.337  1.00  0.00     0.006 C 
BRANCH  10  11
ATOM     11  C   UNL     1      -3.228  37.295  13.984  1.00  0.00     0.053 C 
BRANCH  11  12
ATOM     12  C   UNL     1      -4.380  38.218  14.240  1.00  0.00     0.041 C 
ATOM     13  O   UNL     1      -5.544  37.896  13.875  1.00  0.00    -0.550 OA
ATOM     14  O   UNL     1      -4.173  39.425  14.898  1.00  0.00    -0.550 OA
ENDBRANCH  11  12
ENDBRANCH  10  11
ENDBRANCH   9  10
ENDBRANCH   8   9
ENDBRANCH   7   8
ENDBRANCH   6   7
ENDBRANCH   5   6
ENDBRANCH   4   5
ENDBRANCH   3   4
ENDBRANCH   2   3
ENDBRANCH   1   2
BRANCH   1  15
ATOM     15  C   UNL     1      -6.027  36.449  22.449  1.00  0.00     0.000 C 
BRANCH  15  16
ATOM     16  C   UNL     1      -6.117  34.919  22.580  1.00  0.00     0.000 C 
BRANCH  16  17
ATOM     17  C   UNL     1      -5.377  34.388  23.821  1.00  0.00     0.000 C 
BRANCH  17  18
ATOM     18  C   UNL     1      -6.125  34.687  25.128  1.00  0.00    -0.000 C 
BRANCH  18  19
ATOM     19  C   UNL     1      -5.897  36.126  25.627  1.00  0.00    -0.000 C 
BRANCH  19  20
ATOM     20  C   UNL     1      -4.422  36.539  25.503  1.00  0.00    -0.000 C 
BRANCH  20  21
ATOM     21  C   UNL     1      -3.977  37.482  26.640  1.00  0.00    -0.000 C 
BRANCH  21  22
ATOM     22  C   UNL     1      -2.457  37.717  26.647  1.00  0.00    -0.000 C 
BRANCH  22  23
ATOM     23  C   UNL     1      -1.760  36.915  27.760  1.00  0.00    -0.000 C 
BRANCH  23  24
ATOM     24  C   UNL     1      -2.472  35.575  28.007  1.00  0.00    -0.000 C 
BRANCH  24  25
ATOM     25  C   UNL     1      -1.559  34.536  28.677  1.00  0.00    -0.003 C 
ATOM     26  C   UNL     1      -1.979  34.210  30.113  1.00  0.00     0.004 C 
ENDBRANCH  24  25
ENDBRANCH  23  24
ENDBRANCH  22  23
ENDBRANCH  21  22
ENDBRANCH  20  21
ENDBRANCH  19  20
ENDBRANCH  18  19
ENDBRANCH  17  18
ENDBRANCH  16  17
ENDBRANCH  15  16
ENDBRANCH   1  15
TORSDOF 22
ENDMDL
MODEL 4
REMARK VINA RESULT:     6.044      2.585      7.771
REMARK INTER + INTRA:          13.918
REMARK INTER:                  10.644
REMARK INTRA:                   3.274
REMARK UNBOUND:                 0.101
REMARK SMILES CCCCCCCCCCCCCCCCCCCCCCCC(=O)[O-]
REMARK SMILES IDX 13 1 14 2 15 3 16 4 17 5 18 6 19 7 20 8 21 9 22 10 23 11
REMARK SMILES IDX 24 12 25 13 26 14 12 15 11 16 10 17 9 18 8 19 7 20 6 21 5 22
REMARK SMILES IDX 4 23 3 24 2 25 1 26
REMARK H PARENT
REMARK Flexibility Score: inf
ROOT
ATOM      1  C   UNL     1      -5.040  33.492  22.081  1.00  0.00     0.000 C 
ENDROOT
BRANCH   1   2
ATOM      2  C   UNL     1      -4.380  34.874  22.149  1.00  0.00     0.000 C 
BRANCH   2   3
ATOM      3  C   UNL     1      -4.239  35.488  20.747  1.00  0.00     0.000 C 
BRANCH   3   4
ATOM      4  C   UNL     1      -5.597  35.698  20.058  1.00  0.00     0.000 C 
BRANCH   4   5
ATOM      5  C   UNL     1      -6.125  34.414  19.393  1.00  0.00     0.000 C 
BRANCH   5   6
ATOM      6  C   UNL     1      -5.136  33.830  18.375  1.00  0.00     0.000 C 
BRANCH   6   7
ATOM      7  C   UNL     1      -4.090  34.860  17.909  1.00  0.00     0.000 C 
BRANCH   7   8
ATOM      8  C   UNL     1      -3.883  34.846  16.385  1.00  0.00     0.000 C 
BRANCH   8   9
ATOM      9  C   UNL     1      -2.655  35.656  15.948  1.00  0.00     0.000 C 
BRANCH   9  10
ATOM     10  C   UNL     1      -2.583  35.754  14.416  1.00  0.00     0.006 C 
BRANCH  10  11
ATOM     11  C   UNL     1      -2.761  37.195  13.916  1.00  0.00     0.053 C 
BRANCH  11  12
ATOM     12  C   UNL     1      -4.195  37.628  13.963  1.00  0.00     0.041 C 
ATOM     13  O   UNL     1      -5.119  36.774  13.875  1.00  0.00    -0.550 OA
ATOM     14  O   UNL     1      -4.511  38.972  14.122  1.00  0.00    -0.550 OA
ENDBRANCH  11  12
ENDBRANCH  10  11
ENDBRANCH   9  10
ENDBRANCH   8   9
ENDBRANCH   7   8
ENDBRANCH   6   7
ENDBRANCH   5   6
ENDBRANCH   4   5
ENDBRANCH   3   4
ENDBRANCH   2   3
ENDBRANCH   1   2
BRANCH   1  15
ATOM     15  C   UNL     1      -5.672  33.118  23.431  1.00  0.00     0.000 C 
BRANCH  15  16
ATOM     16  C   UNL     1      -6.115  34.348  24.240  1.00  0.00     0.000 C 
BRANCH  16  17
ATOM     17  C   UNL     1      -5.122  35.519  24.125  1.00  0.00     0.000 C 
BRANCH  17  18
ATOM     18  C   UNL     1      -5.706  36.842  24.641  1.00  0.00    -0.000 C 
BRANCH  18  19
ATOM     19  C   UNL     1      -5.157  37.233  26.025  1.00  0.00    -0.000 C 
BRANCH  19  20
ATOM     20  C   UNL     1      -4.111  38.355  25.921  1.00  0.00    -0.000 C 
BRANCH  20  21
ATOM     21  C   UNL     1      -4.137  39.057  24.548  1.00  0.00    -0.000 C 
BRANCH  21  22
ATOM     22  C   UNL     1      -5.528  39.617  24.201  1.00  0.00    -0.000 C 
BRANCH  22  23
ATOM     23  C   UNL     1      -5.594  40.125  22.750  1.00  0.00    -0.000 C 
BRANCH  23  24
ATOM     24  C   UNL     1      -5.794  38.962  21.765  1.00  0.00    -0.000 C 
BRANCH  24  25
ATOM     25  C   UNL     1      -4.850  39.044  20.554  1.00  0.00    -0.003 C 
ATOM     26  C   UNL     1      -5.268  38.121  19.407  1.00  0.00     0.004 C 
ENDBRANCH  24  25
ENDBRANCH  23  24
ENDBRANCH  22  23
ENDBRANCH  21  22
ENDBRANCH  20  21
ENDBRANCH  19  20
ENDBRANCH  18  19
ENDBRANCH  17  18
ENDBRANCH  16  17
ENDBRANCH  15  16
ENDBRANCH   1  15
TORSDOF 22
ENDMDL
MODEL 5
REMARK VINA RESULT:     6.273      2.546      8.365
REMARK INTER + INTRA:          14.442
REMARK INTER:                  14.171
REMARK INTRA:                   0.271
REMARK UNBOUND:                 0.101
REMARK SMILES CCCCCCCCCCCCCCCCCCCCCCCC(=O)[O-]
REMARK SMILES IDX 13 1 14 2 15 3 16 4 17 5 18 6 19 7 20 8 21 9 22 10 23 11
REMARK SMILES IDX 24 12 25 13 26 14 12 15 11 16 10 17 9 18 8 19 7 20 6 21 5 22
REMARK SMILES IDX 4 23 3 24 2 25 1 26
REMARK H PARENT
REMARK Flexibility Score: inf
ROOT
ATOM      1  C   UNL     1      -5.531  35.198  23.371  1.00  0.00     0.000 C 
ENDROOT
BRANCH   1   2
ATOM      2  C   UNL     1      -5.077  34.081  22.425  1.00  0.00     0.000 C 
BRANCH   2   3
ATOM      3  C   UNL     1      -3.776  34.465  21.702  1.00  0.00     0.000 C 
BRANCH   3   4
ATOM      4  C   UNL     1      -3.847  34.208  20.189  1.00  0.00     0.000 C 
BRANCH   4   5
ATOM      5  C   UNL     1      -5.281  33.932  19.704  1.00  0.00     0.000 C 
BRANCH   5   6
ATOM      6  C   UNL     1      -5.376  33.838  18.174  1.00  0.00     0.000 C 
BRANCH   6   7
ATOM      7  C   UNL     1      -5.199  35.204  17.486  1.00  0.00     0.000 C 
BRANCH   7   8
ATOM      8  C   UNL     1      -3.722  35.605  17.337  1.00  0.00     0.000 C 
BRANCH   8   9
ATOM      9  C   UNL     1      -3.033  34.897  16.161  1.00  0.00     0.000 C 
BRANCH   9  10
ATOM     10  C   UNL     1      -2.164  35.882  15.364  1.00  0.00     0.006 C 
BRANCH  10  11
ATOM     11  C   UNL     1      -2.788  36.244  14.009  1.00  0.00     0.053 C 
BRANCH  11  12
ATOM     12  C   UNL     1      -3.973  37.149  14.164  1.00  0.00     0.041 C 
ATOM     13  O   UNL     1      -5.129  36.734  13.875  1.00  0.00    -0.550 OA
ATOM     14  O   UNL     1      -3.804  38.442  14.644  1.00  0.00    -0.550 OA
ENDBRANCH  11  12
ENDBRANCH  10  11
ENDBRANCH   9  10
ENDBRANCH   8   9
ENDBRANCH   7   8
ENDBRANCH   6   7
ENDBRANCH   5   6
ENDBRANCH   4   5
ENDBRANCH   3   4
ENDBRANCH   2   3
ENDBRANCH   1   2
BRANCH   1  15
ATOM     15  C   UNL     1      -6.117  36.381  22.585  1.00  0.00     0.000 C 
BRANCH  15  16
ATOM     16  C   UNL     1      -5.922  36.238  21.066  1.00  0.00     0.000 C 
BRANCH  16  17
ATOM     17  C   UNL     1      -5.437  37.542  20.407  1.00  0.00     0.000 C 
BRANCH  17  18
ATOM     18  C   UNL     1      -5.986  38.795  21.103  1.00  0.00    -0.000 C 
BRANCH  18  19
ATOM     19  C   UNL     1      -4.905  39.558  21.892  1.00  0.00    -0.000 C 
BRANCH  19  20
ATOM     20  C   UNL     1      -5.322  39.775  23.355  1.00  0.00    -0.000 C 
BRANCH  20  21
ATOM     21  C   UNL     1      -4.478  38.940  24.339  1.00  0.00    -0.000 C 
BRANCH  21  22
ATOM     22  C   UNL     1      -5.346  38.076  25.270  1.00  0.00    -0.000 C 
BRANCH  22  23
ATOM     23  C   UNL     1      -4.543  36.919  25.889  1.00  0.00    -0.000 C 
BRANCH  23  24
ATOM     24  C   UNL     1      -3.700  37.405  27.080  1.00  0.00    -0.000 C 
BRANCH  24  25
ATOM     25  C   UNL     1      -2.200  37.118  26.898  1.00  0.00    -0.003 C 
ATOM     26  C   UNL     1      -1.353  38.391  26.834  1.00  0.00     0.004 C 
ENDBRANCH  24  25
ENDBRANCH  23  24
ENDBRANCH  22  23
ENDBRANCH  21  22
ENDBRANCH  20  21
ENDBRANCH  19  20
ENDBRANCH  18  19
ENDBRANCH  17  18
ENDBRANCH  16  17
ENDBRANCH  15  16
ENDBRANCH   1  15
TORSDOF 22
ENDMDL
MODEL 6
REMARK VINA RESULT:     6.874      3.049      9.108
REMARK INTER + INTRA:          15.815
REMARK INTER:                  14.351
REMARK INTRA:                   1.465
REMARK UNBOUND:                 0.101
REMARK SMILES CCCCCCCCCCCCCCCCCCCCCCCC(=O)[O-]
REMARK SMILES IDX 13 1 14 2 15 3 16 4 17 5 18 6 19 7 20 8 21 9 22 10 23 11
REMARK SMILES IDX 24 12 25 13 26 14 12 15 11 16 10 17 9 18 8 19 7 20 6 21 5 22
REMARK SMILES IDX 4 23 3 24 2 25 1 26
REMARK H PARENT
REMARK Flexibility Score: inf
ROOT
ATOM      1  C   UNL     1      -5.261  38.049  21.295  1.00  0.00     0.000 C 
ENDROOT
BRANCH   1   2
ATOM      2  C   UNL     1      -5.167  37.550  19.849  1.00  0.00     0.000 C 
BRANCH   2   3
ATOM      3  C   UNL     1      -6.110  36.359  19.614  1.00  0.00     0.000 C 
BRANCH   3   4
ATOM      4  C   UNL     1      -6.125  35.378  20.797  1.00  0.00     0.000 C 
BRANCH   4   5
ATOM      5  C   UNL     1      -4.832  34.550  20.892  1.00  0.00     0.000 C 
BRANCH   5   6
ATOM      6  C   UNL     1      -3.970  34.659  19.626  1.00  0.00     0.000 C 
BRANCH   6   7
ATOM      7  C   UNL     1      -4.789  34.474  18.336  1.00  0.00     0.000 C 
BRANCH   7   8
ATOM      8  C   UNL     1      -3.902  34.326  17.089  1.00  0.00     0.000 C 
BRANCH   8   9
ATOM      9  C   UNL     1      -3.710  35.652  16.339  1.00  0.00     0.000 C 
BRANCH   9  10
ATOM     10  C   UNL     1      -2.648  35.508  15.238  1.00  0.00     0.006 C 
BRANCH  10  11
ATOM     11  C   UNL     1      -2.681  36.673  14.239  1.00  0.00     0.053 C 
BRANCH  11  12
ATOM     12  C   UNL     1      -4.055  37.260  14.112  1.00  0.00     0.041 C 
ATOM     13  O   UNL     1      -5.043  36.513  13.875  1.00  0.00    -0.550 OA
ATOM     14  O   UNL     1      -4.246  38.627  14.274  1.00  0.00    -0.550 OA
ENDBRANCH  11  12
ENDBRANCH  10  11
ENDBRANCH   9  10
ENDBRANCH   8   9
ENDBRANCH   7   8
ENDBRANCH   6   7
ENDBRANCH   5   6
ENDBRANCH   4   5
ENDBRANCH   3   4
ENDBRANCH   2   3
ENDBRANCH   1   2
BRANCH   1  15
ATOM     15  C   UNL     1      -5.710  39.517  21.343  1.00  0.00     0.000 C 
BRANCH  15  16
ATOM     16  C   UNL     1      -5.815  40.059  22.778  1.00  0.00     0.000 C 
BRANCH  16  17
ATOM     17  C   UNL     1      -5.046  39.194  23.794  1.00  0.00     0.000 C 
BRANCH  17  18
ATOM     18  C   UNL     1      -5.524  37.735  23.809  1.00  0.00    -0.000 C 
BRANCH  18  19
ATOM     19  C   UNL     1      -5.712  37.186  25.235  1.00  0.00    -0.000 C 
BRANCH  19  20
ATOM     20  C   UNL     1      -4.606  37.681  26.180  1.00  0.00    -0.000 C 
BRANCH  20  21
ATOM     21  C   UNL     1      -3.498  36.629  26.393  1.00  0.00    -0.000 C 
BRANCH  21  22
ATOM     22  C   UNL     1      -2.254  37.218  27.079  1.00  0.00    -0.000 C 
BRANCH  22  23
ATOM     23  C   UNL     1      -1.994  36.564  28.448  1.00  0.00    -0.000 C 
BRANCH  23  24
ATOM     24  C   UNL     1      -1.620  35.081  28.291  1.00  0.00    -0.000 C 
BRANCH  24  25
ATOM     25  C   UNL     1      -1.981  34.247  29.532  1.00  0.00    -0.003 C 
ATOM     26  C   UNL     1      -1.175  32.950  29.633  1.00  0.00     0.004 C 
ENDBRANCH  24  25
ENDBRANCH  23  24
ENDBRANCH  22  23
ENDBRANCH  21  22
ENDBRANCH  20  21
ENDBRANCH  19  20
ENDBRANCH  18  19
ENDBRANCH  17  18
ENDBRANCH  16  17
ENDBRANCH  15  16
ENDBRANCH   1  15
TORSDOF 22
ENDMDL
