MODEL 1
REMARK VINA RESULT:    -3.202      0.000      0.000
REMARK INTER + INTRA:          -3.813
REMARK INTER:                  -3.670
REMARK INTRA:                  -0.143
REMARK UNBOUND:                -0.143
REMARK SMILES O=C([O-])C=Cc1ccc(O)cc1
REMARK SMILES IDX 6 1 7 2 12 3 8 4 11 5 9 6 5 7 4 8 2 9 1 10 3 11 10 12
REMARK H PARENT 10 13
REMARK Flexibility Score: inf
ROOT
ATOM      1  C   UNL     1      -8.352  -8.759  -1.344  1.00  0.00    -0.025 A 
ATOM      2  C   UNL     1      -7.738  -7.803  -2.170  1.00  0.00     0.012 A 
ATOM      3  C   UNL     1      -9.549  -9.364  -1.779  1.00  0.00     0.012 A 
ATOM      4  C   UNL     1      -8.315  -7.440  -3.390  1.00  0.00     0.047 A 
ATOM      5  C   UNL     1     -10.124  -8.998  -2.999  1.00  0.00     0.047 A 
ATOM      6  C   UNL     1      -9.510  -8.033  -3.807  1.00  0.00     0.115 A 
ENDROOT
BRANCH   1   7
ATOM      7  C   UNL     1      -7.694  -9.119  -0.063  1.00  0.00     0.010 C 
ATOM      8  C   UNL     1      -6.432  -9.563   0.028  1.00  0.00     0.025 C 
BRANCH   8   9
ATOM      9  C   UNL     1      -5.816  -9.922   1.316  1.00  0.00     0.064 C 
ATOM     10  O   UNL     1      -4.570 -10.078   1.421  1.00  0.00    -0.545 OA
ATOM     11  O   UNL     1      -6.622 -10.094   2.433  1.00  0.00    -0.545 OA
ENDBRANCH   8   9
ENDBRANCH   1   7
BRANCH   6  12
ATOM     12  O   UNL     1     -10.075  -7.661  -5.025  1.00  0.00    -0.508 OA
ATOM     13  H   UNL     1      -9.979  -8.239  -5.852  1.00  0.00     0.293 HD
ENDBRANCH   6  12
TORSDOF 3
ENDMDL
MODEL 2
REMARK VINA RESULT:    -3.199      1.948      5.760
REMARK INTER + INTRA:          -3.810
REMARK INTER:                  -3.674
REMARK INTRA:                  -0.135
REMARK UNBOUND:                -0.143
REMARK SMILES O=C([O-])C=Cc1ccc(O)cc1
REMARK SMILES IDX 6 1 7 2 12 3 8 4 11 5 9 6 5 7 4 8 2 9 1 10 3 11 10 12
REMARK H PARENT 10 13
REMARK Flexibility Score: inf
ROOT
ATOM      1  C   UNL     1      -8.995  -8.767  -0.652  1.00  0.00    -0.025 A 
ATOM      2  C   UNL     1     -10.124  -8.480   0.134  1.00  0.00     0.012 A 
ATOM      3  C   UNL     1      -7.768  -9.025  -0.008  1.00  0.00     0.012 A 
ATOM      4  C   UNL     1     -10.028  -8.428   1.527  1.00  0.00     0.047 A 
ATOM      5  C   UNL     1      -7.675  -8.972   1.386  1.00  0.00     0.047 A 
ATOM      6  C   UNL     1      -8.803  -8.671   2.157  1.00  0.00     0.115 A 
ENDROOT
BRANCH   1   7
ATOM      7  C   UNL     1      -9.152  -8.821  -2.127  1.00  0.00     0.010 C 
ATOM      8  C   UNL     1      -8.896  -7.788  -2.942  1.00  0.00     0.025 C 
BRANCH   8   9
ATOM      9  C   UNL     1      -9.075  -7.875  -4.400  1.00  0.00     0.064 C 
ATOM     10  O   UNL     1      -9.934  -8.644  -4.908  1.00  0.00    -0.545 OA
ATOM     11  O   UNL     1      -8.280  -7.098  -5.233  1.00  0.00    -0.545 OA
ENDBRANCH   8   9
ENDBRANCH   1   7
BRANCH   6  12
ATOM     12  O   UNL     1      -8.721  -8.615   3.547  1.00  0.00    -0.508 OA
ATOM     13  H   UNL     1      -9.421  -8.135   4.100  1.00  0.00     0.293 HD
ENDBRANCH   6  12
TORSDOF 3
ENDMDL
MODEL 3
REMARK VINA RESULT:    -3.162     17.485     18.540
REMARK INTER + INTRA:          -3.767
REMARK INTER:                  -3.633
REMARK INTRA:                  -0.134
REMARK UNBOUND:                -0.143
REMARK SMILES O=C([O-])C=Cc1ccc(O)cc1
REMARK SMILES IDX 6 1 7 2 12 3 8 4 11 5 9 6 5 7 4 8 2 9 1 10 3 11 10 12
REMARK H PARENT 10 13
REMARK Flexibility Score: inf
ROOT
ATOM      1  C   UNL     1      -8.351   8.758   0.453  1.00  0.00    -0.025 A 
ATOM      2  C   UNL     1      -9.545   9.414   0.797  1.00  0.00     0.012 A 
ATOM      3  C   UNL     1      -7.760   7.888   1.392  1.00  0.00     0.012 A 
ATOM      4  C   UNL     1     -10.124   9.226   2.055  1.00  0.00     0.047 A 
ATOM      5  C   UNL     1      -8.342   7.703   2.649  1.00  0.00     0.047 A 
ATOM      6  C   UNL     1      -9.524   8.373   2.986  1.00  0.00     0.115 A 
ENDROOT
BRANCH   1   7
ATOM      7  C   UNL     1      -7.781   8.983  -0.899  1.00  0.00     0.010 C 
ATOM      8  C   UNL     1      -6.507   9.333  -1.122  1.00  0.00     0.025 C 
BRANCH   8   9
ATOM      9  C   UNL     1      -5.980   9.559  -2.477  1.00  0.00     0.064 C 
ATOM     10  O   UNL     1      -6.738   9.903  -3.423  1.00  0.00    -0.545 OA
ATOM     11  O   UNL     1      -4.623   9.387  -2.720  1.00  0.00    -0.545 OA
ENDBRANCH   8   9
ENDBRANCH   1   7
BRANCH   6  12
ATOM     12  O   UNL     1     -10.112   8.196   4.237  1.00  0.00    -0.508 OA
ATOM     13  H   UNL     1     -10.823   7.492   4.392  1.00  0.00     0.293 HD
ENDBRANCH   6  12
TORSDOF 3
ENDMDL
MODEL 4
REMARK VINA RESULT:    -3.143     13.533     14.612
REMARK INTER + INTRA:          -3.745
REMARK INTER:                  -3.602
REMARK INTRA:                  -0.143
REMARK UNBOUND:                -0.143
REMARK SMILES O=C([O-])C=Cc1ccc(O)cc1
REMARK SMILES IDX 6 1 7 2 12 3 8 4 11 5 9 6 5 7 4 8 2 9 1 10 3 11 10 12
REMARK H PARENT 10 13
REMARK Flexibility Score: inf
ROOT
ATOM      1  C   UNL     1      -8.404   1.514   8.401  1.00  0.00    -0.025 A 
ATOM      2  C   UNL     1      -7.501   2.394   7.781  1.00  0.00     0.012 A 
ATOM      3  C   UNL     1      -9.062   1.932   9.576  1.00  0.00     0.012 A 
ATOM      4  C   UNL     1      -7.240   3.652   8.333  1.00  0.00     0.047 A 
ATOM      5  C   UNL     1      -8.798   3.190  10.125  1.00  0.00     0.047 A 
ATOM      6  C   UNL     1      -7.885   4.052   9.507  1.00  0.00     0.115 A 
ENDROOT
BRANCH   1   7
ATOM      7  C   UNL     1      -8.655   0.194   7.771  1.00  0.00     0.010 C 
ATOM      8  C   UNL     1      -9.019   0.036   6.490  1.00  0.00     0.025 C 
BRANCH   8   9
ATOM      9  C   UNL     1      -9.271  -1.289   5.902  1.00  0.00     0.064 C 
ATOM     10  O   UNL     1      -9.182  -1.479   4.659  1.00  0.00    -0.545 OA
ATOM     11  O   UNL     1      -9.616  -2.349   6.730  1.00  0.00    -0.545 OA
ENDBRANCH   8   9
ENDBRANCH   1   7
BRANCH   6  12
ATOM     12  O   UNL     1      -7.615   5.309  10.046  1.00  0.00    -0.508 OA
ATOM     13  H   UNL     1      -8.054   5.622  10.903  1.00  0.00     0.293 HD
ENDBRANCH   6  12
TORSDOF 3
ENDMDL
MODEL 5
REMARK VINA RESULT:    -3.119     20.126     21.611
REMARK INTER + INTRA:          -3.718
REMARK INTER:                  -3.582
REMARK INTRA:                  -0.135
REMARK UNBOUND:                -0.143
REMARK SMILES O=C([O-])C=Cc1ccc(O)cc1
REMARK SMILES IDX 6 1 7 2 12 3 8 4 11 5 9 6 5 7 4 8 2 9 1 10 3 11 10 12
REMARK H PARENT 10 13
REMARK Flexibility Score: inf
ROOT
ATOM      1  C   UNL     1       0.647   8.961  -9.367  1.00  0.00    -0.025 A 
ATOM      2  C   UNL     1      -0.031   7.756  -9.618  1.00  0.00     0.012 A 
ATOM      3  C   UNL     1      -0.107  10.125  -9.113  1.00  0.00     0.012 A 
ATOM      4  C   UNL     1      -1.428   7.717  -9.641  1.00  0.00     0.047 A 
ATOM      5  C   UNL     1      -1.504  10.082  -9.137  1.00  0.00     0.047 A 
ATOM      6  C   UNL     1      -2.168   8.879  -9.404  1.00  0.00     0.115 A 
ENDROOT
BRANCH   1   7
ATOM      7  C   UNL     1       2.131   8.948  -9.343  1.00  0.00     0.010 C 
ATOM      8  C   UNL     1       2.861   9.225  -8.253  1.00  0.00     0.025 C 
BRANCH   8   9
ATOM      9  C   UNL     1       4.333   9.214  -8.269  1.00  0.00     0.064 C 
ATOM     10  O   UNL     1       4.987   8.396  -7.569  1.00  0.00    -0.545 OA
ATOM     11  O   UNL     1       5.013  10.125  -9.067  1.00  0.00    -0.545 OA
ENDBRANCH   8   9
ENDBRANCH   1   7
BRANCH   6  12
ATOM     12  O   UNL     1      -3.561   8.826  -9.431  1.00  0.00    -0.508 OA
ATOM     13  H   UNL     1      -4.095   9.301 -10.148  1.00  0.00     0.293 HD
ENDBRANCH   6  12
TORSDOF 3
ENDMDL
MODEL 6
REMARK VINA RESULT:    -3.062     11.929     13.841
REMARK INTER + INTRA:          -3.653
REMARK INTER:                  -3.510
REMARK INTRA:                  -0.143
REMARK UNBOUND:                -0.143
REMARK SMILES O=C([O-])C=Cc1ccc(O)cc1
REMARK SMILES IDX 6 1 7 2 12 3 8 4 11 5 9 6 5 7 4 8 2 9 1 10 3 11 10 12
REMARK H PARENT 10 13
REMARK Flexibility Score: inf
ROOT
ATOM      1  C   UNL     1      -0.285  -6.574   9.276  1.00  0.00    -0.025 A 
ATOM      2  C   UNL     1       0.425  -7.703   8.831  1.00  0.00     0.012 A 
ATOM      3  C   UNL     1      -1.688  -6.657   9.393  1.00  0.00     0.012 A 
ATOM      4  C   UNL     1      -0.250  -8.878   8.488  1.00  0.00     0.047 A 
ATOM      5  C   UNL     1      -2.358  -7.833   9.048  1.00  0.00     0.047 A 
ATOM      6  C   UNL     1      -1.642  -8.946   8.592  1.00  0.00     0.115 A 
ENDROOT
BRANCH   1   7
ATOM      7  C   UNL     1       0.478  -5.354   9.639  1.00  0.00     0.010 C 
ATOM      8  C   UNL     1       1.483  -4.857   8.903  1.00  0.00     0.025 C 
BRANCH   8   9
ATOM      9  C   UNL     1       2.225  -3.650   9.301  1.00  0.00     0.064 C 
ATOM     10  O   UNL     1       1.696  -2.508   9.236  1.00  0.00    -0.545 OA
ATOM     11  O   UNL     1       3.533  -3.771   9.753  1.00  0.00    -0.545 OA
ENDBRANCH   8   9
ENDBRANCH   1   7
BRANCH   6  12
ATOM     12  O   UNL     1      -2.302 -10.124   8.245  1.00  0.00    -0.508 OA
ATOM     13  H   UNL     1      -2.878 -10.183   7.414  1.00  0.00     0.293 HD
ENDBRANCH   6  12
TORSDOF 3
ENDMDL
MODEL 7
REMARK VINA RESULT:    -3.059     11.749     13.377
REMARK INTER + INTRA:          -3.649
REMARK INTER:                  -3.513
REMARK INTRA:                  -0.136
REMARK UNBOUND:                -0.143
REMARK SMILES O=C([O-])C=Cc1ccc(O)cc1
REMARK SMILES IDX 6 1 7 2 12 3 8 4 11 5 9 6 5 7 4 8 2 9 1 10 3 11 10 12
REMARK H PARENT 10 13
REMARK Flexibility Score: inf
ROOT
ATOM      1  C   UNL     1       0.734  -9.033   8.472  1.00  0.00    -0.025 A 
ATOM      2  C   UNL     1      -0.113 -10.125   8.219  1.00  0.00     0.012 A 
ATOM      3  C   UNL     1       0.160  -7.794   8.823  1.00  0.00     0.012 A 
ATOM      4  C   UNL     1      -1.502  -9.980   8.290  1.00  0.00     0.047 A 
ATOM      5  C   UNL     1      -1.229  -7.653   8.893  1.00  0.00     0.047 A 
ATOM      6  C   UNL     1      -2.064  -8.744   8.623  1.00  0.00     0.115 A 
ENDROOT
BRANCH   1   7
ATOM      7  C   UNL     1       2.202  -9.242   8.394  1.00  0.00     0.010 C 
ATOM      8  C   UNL     1       2.903  -9.186   7.253  1.00  0.00     0.025 C 
BRANCH   8   9
ATOM      9  C   UNL     1       4.357  -9.410   7.213  1.00  0.00     0.064 C 
ATOM     10  O   UNL     1       5.057  -8.984   6.255  1.00  0.00    -0.545 OA
ATOM     11  O   UNL     1       4.970 -10.106   8.247  1.00  0.00    -0.545 OA
ENDBRANCH   8   9
ENDBRANCH   1   7
BRANCH   6  12
ATOM     12  O   UNL     1      -3.450  -8.613   8.690  1.00  0.00    -0.508 OA
ATOM     13  H   UNL     1      -4.052  -8.996   7.971  1.00  0.00     0.293 HD
ENDBRANCH   6  12
TORSDOF 3
ENDMDL
MODEL 8
REMARK VINA RESULT:    -2.972     19.847     21.750
REMARK INTER + INTRA:          -3.549
REMARK INTER:                  -3.414
REMARK INTRA:                  -0.135
REMARK UNBOUND:                -0.143
REMARK SMILES O=C([O-])C=Cc1ccc(O)cc1
REMARK SMILES IDX 6 1 7 2 12 3 8 4 11 5 9 6 5 7 4 8 2 9 1 10 3 11 10 12
REMARK H PARENT 10 13
REMARK Flexibility Score: inf
ROOT
ATOM      1  C   UNL     1       9.023   0.275   9.049  1.00  0.00    -0.025 A 
ATOM      2  C   UNL     1       8.653   1.099  10.125  1.00  0.00     0.012 A 
ATOM      3  C   UNL     1       9.374   0.876   7.822  1.00  0.00     0.012 A 
ATOM      4  C   UNL     1       8.611   2.488   9.976  1.00  0.00     0.047 A 
ATOM      5  C   UNL     1       9.331   2.265   7.677  1.00  0.00     0.047 A 
ATOM      6  C   UNL     1       8.946   3.075   8.753  1.00  0.00     0.115 A 
ENDROOT
BRANCH   1   7
ATOM      7  C   UNL     1       9.063  -1.194   9.260  1.00  0.00     0.010 C 
ATOM      8  C   UNL     1       8.168  -2.046   8.740  1.00  0.00     0.025 C 
BRANCH   8   9
ATOM      9  C   UNL     1       8.233  -3.497   8.981  1.00  0.00     0.064 C 
ATOM     10  O   UNL     1       8.620  -3.957  10.088  1.00  0.00    -0.545 OA
ATOM     11  O   UNL     1       7.863  -4.374   7.970  1.00  0.00    -0.545 OA
ENDBRANCH   8   9
ENDBRANCH   1   7
BRANCH   6  12
ATOM     12  O   UNL     1       8.899   4.461   8.618  1.00  0.00    -0.508 OA
ATOM     13  H   UNL     1       8.150   4.919   8.113  1.00  0.00     0.293 HD
ENDBRANCH   6  12
TORSDOF 3
ENDMDL
MODEL 9
REMARK VINA RESULT:    -2.598     16.857     17.450
REMARK INTER + INTRA:          -3.121
REMARK INTER:                  -2.982
REMARK INTRA:                  -0.139
REMARK UNBOUND:                -0.143
REMARK SMILES O=C([O-])C=Cc1ccc(O)cc1
REMARK SMILES IDX 6 1 7 2 12 3 8 4 11 5 9 6 5 7 4 8 2 9 1 10 3 11 10 12
REMARK H PARENT 10 13
REMARK Flexibility Score: inf
ROOT
ATOM      1  C   UNL     1      -9.052   8.621  -0.346  1.00  0.00    -0.025 A 
ATOM      2  C   UNL     1     -10.125   8.332  -1.206  1.00  0.00     0.012 A 
ATOM      3  C   UNL     1      -7.796   8.930  -0.906  1.00  0.00     0.012 A 
ATOM      4  C   UNL     1      -9.945   8.327  -2.592  1.00  0.00     0.047 A 
ATOM      5  C   UNL     1      -7.620   8.924  -2.293  1.00  0.00     0.047 A 
ATOM      6  C   UNL     1      -8.692   8.619  -3.139  1.00  0.00     0.115 A 
ENDROOT
BRANCH   1   7
ATOM      7  C   UNL     1      -9.297   8.624   1.118  1.00  0.00     0.010 C 
ATOM      8  C   UNL     1      -9.550   7.519   1.834  1.00  0.00     0.025 C 
BRANCH   8   9
ATOM      9  C   UNL     1      -9.801   7.562   3.284  1.00  0.00     0.064 C 
ATOM     10  O   UNL     1      -9.999   8.655   3.879  1.00  0.00    -0.545 OA
ATOM     11  O   UNL     1      -9.816   6.379   4.010  1.00  0.00    -0.545 OA
ENDBRANCH   8   9
ENDBRANCH   1   7
BRANCH   6  12
ATOM     12  O   UNL     1      -8.526   8.610  -4.523  1.00  0.00    -0.508 OA
ATOM     13  H   UNL     1      -8.236   7.774  -5.016  1.00  0.00     0.293 HD
ENDBRANCH   6  12
TORSDOF 3
ENDMDL
