MODEL 1
REMARK VINA RESULT:    -3.967      0.000      0.000
REMARK INTER + INTRA:         -12.591
REMARK INTER:                  -9.068
REMARK INTRA:                  -3.523
REMARK UNBOUND:                -3.523
REMARK SMILES CCCCCCCCCCCCCCCCCCCCCCCC(=O)[O-]
REMARK SMILES IDX 13 1 14 2 15 3 16 4 17 5 18 6 19 7 20 8 21 9 22 10 23 11
REMARK SMILES IDX 24 12 25 13 26 14 12 15 11 16 10 17 9 18 8 19 7 20 6 21 5 22
REMARK SMILES IDX 4 23 3 24 2 25 1 26
REMARK H PARENT
REMARK Flexibility Score: inf
ROOT
ATOM      1  C   UNL     1      11.711 -23.247 -31.478  1.00  0.00     0.000 C 
ENDROOT
BRANCH   1   2
ATOM      2  C   UNL     1      10.299 -23.200 -30.884  1.00  0.00     0.000 C 
BRANCH   2   3
ATOM      3  C   UNL     1       9.525 -24.486 -31.196  1.00  0.00     0.000 C 
BRANCH   3   4
ATOM      4  C   UNL     1       9.609 -25.475 -30.022  1.00  0.00     0.000 C 
BRANCH   4   5
ATOM      5  C   UNL     1      10.927 -26.265 -30.007  1.00  0.00     0.000 C 
BRANCH   5   6
ATOM      6  C   UNL     1      11.765 -25.991 -28.745  1.00  0.00     0.000 C 
BRANCH   6   7
ATOM      7  C   UNL     1      10.920 -25.404 -27.600  1.00  0.00     0.000 C 
BRANCH   7   8
ATOM      8  C   UNL     1      10.477 -26.457 -26.558  1.00  0.00     0.000 C 
BRANCH   8   9
ATOM      9  C   UNL     1       8.950 -26.623 -26.458  1.00  0.00     0.000 C 
BRANCH   9  10
ATOM     10  C   UNL     1       8.356 -27.690 -27.398  1.00  0.00     0.006 C 
BRANCH  10  11
ATOM     11  C   UNL     1       9.383 -28.702 -27.936  1.00  0.00     0.053 C 
BRANCH  11  12
ATOM     12  C   UNL     1       8.769 -29.664 -28.906  1.00  0.00     0.041 C 
ATOM     13  O   UNL     1       8.433 -29.276 -30.056  1.00  0.00    -0.550 OA
ATOM     14  O   UNL     1       8.600 -30.996 -28.552  1.00  0.00    -0.550 OA
ENDBRANCH  11  12
ENDBRANCH  10  11
ENDBRANCH   9  10
ENDBRANCH   8   9
ENDBRANCH   7   8
ENDBRANCH   6   7
ENDBRANCH   5   6
ENDBRANCH   4   5
ENDBRANCH   3   4
ENDBRANCH   2   3
ENDBRANCH   1   2
BRANCH   1  15
ATOM     15  C   UNL     1      11.686 -23.786 -32.913  1.00  0.00     0.000 C 
BRANCH  15  16
ATOM     16  C   UNL     1      11.223 -22.704 -33.900  1.00  0.00     0.000 C 
BRANCH  16  17
ATOM     17  C   UNL     1      12.233 -22.452 -35.036  1.00  0.00     0.000 C 
BRANCH  17  18
ATOM     18  C   UNL     1      13.583 -23.179 -34.890  1.00  0.00    -0.000 C 
BRANCH  18  19
ATOM     19  C   UNL     1      14.739 -22.232 -34.529  1.00  0.00    -0.000 C 
BRANCH  19  20
ATOM     20  C   UNL     1      15.188 -22.363 -33.061  1.00  0.00    -0.000 C 
BRANCH  20  21
ATOM     21  C   UNL     1      14.519 -21.383 -32.080  1.00  0.00    -0.000 C 
BRANCH  21  22
ATOM     22  C   UNL     1      13.986 -20.117 -32.766  1.00  0.00    -0.000 C 
BRANCH  22  23
ATOM     23  C   UNL     1      12.854 -19.483 -31.948  1.00  0.00    -0.000 C 
BRANCH  23  24
ATOM     24  C   UNL     1      11.776 -18.891 -32.867  1.00  0.00    -0.000 C 
BRANCH  24  25
ATOM     25  C   UNL     1      10.360 -19.353 -32.492  1.00  0.00    -0.003 C 
ATOM     26  C   UNL     1      10.137 -19.409 -30.981  1.00  0.00     0.004 C 
ENDBRANCH  24  25
ENDBRANCH  23  24
ENDBRANCH  22  23
ENDBRANCH  21  22
ENDBRANCH  20  21
ENDBRANCH  19  20
ENDBRANCH  18  19
ENDBRANCH  17  18
ENDBRANCH  16  17
ENDBRANCH  15  16
ENDBRANCH   1  15
TORSDOF 22
ENDMDL
MODEL 2
REMARK VINA RESULT:    -3.940      3.362      6.098
REMARK INTER + INTRA:         -12.530
REMARK INTER:                  -8.917
REMARK INTRA:                  -3.613
REMARK UNBOUND:                -3.523
REMARK SMILES CCCCCCCCCCCCCCCCCCCCCCCC(=O)[O-]
REMARK SMILES IDX 13 1 14 2 15 3 16 4 17 5 18 6 19 7 20 8 21 9 22 10 23 11
REMARK SMILES IDX 24 12 25 13 26 14 12 15 11 16 10 17 9 18 8 19 7 20 6 21 5 22
REMARK SMILES IDX 4 23 3 24 2 25 1 26
REMARK H PARENT
REMARK Flexibility Score: inf
ROOT
ATOM      1  C   UNL     1       7.967 -28.509 -29.122  1.00  0.00     0.000 C 
ENDROOT
BRANCH   1   2
ATOM      2  C   UNL     1       8.752 -29.814 -29.299  1.00  0.00     0.000 C 
BRANCH   2   3
ATOM      3  C   UNL     1       9.429 -30.233 -27.988  1.00  0.00     0.000 C 
BRANCH   3   4
ATOM      4  C   UNL     1      10.940 -30.426 -28.188  1.00  0.00     0.000 C 
BRANCH   4   5
ATOM      5  C   UNL     1      11.728 -30.337 -26.872  1.00  0.00     0.000 C 
BRANCH   5   6
ATOM      6  C   UNL     1      11.391 -29.068 -26.067  1.00  0.00     0.000 C 
BRANCH   6   7
ATOM      7  C   UNL     1      12.650 -28.266 -25.691  1.00  0.00     0.000 C 
BRANCH   7   8
ATOM      8  C   UNL     1      12.375 -26.763 -25.453  1.00  0.00     0.000 C 
BRANCH   8   9
ATOM      9  C   UNL     1      10.957 -26.471 -24.930  1.00  0.00     0.000 C 
BRANCH   9  10
ATOM     10  C   UNL     1      10.804 -25.118 -24.207  1.00  0.00     0.006 C 
BRANCH  10  11
ATOM     11  C   UNL     1       9.350 -24.634 -24.070  1.00  0.00     0.053 C 
BRANCH  11  12
ATOM     12  C   UNL     1       9.221 -23.516 -23.081  1.00  0.00     0.041 C 
ATOM     13  O   UNL     1       9.142 -22.324 -23.480  1.00  0.00    -0.550 OA
ATOM     14  O   UNL     1       9.152 -23.794 -21.722  1.00  0.00    -0.550 OA
ENDBRANCH  11  12
ENDBRANCH  10  11
ENDBRANCH   9  10
ENDBRANCH   8   9
ENDBRANCH   7   8
ENDBRANCH   6   7
ENDBRANCH   5   6
ENDBRANCH   4   5
ENDBRANCH   3   4
ENDBRANCH   2   3
ENDBRANCH   1   2
BRANCH   1  15
ATOM     15  C   UNL     1       8.577 -27.647 -28.010  1.00  0.00     0.000 C 
BRANCH  15  16
ATOM     16  C   UNL     1       9.124 -26.327 -28.573  1.00  0.00     0.000 C 
BRANCH  16  17
ATOM     17  C   UNL     1      10.663 -26.258 -28.560  1.00  0.00     0.000 C 
BRANCH  17  18
ATOM     18  C   UNL     1      11.369 -27.119 -29.623  1.00  0.00    -0.000 C 
BRANCH  18  19
ATOM     19  C   UNL     1      10.695 -27.043 -31.003  1.00  0.00    -0.000 C 
BRANCH  19  20
ATOM     20  C   UNL     1      11.000 -25.731 -31.749  1.00  0.00    -0.000 C 
BRANCH  20  21
ATOM     21  C   UNL     1       9.813 -24.759 -31.879  1.00  0.00    -0.000 C 
BRANCH  21  22
ATOM     22  C   UNL     1       9.931 -23.540 -30.952  1.00  0.00    -0.000 C 
BRANCH  22  23
ATOM     23  C   UNL     1      11.398 -23.242 -30.617  1.00  0.00    -0.000 C 
BRANCH  23  24
ATOM     24  C   UNL     1      11.750 -21.782 -30.934  1.00  0.00    -0.000 C 
BRANCH  24  25
ATOM     25  C   UNL     1      12.204 -21.586 -32.389  1.00  0.00    -0.003 C 
ATOM     26  C   UNL     1      13.367 -22.500 -32.774  1.00  0.00     0.004 C 
ENDBRANCH  24  25
ENDBRANCH  23  24
ENDBRANCH  22  23
ENDBRANCH  21  22
ENDBRANCH  20  21
ENDBRANCH  19  20
ENDBRANCH  18  19
ENDBRANCH  17  18
ENDBRANCH  16  17
ENDBRANCH  15  16
ENDBRANCH   1  15
TORSDOF 22
ENDMDL
MODEL 3
REMARK VINA RESULT:    -3.933      1.258      2.741
REMARK INTER + INTRA:         -12.514
REMARK INTER:                  -8.743
REMARK INTRA:                  -3.771
REMARK UNBOUND:                -3.523
REMARK SMILES CCCCCCCCCCCCCCCCCCCCCCCC(=O)[O-]
REMARK SMILES IDX 13 1 14 2 15 3 16 4 17 5 18 6 19 7 20 8 21 9 22 10 23 11
REMARK SMILES IDX 24 12 25 13 26 14 12 15 11 16 10 17 9 18 8 19 7 20 6 21 5 22
REMARK SMILES IDX 4 23 3 24 2 25 1 26
REMARK H PARENT
REMARK Flexibility Score: inf
ROOT
ATOM      1  C   UNL     1      13.954 -21.938 -30.718  1.00  0.00     0.000 C 
ENDROOT
BRANCH   1   2
ATOM      2  C   UNL     1      12.961 -23.097 -30.583  1.00  0.00     0.000 C 
BRANCH   2   3
ATOM      3  C   UNL     1      11.514 -22.597 -30.659  1.00  0.00     0.000 C 
BRANCH   3   4
ATOM      4  C   UNL     1      10.719 -23.377 -31.718  1.00  0.00     0.000 C 
BRANCH   4   5
ATOM      5  C   UNL     1      11.380 -24.714 -32.088  1.00  0.00     0.000 C 
BRANCH   5   6
ATOM      6  C   UNL     1      10.410 -25.904 -31.980  1.00  0.00     0.000 C 
BRANCH   6   7
ATOM      7  C   UNL     1      10.932 -26.996 -31.028  1.00  0.00     0.000 C 
BRANCH   7   8
ATOM      8  C   UNL     1      11.086 -26.517 -29.566  1.00  0.00     0.000 C 
BRANCH   8   9
ATOM      9  C   UNL     1       9.800 -25.910 -28.977  1.00  0.00     0.000 C 
BRANCH   9  10
ATOM     10  C   UNL     1       9.094 -26.791 -27.927  1.00  0.00     0.006 C 
BRANCH  10  11
ATOM     11  C   UNL     1       8.048 -27.756 -28.512  1.00  0.00     0.053 C 
BRANCH  11  12
ATOM     12  C   UNL     1       8.663 -29.043 -28.968  1.00  0.00     0.041 C 
ATOM     13  O   UNL     1       8.283 -29.582 -30.041  1.00  0.00    -0.550 OA
ATOM     14  O   UNL     1       9.681 -29.629 -28.226  1.00  0.00    -0.550 OA
ENDBRANCH  11  12
ENDBRANCH  10  11
ENDBRANCH   9  10
ENDBRANCH   8   9
ENDBRANCH   7   8
ENDBRANCH   6   7
ENDBRANCH   5   6
ENDBRANCH   4   5
ENDBRANCH   3   4
ENDBRANCH   2   3
ENDBRANCH   1   2
BRANCH   1  15
ATOM     15  C   UNL     1      14.059 -21.469 -32.174  1.00  0.00     0.000 C 
BRANCH  15  16
ATOM     16  C   UNL     1      14.865 -22.468 -33.018  1.00  0.00     0.000 C 
BRANCH  16  17
ATOM     17  C   UNL     1      14.008 -23.196 -34.071  1.00  0.00     0.000 C 
BRANCH  17  18
ATOM     18  C   UNL     1      13.280 -22.282 -35.073  1.00  0.00    -0.000 C 
BRANCH  18  19
ATOM     19  C   UNL     1      11.760 -22.513 -35.103  1.00  0.00    -0.000 C 
BRANCH  19  20
ATOM     20  C   UNL     1      10.951 -21.211 -34.949  1.00  0.00    -0.000 C 
BRANCH  20  21
ATOM     21  C   UNL     1      11.770 -19.912 -35.062  1.00  0.00    -0.000 C 
BRANCH  21  22
ATOM     22  C   UNL     1      11.773 -19.090 -33.765  1.00  0.00    -0.000 C 
BRANCH  22  23
ATOM     23  C   UNL     1      10.858 -19.723 -32.709  1.00  0.00    -0.000 C 
BRANCH  23  24
ATOM     24  C   UNL     1      11.127 -19.129 -31.320  1.00  0.00    -0.000 C 
BRANCH  24  25
ATOM     25  C   UNL     1       9.839 -18.904 -30.514  1.00  0.00    -0.003 C 
ATOM     26  C   UNL     1       9.924 -17.689 -29.589  1.00  0.00     0.004 C 
ENDBRANCH  24  25
ENDBRANCH  23  24
ENDBRANCH  22  23
ENDBRANCH  21  22
ENDBRANCH  20  21
ENDBRANCH  19  20
ENDBRANCH  18  19
ENDBRANCH  17  18
ENDBRANCH  16  17
ENDBRANCH  15  16
ENDBRANCH   1  15
TORSDOF 22
ENDMDL
MODEL 4
REMARK VINA RESULT:    -3.924      3.962      9.297
REMARK INTER + INTRA:         -12.493
REMARK INTER:                  -8.711
REMARK INTRA:                  -3.782
REMARK UNBOUND:                -3.523
REMARK SMILES CCCCCCCCCCCCCCCCCCCCCCCC(=O)[O-]
REMARK SMILES IDX 13 1 14 2 15 3 16 4 17 5 18 6 19 7 20 8 21 9 22 10 23 11
REMARK SMILES IDX 24 12 25 13 26 14 12 15 11 16 10 17 9 18 8 19 7 20 6 21 5 22
REMARK SMILES IDX 4 23 3 24 2 25 1 26
REMARK H PARENT
REMARK Flexibility Score: inf
ROOT
ATOM      1  C   UNL     1      10.711 -25.542 -26.550  1.00  0.00     0.000 C 
ENDROOT
BRANCH   1   2
ATOM      2  C   UNL     1      11.852 -26.566 -26.555  1.00  0.00     0.000 C 
BRANCH   2   3
ATOM      3  C   UNL     1      11.320 -27.986 -26.333  1.00  0.00     0.000 C 
BRANCH   3   4
ATOM      4  C   UNL     1      11.935 -28.967 -27.344  1.00  0.00     0.000 C 
BRANCH   4   5
ATOM      5  C   UNL     1      10.878 -29.651 -28.224  1.00  0.00     0.000 C 
BRANCH   5   6
ATOM      6  C   UNL     1       9.482 -29.021 -28.068  1.00  0.00     0.000 C 
BRANCH   6   7
ATOM      7  C   UNL     1       8.998 -28.350 -29.366  1.00  0.00     0.000 C 
BRANCH   7   8
ATOM      8  C   UNL     1       9.786 -27.070 -29.730  1.00  0.00     0.000 C 
BRANCH   8   9
ATOM      9  C   UNL     1      10.591 -27.191 -31.037  1.00  0.00     0.000 C 
BRANCH   9  10
ATOM     10  C   UNL     1      11.028 -25.846 -31.650  1.00  0.00     0.006 C 
BRANCH  10  11
ATOM     11  C   UNL     1      10.370 -24.614 -31.006  1.00  0.00     0.053 C 
BRANCH  11  12
ATOM     12  C   UNL     1      11.377 -23.710 -30.364  1.00  0.00     0.041 C 
ATOM     13  O   UNL     1      12.181 -24.164 -29.507  1.00  0.00    -0.550 OA
ATOM     14  O   UNL     1      11.451 -22.374 -30.737  1.00  0.00    -0.550 OA
ENDBRANCH  11  12
ENDBRANCH  10  11
ENDBRANCH   9  10
ENDBRANCH   8   9
ENDBRANCH   7   8
ENDBRANCH   6   7
ENDBRANCH   5   6
ENDBRANCH   4   5
ENDBRANCH   3   4
ENDBRANCH   2   3
ENDBRANCH   1   2
BRANCH   1  15
ATOM     15  C   UNL     1       9.499 -26.073 -25.774  1.00  0.00     0.000 C 
BRANCH  15  16
ATOM     16  C   UNL     1       9.278 -25.272 -24.483  1.00  0.00     0.000 C 
BRANCH  16  17
ATOM     17  C   UNL     1      10.397 -24.249 -24.208  1.00  0.00     0.000 C 
BRANCH  17  18
ATOM     18  C   UNL     1       9.936 -22.926 -23.569  1.00  0.00    -0.000 C 
BRANCH  18  19
ATOM     19  C   UNL     1       9.139 -23.131 -22.270  1.00  0.00    -0.000 C 
BRANCH  19  20
ATOM     20  C   UNL     1       9.969 -23.795 -21.155  1.00  0.00    -0.000 C 
BRANCH  20  21
ATOM     21  C   UNL     1       9.179 -24.718 -20.210  1.00  0.00    -0.000 C 
BRANCH  21  22
ATOM     22  C   UNL     1       9.505 -26.205 -20.413  1.00  0.00    -0.000 C 
BRANCH  22  23
ATOM     23  C   UNL     1      10.980 -26.400 -20.787  1.00  0.00    -0.000 C 
BRANCH  23  24
ATOM     24  C   UNL     1      11.121 -27.320 -22.008  1.00  0.00    -0.000 C 
BRANCH  24  25
ATOM     25  C   UNL     1      12.351 -26.981 -22.864  1.00  0.00    -0.003 C 
ATOM     26  C   UNL     1      13.109 -25.756 -22.353  1.00  0.00     0.004 C 
ENDBRANCH  24  25
ENDBRANCH  23  24
ENDBRANCH  22  23
ENDBRANCH  21  22
ENDBRANCH  20  21
ENDBRANCH  19  20
ENDBRANCH  18  19
ENDBRANCH  17  18
ENDBRANCH  16  17
ENDBRANCH  15  16
ENDBRANCH   1  15
TORSDOF 22
ENDMDL
MODEL 5
REMARK VINA RESULT:    -3.922      3.609      8.050
REMARK INTER + INTRA:         -12.489
REMARK INTER:                  -8.887
REMARK INTRA:                  -3.602
REMARK UNBOUND:                -3.523
REMARK SMILES CCCCCCCCCCCCCCCCCCCCCCCC(=O)[O-]
REMARK SMILES IDX 13 1 14 2 15 3 16 4 17 5 18 6 19 7 20 8 21 9 22 10 23 11
REMARK SMILES IDX 24 12 25 13 26 14 12 15 11 16 10 17 9 18 8 19 7 20 6 21 5 22
REMARK SMILES IDX 4 23 3 24 2 25 1 26
REMARK H PARENT
REMARK Flexibility Score: inf
ROOT
ATOM      1  C   UNL     1      10.597 -25.595 -27.329  1.00  0.00     0.000 C 
ENDROOT
BRANCH   1   2
ATOM      2  C   UNL     1      10.105 -26.857 -26.612  1.00  0.00     0.000 C 
BRANCH   2   3
ATOM      3  C   UNL     1       8.579 -26.983 -26.698  1.00  0.00     0.000 C 
BRANCH   3   4
ATOM      4  C   UNL     1       8.135 -27.298 -28.136  1.00  0.00     0.000 C 
BRANCH   4   5
ATOM      5  C   UNL     1       8.593 -28.687 -28.605  1.00  0.00     0.000 C 
BRANCH   5   6
ATOM      6  C   UNL     1       9.572 -28.618 -29.791  1.00  0.00     0.000 C 
BRANCH   6   7
ATOM      7  C   UNL     1       9.767 -27.179 -30.302  1.00  0.00     0.000 C 
BRANCH   7   8
ATOM      8  C   UNL     1      10.842 -27.056 -31.406  1.00  0.00     0.000 C 
BRANCH   8   9
ATOM      9  C   UNL     1      11.036 -25.619 -31.923  1.00  0.00     0.000 C 
BRANCH   9  10
ATOM     10  C   UNL     1      10.030 -24.593 -31.364  1.00  0.00     0.006 C 
BRANCH  10  11
ATOM     11  C   UNL     1      10.649 -23.547 -30.422  1.00  0.00     0.053 C 
BRANCH  11  12
ATOM     12  C   UNL     1      11.259 -22.404 -31.175  1.00  0.00     0.041 C 
ATOM     13  O   UNL     1      11.834 -21.472 -30.554  1.00  0.00    -0.550 OA
ATOM     14  O   UNL     1      11.222 -22.387 -32.564  1.00  0.00    -0.550 OA
ENDBRANCH  11  12
ENDBRANCH  10  11
ENDBRANCH   9  10
ENDBRANCH   8   9
ENDBRANCH   7   8
ENDBRANCH   6   7
ENDBRANCH   5   6
ENDBRANCH   4   5
ENDBRANCH   3   4
ENDBRANCH   2   3
ENDBRANCH   1   2
BRANCH   1  15
ATOM     15  C   UNL     1      12.030 -25.777 -27.842  1.00  0.00     0.000 C 
BRANCH  15  16
ATOM     16  C   UNL     1      12.478 -27.240 -27.721  1.00  0.00     0.000 C 
BRANCH  16  17
ATOM     17  C   UNL     1      13.712 -27.421 -26.817  1.00  0.00     0.000 C 
BRANCH  17  18
ATOM     18  C   UNL     1      13.421 -27.452 -25.305  1.00  0.00    -0.000 C 
BRANCH  18  19
ATOM     19  C   UNL     1      13.656 -26.096 -24.620  1.00  0.00    -0.000 C 
BRANCH  19  20
ATOM     20  C   UNL     1      12.371 -25.497 -24.017  1.00  0.00    -0.000 C 
BRANCH  20  21
ATOM     21  C   UNL     1      11.439 -26.506 -23.323  1.00  0.00    -0.000 C 
BRANCH  21  22
ATOM     22  C   UNL     1      10.090 -25.895 -22.915  1.00  0.00    -0.000 C 
BRANCH  22  23
ATOM     23  C   UNL     1       9.723 -24.714 -23.823  1.00  0.00    -0.000 C 
BRANCH  23  24
ATOM     24  C   UNL     1       9.243 -23.513 -22.996  1.00  0.00    -0.000 C 
BRANCH  24  25
ATOM     25  C   UNL     1      10.405 -22.703 -22.401  1.00  0.00    -0.003 C 
ATOM     26  C   UNL     1       9.934 -21.464 -21.640  1.00  0.00     0.004 C 
ENDBRANCH  24  25
ENDBRANCH  23  24
ENDBRANCH  22  23
ENDBRANCH  21  22
ENDBRANCH  20  21
ENDBRANCH  19  20
ENDBRANCH  18  19
ENDBRANCH  17  18
ENDBRANCH  16  17
ENDBRANCH  15  16
ENDBRANCH   1  15
TORSDOF 22
ENDMDL
MODEL 6
REMARK VINA RESULT:    -3.908      3.877      8.378
REMARK INTER + INTRA:         -12.456
REMARK INTER:                  -8.334
REMARK INTRA:                  -4.122
REMARK UNBOUND:                -3.523
REMARK SMILES CCCCCCCCCCCCCCCCCCCCCCCC(=O)[O-]
REMARK SMILES IDX 13 1 14 2 15 3 16 4 17 5 18 6 19 7 20 8 21 9 22 10 23 11
REMARK SMILES IDX 24 12 25 13 26 14 12 15 11 16 10 17 9 18 8 19 7 20 6 21 5 22
REMARK SMILES IDX 4 23 3 24 2 25 1 26
REMARK H PARENT
REMARK Flexibility Score: inf
ROOT
ATOM      1  C   UNL     1       9.565 -27.153 -30.091  1.00  0.00     0.000 C 
ENDROOT
BRANCH   1   2
ATOM      2  C   UNL     1      10.758 -27.153 -31.054  1.00  0.00     0.000 C 
BRANCH   2   3
ATOM      3  C   UNL     1      10.858 -25.822 -31.809  1.00  0.00     0.000 C 
BRANCH   3   4
ATOM      4  C   UNL     1      10.064 -24.721 -31.088  1.00  0.00     0.000 C 
BRANCH   4   5
ATOM      5  C   UNL     1      10.912 -23.474 -30.797  1.00  0.00     0.000 C 
BRANCH   5   6
ATOM      6  C   UNL     1      11.510 -22.855 -32.074  1.00  0.00     0.000 C 
BRANCH   6   7
ATOM      7  C   UNL     1      12.773 -22.024 -31.781  1.00  0.00     0.000 C 
BRANCH   7   8
ATOM      8  C   UNL     1      13.081 -21.881 -30.272  1.00  0.00     0.000 C 
BRANCH   8   9
ATOM      9  C   UNL     1      14.414 -22.527 -29.851  1.00  0.00     0.000 C 
BRANCH   9  10
ATOM     10  C   UNL     1      14.650 -22.579 -28.328  1.00  0.00     0.006 C 
BRANCH  10  11
ATOM     11  C   UNL     1      15.861 -23.428 -27.904  1.00  0.00     0.053 C 
BRANCH  11  12
ATOM     12  C   UNL     1      17.103 -23.047 -28.650  1.00  0.00     0.041 C 
ATOM     13  O   UNL     1      17.748 -23.917 -29.292  1.00  0.00    -0.550 OA
ATOM     14  O   UNL     1      17.526 -21.724 -28.665  1.00  0.00    -0.550 OA
ENDBRANCH  11  12
ENDBRANCH  10  11
ENDBRANCH   9  10
ENDBRANCH   8   9
ENDBRANCH   7   8
ENDBRANCH   6   7
ENDBRANCH   5   6
ENDBRANCH   4   5
ENDBRANCH   3   4
ENDBRANCH   2   3
ENDBRANCH   1   2
BRANCH   1  15
ATOM     15  C   UNL     1       9.481 -28.476 -29.321  1.00  0.00     0.000 C 
BRANCH  15  16
ATOM     16  C   UNL     1       8.673 -28.309 -28.025  1.00  0.00     0.000 C 
BRANCH  16  17
ATOM     17  C   UNL     1       8.670 -26.861 -27.500  1.00  0.00     0.000 C 
BRANCH  17  18
ATOM     18  C   UNL     1       9.276 -26.668 -26.098  1.00  0.00    -0.000 C 
BRANCH  18  19
ATOM     19  C   UNL     1      10.415 -25.634 -26.072  1.00  0.00    -0.000 C 
BRANCH  19  20
ATOM     20  C   UNL     1      10.760 -25.087 -27.470  1.00  0.00    -0.000 C 
BRANCH  20  21
ATOM     21  C   UNL     1      12.154 -25.468 -27.999  1.00  0.00    -0.000 C 
BRANCH  21  22
ATOM     22  C   UNL     1      12.878 -26.485 -27.104  1.00  0.00    -0.000 C 
BRANCH  22  23
ATOM     23  C   UNL     1      12.883 -27.878 -27.746  1.00  0.00    -0.000 C 
BRANCH  23  24
ATOM     24  C   UNL     1      12.136 -28.892 -26.867  1.00  0.00    -0.000 C 
BRANCH  24  25
ATOM     25  C   UNL     1      12.772 -29.051 -25.478  1.00  0.00    -0.003 C 
ATOM     26  C   UNL     1      11.806 -28.717 -24.342  1.00  0.00     0.004 C 
ENDBRANCH  24  25
ENDBRANCH  23  24
ENDBRANCH  22  23
ENDBRANCH  21  22
ENDBRANCH  20  21
ENDBRANCH  19  20
ENDBRANCH  18  19
ENDBRANCH  17  18
ENDBRANCH  16  17
ENDBRANCH  15  16
ENDBRANCH   1  15
TORSDOF 22
ENDMDL
MODEL 7
REMARK VINA RESULT:    -3.868      5.562      8.437
REMARK INTER + INTRA:         -12.365
REMARK INTER:                  -9.840
REMARK INTRA:                  -2.525
REMARK UNBOUND:                -3.523
REMARK SMILES CCCCCCCCCCCCCCCCCCCCCCCC(=O)[O-]
REMARK SMILES IDX 13 1 14 2 15 3 16 4 17 5 18 6 19 7 20 8 21 9 22 10 23 11
REMARK SMILES IDX 24 12 25 13 26 14 12 15 11 16 10 17 9 18 8 19 7 20 6 21 5 22
REMARK SMILES IDX 4 23 3 24 2 25 1 26
REMARK H PARENT
REMARK Flexibility Score: inf
ROOT
ATOM      1  C   UNL     1      11.907 -25.986 -26.251  1.00  0.00     0.000 C 
ENDROOT
BRANCH   1   2
ATOM      2  C   UNL     1      12.846 -26.457 -27.367  1.00  0.00     0.000 C 
BRANCH   2   3
ATOM      3  C   UNL     1      12.938 -27.988 -27.401  1.00  0.00     0.000 C 
BRANCH   3   4
ATOM      4  C   UNL     1      14.124 -28.484 -26.558  1.00  0.00     0.000 C 
BRANCH   4   5
ATOM      5  C   UNL     1      15.440 -27.775 -26.911  1.00  0.00     0.000 C 
BRANCH   5   6
ATOM      6  C   UNL     1      16.589 -28.154 -25.960  1.00  0.00     0.000 C 
BRANCH   6   7
ATOM      7  C   UNL     1      17.972 -27.941 -26.604  1.00  0.00     0.000 C 
BRANCH   7   8
ATOM      8  C   UNL     1      19.021 -27.354 -25.630  1.00  0.00     0.000 C 
BRANCH   8   9
ATOM      9  C   UNL     1      19.657 -26.043 -26.126  1.00  0.00     0.000 C 
BRANCH   9  10
ATOM     10  C   UNL     1      18.906 -25.362 -27.288  1.00  0.00     0.006 C 
BRANCH  10  11
ATOM     11  C   UNL     1      19.822 -24.696 -28.329  1.00  0.00     0.053 C 
BRANCH  11  12
ATOM     12  C   UNL     1      20.798 -25.666 -28.922  1.00  0.00     0.041 C 
ATOM     13  O   UNL     1      20.388 -26.631 -29.619  1.00  0.00    -0.550 OA
ATOM     14  O   UNL     1      22.162 -25.483 -28.733  1.00  0.00    -0.550 OA
ENDBRANCH  11  12
ENDBRANCH  10  11
ENDBRANCH   9  10
ENDBRANCH   8   9
ENDBRANCH   7   8
ENDBRANCH   6   7
ENDBRANCH   5   6
ENDBRANCH   4   5
ENDBRANCH   3   4
ENDBRANCH   2   3
ENDBRANCH   1   2
BRANCH   1  15
ATOM     15  C   UNL     1      10.535 -25.596 -26.814  1.00  0.00     0.000 C 
BRANCH  15  16
ATOM     16  C   UNL     1       9.428 -26.491 -26.239  1.00  0.00     0.000 C 
BRANCH  16  17
ATOM     17  C   UNL     1       8.552 -27.142 -27.327  1.00  0.00     0.000 C 
BRANCH  17  18
ATOM     18  C   UNL     1       9.228 -28.270 -28.128  1.00  0.00    -0.000 C 
BRANCH  18  19
ATOM     19  C   UNL     1       9.248 -28.002 -29.642  1.00  0.00    -0.000 C 
BRANCH  19  20
ATOM     20  C   UNL     1      10.598 -27.452 -30.137  1.00  0.00    -0.000 C 
BRANCH  20  21
ATOM     21  C   UNL     1      10.624 -26.997 -31.607  1.00  0.00    -0.000 C 
BRANCH  21  22
ATOM     22  C   UNL     1      11.107 -25.549 -31.780  1.00  0.00    -0.000 C 
BRANCH  22  23
ATOM     23  C   UNL     1      10.717 -24.691 -30.570  1.00  0.00    -0.000 C 
BRANCH  23  24
ATOM     24  C   UNL     1      11.944 -23.983 -29.978  1.00  0.00    -0.000 C 
BRANCH  24  25
ATOM     25  C   UNL     1      12.263 -22.660 -30.691  1.00  0.00    -0.003 C 
ATOM     26  C   UNL     1      11.009 -21.866 -31.055  1.00  0.00     0.004 C 
ENDBRANCH  24  25
ENDBRANCH  23  24
ENDBRANCH  22  23
ENDBRANCH  21  22
ENDBRANCH  20  21
ENDBRANCH  19  20
ENDBRANCH  18  19
ENDBRANCH  17  18
ENDBRANCH  16  17
ENDBRANCH  15  16
ENDBRANCH   1  15
TORSDOF 22
ENDMDL
MODEL 8
REMARK VINA RESULT:    -3.858      2.620      4.031
REMARK INTER + INTRA:         -12.342
REMARK INTER:                  -8.777
REMARK INTRA:                  -3.565
REMARK UNBOUND:                -3.523
REMARK SMILES CCCCCCCCCCCCCCCCCCCCCCCC(=O)[O-]
REMARK SMILES IDX 13 1 14 2 15 3 16 4 17 5 18 6 19 7 20 8 21 9 22 10 23 11
REMARK SMILES IDX 24 12 25 13 26 14 12 15 11 16 10 17 9 18 8 19 7 20 6 21 5 22
REMARK SMILES IDX 4 23 3 24 2 25 1 26
REMARK H PARENT
REMARK Flexibility Score: inf
ROOT
ATOM      1  C   UNL     1      10.663 -24.745 -29.639  1.00  0.00     0.000 C 
ENDROOT
BRANCH   1   2
ATOM      2  C   UNL     1      10.335 -26.204 -29.301  1.00  0.00     0.000 C 
BRANCH   2   3
ATOM      3  C   UNL     1       9.393 -26.293 -28.095  1.00  0.00     0.000 C 
BRANCH   3   4
ATOM      4  C   UNL     1       8.456 -27.506 -28.218  1.00  0.00     0.000 C 
BRANCH   4   5
ATOM      5  C   UNL     1       8.721 -28.331 -29.487  1.00  0.00     0.000 C 
BRANCH   5   6
ATOM      6  C   UNL     1       8.785 -29.843 -29.206  1.00  0.00     0.000 C 
BRANCH   6   7
ATOM      7  C   UNL     1       9.532 -30.160 -27.898  1.00  0.00     0.000 C 
BRANCH   7   8
ATOM      8  C   UNL     1      11.071 -30.136 -28.045  1.00  0.00     0.000 C 
BRANCH   8   9
ATOM      9  C   UNL     1      11.767 -29.146 -27.092  1.00  0.00     0.000 C 
BRANCH   9  10
ATOM     10  C   UNL     1      12.645 -28.090 -27.791  1.00  0.00     0.006 C 
BRANCH  10  11
ATOM     11  C   UNL     1      13.806 -27.562 -26.932  1.00  0.00     0.053 C 
BRANCH  11  12
ATOM     12  C   UNL     1      13.701 -26.088 -26.688  1.00  0.00     0.041 C 
ATOM     13  O   UNL     1      12.571 -25.544 -26.572  1.00  0.00    -0.550 OA
ATOM     14  O   UNL     1      14.852 -25.321 -26.555  1.00  0.00    -0.550 OA
ENDBRANCH  11  12
ENDBRANCH  10  11
ENDBRANCH   9  10
ENDBRANCH   8   9
ENDBRANCH   7   8
ENDBRANCH   6   7
ENDBRANCH   5   6
ENDBRANCH   4   5
ENDBRANCH   3   4
ENDBRANCH   2   3
ENDBRANCH   1   2
BRANCH   1  15
ATOM     15  C   UNL     1       9.606 -24.147 -30.576  1.00  0.00     0.000 C 
BRANCH  15  16
ATOM     16  C   UNL     1       9.730 -24.730 -31.991  1.00  0.00     0.000 C 
BRANCH  16  17
ATOM     17  C   UNL     1      10.996 -24.255 -32.729  1.00  0.00     0.000 C 
BRANCH  17  18
ATOM     18  C   UNL     1      10.756 -23.238 -33.860  1.00  0.00    -0.000 C 
BRANCH  18  19
ATOM     19  C   UNL     1      12.056 -22.606 -34.386  1.00  0.00    -0.000 C 
BRANCH  19  20
ATOM     20  C   UNL     1      13.320 -23.228 -33.765  1.00  0.00    -0.000 C 
BRANCH  20  21
ATOM     21  C   UNL     1      14.448 -22.234 -33.436  1.00  0.00    -0.000 C 
BRANCH  21  22
ATOM     22  C   UNL     1      14.848 -22.250 -31.953  1.00  0.00    -0.000 C 
BRANCH  22  23
ATOM     23  C   UNL     1      13.639 -22.558 -31.060  1.00  0.00    -0.000 C 
BRANCH  23  24
ATOM     24  C   UNL     1      13.017 -21.267 -30.510  1.00  0.00    -0.000 C 
BRANCH  24  25
ATOM     25  C   UNL     1      11.532 -21.123 -30.879  1.00  0.00    -0.003 C 
ATOM     26  C   UNL     1      11.278 -19.996 -31.879  1.00  0.00     0.004 C 
ENDBRANCH  24  25
ENDBRANCH  23  24
ENDBRANCH  22  23
ENDBRANCH  21  22
ENDBRANCH  20  21
ENDBRANCH  19  20
ENDBRANCH  18  19
ENDBRANCH  17  18
ENDBRANCH  16  17
ENDBRANCH  15  16
ENDBRANCH   1  15
TORSDOF 22
ENDMDL
MODEL 9
REMARK VINA RESULT:    -3.820      2.972      4.495
REMARK INTER + INTRA:         -12.255
REMARK INTER:                  -8.684
REMARK INTRA:                  -3.571
REMARK UNBOUND:                -3.523
REMARK SMILES CCCCCCCCCCCCCCCCCCCCCCCC(=O)[O-]
REMARK SMILES IDX 13 1 14 2 15 3 16 4 17 5 18 6 19 7 20 8 21 9 22 10 23 11
REMARK SMILES IDX 24 12 25 13 26 14 12 15 11 16 10 17 9 18 8 19 7 20 6 21 5 22
REMARK SMILES IDX 4 23 3 24 2 25 1 26
REMARK H PARENT
REMARK Flexibility Score: inf
ROOT
ATOM      1  C   UNL     1      10.968 -26.273 -30.391  1.00  0.00     0.000 C 
ENDROOT
BRANCH   1   2
ATOM      2  C   UNL     1      10.603 -27.712 -30.013  1.00  0.00     0.000 C 
BRANCH   2   3
ATOM      3  C   UNL     1       9.128 -27.819 -29.605  1.00  0.00     0.000 C 
BRANCH   3   4
ATOM      4  C   UNL     1       8.995 -28.322 -28.159  1.00  0.00     0.000 C 
BRANCH   4   5
ATOM      5  C   UNL     1       8.208 -27.352 -27.265  1.00  0.00     0.000 C 
BRANCH   5   6
ATOM      6  C   UNL     1       9.118 -26.561 -26.307  1.00  0.00     0.000 C 
BRANCH   6   7
ATOM      7  C   UNL     1      10.593 -26.990 -26.419  1.00  0.00     0.000 C 
BRANCH   7   8
ATOM      8  C   UNL     1      11.562 -25.807 -26.650  1.00  0.00     0.000 C 
BRANCH   8   9
ATOM      9  C   UNL     1      12.898 -26.222 -27.295  1.00  0.00     0.000 C 
BRANCH   9  10
ATOM     10  C   UNL     1      13.115 -27.744 -27.403  1.00  0.00     0.006 C 
BRANCH  10  11
ATOM     11  C   UNL     1      14.140 -28.309 -26.404  1.00  0.00     0.053 C 
BRANCH  11  12
ATOM     12  C   UNL     1      15.452 -27.590 -26.476  1.00  0.00     0.041 C 
ATOM     13  O   UNL     1      15.839 -26.881 -25.510  1.00  0.00    -0.550 OA
ATOM     14  O   UNL     1      16.261 -27.731 -27.596  1.00  0.00    -0.550 OA
ENDBRANCH  11  12
ENDBRANCH  10  11
ENDBRANCH   9  10
ENDBRANCH   8   9
ENDBRANCH   7   8
ENDBRANCH   6   7
ENDBRANCH   5   6
ENDBRANCH   4   5
ENDBRANCH   3   4
ENDBRANCH   2   3
ENDBRANCH   1   2
BRANCH   1  15
ATOM     15  C   UNL     1       9.893 -25.289 -29.914  1.00  0.00     0.000 C 
BRANCH  15  16
ATOM     16  C   UNL     1       9.466 -24.346 -31.048  1.00  0.00     0.000 C 
BRANCH  16  17
ATOM     17  C   UNL     1      10.272 -24.559 -32.344  1.00  0.00     0.000 C 
BRANCH  17  18
ATOM     18  C   UNL     1       9.474 -24.392 -33.650  1.00  0.00    -0.000 C 
BRANCH  18  19
ATOM     19  C   UNL     1      10.168 -23.469 -34.665  1.00  0.00    -0.000 C 
BRANCH  19  20
ATOM     20  C   UNL     1      11.514 -22.921 -34.156  1.00  0.00    -0.000 C 
BRANCH  20  21
ATOM     21  C   UNL     1      12.033 -21.670 -34.887  1.00  0.00    -0.000 C 
BRANCH  21  22
ATOM     22  C   UNL     1      12.433 -20.538 -33.929  1.00  0.00    -0.000 C 
BRANCH  22  23
ATOM     23  C   UNL     1      11.502 -20.491 -32.712  1.00  0.00    -0.000 C 
BRANCH  23  24
ATOM     24  C   UNL     1      12.301 -20.569 -31.403  1.00  0.00    -0.000 C 
BRANCH  24  25
ATOM     25  C   UNL     1      12.040 -21.869 -30.628  1.00  0.00    -0.003 C 
ATOM     26  C   UNL     1      13.202 -22.857 -30.718  1.00  0.00     0.004 C 
ENDBRANCH  24  25
ENDBRANCH  23  24
ENDBRANCH  22  23
ENDBRANCH  21  22
ENDBRANCH  20  21
ENDBRANCH  19  20
ENDBRANCH  18  19
ENDBRANCH  17  18
ENDBRANCH  16  17
ENDBRANCH  15  16
ENDBRANCH   1  15
TORSDOF 22
ENDMDL
