MODEL 1
REMARK VINA RESULT:    -8.644      0.000      0.000
REMARK INTER + INTRA:         -13.614
REMARK INTER:                 -12.181
REMARK INTRA:                  -1.433
REMARK UNBOUND:                -1.433
REMARK SMILES COc1c(O[C@H]2O[C@H](C(=O)[O-])[C@H](O)[C@@H](O)[C@@H]2O)cc(O)c2c(=O)cc(-c3ccccc3)oc12
REMARK SMILES IDX 5 1 6 2 8 3 12 4 7 5 14 6 16 7 9 8 10 9 11 10 13 11 15 13
REMARK SMILES IDX 17 15 4 17 3 18 18 19 33 20 19 21 21 22 32 23 22 24 25 25
REMARK SMILES IDX 24 26 23 27 2 28 1 29 20 30 26 32 27 33 31 34 28 35 30 36
REMARK SMILES IDX 29 37
REMARK H PARENT 13 12 15 14 17 16 20 31
REMARK Flexibility Score: inf
ROOT
ATOM      1  O   UNL     1       2.735   1.557  15.226  1.00  0.00    -0.458 OA
ENDROOT
BRANCH   1   2
ATOM      2  C   UNL     1       3.702   1.882  14.215  1.00  0.00     0.339 C 
ATOM      3  C   UNL     1       3.574  -0.234  13.204  1.00  0.00     0.199 C 
ATOM      4  C   UNL     1       2.998   0.297  11.872  1.00  0.00     0.180 C 
ATOM      5  O   UNL     1       4.419   0.724  13.819  1.00  0.00    -0.328 OA
ATOM      6  C   UNL     1       2.274   1.646  12.082  1.00  0.00     0.181 C 
ATOM      7  C   UNL     1       3.068   2.607  12.995  1.00  0.00     0.214 C 
BRANCH   3   8
ATOM      8  C   UNL     1       4.346  -1.499  12.966  1.00  0.00     0.073 C 
ATOM      9  O   UNL     1       3.818  -2.612  13.210  1.00  0.00    -0.547 OA
ATOM     10  O   UNL     1       5.622  -1.455  12.422  1.00  0.00    -0.547 OA
ENDBRANCH   3   8
BRANCH   4  11
ATOM     11  O   UNL     1       3.993   0.411  10.880  1.00  0.00    -0.387 OA
ATOM     12  H   UNL     1       4.873   0.504  11.331  1.00  0.00     0.211 HD
ENDBRANCH   4  11
BRANCH   6  13
ATOM     13  O   UNL     1       0.970   1.453  12.573  1.00  0.00    -0.387 OA
ATOM     14  H   UNL     1       0.580   2.338  12.786  1.00  0.00     0.211 HD
ENDBRANCH   6  13
BRANCH   7  15
ATOM     15  O   UNL     1       4.082   3.225  12.243  1.00  0.00    -0.384 OA
ATOM     16  H   UNL     1       4.130   2.746  11.369  1.00  0.00     0.211 HD
ENDBRANCH   7  15
ENDBRANCH   1   2
BRANCH   1  17
ATOM     17  C   UNL     1       2.974   1.490  16.613  1.00  0.00     0.172 A 
ATOM     18  C   UNL     1       3.137   0.232  17.232  1.00  0.00     0.205 A 
ATOM     19  C   UNL     1       3.046   2.651  17.407  1.00  0.00     0.097 A 
ATOM     20  C   UNL     1       3.234   0.149  18.627  1.00  0.00     0.188 A 
ATOM     21  C   UNL     1       3.212   2.581  18.792  1.00  0.00     0.134 A 
ATOM     22  C   UNL     1       3.233   1.314  19.432  1.00  0.00     0.111 A 
ATOM     23  O   UNL     1       3.332  -1.055  19.184  1.00  0.00    -0.452 OA
ATOM     24  C   UNL     1       3.223   1.129  20.834  1.00  0.00     0.197 A 
ATOM     25  C   UNL     1       3.406  -1.256  20.496  1.00  0.00     0.138 A 
ATOM     26  C   UNL     1       3.331  -0.158  21.365  1.00  0.00     0.100 A 
ATOM     27  O   UNL     1       3.073   2.091  21.629  1.00  0.00    -0.289 OA
BRANCH  18  28
ATOM     28  O   UNL     1       3.206  -0.977  16.516  1.00  0.00    -0.490 OA
ATOM     29  C   UNL     1       2.094  -1.802  16.188  1.00  0.00     0.278 C 
ENDBRANCH  18  28
BRANCH  21  30
ATOM     30  O   UNL     1       3.382   3.790  19.472  1.00  0.00    -0.507 OA
ATOM     31  H   UNL     1       3.343   4.696  19.032  1.00  0.00     0.293 HD
ENDBRANCH  21  30
BRANCH  25  32
ATOM     32  C   UNL     1       3.535  -2.648  20.994  1.00  0.00     0.017 A 
ATOM     33  C   UNL     1       3.960  -3.699  20.156  1.00  0.00     0.012 A 
ATOM     34  C   UNL     1       3.185  -2.941  22.326  1.00  0.00     0.012 A 
ATOM     35  C   UNL     1       4.050  -5.005  20.649  1.00  0.00     0.001 A 
ATOM     36  C   UNL     1       3.277  -4.248  22.813  1.00  0.00     0.001 A 
ATOM     37  C   UNL     1       3.711  -5.278  21.977  1.00  0.00     0.000 A 
ENDBRANCH  25  32
ENDBRANCH   1  17
TORSDOF 9
ENDMDL
MODEL 2
REMARK VINA RESULT:    -8.560      3.487      4.411
REMARK INTER + INTRA:         -13.497
REMARK INTER:                 -12.167
REMARK INTRA:                  -1.330
REMARK UNBOUND:                -1.433
REMARK SMILES COc1c(O[C@H]2O[C@H](C(=O)[O-])[C@H](O)[C@@H](O)[C@@H]2O)cc(O)c2c(=O)cc(-c3ccccc3)oc12
REMARK SMILES IDX 5 1 6 2 8 3 12 4 7 5 14 6 16 7 9 8 10 9 11 10 13 11 15 13
REMARK SMILES IDX 17 15 4 17 3 18 18 19 33 20 19 21 21 22 32 23 22 24 25 25
REMARK SMILES IDX 24 26 23 27 2 28 1 29 20 30 26 32 27 33 31 34 28 35 30 36
REMARK SMILES IDX 29 37
REMARK H PARENT 13 12 15 14 17 16 20 31
REMARK Flexibility Score: inf
ROOT
ATOM      1  O   UNL     1       1.912   0.084  15.716  1.00  0.00    -0.458 OA
ENDROOT
BRANCH   1   2
ATOM      2  C   UNL     1       1.175   0.670  14.631  1.00  0.00     0.339 C 
ATOM      3  C   UNL     1       2.912   0.349  13.082  1.00  0.00     0.199 C 
ATOM      4  C   UNL     1       2.115  -0.641  12.202  1.00  0.00     0.180 C 
ATOM      5  O   UNL     1       2.054   1.290  13.706  1.00  0.00    -0.328 OA
ATOM      6  C   UNL     1       1.003  -1.335  13.020  1.00  0.00     0.181 C 
ATOM      7  C   UNL     1       0.235  -0.350  13.930  1.00  0.00     0.214 C 
BRANCH   3   8
ATOM      8  C   UNL     1       3.929   1.076  12.252  1.00  0.00     0.073 C 
ATOM      9  O   UNL     1       5.144   0.773  12.343  1.00  0.00    -0.547 OA
ATOM     10  O   UNL     1       3.533   2.044  11.339  1.00  0.00    -0.547 OA
ENDBRANCH   3   8
BRANCH   4  11
ATOM     11  O   UNL     1       1.578  -0.010  11.061  1.00  0.00    -0.387 OA
ATOM     12  H   UNL     1       1.997   0.886  10.975  1.00  0.00     0.211 HD
ENDBRANCH   4  11
BRANCH   6  13
ATOM     13  O   UNL     1       1.517  -2.409  13.768  1.00  0.00    -0.387 OA
ATOM     14  H   UNL     1       2.025  -2.044  14.536  1.00  0.00     0.211 HD
ENDBRANCH   6  13
BRANCH   7  15
ATOM     15  O   UNL     1      -0.714   0.345  13.160  1.00  0.00    -0.384 OA
ATOM     16  H   UNL     1      -1.360   0.759  13.798  1.00  0.00     0.211 HD
ENDBRANCH   7  15
ENDBRANCH   1   2
BRANCH   1  17
ATOM     17  C   UNL     1       2.781   0.764  16.592  1.00  0.00     0.172 A 
ATOM     18  C   UNL     1       4.152   0.427  16.615  1.00  0.00     0.205 A 
ATOM     19  C   UNL     1       2.315   1.770  17.459  1.00  0.00     0.097 A 
ATOM     20  C   UNL     1       4.993   0.996  17.580  1.00  0.00     0.188 A 
ATOM     21  C   UNL     1       3.163   2.394  18.379  1.00  0.00     0.134 A 
ATOM     22  C   UNL     1       4.507   1.956  18.500  1.00  0.00     0.111 A 
ATOM     23  O   UNL     1       6.268   0.618  17.610  1.00  0.00    -0.452 OA
ATOM     24  C   UNL     1       5.400   2.394  19.506  1.00  0.00     0.197 A 
ATOM     25  C   UNL     1       7.150   1.072  18.493  1.00  0.00     0.138 A 
ATOM     26  C   UNL     1       6.729   1.966  19.488  1.00  0.00     0.100 A 
ATOM     27  O   UNL     1       5.022   3.128  20.455  1.00  0.00    -0.289 OA
BRANCH  18  28
ATOM     28  O   UNL     1       4.741  -0.473  15.708  1.00  0.00    -0.490 OA
ATOM     29  C   UNL     1       4.645  -1.890  15.778  1.00  0.00     0.278 C 
ENDBRANCH  18  28
BRANCH  21  30
ATOM     30  O   UNL     1       2.629   3.456  19.114  1.00  0.00    -0.507 OA
ATOM     31  H   UNL     1       2.766   3.581  20.105  1.00  0.00     0.293 HD
ENDBRANCH  21  30
BRANCH  25  32
ATOM     32  C   UNL     1       8.551   0.590  18.410  1.00  0.00     0.017 A 
ATOM     33  C   UNL     1       9.464   1.121  17.476  1.00  0.00     0.012 A 
ATOM     34  C   UNL     1       8.975  -0.455  19.254  1.00  0.00     0.012 A 
ATOM     35  C   UNL     1      10.771   0.629  17.405  1.00  0.00     0.001 A 
ATOM     36  C   UNL     1      10.282  -0.943  19.179  1.00  0.00     0.001 A 
ATOM     37  C   UNL     1      11.181  -0.400  18.258  1.00  0.00     0.000 A 
ENDBRANCH  25  32
ENDBRANCH   1  17
TORSDOF 9
ENDMDL
MODEL 3
REMARK VINA RESULT:    -8.438      2.334      7.994
REMARK INTER + INTRA:         -13.324
REMARK INTER:                 -12.233
REMARK INTRA:                  -1.091
REMARK UNBOUND:                -1.433
REMARK SMILES COc1c(O[C@H]2O[C@H](C(=O)[O-])[C@H](O)[C@@H](O)[C@@H]2O)cc(O)c2c(=O)cc(-c3ccccc3)oc12
REMARK SMILES IDX 5 1 6 2 8 3 12 4 7 5 14 6 16 7 9 8 10 9 11 10 13 11 15 13
REMARK SMILES IDX 17 15 4 17 3 18 18 19 33 20 19 21 21 22 32 23 22 24 25 25
REMARK SMILES IDX 24 26 23 27 2 28 1 29 20 30 26 32 27 33 31 34 28 35 30 36
REMARK SMILES IDX 29 37
REMARK H PARENT 13 12 15 14 17 16 20 31
REMARK Flexibility Score: inf
ROOT
ATOM      1  O   UNL     1       4.014  -0.640  20.272  1.00  0.00    -0.458 OA
ENDROOT
BRANCH   1   2
ATOM      2  C   UNL     1       3.252  -1.660  20.937  1.00  0.00     0.339 C 
ATOM      3  C   UNL     1       5.082  -3.120  21.116  1.00  0.00     0.199 C 
ATOM      4  C   UNL     1       5.122  -3.085  22.660  1.00  0.00     0.180 C 
ATOM      5  O   UNL     1       3.761  -2.947  20.629  1.00  0.00    -0.328 OA
ATOM      6  C   UNL     1       4.480  -1.787  23.200  1.00  0.00     0.181 C 
ATOM      7  C   UNL     1       3.164  -1.432  22.472  1.00  0.00     0.214 C 
BRANCH   3   8
ATOM      8  C   UNL     1       5.630  -4.424  20.613  1.00  0.00     0.073 C 
ATOM      9  O   UNL     1       6.872  -4.596  20.541  1.00  0.00    -0.547 OA
ATOM     10  O   UNL     1       4.776  -5.467  20.281  1.00  0.00    -0.547 OA
ENDBRANCH   3   8
BRANCH   4  11
ATOM     11  O   UNL     1       4.507  -4.221  23.225  1.00  0.00    -0.387 OA
ATOM     12  H   UNL     1       4.592  -4.163  24.212  1.00  0.00     0.211 HD
ENDBRANCH   4  11
BRANCH   6  13
ATOM     13  O   UNL     1       5.386  -0.713  23.149  1.00  0.00    -0.387 OA
ATOM     14  H   UNL     1       6.279  -1.039  23.428  1.00  0.00     0.211 HD
ENDBRANCH   6  13
BRANCH   7  15
ATOM     15  O   UNL     1       2.120  -2.212  23.000  1.00  0.00    -0.384 OA
ATOM     16  H   UNL     1       1.643  -2.621  22.225  1.00  0.00     0.211 HD
ENDBRANCH   7  15
ENDBRANCH   1   2
BRANCH   1  17
ATOM     17  C   UNL     1       3.672  -0.005  19.062  1.00  0.00     0.172 A 
ATOM     18  C   UNL     1       3.985  -0.628  17.834  1.00  0.00     0.205 A 
ATOM     19  C   UNL     1       3.031   1.249  19.042  1.00  0.00     0.097 A 
ATOM     20  C   UNL     1       3.778   0.059  16.631  1.00  0.00     0.188 A 
ATOM     21  C   UNL     1       2.757   1.912  17.843  1.00  0.00     0.134 A 
ATOM     22  C   UNL     1       3.199   1.351  16.616  1.00  0.00     0.111 A 
ATOM     23  O   UNL     1       4.133  -0.535  15.495  1.00  0.00    -0.452 OA
ATOM     24  C   UNL     1       3.129   2.011  15.367  1.00  0.00     0.197 A 
ATOM     25  C   UNL     1       4.005   0.029  14.299  1.00  0.00     0.138 A 
ATOM     26  C   UNL     1       3.514   1.340  14.205  1.00  0.00     0.100 A 
ATOM     27  O   UNL     1       2.772   3.213  15.271  1.00  0.00    -0.289 OA
BRANCH  18  28
ATOM     28  O   UNL     1       4.511  -1.930  17.742  1.00  0.00    -0.490 OA
ATOM     29  C   UNL     1       3.774  -3.089  17.373  1.00  0.00     0.278 C 
ENDBRANCH  18  28
BRANCH  21  30
ATOM     30  O   UNL     1       2.019   3.096  17.927  1.00  0.00    -0.507 OA
ATOM     31  H   UNL     1       1.857   3.716  17.149  1.00  0.00     0.293 HD
ENDBRANCH  21  30
BRANCH  25  32
ATOM     32  C   UNL     1       4.418  -0.744  13.101  1.00  0.00     0.017 A 
ATOM     33  C   UNL     1       3.487  -1.470  12.330  1.00  0.00     0.012 A 
ATOM     34  C   UNL     1       5.779  -0.794  12.745  1.00  0.00     0.012 A 
ATOM     35  C   UNL     1       3.910  -2.209  11.221  1.00  0.00     0.001 A 
ATOM     36  C   UNL     1       6.196  -1.534  11.635  1.00  0.00     0.001 A 
ATOM     37  C   UNL     1       5.263  -2.239  10.872  1.00  0.00     0.000 A 
ENDBRANCH  25  32
ENDBRANCH   1  17
TORSDOF 9
ENDMDL
MODEL 4
REMARK VINA RESULT:    -8.427      3.632      5.134
REMARK INTER + INTRA:         -13.309
REMARK INTER:                 -11.670
REMARK INTRA:                  -1.638
REMARK UNBOUND:                -1.433
REMARK SMILES COc1c(O[C@H]2O[C@H](C(=O)[O-])[C@H](O)[C@@H](O)[C@@H]2O)cc(O)c2c(=O)cc(-c3ccccc3)oc12
REMARK SMILES IDX 5 1 6 2 8 3 12 4 7 5 14 6 16 7 9 8 10 9 11 10 13 11 15 13
REMARK SMILES IDX 17 15 4 17 3 18 18 19 33 20 19 21 21 22 32 23 22 24 25 25
REMARK SMILES IDX 24 26 23 27 2 28 1 29 20 30 26 32 27 33 31 34 28 35 30 36
REMARK SMILES IDX 29 37
REMARK H PARENT 13 12 15 14 17 16 20 31
REMARK Flexibility Score: inf
ROOT
ATOM      1  O   UNL     1       2.920  -0.766  16.198  1.00  0.00    -0.458 OA
ENDROOT
BRANCH   1   2
ATOM      2  C   UNL     1       2.104  -1.584  15.347  1.00  0.00     0.339 C 
ATOM      3  C   UNL     1       2.219  -0.084  13.544  1.00  0.00     0.199 C 
ATOM      4  C   UNL     1       2.982  -1.057  12.618  1.00  0.00     0.180 C 
ATOM      5  O   UNL     1       1.367  -0.783  14.438  1.00  0.00    -0.328 OA
ATOM      6  C   UNL     1       3.759  -2.108  13.441  1.00  0.00     0.181 C 
ATOM      7  C   UNL     1       2.923  -2.680  14.609  1.00  0.00     0.214 C 
BRANCH   3   8
ATOM      8  C   UNL     1       1.402   0.875  12.727  1.00  0.00     0.073 C 
ATOM      9  O   UNL     1       0.272   0.531  12.300  1.00  0.00    -0.547 OA
ATOM     10  O   UNL     1       1.859   2.164  12.488  1.00  0.00    -0.547 OA
ENDBRANCH   3   8
BRANCH   4  11
ATOM     11  O   UNL     1       2.121  -1.681  11.692  1.00  0.00    -0.387 OA
ATOM     12  H   UNL     1       1.465  -2.229  12.197  1.00  0.00     0.211 HD
ENDBRANCH   4  11
BRANCH   6  13
ATOM     13  O   UNL     1       4.979  -1.589  13.908  1.00  0.00    -0.387 OA
ATOM     14  H   UNL     1       4.824  -0.668  14.240  1.00  0.00     0.211 HD
ENDBRANCH   6  13
BRANCH   7  15
ATOM     15  O   UNL     1       2.047  -3.661  14.113  1.00  0.00    -0.384 OA
ATOM     16  H   UNL     1       1.549  -4.029  14.895  1.00  0.00     0.211 HD
ENDBRANCH   7  15
ENDBRANCH   1   2
BRANCH   1  17
ATOM     17  C   UNL     1       3.566  -1.182  17.379  1.00  0.00     0.172 A 
ATOM     18  C   UNL     1       4.976  -1.146  17.453  1.00  0.00     0.205 A 
ATOM     19  C   UNL     1       2.840  -1.645  18.493  1.00  0.00     0.097 A 
ATOM     20  C   UNL     1       5.629  -1.690  18.566  1.00  0.00     0.188 A 
ATOM     21  C   UNL     1       3.483  -2.125  19.637  1.00  0.00     0.134 A 
ATOM     22  C   UNL     1       4.899  -2.222  19.657  1.00  0.00     0.111 A 
ATOM     23  O   UNL     1       6.959  -1.689  18.582  1.00  0.00    -0.452 OA
ATOM     24  C   UNL     1       5.641  -2.847  20.685  1.00  0.00     0.197 A 
ATOM     25  C   UNL     1       7.685  -2.198  19.572  1.00  0.00     0.138 A 
ATOM     26  C   UNL     1       7.037  -2.816  20.652  1.00  0.00     0.100 A 
ATOM     27  O   UNL     1       5.081  -3.479  21.617  1.00  0.00    -0.289 OA
BRANCH  18  28
ATOM     28  O   UNL     1       5.787  -0.588  16.448  1.00  0.00    -0.490 OA
ATOM     29  C   UNL     1       6.092   0.794  16.313  1.00  0.00     0.278 C 
ENDBRANCH  18  28
BRANCH  21  30
ATOM     30  O   UNL     1       2.674  -2.456  20.728  1.00  0.00    -0.507 OA
ATOM     31  H   UNL     1       3.015  -2.881  21.576  1.00  0.00     0.293 HD
ENDBRANCH  21  30
BRANCH  25  32
ATOM     32  C   UNL     1       9.164  -2.118  19.482  1.00  0.00     0.017 A 
ATOM     33  C   UNL     1       9.993  -3.142  19.983  1.00  0.00     0.012 A 
ATOM     34  C   UNL     1       9.762  -0.973  18.922  1.00  0.00     0.012 A 
ATOM     35  C   UNL     1      11.385  -3.027  19.906  1.00  0.00     0.001 A 
ATOM     36  C   UNL     1      11.153  -0.864  18.847  1.00  0.00     0.001 A 
ATOM     37  C   UNL     1      11.964  -1.890  19.336  1.00  0.00     0.000 A 
ENDBRANCH  25  32
ENDBRANCH   1  17
TORSDOF 9
ENDMDL
MODEL 5
REMARK VINA RESULT:    -8.420      1.680      3.191
REMARK INTER + INTRA:         -13.298
REMARK INTER:                 -12.644
REMARK INTRA:                  -0.654
REMARK UNBOUND:                -1.433
REMARK SMILES COc1c(O[C@H]2O[C@H](C(=O)[O-])[C@H](O)[C@@H](O)[C@@H]2O)cc(O)c2c(=O)cc(-c3ccccc3)oc12
REMARK SMILES IDX 5 1 6 2 8 3 12 4 7 5 14 6 16 7 9 8 10 9 11 10 13 11 15 13
REMARK SMILES IDX 17 15 4 17 3 18 18 19 33 20 19 21 21 22 32 23 22 24 25 25
REMARK SMILES IDX 24 26 23 27 2 28 1 29 20 30 26 32 27 33 31 34 28 35 30 36
REMARK SMILES IDX 29 37
REMARK H PARENT 13 12 15 14 17 16 20 31
REMARK Flexibility Score: inf
ROOT
ATOM      1  O   UNL     1       5.011  -0.798  14.122  1.00  0.00    -0.458 OA
ENDROOT
BRANCH   1   2
ATOM      2  C   UNL     1       4.265  -1.853  13.496  1.00  0.00     0.339 C 
ATOM      3  C   UNL     1       2.295  -0.581  13.361  1.00  0.00     0.199 C 
ATOM      4  C   UNL     1       2.267  -0.555  11.817  1.00  0.00     0.180 C 
ATOM      5  O   UNL     1       2.893  -1.773  13.846  1.00  0.00    -0.328 OA
ATOM      6  C   UNL     1       3.683  -0.761  11.234  1.00  0.00     0.181 C 
ATOM      7  C   UNL     1       4.460  -1.887  11.954  1.00  0.00     0.214 C 
BRANCH   3   8
ATOM      8  C   UNL     1       0.902  -0.467  13.907  1.00  0.00     0.073 C 
ATOM      9  O   UNL     1       0.453   0.655  14.251  1.00  0.00    -0.547 OA
ATOM     10  O   UNL     1       0.079  -1.582  13.981  1.00  0.00    -0.547 OA
ENDBRANCH   3   8
BRANCH   4  11
ATOM     11  O   UNL     1       1.366  -1.506  11.294  1.00  0.00    -0.387 OA
ATOM     12  H   UNL     1       0.443  -1.214  11.514  1.00  0.00     0.211 HD
ENDBRANCH   4  11
BRANCH   6  13
ATOM     13  O   UNL     1       4.417   0.438  11.245  1.00  0.00    -0.387 OA
ATOM     14  H   UNL     1       4.975   0.460  12.063  1.00  0.00     0.211 HD
ENDBRANCH   6  13
BRANCH   7  15
ATOM     15  O   UNL     1       4.034  -3.131  11.458  1.00  0.00    -0.384 OA
ATOM     16  H   UNL     1       3.165  -2.978  10.993  1.00  0.00     0.211 HD
ENDBRANCH   7  15
ENDBRANCH   1   2
BRANCH   1  17
ATOM     17  C   UNL     1       4.621  -0.069  15.263  1.00  0.00     0.172 A 
ATOM     18  C   UNL     1       4.553  -0.717  16.515  1.00  0.00     0.205 A 
ATOM     19  C   UNL     1       4.285   1.296  15.186  1.00  0.00     0.097 A 
ATOM     20  C   UNL     1       4.031  -0.037  17.624  1.00  0.00     0.188 A 
ATOM     21  C   UNL     1       3.828   2.002  16.302  1.00  0.00     0.134 A 
ATOM     22  C   UNL     1       3.624   1.316  17.528  1.00  0.00     0.111 A 
ATOM     23  O   UNL     1       3.930  -0.692  18.777  1.00  0.00    -0.452 OA
ATOM     24  C   UNL     1       3.009   1.886  18.667  1.00  0.00     0.197 A 
ATOM     25  C   UNL     1       3.429  -0.158  19.886  1.00  0.00     0.138 A 
ATOM     26  C   UNL     1       2.931   1.153  19.853  1.00  0.00     0.100 A 
ATOM     27  O   UNL     1       2.482   3.027  18.635  1.00  0.00    -0.289 OA
BRANCH  18  28
ATOM     28  O   UNL     1       4.984  -2.039  16.724  1.00  0.00    -0.490 OA
ATOM     29  C   UNL     1       4.129  -3.164  16.894  1.00  0.00     0.278 C 
ENDBRANCH  18  28
BRANCH  21  30
ATOM     30  O   UNL     1       3.628   3.376  16.146  1.00  0.00    -0.507 OA
ATOM     31  H   UNL     1       4.332   4.014  15.808  1.00  0.00     0.293 HD
ENDBRANCH  21  30
BRANCH  25  32
ATOM     32  C   UNL     1       3.390  -0.985  21.117  1.00  0.00     0.017 A 
ATOM     33  C   UNL     1       3.591  -0.422  22.395  1.00  0.00     0.012 A 
ATOM     34  C   UNL     1       3.190  -2.374  21.011  1.00  0.00     0.012 A 
ATOM     35  C   UNL     1       3.571  -1.231  23.535  1.00  0.00     0.001 A 
ATOM     36  C   UNL     1       3.172  -3.178  22.155  1.00  0.00     0.001 A 
ATOM     37  C   UNL     1       3.360  -2.608  23.415  1.00  0.00     0.000 A 
ENDBRANCH  25  32
ENDBRANCH   1  17
TORSDOF 9
ENDMDL
MODEL 6
REMARK VINA RESULT:    -8.418      3.554      5.334
REMARK INTER + INTRA:         -13.296
REMARK INTER:                 -12.172
REMARK INTRA:                  -1.124
REMARK UNBOUND:                -1.433
REMARK SMILES COc1c(O[C@H]2O[C@H](C(=O)[O-])[C@H](O)[C@@H](O)[C@@H]2O)cc(O)c2c(=O)cc(-c3ccccc3)oc12
REMARK SMILES IDX 5 1 6 2 8 3 12 4 7 5 14 6 16 7 9 8 10 9 11 10 13 11 15 13
REMARK SMILES IDX 17 15 4 17 3 18 18 19 33 20 19 21 21 22 32 23 22 24 25 25
REMARK SMILES IDX 24 26 23 27 2 28 1 29 20 30 26 32 27 33 31 34 28 35 30 36
REMARK SMILES IDX 29 37
REMARK H PARENT 13 12 15 14 17 16 20 31
REMARK Flexibility Score: inf
ROOT
ATOM      1  O   UNL     1       2.581  -0.642  15.388  1.00  0.00    -0.458 OA
ENDROOT
BRANCH   1   2
ATOM      2  C   UNL     1       1.760   0.218  14.582  1.00  0.00     0.339 C 
ATOM      3  C   UNL     1       2.732  -0.498  12.567  1.00  0.00     0.199 C 
ATOM      4  C   UNL     1       1.433  -1.132  12.019  1.00  0.00     0.180 C 
ATOM      5  O   UNL     1       2.450   0.610  13.407  1.00  0.00    -0.328 OA
ATOM      6  C   UNL     1       0.478  -1.517  13.171  1.00  0.00     0.181 C 
ATOM      7  C   UNL     1       0.380  -0.415  14.250  1.00  0.00     0.214 C 
BRANCH   3   8
ATOM      8  C   UNL     1       3.609  -0.053  11.433  1.00  0.00     0.073 C 
ATOM      9  O   UNL     1       3.380   1.038  10.855  1.00  0.00    -0.547 OA
ATOM     10  O   UNL     1       4.710  -0.808  11.055  1.00  0.00    -0.547 OA
ENDBRANCH   3   8
BRANCH   4  11
ATOM     11  O   UNL     1       0.789  -0.287  11.093  1.00  0.00    -0.387 OA
ATOM     12  H   UNL     1       0.591   0.576  11.544  1.00  0.00     0.211 HD
ENDBRANCH   4  11
BRANCH   6  13
ATOM     13  O   UNL     1       0.841  -2.748  13.744  1.00  0.00    -0.387 OA
ATOM     14  H   UNL     1       1.078  -3.377  13.017  1.00  0.00     0.211 HD
ENDBRANCH   6  13
BRANCH   7  15
ATOM     15  O   UNL     1      -0.498   0.589  13.807  1.00  0.00    -0.384 OA
ATOM     16  H   UNL     1       0.003   1.451  13.844  1.00  0.00     0.211 HD
ENDBRANCH   7  15
ENDBRANCH   1   2
BRANCH   1  17
ATOM     17  C   UNL     1       3.884  -0.358  15.844  1.00  0.00     0.172 A 
ATOM     18  C   UNL     1       4.064   0.490  16.958  1.00  0.00     0.205 A 
ATOM     19  C   UNL     1       5.020  -0.894  15.208  1.00  0.00     0.097 A 
ATOM     20  C   UNL     1       5.355   0.889  17.328  1.00  0.00     0.188 A 
ATOM     21  C   UNL     1       6.314  -0.556  15.615  1.00  0.00     0.134 A 
ATOM     22  C   UNL     1       6.496   0.407  16.642  1.00  0.00     0.111 A 
ATOM     23  O   UNL     1       5.488   1.731  18.349  1.00  0.00    -0.452 OA
ATOM     24  C   UNL     1       7.748   0.948  17.014  1.00  0.00     0.197 A 
ATOM     25  C   UNL     1       6.658   2.196  18.773  1.00  0.00     0.138 A 
ATOM     26  C   UNL     1       7.830   1.828  18.095  1.00  0.00     0.100 A 
ATOM     27  O   UNL     1       8.797   0.698  16.368  1.00  0.00    -0.289 OA
BRANCH  18  28
ATOM     28  O   UNL     1       2.999   0.976  17.738  1.00  0.00    -0.490 OA
ATOM     29  C   UNL     1       2.400   2.259  17.601  1.00  0.00     0.278 C 
ENDBRANCH  18  28
BRANCH  21  30
ATOM     30  O   UNL     1       7.370  -1.226  14.992  1.00  0.00    -0.507 OA
ATOM     31  H   UNL     1       7.915  -0.842  14.236  1.00  0.00     0.293 HD
ENDBRANCH  21  30
BRANCH  25  32
ATOM     32  C   UNL     1       6.678   3.115  19.938  1.00  0.00     0.017 A 
ATOM     33  C   UNL     1       7.854   3.346  20.680  1.00  0.00     0.012 A 
ATOM     34  C   UNL     1       5.485   3.743  20.343  1.00  0.00     0.012 A 
ATOM     35  C   UNL     1       7.836   4.200  21.787  1.00  0.00     0.001 A 
ATOM     36  C   UNL     1       5.473   4.595  21.451  1.00  0.00     0.001 A 
ATOM     37  C   UNL     1       6.647   4.826  22.171  1.00  0.00     0.000 A 
ENDBRANCH  25  32
ENDBRANCH   1  17
TORSDOF 9
ENDMDL
MODEL 7
REMARK VINA RESULT:    -8.388      3.306      4.311
REMARK INTER + INTRA:         -13.254
REMARK INTER:                 -12.498
REMARK INTRA:                  -0.756
REMARK UNBOUND:                -1.433
REMARK SMILES COc1c(O[C@H]2O[C@H](C(=O)[O-])[C@H](O)[C@@H](O)[C@@H]2O)cc(O)c2c(=O)cc(-c3ccccc3)oc12
REMARK SMILES IDX 5 1 6 2 8 3 12 4 7 5 14 6 16 7 9 8 10 9 11 10 13 11 15 13
REMARK SMILES IDX 17 15 4 17 3 18 18 19 33 20 19 21 21 22 32 23 22 24 25 25
REMARK SMILES IDX 24 26 23 27 2 28 1 29 20 30 26 32 27 33 31 34 28 35 30 36
REMARK SMILES IDX 29 37
REMARK H PARENT 13 12 15 14 17 16 20 31
REMARK Flexibility Score: inf
ROOT
ATOM      1  O   UNL     1       3.730   1.620  15.035  1.00  0.00    -0.458 OA
ENDROOT
BRANCH   1   2
ATOM      2  C   UNL     1       4.360   1.832  13.761  1.00  0.00     0.339 C 
ATOM      3  C   UNL     1       3.427  -0.101  12.810  1.00  0.00     0.199 C 
ATOM      4  C   UNL     1       2.584   0.665  11.766  1.00  0.00     0.180 C 
ATOM      5  O   UNL     1       4.623   0.595  13.120  1.00  0.00    -0.328 OA
ATOM      6  C   UNL     1       2.298   2.108  12.239  1.00  0.00     0.181 C 
ATOM      7  C   UNL     1       3.546   2.789  12.846  1.00  0.00     0.214 C 
BRANCH   3   8
ATOM      8  C   UNL     1       3.767  -1.470  12.296  1.00  0.00     0.073 C 
ATOM      9  O   UNL     1       4.562  -2.201  12.938  1.00  0.00    -0.547 OA
ATOM     10  O   UNL     1       3.166  -1.962  11.146  1.00  0.00    -0.547 OA
ENDBRANCH   3   8
BRANCH   4  11
ATOM     11  O   UNL     1       3.198   0.666  10.497  1.00  0.00    -0.387 OA
ATOM     12  H   UNL     1       4.177   0.559  10.624  1.00  0.00     0.211 HD
ENDBRANCH   4  11
BRANCH   6  13
ATOM     13  O   UNL     1       1.220   2.144  13.140  1.00  0.00    -0.387 OA
ATOM     14  H   UNL     1       1.557   2.440  14.024  1.00  0.00     0.211 HD
ENDBRANCH   6  13
BRANCH   7  15
ATOM     15  O   UNL     1       4.370   3.253  11.807  1.00  0.00    -0.384 OA
ATOM     16  H   UNL     1       4.722   2.449  11.333  1.00  0.00     0.211 HD
ENDBRANCH   7  15
ENDBRANCH   1   2
BRANCH   1  17
ATOM     17  C   UNL     1       3.965   0.538  15.907  1.00  0.00     0.172 A 
ATOM     18  C   UNL     1       5.254   0.347  16.449  1.00  0.00     0.205 A 
ATOM     19  C   UNL     1       2.944  -0.370  16.247  1.00  0.00     0.097 A 
ATOM     20  C   UNL     1       5.530  -0.803  17.201  1.00  0.00     0.188 A 
ATOM     21  C   UNL     1       3.193  -1.483  17.054  1.00  0.00     0.134 A 
ATOM     22  C   UNL     1       4.519  -1.754  17.483  1.00  0.00     0.111 A 
ATOM     23  O   UNL     1       6.768  -0.980  17.654  1.00  0.00    -0.452 OA
ATOM     24  C   UNL     1       4.914  -2.935  18.154  1.00  0.00     0.197 A 
ATOM     25  C   UNL     1       7.150  -2.042  18.355  1.00  0.00     0.138 A 
ATOM     26  C   UNL     1       6.227  -3.068  18.608  1.00  0.00     0.100 A 
ATOM     27  O   UNL     1       4.126  -3.900  18.316  1.00  0.00    -0.289 OA
BRANCH  18  28
ATOM     28  O   UNL     1       6.309   1.261  16.273  1.00  0.00    -0.490 OA
ATOM     29  C   UNL     1       7.447   1.052  15.447  1.00  0.00     0.278 C 
ENDBRANCH  18  28
BRANCH  21  30
ATOM     30  O   UNL     1       2.091  -2.259  17.423  1.00  0.00    -0.507 OA
ATOM     31  H   UNL     1       1.189  -1.879  17.666  1.00  0.00     0.293 HD
ENDBRANCH  21  30
BRANCH  25  32
ATOM     32  C   UNL     1       8.557  -2.115  18.823  1.00  0.00     0.017 A 
ATOM     33  C   UNL     1       8.971  -3.062  19.782  1.00  0.00     0.012 A 
ATOM     34  C   UNL     1       9.498  -1.190  18.332  1.00  0.00     0.012 A 
ATOM     35  C   UNL     1      10.298  -3.091  20.221  1.00  0.00     0.001 A 
ATOM     36  C   UNL     1      10.823  -1.223  18.774  1.00  0.00     0.001 A 
ATOM     37  C   UNL     1      11.224  -2.174  19.715  1.00  0.00     0.000 A 
ENDBRANCH  25  32
ENDBRANCH   1  17
TORSDOF 9
ENDMDL
MODEL 8
REMARK VINA RESULT:    -8.328      1.494      2.255
REMARK INTER + INTRA:         -13.170
REMARK INTER:                 -11.541
REMARK INTRA:                  -1.629
REMARK UNBOUND:                -1.433
REMARK SMILES COc1c(O[C@H]2O[C@H](C(=O)[O-])[C@H](O)[C@@H](O)[C@@H]2O)cc(O)c2c(=O)cc(-c3ccccc3)oc12
REMARK SMILES IDX 5 1 6 2 8 3 12 4 7 5 14 6 16 7 9 8 10 9 11 10 13 11 15 13
REMARK SMILES IDX 17 15 4 17 3 18 18 19 33 20 19 21 21 22 32 23 22 24 25 25
REMARK SMILES IDX 24 26 23 27 2 28 1 29 20 30 26 32 27 33 31 34 28 35 30 36
REMARK SMILES IDX 29 37
REMARK H PARENT 13 12 15 14 17 16 20 31
REMARK Flexibility Score: inf
ROOT
ATOM      1  O   UNL     1       3.912   1.059  15.394  1.00  0.00    -0.458 OA
ENDROOT
BRANCH   1   2
ATOM      2  C   UNL     1       2.950   1.843  14.672  1.00  0.00     0.339 C 
ATOM      3  C   UNL     1       2.938   0.397  12.821  1.00  0.00     0.199 C 
ATOM      4  C   UNL     1       1.462  -0.024  13.000  1.00  0.00     0.180 C 
ATOM      5  O   UNL     1       3.155   1.724  13.273  1.00  0.00    -0.328 OA
ATOM      6  C   UNL     1       1.008   0.162  14.464  1.00  0.00     0.181 C 
ATOM      7  C   UNL     1       1.486   1.502  15.066  1.00  0.00     0.214 C 
BRANCH   3   8
ATOM      8  C   UNL     1       3.336   0.292  11.378  1.00  0.00     0.073 C 
ATOM      9  O   UNL     1       2.951   1.160  10.557  1.00  0.00    -0.547 OA
ATOM     10  O   UNL     1       4.177  -0.727  10.951  1.00  0.00    -0.547 OA
ENDBRANCH   3   8
BRANCH   4  11
ATOM     11  O   UNL     1       0.610   0.672  12.118  1.00  0.00    -0.387 OA
ATOM     12  H   UNL     1       0.404   0.078  11.349  1.00  0.00     0.211 HD
ENDBRANCH   4  11
BRANCH   6  13
ATOM     13  O   UNL     1       1.416  -0.920  15.265  1.00  0.00    -0.387 OA
ATOM     14  H   UNL     1       1.247  -1.761  14.769  1.00  0.00     0.211 HD
ENDBRANCH   6  13
BRANCH   7  15
ATOM     15  O   UNL     1       0.635   2.533  14.632  1.00  0.00    -0.384 OA
ATOM     16  H   UNL     1       0.654   3.242  15.334  1.00  0.00     0.211 HD
ENDBRANCH   7  15
ENDBRANCH   1   2
BRANCH   1  17
ATOM     17  C   UNL     1       4.194   1.152  16.771  1.00  0.00     0.172 A 
ATOM     18  C   UNL     1       3.964   0.038  17.607  1.00  0.00     0.205 A 
ATOM     19  C   UNL     1       4.693   2.338  17.343  1.00  0.00     0.097 A 
ATOM     20  C   UNL     1       4.107   0.167  18.995  1.00  0.00     0.188 A 
ATOM     21  C   UNL     1       4.905   2.454  18.719  1.00  0.00     0.134 A 
ATOM     22  C   UNL     1       4.540   1.384  19.577  1.00  0.00     0.111 A 
ATOM     23  O   UNL     1       3.832  -0.886  19.759  1.00  0.00    -0.452 OA
ATOM     24  C   UNL     1       4.549   1.455  20.989  1.00  0.00     0.197 A 
ATOM     25  C   UNL     1       3.908  -0.873  21.086  1.00  0.00     0.138 A 
ATOM     26  C   UNL     1       4.253   0.317  21.743  1.00  0.00     0.100 A 
ATOM     27  O   UNL     1       4.773   2.532  21.597  1.00  0.00    -0.289 OA
BRANCH  18  28
ATOM     28  O   UNL     1       3.586  -1.227  17.121  1.00  0.00    -0.490 OA
ATOM     29  C   UNL     1       4.473  -2.194  16.572  1.00  0.00     0.278 C 
ENDBRANCH  18  28
BRANCH  21  30
ATOM     30  O   UNL     1       5.506   3.632  19.171  1.00  0.00    -0.507 OA
ATOM     31  H   UNL     1       6.357   3.660  19.713  1.00  0.00     0.293 HD
ENDBRANCH  21  30
BRANCH  25  32
ATOM     32  C   UNL     1       3.596  -2.120  21.827  1.00  0.00     0.017 A 
ATOM     33  C   UNL     1       2.938  -2.096  23.074  1.00  0.00     0.012 A 
ATOM     34  C   UNL     1       4.003  -3.360  21.298  1.00  0.00     0.012 A 
ATOM     35  C   UNL     1       2.678  -3.286  23.760  1.00  0.00     0.001 A 
ATOM     36  C   UNL     1       3.741  -4.546  21.988  1.00  0.00     0.001 A 
ATOM     37  C   UNL     1       3.077  -4.511  23.216  1.00  0.00     0.000 A 
ENDBRANCH  25  32
ENDBRANCH   1  17
TORSDOF 9
ENDMDL
MODEL 9
REMARK VINA RESULT:    -8.254      3.443      4.719
REMARK INTER + INTRA:         -13.065
REMARK INTER:                 -12.899
REMARK INTRA:                  -0.167
REMARK UNBOUND:                -1.433
REMARK SMILES COc1c(O[C@H]2O[C@H](C(=O)[O-])[C@H](O)[C@@H](O)[C@@H]2O)cc(O)c2c(=O)cc(-c3ccccc3)oc12
REMARK SMILES IDX 5 1 6 2 8 3 12 4 7 5 14 6 16 7 9 8 10 9 11 10 13 11 15 13
REMARK SMILES IDX 17 15 4 17 3 18 18 19 33 20 19 21 21 22 32 23 22 24 25 25
REMARK SMILES IDX 24 26 23 27 2 28 1 29 20 30 26 32 27 33 31 34 28 35 30 36
REMARK SMILES IDX 29 37
REMARK H PARENT 13 12 15 14 17 16 20 31
REMARK Flexibility Score: inf
ROOT
ATOM      1  O   UNL     1       3.023   1.112  13.254  1.00  0.00    -0.458 OA
ENDROOT
BRANCH   1   2
ATOM      2  C   UNL     1       2.827  -0.204  12.714  1.00  0.00     0.339 C 
ATOM      3  C   UNL     1       2.068  -1.090  14.752  1.00  0.00     0.199 C 
ATOM      4  C   UNL     1       0.645  -1.397  14.234  1.00  0.00     0.180 C 
ATOM      5  O   UNL     1       3.028  -1.190  13.712  1.00  0.00    -0.328 OA
ATOM      6  C   UNL     1       0.285  -0.490  13.036  1.00  0.00     0.181 C 
ATOM      7  C   UNL     1       1.445  -0.364  12.021  1.00  0.00     0.214 C 
BRANCH   3   8
ATOM      8  C   UNL     1       2.432  -2.037  15.858  1.00  0.00     0.073 C 
ATOM      9  O   UNL     1       2.079  -1.789  17.037  1.00  0.00    -0.547 OA
ATOM     10  O   UNL     1       3.106  -3.219  15.582  1.00  0.00    -0.547 OA
ENDBRANCH   3   8
BRANCH   4  11
ATOM     11  O   UNL     1       0.493  -2.758  13.897  1.00  0.00    -0.387 OA
ATOM     12  H   UNL     1      -0.310  -2.848  13.319  1.00  0.00     0.211 HD
ENDBRANCH   4  11
BRANCH   6  13
ATOM     13  O   UNL     1      -0.141   0.778  13.468  1.00  0.00    -0.387 OA
ATOM     14  H   UNL     1       0.587   1.193  13.996  1.00  0.00     0.211 HD
ENDBRANCH   6  13
BRANCH   7  15
ATOM     15  O   UNL     1       1.465  -1.505  11.200  1.00  0.00    -0.384 OA
ATOM     16  H   UNL     1       1.859  -2.246  11.740  1.00  0.00     0.211 HD
ENDBRANCH   7  15
ENDBRANCH   1   2
BRANCH   1  17
ATOM     17  C   UNL     1       3.498   1.417  14.545  1.00  0.00     0.172 A 
ATOM     18  C   UNL     1       4.823   1.081  14.897  1.00  0.00     0.205 A 
ATOM     19  C   UNL     1       2.680   2.045  15.504  1.00  0.00     0.097 A 
ATOM     20  C   UNL     1       5.258   1.252  16.218  1.00  0.00     0.188 A 
ATOM     21  C   UNL     1       3.128   2.282  16.806  1.00  0.00     0.134 A 
ATOM     22  C   UNL     1       4.409   1.816  17.201  1.00  0.00     0.111 A 
ATOM     23  O   UNL     1       6.495   0.875  16.531  1.00  0.00    -0.452 OA
ATOM     24  C   UNL     1       4.894   1.848  18.530  1.00  0.00     0.197 A 
ATOM     25  C   UNL     1       7.005   0.967  17.754  1.00  0.00     0.138 A 
ATOM     26  C   UNL     1       6.202   1.442  18.801  1.00  0.00     0.100 A 
ATOM     27  O   UNL     1       4.164   2.191  19.494  1.00  0.00    -0.289 OA
BRANCH  18  28
ATOM     28  O   UNL     1       5.759   0.566  13.981  1.00  0.00    -0.490 OA
ATOM     29  C   UNL     1       6.261  -0.764  13.980  1.00  0.00     0.278 C 
ENDBRANCH  18  28
BRANCH  21  30
ATOM     30  O   UNL     1       2.280   3.009  17.646  1.00  0.00    -0.507 OA
ATOM     31  H   UNL     1       2.525   3.891  18.070  1.00  0.00     0.293 HD
ENDBRANCH  21  30
BRANCH  25  32
ATOM     32  C   UNL     1       8.408   0.533  17.972  1.00  0.00     0.017 A 
ATOM     33  C   UNL     1       9.480   1.102  17.255  1.00  0.00     0.012 A 
ATOM     34  C   UNL     1       8.677  -0.503  18.887  1.00  0.00     0.012 A 
ATOM     35  C   UNL     1      10.789   0.656  17.466  1.00  0.00     0.001 A 
ATOM     36  C   UNL     1       9.987  -0.945  19.093  1.00  0.00     0.001 A 
ATOM     37  C   UNL     1      11.042  -0.365  18.386  1.00  0.00     0.000 A 
ENDBRANCH  25  32
ENDBRANCH   1  17
TORSDOF 9
ENDMDL
