MODEL 1
REMARK VINA RESULT:    -3.326      0.000      0.000
REMARK INTER + INTRA:          -3.723
REMARK INTER:                  -3.715
REMARK INTRA:                  -0.007
REMARK UNBOUND:                -0.007
REMARK SMILES CCCC(=O)[O-]
REMARK SMILES IDX 3 1 4 2 5 3 6 4 2 5 1 6
REMARK H PARENT
REMARK Flexibility Score: inf
ROOT
ATOM      1  C   UNL     1      -4.599  -4.535  -6.222  1.00  0.00     0.052 C 
ENDROOT
BRANCH   1   2
ATOM      2  C   UNL     1      -4.689  -5.981  -5.841  1.00  0.00     0.041 C 
ATOM      3  O   UNL     1      -3.690  -6.736  -5.979  1.00  0.00    -0.550 OA
ATOM      4  O   UNL     1      -5.864  -6.488  -5.304  1.00  0.00    -0.550 OA
ENDBRANCH   1   2
BRANCH   1   5
ATOM      5  C   UNL     1      -3.319  -3.883  -5.681  1.00  0.00     0.003 C 
ATOM      6  C   UNL     1      -3.284  -2.376  -5.933  1.00  0.00     0.004 C 
ENDBRANCH   1   5
TORSDOF 2
ENDMDL
MODEL 2
REMARK VINA RESULT:    -3.295      6.420      7.087
REMARK INTER + INTRA:          -3.687
REMARK INTER:                  -3.681
REMARK INTRA:                  -0.007
REMARK UNBOUND:                -0.007
REMARK SMILES CCCC(=O)[O-]
REMARK SMILES IDX 3 1 4 2 5 3 6 4 2 5 1 6
REMARK H PARENT
REMARK Flexibility Score: inf
ROOT
ATOM      1  C   UNL     1      -9.348  -3.521  -2.132  1.00  0.00     0.052 C 
ENDROOT
BRANCH   1   2
ATOM      2  C   UNL     1      -9.248  -3.785  -3.604  1.00  0.00     0.041 C 
ATOM      3  O   UNL     1      -9.693  -2.945  -4.429  1.00  0.00    -0.550 OA
ATOM      4  O   UNL     1      -8.636  -4.944  -4.063  1.00  0.00    -0.550 OA
ENDBRANCH   1   2
BRANCH   1   5
ATOM      5  C   UNL     1     -10.760  -3.078  -1.728  1.00  0.00     0.003 C 
ATOM      6  C   UNL     1     -11.125  -3.521  -0.311  1.00  0.00     0.004 C 
ENDBRANCH   1   5
TORSDOF 2
ENDMDL
MODEL 3
REMARK VINA RESULT:    -3.229     16.047     16.544
REMARK INTER + INTRA:          -3.613
REMARK INTER:                  -3.602
REMARK INTRA:                  -0.012
REMARK UNBOUND:                -0.007
REMARK SMILES CCCC(=O)[O-]
REMARK SMILES IDX 3 1 4 2 5 3 6 4 2 5 1 6
REMARK H PARENT
REMARK Flexibility Score: inf
ROOT
ATOM      1  C   UNL     1      -5.580   2.753   9.050  1.00  0.00     0.052 C 
ENDROOT
BRANCH   1   2
ATOM      2  C   UNL     1      -5.126   1.488   8.387  1.00  0.00     0.041 C 
ATOM      3  O   UNL     1      -3.951   1.391   7.947  1.00  0.00    -0.550 OA
ATOM      4  O   UNL     1      -5.991   0.407   8.285  1.00  0.00    -0.550 OA
ENDBRANCH   1   2
BRANCH   1   5
ATOM      5  C   UNL     1      -4.415   3.497   9.715  1.00  0.00     0.003 C 
ATOM      6  C   UNL     1      -4.769   4.944  10.058  1.00  0.00     0.004 C 
ENDBRANCH   1   5
TORSDOF 2
ENDMDL
MODEL 4
REMARK VINA RESULT:    -3.108      6.538      7.194
REMARK INTER + INTRA:          -3.479
REMARK INTER:                  -3.419
REMARK INTRA:                  -0.060
REMARK UNBOUND:                -0.007
REMARK SMILES CCCC(=O)[O-]
REMARK SMILES IDX 3 1 4 2 5 3 6 4 2 5 1 6
REMARK H PARENT
REMARK Flexibility Score: inf
ROOT
ATOM      1  C   UNL     1     -10.662  -3.252  -1.916  1.00  0.00     0.052 C 
ENDROOT
BRANCH   1   2
ATOM      2  C   UNL     1      -9.179  -3.194  -1.710  1.00  0.00     0.041 C 
ATOM      3  O   UNL     1      -8.527  -4.252  -1.506  1.00  0.00    -0.550 OA
ATOM      4  O   UNL     1      -8.514  -1.977  -1.775  1.00  0.00    -0.550 OA
ENDBRANCH   1   2
BRANCH   1   5
ATOM      5  C   UNL     1     -11.032  -4.070  -3.160  1.00  0.00     0.003 C 
ATOM      6  C   UNL     1     -10.322  -3.570  -4.418  1.00  0.00     0.004 C 
ENDBRANCH   1   5
TORSDOF 2
ENDMDL
MODEL 5
REMARK VINA RESULT:    -3.069      6.074      6.310
REMARK INTER + INTRA:          -3.435
REMARK INTER:                  -3.396
REMARK INTRA:                  -0.039
REMARK UNBOUND:                -0.007
REMARK SMILES CCCC(=O)[O-]
REMARK SMILES IDX 3 1 4 2 5 3 6 4 2 5 1 6
REMARK H PARENT
REMARK Flexibility Score: inf
ROOT
ATOM      1  C   UNL     1      -9.914  -3.359  -2.250  1.00  0.00     0.052 C 
ENDROOT
BRANCH   1   2
ATOM      2  C   UNL     1      -9.893  -3.813  -3.677  1.00  0.00     0.041 C 
ATOM      3  O   UNL     1      -9.710  -2.980  -4.604  1.00  0.00    -0.550 OA
ATOM      4  O   UNL     1     -10.044  -5.159  -3.982  1.00  0.00    -0.550 OA
ENDBRANCH   1   2
BRANCH   1   5
ATOM      5  C   UNL     1      -8.504  -3.304  -1.649  1.00  0.00     0.003 C 
ATOM      6  C   UNL     1      -7.933  -1.886  -1.632  1.00  0.00     0.004 C 
ENDBRANCH   1   5
TORSDOF 2
ENDMDL
MODEL 6
REMARK VINA RESULT:    -2.943      2.139      2.955
REMARK INTER + INTRA:          -3.295
REMARK INTER:                  -3.256
REMARK INTRA:                  -0.039
REMARK UNBOUND:                -0.007
REMARK SMILES CCCC(=O)[O-]
REMARK SMILES IDX 3 1 4 2 5 3 6 4 2 5 1 6
REMARK H PARENT
REMARK Flexibility Score: inf
ROOT
ATOM      1  C   UNL     1      -5.526  -5.434  -6.385  1.00  0.00     0.052 C 
ENDROOT
BRANCH   1   2
ATOM      2  C   UNL     1      -4.890  -6.753  -6.068  1.00  0.00     0.041 C 
ATOM      3  O   UNL     1      -3.669  -6.811  -5.769  1.00  0.00    -0.550 OA
ATOM      4  O   UNL     1      -5.654  -7.912  -6.071  1.00  0.00    -0.550 OA
ENDBRANCH   1   2
BRANCH   1   5
ATOM      5  C   UNL     1      -7.003  -5.591  -6.770  1.00  0.00     0.003 C 
ATOM      6  C   UNL     1      -7.946  -5.167  -5.644  1.00  0.00     0.004 C 
ENDBRANCH   1   5
TORSDOF 2
ENDMDL
MODEL 7
REMARK VINA RESULT:    -2.941      6.018      6.917
REMARK INTER + INTRA:          -3.292
REMARK INTER:                  -3.272
REMARK INTRA:                  -0.021
REMARK UNBOUND:                -0.007
REMARK SMILES CCCC(=O)[O-]
REMARK SMILES IDX 3 1 4 2 5 3 6 4 2 5 1 6
REMARK H PARENT
REMARK Flexibility Score: inf
ROOT
ATOM      1  C   UNL     1      -9.255  -3.873  -3.710  1.00  0.00     0.052 C 
ENDROOT
BRANCH   1   2
ATOM      2  C   UNL     1      -9.014  -3.507  -2.278  1.00  0.00     0.041 C 
ATOM      3  O   UNL     1      -8.433  -4.315  -1.507  1.00  0.00    -0.550 OA
ATOM      4  O   UNL     1      -9.401  -2.261  -1.803  1.00  0.00    -0.550 OA
ENDBRANCH   1   2
BRANCH   1   5
ATOM      5  C   UNL     1     -10.733  -4.187  -3.976  1.00  0.00     0.003 C 
ATOM      6  C   UNL     1     -10.958  -5.651  -4.352  1.00  0.00     0.004 C 
ENDBRANCH   1   5
TORSDOF 2
ENDMDL
MODEL 8
REMARK VINA RESULT:    -2.919      1.876      2.471
REMARK INTER + INTRA:          -3.267
REMARK INTER:                  -3.238
REMARK INTRA:                  -0.029
REMARK UNBOUND:                -0.007
REMARK SMILES CCCC(=O)[O-]
REMARK SMILES IDX 3 1 4 2 5 3 6 4 2 5 1 6
REMARK H PARENT
REMARK Flexibility Score: inf
ROOT
ATOM      1  C   UNL     1      -5.799  -5.828  -6.635  1.00  0.00     0.052 C 
ENDROOT
BRANCH   1   2
ATOM      2  C   UNL     1      -6.174  -6.920  -5.681  1.00  0.00     0.041 C 
ATOM      3  O   UNL     1      -6.862  -6.660  -4.659  1.00  0.00    -0.550 OA
ATOM      4  O   UNL     1      -5.792  -8.230  -5.937  1.00  0.00    -0.550 OA
ENDBRANCH   1   2
BRANCH   1   5
ATOM      5  C   UNL     1      -4.646  -4.971  -6.094  1.00  0.00     0.003 C 
ATOM      6  C   UNL     1      -3.425  -5.810  -5.718  1.00  0.00     0.004 C 
ENDBRANCH   1   5
TORSDOF 2
ENDMDL
MODEL 9
REMARK VINA RESULT:    -2.904      2.392      3.281
REMARK INTER + INTRA:          -3.251
REMARK INTER:                  -3.201
REMARK INTRA:                  -0.050
REMARK UNBOUND:                -0.007
REMARK SMILES CCCC(=O)[O-]
REMARK SMILES IDX 3 1 4 2 5 3 6 4 2 5 1 6
REMARK H PARENT
REMARK Flexibility Score: inf
ROOT
ATOM      1  C   UNL     1      -5.712  -5.440  -6.310  1.00  0.00     0.052 C 
ENDROOT
BRANCH   1   2
ATOM      2  C   UNL     1      -6.136  -6.719  -5.655  1.00  0.00     0.041 C 
ATOM      3  O   UNL     1      -6.997  -6.704  -4.736  1.00  0.00    -0.550 OA
ATOM      4  O   UNL     1      -5.604  -7.929  -6.080  1.00  0.00    -0.550 OA
ENDBRANCH   1   2
BRANCH   1   5
ATOM      5  C   UNL     1      -6.305  -5.298  -7.718  1.00  0.00     0.003 C 
ATOM      6  C   UNL     1      -7.776  -4.885  -7.690  1.00  0.00     0.004 C 
ENDBRANCH   1   5
TORSDOF 2
ENDMDL
