MODEL 1
REMARK VINA RESULT:    -4.288      0.000      0.000
REMARK INTER + INTRA:          -5.660
REMARK INTER:                  -6.043
REMARK INTRA:                   0.383
REMARK UNBOUND:                 0.383
REMARK SMILES CC1=CCC(=C(C)C)C(=O)CC(C)=CCC1
REMARK SMILES IDX 12 1 14 2 13 3 15 4 16 5 2 6 1 7 3 8 11 10 9 11 10 12 5 13
REMARK SMILES IDX 6 14 7 15 8 16 4 17
REMARK H PARENT
REMARK Flexibility Score: 60.00
ROOT
ATOM      1  C   UNL     1     -39.284  15.373  15.462  1.00  0.00    -0.070 C 
ATOM      2  C   UNL     1     -40.318  15.625  16.300  1.00  0.00    -0.027 C 
ATOM      3  C   UNL     1     -38.787  13.951  15.379  1.00  0.00     0.039 C 
ENDROOT
BRANCH   2   4
ATOM      4  C   UNL     1     -41.038  16.943  16.462  1.00  0.00     0.032 C 
BRANCH   4   5
ATOM      5  C   UNL     1     -42.176  17.125  15.440  1.00  0.00     0.034 C 
BRANCH   5   6
ATOM      6  C   UNL     1     -42.210  18.529  14.866  1.00  0.00    -0.077 C 
ATOM      7  C   UNL     1     -42.714  19.648  15.741  1.00  0.00     0.039 C 
ATOM      8  C   UNL     1     -41.838  18.830  13.602  1.00  0.00    -0.023 CG0
ATOM      9  G   UNL     1     -41.343  17.847  12.568  1.00  0.00     0.000 G0
ENDBRANCH   5   6
ENDBRANCH   4   5
ENDBRANCH   2   4
BRANCH   1  10
ATOM     10  C   UNL     1     -38.651  16.422  14.564  1.00  0.00     0.111 C 
BRANCH  10  11
ATOM     11  C   UNL     1     -39.296  16.449  13.200  1.00  0.00     0.163 C 
ATOM     12  O   UNL     1     -39.326  15.377  12.537  1.00  0.00    -0.294 OA
BRANCH  11  13
ATOM     13  C   UNL     1     -39.843  17.708  12.607  1.00  0.00    -0.002 C 
ATOM     14  C   UNL     1     -39.026  18.665  12.069  1.00  0.00    -0.069 C 
ATOM     15  C   UNL     1     -37.529  18.468  11.981  1.00  0.00     0.039 C 
ATOM     16  C   UNL     1     -39.585  19.953  11.506  1.00  0.00     0.039 C 
BRANCH  13  17
ATOM     17  C   UNL     1     -41.354  17.848  12.556  1.00  0.00     0.066 CG0
ATOM     18  G   UNL     1     -41.815  18.827  13.609  1.00  0.00     0.000 G0
ENDBRANCH  13  17
ENDBRANCH  11  13
ENDBRANCH  10  11
ENDBRANCH   1  10
TORSDOF 0
ENDMDL
MODEL 2
REMARK VINA RESULT:    -4.040      2.414      5.430
REMARK INTER + INTRA:          -5.310
REMARK INTER:                  -6.014
REMARK INTRA:                   0.704
REMARK UNBOUND:                 0.383
REMARK SMILES CC1=CCC(=C(C)C)C(=O)CC(C)=CCC1
REMARK SMILES IDX 12 1 14 2 13 3 15 4 16 5 2 6 1 7 3 8 11 10 9 11 10 12 5 13
REMARK SMILES IDX 6 14 7 15 8 16 4 17
REMARK H PARENT
REMARK Flexibility Score: 60.00
ROOT
ATOM      1  C   UNL     1     -41.130  18.353  13.224  1.00  0.00    -0.070 C 
ATOM      2  C   UNL     1     -39.977  17.726  12.887  1.00  0.00    -0.027 C 
ATOM      3  C   UNL     1     -41.395  19.702  12.602  1.00  0.00     0.039 C 
ENDROOT
BRANCH   2   4
ATOM      4  C   UNL     1     -39.561  16.336  13.304  1.00  0.00     0.032 C 
BRANCH   4   5
ATOM      5  C   UNL     1     -38.940  16.301  14.713  1.00  0.00     0.034 C 
BRANCH   5   6
ATOM      6  C   UNL     1     -39.794  15.524  15.697  1.00  0.00    -0.077 C 
ATOM      7  C   UNL     1     -39.850  14.024  15.566  1.00  0.00     0.039 C 
ATOM      8  C   UNL     1     -40.531  16.104  16.670  1.00  0.00    -0.023 CG0
ATOM      9  G   UNL     1     -40.633  17.586  16.937  1.00  0.00     0.000 G0
ENDBRANCH   5   6
ENDBRANCH   4   5
ENDBRANCH   2   4
BRANCH   1  10
ATOM     10  C   UNL     1     -42.186  17.747  14.132  1.00  0.00     0.111 C 
BRANCH  10  11
ATOM     11  C   UNL     1     -42.398  18.582  15.372  1.00  0.00     0.163 C 
ATOM     12  O   UNL     1     -42.836  19.755  15.229  1.00  0.00    -0.294 OA
BRANCH  11  13
ATOM     13  C   UNL     1     -42.054  18.075  16.737  1.00  0.00    -0.002 C 
ATOM     14  C   UNL     1     -42.993  17.978  17.726  1.00  0.00    -0.069 C 
ATOM     15  C   UNL     1     -44.447  18.312  17.474  1.00  0.00     0.039 C 
ATOM     16  C   UNL     1     -42.629  17.500  19.115  1.00  0.00     0.039 C 
BRANCH  13  17
ATOM     17  C   UNL     1     -40.630  17.596  16.957  1.00  0.00     0.066 CG0
ATOM     18  G   UNL     1     -40.536  16.116  16.674  1.00  0.00     0.000 G0
ENDBRANCH  13  17
ENDBRANCH  11  13
ENDBRANCH  10  11
ENDBRANCH   1  10
TORSDOF 0
ENDMDL
MODEL 3
REMARK VINA RESULT:    -3.978      6.115      9.083
REMARK INTER + INTRA:          -5.223
REMARK INTER:                  -6.144
REMARK INTRA:                   0.921
REMARK UNBOUND:                 0.383
REMARK SMILES CC1=CCC(=C(C)C)C(=O)CC(C)=CCC1
REMARK SMILES IDX 12 1 14 2 13 3 15 4 16 5 2 6 1 7 3 8 11 10 9 11 10 12 5 13
REMARK SMILES IDX 6 14 7 15 8 16 4 17
REMARK H PARENT
REMARK Flexibility Score: 60.00
ROOT
ATOM      1  C   UNL     1     -33.900  15.746   6.858  1.00  0.00    -0.070 C 
ATOM      2  C   UNL     1     -33.477  16.524   5.833  1.00  0.00    -0.027 C 
ATOM      3  C   UNL     1     -32.847  15.147   7.758  1.00  0.00     0.039 C 
ENDROOT
BRANCH   2   4
ATOM      4  C   UNL     1     -34.353  17.303   4.881  1.00  0.00     0.032 C 
BRANCH   4   5
ATOM      5  C   UNL     1     -34.205  18.826   5.051  1.00  0.00     0.034 C 
BRANCH   5   6
ATOM      6  C   UNL     1     -34.117  19.234   6.510  1.00  0.00    -0.077 C 
ATOM      7  C   UNL     1     -32.806  19.767   7.026  1.00  0.00     0.039 C 
ATOM      8  C   UNL     1     -35.144  19.121   7.382  1.00  0.00    -0.023 CG0
ATOM      9  G   UNL     1     -36.517  18.579   7.065  1.00  0.00     0.000 G0
ENDBRANCH   5   6
ENDBRANCH   4   5
ENDBRANCH   2   4
BRANCH   1  10
ATOM     10  C   UNL     1     -35.364  15.502   7.184  1.00  0.00     0.111 C 
BRANCH  10  11
ATOM     11  C   UNL     1     -35.846  16.410   8.289  1.00  0.00     0.163 C 
ATOM     12  O   UNL     1     -35.386  16.229   9.449  1.00  0.00    -0.294 OA
BRANCH  11  13
ATOM     13  C   UNL     1     -36.879  17.466   8.053  1.00  0.00    -0.002 C 
ATOM     14  C   UNL     1     -38.066  17.477   8.733  1.00  0.00    -0.069 C 
ATOM     15  C   UNL     1     -38.369  16.462   9.813  1.00  0.00     0.039 C 
ATOM     16  C   UNL     1     -39.121  18.527   8.460  1.00  0.00     0.039 C 
BRANCH  13  17
ATOM     17  C   UNL     1     -36.522  18.575   7.079  1.00  0.00     0.066 CG0
ATOM     18  G   UNL     1     -35.151  19.119   7.400  1.00  0.00     0.000 G0
ENDBRANCH  13  17
ENDBRANCH  11  13
ENDBRANCH  10  11
ENDBRANCH   1  10
TORSDOF 0
ENDMDL
MODEL 4
REMARK VINA RESULT:    -3.580      3.629      6.847
REMARK INTER + INTRA:          -4.663
REMARK INTER:                  -5.484
REMARK INTRA:                   0.822
REMARK UNBOUND:                 0.383
REMARK SMILES CC1=CCC(=C(C)C)C(=O)CC(C)=CCC1
REMARK SMILES IDX 12 1 14 2 13 3 15 4 16 5 2 6 1 7 3 8 11 10 9 11 10 12 5 13
REMARK SMILES IDX 6 14 7 15 8 16 4 17
REMARK H PARENT
REMARK Flexibility Score: 60.00
ROOT
ATOM      1  C   UNL     1     -37.029  19.380  10.535  1.00  0.00    -0.070 C 
ATOM      2  C   UNL     1     -36.846  19.630   9.217  1.00  0.00    -0.027 C 
ATOM      3  C   UNL     1     -38.158  20.100  11.230  1.00  0.00     0.039 C 
ENDROOT
BRANCH   2   4
ATOM      4  C   UNL     1     -35.853  18.948   8.306  1.00  0.00     0.032 C 
BRANCH   4   5
ATOM      5  C   UNL     1     -36.528  18.001   7.297  1.00  0.00     0.034 C 
BRANCH   5   6
ATOM      6  C   UNL     1     -36.363  16.543   7.683  1.00  0.00    -0.077 C 
ATOM      7  C   UNL     1     -35.233  15.762   7.062  1.00  0.00     0.039 C 
ATOM      8  C   UNL     1     -37.189  15.895   8.534  1.00  0.00    -0.023 CG0
ATOM      9  G   UNL     1     -38.391  16.492   9.225  1.00  0.00     0.000 G0
ENDBRANCH   5   6
ENDBRANCH   4   5
ENDBRANCH   2   4
BRANCH   1  10
ATOM     10  C   UNL     1     -36.208  18.374  11.325  1.00  0.00     0.111 C 
BRANCH  10  11
ATOM     11  C   UNL     1     -36.697  16.963  11.105  1.00  0.00     0.163 C 
ATOM     12  O   UNL     1     -35.863  16.023  11.210  1.00  0.00    -0.294 OA
BRANCH  11  13
ATOM     13  C   UNL     1     -38.112  16.665  10.720  1.00  0.00    -0.002 C 
ATOM     14  C   UNL     1     -39.117  16.626  11.648  1.00  0.00    -0.069 C 
ATOM     15  C   UNL     1     -38.865  16.952  13.103  1.00  0.00     0.039 C 
ATOM     16  C   UNL     1     -40.538  16.287  11.255  1.00  0.00     0.039 C 
BRANCH  13  17
ATOM     17  C   UNL     1     -38.401  16.484   9.241  1.00  0.00     0.066 CG0
ATOM     18  G   UNL     1     -37.186  15.916   8.546  1.00  0.00     0.000 G0
ENDBRANCH  13  17
ENDBRANCH  11  13
ENDBRANCH  10  11
ENDBRANCH   1  10
TORSDOF 0
ENDMDL
MODEL 5
REMARK VINA RESULT:    -3.486      5.111      7.994
REMARK INTER + INTRA:          -4.529
REMARK INTER:                  -5.142
REMARK INTRA:                   0.613
REMARK UNBOUND:                 0.383
REMARK SMILES CC1=CCC(=C(C)C)C(=O)CC(C)=CCC1
REMARK SMILES IDX 12 1 14 2 13 3 15 4 16 5 2 6 1 7 3 8 11 10 9 11 10 12 5 13
REMARK SMILES IDX 6 14 7 15 8 16 4 17
REMARK H PARENT
REMARK Flexibility Score: 60.00
ROOT
ATOM      1  C   UNL     1     -35.868  16.024   7.560  1.00  0.00    -0.070 C 
ATOM      2  C   UNL     1     -35.422  16.585   6.410  1.00  0.00    -0.027 C 
ATOM      3  C   UNL     1     -37.159  15.245   7.498  1.00  0.00     0.039 C 
ENDROOT
BRANCH   2   4
ATOM      4  C   UNL     1     -34.113  17.313   6.220  1.00  0.00     0.032 C 
BRANCH   4   5
ATOM      5  C   UNL     1     -34.054  18.640   6.999  1.00  0.00     0.034 C 
BRANCH   5   6
ATOM      6  C   UNL     1     -35.352  19.419   6.903  1.00  0.00    -0.077 C 
ATOM      7  C   UNL     1     -35.761  19.963   5.559  1.00  0.00     0.039 C 
ATOM      8  C   UNL     1     -36.151  19.676   7.962  1.00  0.00    -0.023 CG0
ATOM      9  G   UNL     1     -35.895  19.249   9.387  1.00  0.00     0.000 G0
ENDBRANCH   5   6
ENDBRANCH   4   5
ENDBRANCH   2   4
BRANCH   1  10
ATOM     10  C   UNL     1     -35.112  16.082   8.876  1.00  0.00     0.111 C 
BRANCH  10  11
ATOM     11  C   UNL     1     -35.929  16.746   9.958  1.00  0.00     0.163 C 
ATOM     12  O   UNL     1     -35.978  16.191  11.089  1.00  0.00    -0.294 OA
BRANCH  11  13
ATOM     13  C   UNL     1     -36.712  17.996   9.705  1.00  0.00    -0.002 C 
ATOM     14  C   UNL     1     -38.075  18.025   9.811  1.00  0.00    -0.069 C 
ATOM     15  C   UNL     1     -38.861  16.812  10.259  1.00  0.00     0.039 C 
ATOM     16  C   UNL     1     -38.862  19.284   9.517  1.00  0.00     0.039 C 
BRANCH  13  17
ATOM     17  C   UNL     1     -35.921  19.256   9.401  1.00  0.00     0.066 CG0
ATOM     18  G   UNL     1     -36.147  19.669   7.966  1.00  0.00     0.000 G0
ENDBRANCH  13  17
ENDBRANCH  11  13
ENDBRANCH  10  11
ENDBRANCH   1  10
TORSDOF 0
ENDMDL
MODEL 6
REMARK VINA RESULT:    -3.371      2.198      5.396
REMARK INTER + INTRA:          -4.368
REMARK INTER:                  -4.946
REMARK INTRA:                   0.578
REMARK UNBOUND:                 0.383
REMARK SMILES CC1=CCC(=C(C)C)C(=O)CC(C)=CCC1
REMARK SMILES IDX 12 1 14 2 13 3 15 4 16 5 2 6 1 7 3 8 11 10 9 11 10 12 5 13
REMARK SMILES IDX 6 14 7 15 8 16 4 17
REMARK H PARENT
REMARK Flexibility Score: 60.00
ROOT
ATOM      1  C   UNL     1     -39.936  17.729  10.200  1.00  0.00    -0.070 C 
ATOM      2  C   UNL     1     -38.679  17.411   9.809  1.00  0.00    -0.027 C 
ATOM      3  C   UNL     1     -40.657  18.800   9.420  1.00  0.00     0.039 C 
ENDROOT
BRANCH   2   4
ATOM      4  C   UNL     1     -37.819  16.306  10.374  1.00  0.00     0.032 C 
BRANCH   4   5
ATOM      5  C   UNL     1     -36.502  16.829  10.977  1.00  0.00     0.034 C 
BRANCH   5   6
ATOM      6  C   UNL     1     -36.729  17.983  11.935  1.00  0.00    -0.077 C 
ATOM      7  C   UNL     1     -36.042  19.295  11.651  1.00  0.00     0.039 C 
ATOM      8  C   UNL     1     -37.494  17.896  13.045  1.00  0.00    -0.023 CG0
ATOM      9  G   UNL     1     -38.230  16.664  13.516  1.00  0.00     0.000 G0
ENDBRANCH   5   6
ENDBRANCH   4   5
ENDBRANCH   2   4
BRANCH   1  10
ATOM     10  C   UNL     1     -40.672  17.026  11.327  1.00  0.00     0.111 C 
BRANCH  10  11
ATOM     11  C   UNL     1     -40.432  17.702  12.655  1.00  0.00     0.163 C 
ATOM     12  O   UNL     1     -40.824  18.893  12.794  1.00  0.00    -0.294 OA
BRANCH  11  13
ATOM     13  C   UNL     1     -39.705  17.022  13.771  1.00  0.00    -0.002 C 
ATOM     14  C   UNL     1     -40.337  16.668  14.932  1.00  0.00    -0.069 C 
ATOM     15  C   UNL     1     -41.822  16.882  15.122  1.00  0.00     0.039 C 
ATOM     16  C   UNL     1     -39.585  16.014  16.071  1.00  0.00     0.039 C 
BRANCH  13  17
ATOM     17  C   UNL     1     -38.248  16.668  13.532  1.00  0.00     0.066 CG0
ATOM     18  G   UNL     1     -37.495  17.888  13.057  1.00  0.00     0.000 G0
ENDBRANCH  13  17
ENDBRANCH  11  13
ENDBRANCH  10  11
ENDBRANCH   1  10
TORSDOF 0
ENDMDL
MODEL 7
REMARK VINA RESULT:    -3.352      1.791      3.735
REMARK INTER + INTRA:          -4.341
REMARK INTER:                  -5.162
REMARK INTRA:                   0.821
REMARK UNBOUND:                 0.383
REMARK SMILES CC1=CCC(=C(C)C)C(=O)CC(C)=CCC1
REMARK SMILES IDX 12 1 14 2 13 3 15 4 16 5 2 6 1 7 3 8 11 10 9 11 10 12 5 13
REMARK SMILES IDX 6 14 7 15 8 16 4 17
REMARK H PARENT
REMARK Flexibility Score: 60.00
ROOT
ATOM      1  C   UNL     1     -40.950  18.120  12.461  1.00  0.00    -0.070 C 
ATOM      2  C   UNL     1     -41.345  18.117  13.757  1.00  0.00    -0.027 C 
ATOM      3  C   UNL     1     -40.559  19.446  11.856  1.00  0.00     0.039 C 
ENDROOT
BRANCH   2   4
ATOM      4  C   UNL     1     -41.676  16.901  14.588  1.00  0.00     0.032 C 
BRANCH   4   5
ATOM      5  C   UNL     1     -40.604  16.599  15.651  1.00  0.00     0.034 C 
BRANCH   5   6
ATOM      6  C   UNL     1     -39.702  15.449  15.244  1.00  0.00    -0.077 C 
ATOM      7  C   UNL     1     -40.026  14.070  15.759  1.00  0.00     0.039 C 
ATOM      8  C   UNL     1     -38.607  15.594  14.465  1.00  0.00    -0.023 CG0
ATOM      9  G   UNL     1     -38.101  16.893  13.886  1.00  0.00     0.000 G0
ENDBRANCH   5   6
ENDBRANCH   4   5
ENDBRANCH   2   4
BRANCH   1  10
ATOM     10  C   UNL     1     -40.819  16.865  11.616  1.00  0.00     0.111 C 
BRANCH  10  11
ATOM     11  C   UNL     1     -39.494  16.178  11.844  1.00  0.00     0.163 C 
ATOM     12  O   UNL     1     -39.422  14.939  11.621  1.00  0.00    -0.294 OA
BRANCH  11  13
ATOM     13  C   UNL     1     -38.301  16.911  12.370  1.00  0.00    -0.002 C 
ATOM     14  C   UNL     1     -37.468  17.615  11.545  1.00  0.00    -0.069 C 
ATOM     15  C   UNL     1     -37.747  17.751  10.066  1.00  0.00     0.039 C 
ATOM     16  C   UNL     1     -36.242  18.323  12.081  1.00  0.00     0.039 C 
BRANCH  13  17
ATOM     17  C   UNL     1     -38.096  16.905  13.875  1.00  0.00     0.066 CG0
ATOM     18  G   UNL     1     -38.607  15.609  14.458  1.00  0.00     0.000 G0
ENDBRANCH  13  17
ENDBRANCH  11  13
ENDBRANCH  10  11
ENDBRANCH   1  10
TORSDOF 0
ENDMDL
MODEL 8
REMARK VINA RESULT:    -3.301      5.510      7.330
REMARK INTER + INTRA:          -4.269
REMARK INTER:                  -4.938
REMARK INTRA:                   0.668
REMARK UNBOUND:                 0.383
REMARK SMILES CC1=CCC(=C(C)C)C(=O)CC(C)=CCC1
REMARK SMILES IDX 12 1 14 2 13 3 15 4 16 5 2 6 1 7 3 8 11 10 9 11 10 12 5 13
REMARK SMILES IDX 6 14 7 15 8 16 4 17
REMARK H PARENT
REMARK Flexibility Score: 60.00
ROOT
ATOM      1  C   UNL     1     -38.035  16.323   9.100  1.00  0.00    -0.070 C 
ATOM      2  C   UNL     1     -38.712  17.479   9.302  1.00  0.00    -0.027 C 
ATOM      3  C   UNL     1     -38.197  15.233  10.131  1.00  0.00     0.039 C 
ENDROOT
BRANCH   2   4
ATOM      4  C   UNL     1     -38.779  18.653   8.355  1.00  0.00     0.032 C 
BRANCH   4   5
ATOM      5  C   UNL     1     -38.164  19.932   8.953  1.00  0.00     0.034 C 
BRANCH   5   6
ATOM      6  C   UNL     1     -36.859  19.656   9.677  1.00  0.00    -0.077 C 
ATOM      7  C   UNL     1     -36.787  19.941  11.155  1.00  0.00     0.039 C 
ATOM      8  C   UNL     1     -35.747  19.192   9.066  1.00  0.00    -0.023 CG0
ATOM      9  G   UNL     1     -35.612  18.882   7.594  1.00  0.00     0.000 G0
ENDBRANCH   5   6
ENDBRANCH   4   5
ENDBRANCH   2   4
BRANCH   1  10
ATOM     10  C   UNL     1     -37.184  16.047   7.872  1.00  0.00     0.111 C 
BRANCH  10  11
ATOM     11  C   UNL     1     -35.730  16.370   8.120  1.00  0.00     0.163 C 
ATOM     12  O   UNL     1     -35.113  15.697   8.990  1.00  0.00    -0.294 OA
BRANCH  11  13
ATOM     13  C   UNL     1     -35.033  17.485   7.407  1.00  0.00    -0.002 C 
ATOM     14  C   UNL     1     -33.981  17.254   6.564  1.00  0.00    -0.069 C 
ATOM     15  C   UNL     1     -33.511  15.851   6.250  1.00  0.00     0.039 C 
ATOM     16  C   UNL     1     -33.258  18.392   5.876  1.00  0.00     0.039 C 
BRANCH  13  17
ATOM     17  C   UNL     1     -35.594  18.883   7.598  1.00  0.00     0.066 CG0
ATOM     18  G   UNL     1     -35.753  19.175   9.071  1.00  0.00     0.000 G0
ENDBRANCH  13  17
ENDBRANCH  11  13
ENDBRANCH  10  11
ENDBRANCH   1  10
TORSDOF 0
ENDMDL
MODEL 9
REMARK VINA RESULT:    -3.206      3.597      5.509
REMARK INTER + INTRA:          -4.135
REMARK INTER:                  -4.756
REMARK INTRA:                   0.620
REMARK UNBOUND:                 0.383
REMARK SMILES CC1=CCC(=C(C)C)C(=O)CC(C)=CCC1
REMARK SMILES IDX 12 1 14 2 13 3 15 4 16 5 2 6 1 7 3 8 11 10 9 11 10 12 5 13
REMARK SMILES IDX 6 14 7 15 8 16 4 17
REMARK H PARENT
REMARK Flexibility Score: 60.00
ROOT
ATOM      1  C   UNL     1     -39.116  16.508  11.458  1.00  0.00    -0.070 C 
ATOM      2  C   UNL     1     -39.401  17.797  11.763  1.00  0.00    -0.027 C 
ATOM      3  C   UNL     1     -39.437  15.460  12.495  1.00  0.00     0.039 C 
ENDROOT
BRANCH   2   4
ATOM      4  C   UNL     1     -39.262  18.985  10.843  1.00  0.00     0.032 C 
BRANCH   4   5
ATOM      5  C   UNL     1     -38.348  20.080  11.423  1.00  0.00     0.034 C 
BRANCH   5   6
ATOM      6  C   UNL     1     -36.955  19.562  11.727  1.00  0.00    -0.077 C 
ATOM      7  C   UNL     1     -36.405  19.761  13.116  1.00  0.00     0.039 C 
ATOM      8  C   UNL     1     -36.166  18.952  10.815  1.00  0.00    -0.023 CG0
ATOM      9  G   UNL     1     -36.523  18.694   9.370  1.00  0.00     0.000 G0
ENDBRANCH   5   6
ENDBRANCH   4   5
ENDBRANCH   2   4
BRANCH   1  10
ATOM     10  C   UNL     1     -38.559  16.062  10.117  1.00  0.00     0.111 C 
BRANCH  10  11
ATOM     11  C   UNL     1     -37.065  16.262  10.042  1.00  0.00     0.163 C 
ATOM     12  O   UNL     1     -36.341  15.645  10.869  1.00  0.00    -0.294 OA
BRANCH  11  13
ATOM     13  C   UNL     1     -36.440  17.200   9.059  1.00  0.00    -0.002 C 
ATOM     14  C   UNL     1     -35.875  16.753   7.896  1.00  0.00    -0.069 C 
ATOM     15  C   UNL     1     -35.914  15.293   7.507  1.00  0.00     0.039 C 
ATOM     16  C   UNL     1     -35.211  17.706   6.926  1.00  0.00     0.039 C 
BRANCH  13  17
ATOM     17  C   UNL     1     -36.528  18.684   9.369  1.00  0.00     0.066 CG0
ATOM     18  G   UNL     1     -36.153  18.929  10.811  1.00  0.00     0.000 G0
ENDBRANCH  13  17
ENDBRANCH  11  13
ENDBRANCH  10  11
ENDBRANCH   1  10
TORSDOF 0
ENDMDL
