MODEL 1
REMARK VINA RESULT:    -6.018      0.000      0.000
REMARK INTER + INTRA:         -10.758
REMARK INTER:                  -9.184
REMARK INTRA:                  -1.574
REMARK UNBOUND:                -1.574
REMARK SMILES OC[C@@H]1O[C@@H](O[C@]2(CO)O[C@@H](CO)[C@H](O)[C@H]2O)[C@H](O)[C@H](O)[C@@H]1O
REMARK SMILES IDX 6 1 5 2 3 3 22 4 4 5 20 6 18 7 2 8 1 9 23 11 21 13 19 15
REMARK SMILES IDX 7 17 16 18 10 19 14 20 11 21 8 22 9 23 17 25 15 27 12 29
REMARK SMILES IDX 13 30
REMARK H PARENT 1 10 23 12 21 14 19 16 9 24 17 26 15 28 13 31
REMARK Flexibility Score: inf
ROOT
ATOM      1  O   UNL     1      18.672   6.463  46.771  1.00  0.00    -0.313 OA
ENDROOT
BRANCH   1   2
ATOM      2  C   UNL     1      17.348   5.959  46.797  1.00  0.00     0.285 C 
ATOM      3  C   UNL     1      15.237   6.214  47.817  1.00  0.00     0.178 C 
ATOM      4  C   UNL     1      14.922   4.773  47.305  1.00  0.00     0.177 C 
ATOM      5  O   UNL     1      16.628   6.515  47.885  1.00  0.00    -0.341 OA
ATOM      6  C   UNL     1      16.126   3.866  47.604  1.00  0.00     0.179 C 
ATOM      7  C   UNL     1      17.412   4.419  46.937  1.00  0.00     0.202 C 
BRANCH   3   8
ATOM      8  C   UNL     1      14.485   7.325  47.059  1.00  0.00     0.191 C 
BRANCH   8   9
ATOM      9  O   UNL     1      13.118   7.025  46.963  1.00  0.00    -0.394 OA
ATOM     10  H   UNL     1      12.876   7.109  46.004  1.00  0.00     0.210 HD
ENDBRANCH   8   9
ENDBRANCH   3   8
BRANCH   4  11
ATOM     11  O   UNL     1      14.653   4.777  45.923  1.00  0.00    -0.387 OA
ATOM     12  H   UNL     1      15.477   5.091  45.467  1.00  0.00     0.211 HD
ENDBRANCH   4  11
BRANCH   6  13
ATOM     13  O   UNL     1      15.856   2.553  47.182  1.00  0.00    -0.387 OA
ATOM     14  H   UNL     1      14.869   2.443  47.209  1.00  0.00     0.211 HD
ENDBRANCH   6  13
BRANCH   7  15
ATOM     15  O   UNL     1      17.591   3.837  45.671  1.00  0.00    -0.385 OA
ATOM     16  H   UNL     1      17.650   4.583  45.019  1.00  0.00     0.211 HD
ENDBRANCH   7  15
ENDBRANCH   1   2
BRANCH   1  17
ATOM     17  C   UNL     1      19.050   7.104  45.547  1.00  0.00     0.224 C 
ATOM     18  C   UNL     1      20.582   7.209  45.530  1.00  0.00     0.208 C 
ATOM     19  O   UNL     1      18.672   6.361  44.399  1.00  0.00    -0.337 OA
ATOM     20  C   UNL     1      20.984   5.910  44.873  1.00  0.00     0.180 C 
ATOM     21  C   UNL     1      19.783   5.598  43.973  1.00  0.00     0.179 C 
BRANCH  17  22
ATOM     22  C   UNL     1      18.375   8.492  45.490  1.00  0.00     0.225 C 
BRANCH  22  23
ATOM     23  O   UNL     1      19.087   9.431  46.252  1.00  0.00    -0.391 OA
ATOM     24  H   UNL     1      19.173  10.247  45.694  1.00  0.00     0.210 HD
ENDBRANCH  22  23
ENDBRANCH  17  22
BRANCH  18  25
ATOM     25  O   UNL     1      21.015   8.291  44.743  1.00  0.00    -0.385 OA
ATOM     26  H   UNL     1      21.928   8.064  44.423  1.00  0.00     0.211 HD
ENDBRANCH  18  25
BRANCH  20  27
ATOM     27  O   UNL     1      21.124   4.899  45.839  1.00  0.00    -0.387 OA
ATOM     28  H   UNL     1      21.870   4.318  45.535  1.00  0.00     0.211 HD
ENDBRANCH  20  27
BRANCH  21  29
ATOM     29  C   UNL     1      20.065   5.916  42.496  1.00  0.00     0.191 C 
BRANCH  29  30
ATOM     30  O   UNL     1      19.804   7.265  42.217  1.00  0.00    -0.394 OA
ATOM     31  H   UNL     1      18.817   7.365  42.189  1.00  0.00     0.210 HD
ENDBRANCH  29  30
ENDBRANCH  21  29
ENDBRANCH   1  17
TORSDOF 13
ENDMDL
MODEL 2
REMARK VINA RESULT:    -6.004      3.300      5.582
REMARK INTER + INTRA:         -10.736
REMARK INTER:                  -9.296
REMARK INTRA:                  -1.440
REMARK UNBOUND:                -1.574
REMARK SMILES OC[C@@H]1O[C@@H](O[C@]2(CO)O[C@@H](CO)[C@H](O)[C@H]2O)[C@H](O)[C@H](O)[C@@H]1O
REMARK SMILES IDX 6 1 5 2 3 3 22 4 4 5 20 6 18 7 2 8 1 9 23 11 21 13 19 15
REMARK SMILES IDX 7 17 16 18 10 19 14 20 11 21 8 22 9 23 17 25 15 27 12 29
REMARK SMILES IDX 13 30
REMARK H PARENT 1 10 23 12 21 14 19 16 9 24 17 26 15 28 13 31
REMARK Flexibility Score: inf
ROOT
ATOM      1  O   UNL     1      15.008   6.889  48.521  1.00  0.00    -0.313 OA
ENDROOT
BRANCH   1   2
ATOM      2  C   UNL     1      13.671   7.034  48.969  1.00  0.00     0.285 C 
ATOM      3  C   UNL     1      11.705   8.308  48.704  1.00  0.00     0.178 C 
ATOM      4  C   UNL     1      11.262   7.735  50.088  1.00  0.00     0.177 C 
ATOM      5  O   UNL     1      13.109   8.235  48.468  1.00  0.00    -0.341 OA
ATOM      6  C   UNL     1      12.445   7.827  51.065  1.00  0.00     0.179 C 
ATOM      7  C   UNL     1      13.673   7.056  50.517  1.00  0.00     0.202 C 
BRANCH   3   8
ATOM      8  C   UNL     1      10.929   7.724  47.508  1.00  0.00     0.191 C 
BRANCH   8   9
ATOM      9  O   UNL     1      11.725   7.719  46.353  1.00  0.00    -0.394 OA
ATOM     10  H   UNL     1      11.407   6.962  45.793  1.00  0.00     0.210 HD
ENDBRANCH   8   9
ENDBRANCH   3   8
BRANCH   4  11
ATOM     11  O   UNL     1      10.838   6.398  49.967  1.00  0.00    -0.387 OA
ATOM     12  H   UNL     1       9.873   6.378  50.198  1.00  0.00     0.211 HD
ENDBRANCH   4  11
BRANCH   6  13
ATOM     13  O   UNL     1      12.063   7.347  52.329  1.00  0.00    -0.387 OA
ATOM     14  H   UNL     1      11.431   8.014  52.707  1.00  0.00     0.211 HD
ENDBRANCH   6  13
BRANCH   7  15
ATOM     15  O   UNL     1      13.678   5.740  51.008  1.00  0.00    -0.385 OA
ATOM     16  H   UNL     1      14.305   5.724  51.778  1.00  0.00     0.211 HD
ENDBRANCH   7  15
ENDBRANCH   1   2
BRANCH   1  17
ATOM     17  C   UNL     1      15.255   5.725  47.724  1.00  0.00     0.224 C 
ATOM     18  C   UNL     1      16.717   5.781  47.259  1.00  0.00     0.208 C 
ATOM     19  O   UNL     1      15.096   4.517  48.452  1.00  0.00    -0.337 OA
ATOM     20  C   UNL     1      17.435   5.061  48.376  1.00  0.00     0.180 C 
ATOM     21  C   UNL     1      16.368   4.093  48.899  1.00  0.00     0.179 C 
BRANCH  17  22
ATOM     22  C   UNL     1      14.269   5.725  46.534  1.00  0.00     0.225 C 
BRANCH  22  23
ATOM     23  O   UNL     1      14.277   4.487  45.873  1.00  0.00    -0.391 OA
ATOM     24  H   UNL     1      14.491   4.672  44.922  1.00  0.00     0.210 HD
ENDBRANCH  22  23
ENDBRANCH  17  22
BRANCH  18  25
ATOM     25  O   UNL     1      16.901   5.081  46.052  1.00  0.00    -0.385 OA
ATOM     26  H   UNL     1      16.864   5.756  45.324  1.00  0.00     0.211 HD
ENDBRANCH  18  25
BRANCH  20  27
ATOM     27  O   UNL     1      17.787   5.968  49.391  1.00  0.00    -0.387 OA
ATOM     28  H   UNL     1      17.058   6.641  49.435  1.00  0.00     0.211 HD
ENDBRANCH  20  27
BRANCH  21  29
ATOM     29  C   UNL     1      16.605   2.652  48.420  1.00  0.00     0.191 C 
BRANCH  29  30
ATOM     30  O   UNL     1      16.206   2.498  47.085  1.00  0.00    -0.394 OA
ATOM     31  H   UNL     1      16.876   1.905  46.654  1.00  0.00     0.210 HD
ENDBRANCH  29  30
ENDBRANCH  21  29
ENDBRANCH   1  17
TORSDOF 13
ENDMDL
MODEL 3
REMARK VINA RESULT:    -5.922      2.663      6.866
REMARK INTER + INTRA:         -10.612
REMARK INTER:                  -8.841
REMARK INTRA:                  -1.771
REMARK UNBOUND:                -1.574
REMARK SMILES OC[C@@H]1O[C@@H](O[C@]2(CO)O[C@@H](CO)[C@H](O)[C@H]2O)[C@H](O)[C@H](O)[C@@H]1O
REMARK SMILES IDX 6 1 5 2 3 3 22 4 4 5 20 6 18 7 2 8 1 9 23 11 21 13 19 15
REMARK SMILES IDX 7 17 16 18 10 19 14 20 11 21 8 22 9 23 17 25 15 27 12 29
REMARK SMILES IDX 13 30
REMARK H PARENT 1 10 23 12 21 14 19 16 9 24 17 26 15 28 13 31
REMARK Flexibility Score: inf
ROOT
ATOM      1  O   UNL     1      13.630   6.794  47.514  1.00  0.00    -0.313 OA
ENDROOT
BRANCH   1   2
ATOM      2  C   UNL     1      14.807   6.040  47.749  1.00  0.00     0.285 C 
ATOM      3  C   UNL     1      16.735   5.156  46.719  1.00  0.00     0.178 C 
ATOM      4  C   UNL     1      16.836   4.198  47.948  1.00  0.00     0.177 C 
ATOM      5  O   UNL     1      15.438   5.713  46.522  1.00  0.00    -0.341 OA
ATOM      6  C   UNL     1      15.444   3.615  48.239  1.00  0.00     0.179 C 
ATOM      7  C   UNL     1      14.417   4.746  48.504  1.00  0.00     0.202 C 
BRANCH   3   8
ATOM      8  C   UNL     1      17.804   6.265  46.701  1.00  0.00     0.191 C 
BRANCH   8   9
ATOM      9  O   UNL     1      19.093   5.714  46.677  1.00  0.00    -0.394 OA
ATOM     10  H   UNL     1      19.451   5.870  45.764  1.00  0.00     0.210 HD
ENDBRANCH   8   9
ENDBRANCH   3   8
BRANCH   4  11
ATOM     11  O   UNL     1      17.319   4.881  49.081  1.00  0.00    -0.387 OA
ATOM     12  H   UNL     1      17.833   5.664  48.750  1.00  0.00     0.211 HD
ENDBRANCH   4  11
BRANCH   6  13
ATOM     13  O   UNL     1      15.512   2.723  49.322  1.00  0.00    -0.387 OA
ATOM     14  H   UNL     1      14.742   2.103  49.230  1.00  0.00     0.211 HD
ENDBRANCH   6  13
BRANCH   7  15
ATOM     15  O   UNL     1      14.332   5.010  49.881  1.00  0.00    -0.385 OA
ATOM     16  H   UNL     1      14.325   5.998  49.983  1.00  0.00     0.211 HD
ENDBRANCH   7  15
ENDBRANCH   1   2
BRANCH   1  17
ATOM     17  C   UNL     1      13.536   8.014  48.258  1.00  0.00     0.224 C 
ATOM     18  C   UNL     1      12.206   8.684  47.888  1.00  0.00     0.208 C 
ATOM     19  O   UNL     1      13.518   7.801  49.661  1.00  0.00    -0.337 OA
ATOM     20  C   UNL     1      11.257   8.094  48.903  1.00  0.00     0.180 C 
ATOM     21  C   UNL     1      12.173   7.803  50.097  1.00  0.00     0.179 C 
BRANCH  17  22
ATOM     22  C   UNL     1      14.750   8.901  47.902  1.00  0.00     0.225 C 
BRANCH  22  23
ATOM     23  O   UNL     1      15.130   9.697  48.994  1.00  0.00    -0.391 OA
ATOM     24  H   UNL     1      14.826  10.620  48.795  1.00  0.00     0.210 HD
ENDBRANCH  22  23
ENDBRANCH  17  22
BRANCH  18  25
ATOM     25  O   UNL     1      12.268  10.080  48.055  1.00  0.00    -0.385 OA
ATOM     26  H   UNL     1      13.165  10.282  48.431  1.00  0.00     0.211 HD
ENDBRANCH  18  25
BRANCH  20  27
ATOM     27  O   UNL     1      10.715   6.891  48.420  1.00  0.00    -0.387 OA
ATOM     28  H   UNL     1      11.463   6.238  48.381  1.00  0.00     0.211 HD
ENDBRANCH  20  27
BRANCH  21  29
ATOM     29  C   UNL     1      12.018   8.843  51.217  1.00  0.00     0.191 C 
BRANCH  29  30
ATOM     30  O   UNL     1      12.635  10.052  50.866  1.00  0.00    -0.394 OA
ATOM     31  H   UNL     1      11.991  10.775  51.082  1.00  0.00     0.210 HD
ENDBRANCH  29  30
ENDBRANCH  21  29
ENDBRANCH   1  17
TORSDOF 13
ENDMDL
MODEL 4
REMARK VINA RESULT:    -5.813      3.827      6.390
REMARK INTER + INTRA:         -10.445
REMARK INTER:                  -9.015
REMARK INTRA:                  -1.431
REMARK UNBOUND:                -1.574
REMARK SMILES OC[C@@H]1O[C@@H](O[C@]2(CO)O[C@@H](CO)[C@H](O)[C@H]2O)[C@H](O)[C@H](O)[C@@H]1O
REMARK SMILES IDX 6 1 5 2 3 3 22 4 4 5 20 6 18 7 2 8 1 9 23 11 21 13 19 15
REMARK SMILES IDX 7 17 16 18 10 19 14 20 11 21 8 22 9 23 17 25 15 27 12 29
REMARK SMILES IDX 13 30
REMARK H PARENT 1 10 23 12 21 14 19 16 9 24 17 26 15 28 13 31
REMARK Flexibility Score: inf
ROOT
ATOM      1  O   UNL     1      13.993   8.104  49.180  1.00  0.00    -0.313 OA
ENDROOT
BRANCH   1   2
ATOM      2  C   UNL     1      12.745   8.029  49.847  1.00  0.00     0.285 C 
ATOM      3  C   UNL     1      10.706   9.162  50.195  1.00  0.00     0.178 C 
ATOM      4  C   UNL     1      10.525   8.252  51.451  1.00  0.00     0.177 C 
ATOM      5  O   UNL     1      12.052   9.262  49.739  1.00  0.00    -0.341 OA
ATOM      6  C   UNL     1      11.849   8.216  52.232  1.00  0.00     0.179 C 
ATOM      7  C   UNL     1      13.003   7.696  51.336  1.00  0.00     0.202 C 
BRANCH   3   8
ATOM      8  C   UNL     1       9.769   8.804  49.025  1.00  0.00     0.191 C 
BRANCH   8   9
ATOM      9  O   UNL     1       8.453   8.629  49.477  1.00  0.00    -0.394 OA
ATOM     10  H   UNL     1       8.398   7.707  49.842  1.00  0.00     0.210 HD
ENDBRANCH   8   9
ENDBRANCH   3   8
BRANCH   4  11
ATOM     11  O   UNL     1      10.149   6.947  51.079  1.00  0.00    -0.387 OA
ATOM     12  H   UNL     1       9.157   6.913  51.105  1.00  0.00     0.211 HD
ENDBRANCH   4  11
BRANCH   6  13
ATOM     13  O   UNL     1      11.705   7.429  53.387  1.00  0.00    -0.387 OA
ATOM     14  H   UNL     1      12.455   6.778  53.383  1.00  0.00     0.211 HD
ENDBRANCH   6  13
BRANCH   7  15
ATOM     15  O   UNL     1      13.149   6.308  51.491  1.00  0.00    -0.385 OA
ATOM     16  H   UNL     1      12.494   6.026  52.182  1.00  0.00     0.211 HD
ENDBRANCH   7  15
ENDBRANCH   1   2
BRANCH   1  17
ATOM     17  C   UNL     1      14.053   7.405  47.931  1.00  0.00     0.224 C 
ATOM     18  C   UNL     1      15.474   7.571  47.374  1.00  0.00     0.208 C 
ATOM     19  O   UNL     1      13.820   6.013  48.069  1.00  0.00    -0.337 OA
ATOM     20  C   UNL     1      16.192   6.384  47.971  1.00  0.00     0.180 C 
ATOM     21  C   UNL     1      15.069   5.354  48.135  1.00  0.00     0.179 C 
BRANCH  17  22
ATOM     22  C   UNL     1      12.988   8.000  46.984  1.00  0.00     0.225 C 
BRANCH  22  23
ATOM     23  O   UNL     1      13.214   9.368  46.767  1.00  0.00    -0.391 OA
ATOM     24  H   UNL     1      12.983   9.835  47.611  1.00  0.00     0.210 HD
ENDBRANCH  22  23
ENDBRANCH  17  22
BRANCH  18  25
ATOM     25  O   UNL     1      15.491   7.475  45.970  1.00  0.00    -0.385 OA
ATOM     26  H   UNL     1      15.935   6.614  45.748  1.00  0.00     0.211 HD
ENDBRANCH  18  25
BRANCH  20  27
ATOM     27  O   UNL     1      16.714   6.717  49.233  1.00  0.00    -0.387 OA
ATOM     28  H   UNL     1      16.924   5.860  49.689  1.00  0.00     0.211 HD
ENDBRANCH  20  27
BRANCH  21  29
ATOM     29  C   UNL     1      15.113   4.268  47.049  1.00  0.00     0.191 C 
BRANCH  29  30
ATOM     30  O   UNL     1      14.408   4.674  45.907  1.00  0.00    -0.394 OA
ATOM     31  H   UNL     1      14.138   5.617  46.060  1.00  0.00     0.210 HD
ENDBRANCH  29  30
ENDBRANCH  21  29
ENDBRANCH   1  17
TORSDOF 13
ENDMDL
MODEL 5
REMARK VINA RESULT:    -5.724      1.602      5.826
REMARK INTER + INTRA:         -10.309
REMARK INTER:                  -8.940
REMARK INTRA:                  -1.369
REMARK UNBOUND:                -1.574
REMARK SMILES OC[C@@H]1O[C@@H](O[C@]2(CO)O[C@@H](CO)[C@H](O)[C@H]2O)[C@H](O)[C@H](O)[C@@H]1O
REMARK SMILES IDX 6 1 5 2 3 3 22 4 4 5 20 6 18 7 2 8 1 9 23 11 21 13 19 15
REMARK SMILES IDX 7 17 16 18 10 19 14 20 11 21 8 22 9 23 17 25 15 27 12 29
REMARK SMILES IDX 13 30
REMARK H PARENT 1 10 23 12 21 14 19 16 9 24 17 26 15 28 13 31
REMARK Flexibility Score: inf
ROOT
ATOM      1  O   UNL     1      16.770   5.471  45.346  1.00  0.00    -0.313 OA
ENDROOT
BRANCH   1   2
ATOM      2  C   UNL     1      18.135   5.550  44.973  1.00  0.00     0.285 C 
ATOM      3  C   UNL     1      19.920   7.046  44.600  1.00  0.00     0.178 C 
ATOM      4  C   UNL     1      20.596   5.889  43.798  1.00  0.00     0.177 C 
ATOM      5  O   UNL     1      18.511   6.900  44.753  1.00  0.00    -0.341 OA
ATOM      6  C   UNL     1      19.550   5.254  42.867  1.00  0.00     0.179 C 
ATOM      7  C   UNL     1      18.338   4.728  43.677  1.00  0.00     0.202 C 
BRANCH   3   8
ATOM      8  C   UNL     1      20.581   7.331  45.962  1.00  0.00     0.191 C 
BRANCH   8   9
ATOM      9  O   UNL     1      19.929   8.383  46.621  1.00  0.00    -0.394 OA
ATOM     10  H   UNL     1      20.466   8.586  47.432  1.00  0.00     0.210 HD
ENDBRANCH   8   9
ENDBRANCH   3   8
BRANCH   4  11
ATOM     11  O   UNL     1      21.123   4.914  44.666  1.00  0.00    -0.387 OA
ATOM     12  H   UNL     1      22.016   4.663  44.312  1.00  0.00     0.211 HD
ENDBRANCH   4  11
BRANCH   6  13
ATOM     13  O   UNL     1      20.140   4.229  42.108  1.00  0.00    -0.387 OA
ATOM     14  H   UNL     1      19.625   4.168  41.261  1.00  0.00     0.211 HD
ENDBRANCH   6  13
BRANCH   7  15
ATOM     15  O   UNL     1      18.522   3.373  44.002  1.00  0.00    -0.385 OA
ATOM     16  H   UNL     1      18.096   3.231  44.888  1.00  0.00     0.211 HD
ENDBRANCH   7  15
ENDBRANCH   1   2
BRANCH   1  17
ATOM     17  C   UNL     1      16.538   5.121  46.715  1.00  0.00     0.224 C 
ATOM     18  C   UNL     1      16.807   6.370  47.567  1.00  0.00     0.208 C 
ATOM     19  O   UNL     1      15.196   4.731  46.962  1.00  0.00    -0.337 OA
ATOM     20  C   UNL     1      15.452   7.034  47.598  1.00  0.00     0.180 C 
ATOM     21  C   UNL     1      14.489   5.849  47.459  1.00  0.00     0.179 C 
BRANCH  17  22
ATOM     22  C   UNL     1      17.476   3.952  47.089  1.00  0.00     0.225 C 
BRANCH  22  23
ATOM     23  O   UNL     1      16.896   3.135  48.071  1.00  0.00    -0.391 OA
ATOM     24  H   UNL     1      17.462   2.322  48.139  1.00  0.00     0.210 HD
ENDBRANCH  22  23
ENDBRANCH  17  22
BRANCH  18  25
ATOM     25  O   UNL     1      17.196   6.026  48.875  1.00  0.00    -0.385 OA
ATOM     26  H   UNL     1      16.396   6.150  49.451  1.00  0.00     0.211 HD
ENDBRANCH  18  25
BRANCH  20  27
ATOM     27  O   UNL     1      15.306   7.892  46.495  1.00  0.00    -0.387 OA
ATOM     28  H   UNL     1      15.403   8.818  46.841  1.00  0.00     0.211 HD
ENDBRANCH  20  27
BRANCH  21  29
ATOM     29  C   UNL     1      13.838   5.468  48.797  1.00  0.00     0.191 C 
BRANCH  29  30
ATOM     30  O   UNL     1      14.610   4.514  49.474  1.00  0.00    -0.394 OA
ATOM     31  H   UNL     1      14.062   4.192  50.236  1.00  0.00     0.210 HD
ENDBRANCH  29  30
ENDBRANCH  21  29
ENDBRANCH   1  17
TORSDOF 13
ENDMDL
MODEL 6
REMARK VINA RESULT:    -5.638      1.482      6.065
REMARK INTER + INTRA:         -10.179
REMARK INTER:                  -8.282
REMARK INTRA:                  -1.897
REMARK UNBOUND:                -1.574
REMARK SMILES OC[C@@H]1O[C@@H](O[C@]2(CO)O[C@@H](CO)[C@H](O)[C@H]2O)[C@H](O)[C@H](O)[C@@H]1O
REMARK SMILES IDX 6 1 5 2 3 3 22 4 4 5 20 6 18 7 2 8 1 9 23 11 21 13 19 15
REMARK SMILES IDX 7 17 16 18 10 19 14 20 11 21 8 22 9 23 17 25 15 27 12 29
REMARK SMILES IDX 13 30
REMARK H PARENT 1 10 23 12 21 14 19 16 9 24 17 26 15 28 13 31
REMARK Flexibility Score: inf
ROOT
ATOM      1  O   UNL     1      17.089   5.851  47.677  1.00  0.00    -0.313 OA
ENDROOT
BRANCH   1   2
ATOM      2  C   UNL     1      17.929   5.911  46.537  1.00  0.00     0.285 C 
ATOM      3  C   UNL     1      19.533   4.710  45.293  1.00  0.00     0.178 C 
ATOM      4  C   UNL     1      19.944   6.085  44.676  1.00  0.00     0.177 C 
ATOM      5  O   UNL     1      18.829   4.815  46.527  1.00  0.00    -0.341 OA
ATOM      6  C   UNL     1      20.057   7.121  45.806  1.00  0.00     0.179 C 
ATOM      7  C   UNL     1      18.719   7.242  46.580  1.00  0.00     0.202 C 
BRANCH   3   8
ATOM      8  C   UNL     1      18.772   3.791  44.318  1.00  0.00     0.191 C 
BRANCH   8   9
ATOM      9  O   UNL     1      19.446   3.701  43.091  1.00  0.00    -0.394 OA
ATOM     10  H   UNL     1      18.945   4.270  42.449  1.00  0.00     0.210 HD
ENDBRANCH   8   9
ENDBRANCH   3   8
BRANCH   4  11
ATOM     11  O   UNL     1      19.000   6.513  43.723  1.00  0.00    -0.387 OA
ATOM     12  H   UNL     1      19.139   7.488  43.594  1.00  0.00     0.211 HD
ENDBRANCH   4  11
BRANCH   6  13
ATOM     13  O   UNL     1      20.457   8.362  45.283  1.00  0.00    -0.387 OA
ATOM     14  H   UNL     1      20.109   9.058  45.901  1.00  0.00     0.211 HD
ENDBRANCH   6  13
BRANCH   7  15
ATOM     15  O   UNL     1      17.935   8.273  46.036  1.00  0.00    -0.385 OA
ATOM     16  H   UNL     1      18.509   9.083  46.005  1.00  0.00     0.211 HD
ENDBRANCH   7  15
ENDBRANCH   1   2
BRANCH   1  17
ATOM     17  C   UNL     1      15.685   5.836  47.391  1.00  0.00     0.224 C 
ATOM     18  C   UNL     1      14.938   5.856  48.733  1.00  0.00     0.208 C 
ATOM     19  O   UNL     1      15.262   6.978  46.663  1.00  0.00    -0.337 OA
ATOM     20  C   UNL     1      14.782   7.336  48.990  1.00  0.00     0.180 C 
ATOM     21  C   UNL     1      14.744   7.925  47.575  1.00  0.00     0.179 C 
BRANCH  17  22
ATOM     22  C   UNL     1      15.364   4.569  46.569  1.00  0.00     0.225 C 
BRANCH  22  23
ATOM     23  O   UNL     1      14.212   4.754  45.788  1.00  0.00    -0.391 OA
ATOM     24  H   UNL     1      13.586   4.021  46.024  1.00  0.00     0.210 HD
ENDBRANCH  22  23
ENDBRANCH  17  22
BRANCH  18  25
ATOM     25  O   UNL     1      13.669   5.259  48.623  1.00  0.00    -0.385 OA
ATOM     26  H   UNL     1      13.012   5.999  48.537  1.00  0.00     0.211 HD
ENDBRANCH  18  25
BRANCH  20  27
ATOM     27  O   UNL     1      15.903   7.831  49.677  1.00  0.00    -0.387 OA
ATOM     28  H   UNL     1      16.600   8.011  48.992  1.00  0.00     0.211 HD
ENDBRANCH  20  27
BRANCH  21  29
ATOM     29  C   UNL     1      13.320   8.304  47.140  1.00  0.00     0.191 C 
BRANCH  29  30
ATOM     30  O   UNL     1      12.637   7.187  46.640  1.00  0.00    -0.394 OA
ATOM     31  H   UNL     1      11.739   7.504  46.358  1.00  0.00     0.210 HD
ENDBRANCH  29  30
ENDBRANCH  21  29
ENDBRANCH   1  17
TORSDOF 13
ENDMDL
MODEL 7
REMARK VINA RESULT:    -5.591      1.821      3.417
REMARK INTER + INTRA:         -10.106
REMARK INTER:                  -8.557
REMARK INTRA:                  -1.549
REMARK UNBOUND:                -1.574
REMARK SMILES OC[C@@H]1O[C@@H](O[C@]2(CO)O[C@@H](CO)[C@H](O)[C@H]2O)[C@H](O)[C@H](O)[C@@H]1O
REMARK SMILES IDX 6 1 5 2 3 3 22 4 4 5 20 6 18 7 2 8 1 9 23 11 21 13 19 15
REMARK SMILES IDX 7 17 16 18 10 19 14 20 11 21 8 22 9 23 17 25 15 27 12 29
REMARK SMILES IDX 13 30
REMARK H PARENT 1 10 23 12 21 14 19 16 9 24 17 26 15 28 13 31
REMARK Flexibility Score: inf
ROOT
ATOM      1  O   UNL     1      16.505   6.688  46.029  1.00  0.00    -0.313 OA
ENDROOT
BRANCH   1   2
ATOM      2  C   UNL     1      16.092   5.763  47.020  1.00  0.00     0.285 C 
ATOM      3  C   UNL     1      15.161   3.622  47.352  1.00  0.00     0.178 C 
ATOM      4  C   UNL     1      14.807   4.105  48.795  1.00  0.00     0.177 C 
ATOM      5  O   UNL     1      15.394   4.681  46.427  1.00  0.00    -0.341 OA
ATOM      6  C   UNL     1      14.193   5.512  48.711  1.00  0.00     0.179 C 
ATOM      7  C   UNL     1      15.171   6.499  48.024  1.00  0.00     0.202 C 
BRANCH   3   8
ATOM      8  C   UNL     1      16.313   2.601  47.300  1.00  0.00     0.191 C 
BRANCH   8   9
ATOM      9  O   UNL     1      16.030   1.490  48.108  1.00  0.00    -0.394 OA
ATOM     10  H   UNL     1      15.382   0.930  47.604  1.00  0.00     0.210 HD
ENDBRANCH   8   9
ENDBRANCH   3   8
BRANCH   4  11
ATOM     11  O   UNL     1      15.952   4.126  49.614  1.00  0.00    -0.387 OA
ATOM     12  H   UNL     1      16.712   3.806  49.059  1.00  0.00     0.211 HD
ENDBRANCH   4  11
BRANCH   6  13
ATOM     13  O   UNL     1      13.835   5.958  49.994  1.00  0.00    -0.387 OA
ATOM     14  H   UNL     1      14.562   6.564  50.298  1.00  0.00     0.211 HD
ENDBRANCH   6  13
BRANCH   7  15
ATOM     15  O   UNL     1      15.953   7.157  48.987  1.00  0.00    -0.385 OA
ATOM     16  H   UNL     1      16.677   7.628  48.496  1.00  0.00     0.211 HD
ENDBRANCH   7  15
ENDBRANCH   1   2
BRANCH   1  17
ATOM     17  C   UNL     1      17.870   6.559  45.615  1.00  0.00     0.224 C 
ATOM     18  C   UNL     1      17.994   5.247  44.826  1.00  0.00     0.208 C 
ATOM     19  O   UNL     1      18.283   7.605  44.750  1.00  0.00    -0.337 OA
ATOM     20  C   UNL     1      17.699   5.695  43.414  1.00  0.00     0.180 C 
ATOM     21  C   UNL     1      18.166   7.155  43.415  1.00  0.00     0.179 C 
BRANCH  17  22
ATOM     22  C   UNL     1      18.768   6.564  46.872  1.00  0.00     0.225 C 
BRANCH  22  23
ATOM     23  O   UNL     1      20.038   7.086  46.581  1.00  0.00    -0.391 OA
ATOM     24  H   UNL     1      20.628   6.844  47.342  1.00  0.00     0.210 HD
ENDBRANCH  22  23
ENDBRANCH  17  22
BRANCH  18  25
ATOM     25  O   UNL     1      19.300   4.727  44.893  1.00  0.00    -0.385 OA
ATOM     26  H   UNL     1      19.608   4.853  45.830  1.00  0.00     0.211 HD
ENDBRANCH  18  25
BRANCH  20  27
ATOM     27  O   UNL     1      16.317   5.642  43.166  1.00  0.00    -0.387 OA
ATOM     28  H   UNL     1      15.866   5.895  44.014  1.00  0.00     0.211 HD
ENDBRANCH  20  27
BRANCH  21  29
ATOM     29  C   UNL     1      19.521   7.333  42.712  1.00  0.00     0.191 C 
BRANCH  29  30
ATOM     30  O   UNL     1      20.578   7.175  43.620  1.00  0.00    -0.394 OA
ATOM     31  H   UNL     1      20.260   7.527  44.492  1.00  0.00     0.210 HD
ENDBRANCH  29  30
ENDBRANCH  21  29
ENDBRANCH   1  17
TORSDOF 13
ENDMDL
MODEL 8
REMARK VINA RESULT:    -5.568      3.208      6.899
REMARK INTER + INTRA:         -10.071
REMARK INTER:                  -8.266
REMARK INTRA:                  -1.805
REMARK UNBOUND:                -1.574
REMARK SMILES OC[C@@H]1O[C@@H](O[C@]2(CO)O[C@@H](CO)[C@H](O)[C@H]2O)[C@H](O)[C@H](O)[C@@H]1O
REMARK SMILES IDX 6 1 5 2 3 3 22 4 4 5 20 6 18 7 2 8 1 9 23 11 21 13 19 15
REMARK SMILES IDX 7 17 16 18 10 19 14 20 11 21 8 22 9 23 17 25 15 27 12 29
REMARK SMILES IDX 13 30
REMARK H PARENT 1 10 23 12 21 14 19 16 9 24 17 26 15 28 13 31
REMARK Flexibility Score: inf
ROOT
ATOM      1  O   UNL     1      13.234   5.435  48.519  1.00  0.00    -0.313 OA
ENDROOT
BRANCH   1   2
ATOM      2  C   UNL     1      14.588   5.416  48.101  1.00  0.00     0.285 C 
ATOM      3  C   UNL     1      16.037   5.965  46.323  1.00  0.00     0.178 C 
ATOM      4  C   UNL     1      17.060   4.986  46.981  1.00  0.00     0.177 C 
ATOM      5  O   UNL     1      14.687   5.752  46.727  1.00  0.00    -0.341 OA
ATOM      6  C   UNL     1      16.327   3.692  47.372  1.00  0.00     0.179 C 
ATOM      7  C   UNL     1      15.154   3.995  48.340  1.00  0.00     0.202 C 
BRANCH   3   8
ATOM      8  C   UNL     1      16.412   7.452  46.472  1.00  0.00     0.191 C 
BRANCH   8   9
ATOM      9  O   UNL     1      15.429   8.273  45.899  1.00  0.00    -0.394 OA
ATOM     10  H   UNL     1      15.704   9.211  46.076  1.00  0.00     0.210 HD
ENDBRANCH   8   9
ENDBRANCH   3   8
BRANCH   4  11
ATOM     11  O   UNL     1      17.654   5.566  48.118  1.00  0.00    -0.387 OA
ATOM     12  H   UNL     1      18.016   4.822  48.668  1.00  0.00     0.211 HD
ENDBRANCH   4  11
BRANCH   6  13
ATOM     13  O   UNL     1      17.232   2.779  47.938  1.00  0.00    -0.387 OA
ATOM     14  H   UNL     1      17.338   2.040  47.283  1.00  0.00     0.211 HD
ENDBRANCH   6  13
BRANCH   7  15
ATOM     15  O   UNL     1      15.581   3.874  49.673  1.00  0.00    -0.385 OA
ATOM     16  H   UNL     1      16.554   3.678  49.645  1.00  0.00     0.211 HD
ENDBRANCH   7  15
ENDBRANCH   1   2
BRANCH   1  17
ATOM     17  C   UNL     1      12.876   6.541  49.356  1.00  0.00     0.224 C 
ATOM     18  C   UNL     1      13.464   7.811  48.725  1.00  0.00     0.208 C 
ATOM     19  O   UNL     1      11.473   6.732  49.445  1.00  0.00    -0.337 OA
ATOM     20  C   UNL     1      12.350   8.258  47.809  1.00  0.00     0.180 C 
ATOM     21  C   UNL     1      11.097   7.725  48.513  1.00  0.00     0.179 C 
BRANCH  17  22
ATOM     22  C   UNL     1      13.438   6.286  50.773  1.00  0.00     0.225 C 
BRANCH  22  23
ATOM     23  O   UNL     1      12.606   6.849  51.753  1.00  0.00    -0.391 OA
ATOM     24  H   UNL     1      12.942   6.532  52.631  1.00  0.00     0.210 HD
ENDBRANCH  22  23
ENDBRANCH  17  22
BRANCH  18  25
ATOM     25  O   UNL     1      13.706   8.803  49.694  1.00  0.00    -0.385 OA
ATOM     26  H   UNL     1      14.671   8.748  49.923  1.00  0.00     0.211 HD
ENDBRANCH  18  25
BRANCH  20  27
ATOM     27  O   UNL     1      12.481   7.646  46.551  1.00  0.00    -0.387 OA
ATOM     28  H   UNL     1      12.384   8.365  45.873  1.00  0.00     0.211 HD
ENDBRANCH  20  27
BRANCH  21  29
ATOM     29  C   UNL     1      10.330   8.833  49.252  1.00  0.00     0.191 C 
BRANCH  29  30
ATOM     30  O   UNL     1      10.752   8.927  50.586  1.00  0.00    -0.394 OA
ATOM     31  H   UNL     1      10.658   8.020  50.979  1.00  0.00     0.210 HD
ENDBRANCH  29  30
ENDBRANCH  21  29
ENDBRANCH   1  17
TORSDOF 13
ENDMDL
MODEL 9
REMARK VINA RESULT:    -5.551      3.129      7.515
REMARK INTER + INTRA:         -10.045
REMARK INTER:                  -8.607
REMARK INTRA:                  -1.439
REMARK UNBOUND:                -1.574
REMARK SMILES OC[C@@H]1O[C@@H](O[C@]2(CO)O[C@@H](CO)[C@H](O)[C@H]2O)[C@H](O)[C@H](O)[C@@H]1O
REMARK SMILES IDX 6 1 5 2 3 3 22 4 4 5 20 6 18 7 2 8 1 9 23 11 21 13 19 15
REMARK SMILES IDX 7 17 16 18 10 19 14 20 11 21 8 22 9 23 17 25 15 27 12 29
REMARK SMILES IDX 13 30
REMARK H PARENT 1 10 23 12 21 14 19 16 9 24 17 26 15 28 13 31
REMARK Flexibility Score: inf
ROOT
ATOM      1  O   UNL     1      14.241   8.140  49.191  1.00  0.00    -0.313 OA
ENDROOT
BRANCH   1   2
ATOM      2  C   UNL     1      14.715   7.169  48.274  1.00  0.00     0.285 C 
ATOM      3  C   UNL     1      15.980   5.187  48.090  1.00  0.00     0.178 C 
ATOM      4  C   UNL     1      16.099   5.518  46.569  1.00  0.00     0.177 C 
ATOM      5  O   UNL     1      15.651   6.309  48.904  1.00  0.00    -0.341 OA
ATOM      6  C   UNL     1      16.455   7.005  46.411  1.00  0.00     0.179 C 
ATOM      7  C   UNL     1      15.387   7.902  47.088  1.00  0.00     0.202 C 
BRANCH   3   8
ATOM      8  C   UNL     1      15.041   4.005  48.401  1.00  0.00     0.191 C 
BRANCH   8   9
ATOM      9  O   UNL     1      15.375   2.887  47.623  1.00  0.00    -0.394 OA
ATOM     10  H   UNL     1      14.533   2.381  47.479  1.00  0.00     0.210 HD
ENDBRANCH   8   9
ENDBRANCH   3   8
BRANCH   4  11
ATOM     11  O   UNL     1      14.895   5.236  45.896  1.00  0.00    -0.387 OA
ATOM     12  H   UNL     1      14.581   4.352  46.221  1.00  0.00     0.211 HD
ENDBRANCH   4  11
BRANCH   6  13
ATOM     13  O   UNL     1      16.600   7.323  45.050  1.00  0.00    -0.387 OA
ATOM     14  H   UNL     1      17.179   6.620  44.653  1.00  0.00     0.211 HD
ENDBRANCH   6  13
BRANCH   7  15
ATOM     15  O   UNL     1      14.409   8.282  46.153  1.00  0.00    -0.385 OA
ATOM     16  H   UNL     1      14.055   7.445  45.754  1.00  0.00     0.211 HD
ENDBRANCH   7  15
ENDBRANCH   1   2
BRANCH   1  17
ATOM     17  C   UNL     1      12.816   8.190  49.333  1.00  0.00     0.224 C 
ATOM     18  C   UNL     1      12.298   6.745  49.338  1.00  0.00     0.208 C 
ATOM     19  O   UNL     1      12.407   8.783  50.556  1.00  0.00    -0.337 OA
ATOM     20  C   UNL     1      12.344   6.394  50.806  1.00  0.00     0.180 C 
ATOM     21  C   UNL     1      12.146   7.753  51.487  1.00  0.00     0.179 C 
BRANCH  17  22
ATOM     22  C   UNL     1      12.234   9.010  48.160  1.00  0.00     0.225 C 
BRANCH  22  23
ATOM     23  O   UNL     1      10.985   9.554  48.496  1.00  0.00    -0.391 OA
ATOM     24  H   UNL     1      10.958   9.619  49.486  1.00  0.00     0.210 HD
ENDBRANCH  22  23
ENDBRANCH  17  22
BRANCH  18  25
ATOM     25  O   UNL     1      10.971   6.673  48.876  1.00  0.00    -0.385 OA
ATOM     26  H   UNL     1      10.607   7.596  48.910  1.00  0.00     0.211 HD
ENDBRANCH  18  25
BRANCH  20  27
ATOM     27  O   UNL     1      13.607   5.878  51.142  1.00  0.00    -0.387 OA
ATOM     28  H   UNL     1      13.450   4.989  51.557  1.00  0.00     0.211 HD
ENDBRANCH  20  27
BRANCH  21  29
ATOM     29  C   UNL     1      10.720   7.928  52.032  1.00  0.00     0.191 C 
BRANCH  29  30
ATOM     30  O   UNL     1       9.802   8.089  50.984  1.00  0.00    -0.394 OA
ATOM     31  H   UNL     1       9.585   7.179  50.652  1.00  0.00     0.210 HD
ENDBRANCH  29  30
ENDBRANCH  21  29
ENDBRANCH   1  17
TORSDOF 13
ENDMDL
