MODEL 1
REMARK VINA RESULT:    14.582      0.000      0.000
REMARK INTER + INTRA:          31.178
REMARK INTER:                  31.630
REMARK INTRA:                  -0.453
REMARK UNBOUND:                -0.453
REMARK SMILES CCCCCCCCCCCCCCCCCCCCCC(=O)[O-]
REMARK SMILES IDX 12 1 11 2 10 3 9 4 8 5 7 6 6 7 5 8 4 9 3 10 2 11 1 12 13 13
REMARK SMILES IDX 14 14 15 15 16 16 17 17 18 18 19 19 20 20 21 21 22 22 23 23
REMARK SMILES IDX 24 24
REMARK H PARENT
REMARK Flexibility Score: inf
ROOT
ATOM      1  C   UNL     1      74.935  50.469  -3.305  1.00  0.00     0.000 C 
ENDROOT
BRANCH   1   2
ATOM      2  C   UNL     1      76.390  50.952  -3.400  1.00  0.00     0.000 C 
BRANCH   2   3
ATOM      3  C   UNL     1      77.236  50.097  -4.360  1.00  0.00     0.000 C 
BRANCH   3   4
ATOM      4  C   UNL     1      77.984  48.966  -3.638  1.00  0.00    -0.000 C 
BRANCH   4   5
ATOM      5  C   UNL     1      79.350  49.413  -3.096  1.00  0.00    -0.000 C 
BRANCH   5   6
ATOM      6  C   UNL     1      80.325  48.231  -3.018  1.00  0.00    -0.000 C 
BRANCH   6   7
ATOM      7  C   UNL     1      81.770  48.720  -2.839  1.00  0.00    -0.000 C 
BRANCH   7   8
ATOM      8  C   UNL     1      81.871  50.243  -2.643  1.00  0.00    -0.000 C 
BRANCH   8   9
ATOM      9  C   UNL     1      81.072  50.803  -1.451  1.00  0.00    -0.000 C 
BRANCH   9  10
ATOM     10  C   UNL     1      80.837  52.320  -1.548  1.00  0.00    -0.000 C 
BRANCH  10  11
ATOM     11  C   UNL     1      79.590  52.669  -2.374  1.00  0.00    -0.003 C 
ATOM     12  C   UNL     1      79.920  53.451  -3.646  1.00  0.00     0.004 C 
ENDBRANCH  10  11
ENDBRANCH   9  10
ENDBRANCH   8   9
ENDBRANCH   7   8
ENDBRANCH   6   7
ENDBRANCH   5   6
ENDBRANCH   4   5
ENDBRANCH   3   4
ENDBRANCH   2   3
ENDBRANCH   1   2
BRANCH   1  13
ATOM     13  C   UNL     1      73.979  51.567  -2.813  1.00  0.00     0.000 C 
BRANCH  13  14
ATOM     14  C   UNL     1      74.465  52.954  -3.245  1.00  0.00     0.000 C 
BRANCH  14  15
ATOM     15  C   UNL     1      73.498  53.586  -4.257  1.00  0.00     0.000 C 
BRANCH  15  16
ATOM     16  C   UNL     1      73.063  55.009  -3.864  1.00  0.00     0.000 C 
BRANCH  16  17
ATOM     17  C   UNL     1      71.575  55.157  -3.483  1.00  0.00     0.000 C 
BRANCH  17  18
ATOM     18  C   UNL     1      71.044  56.602  -3.476  1.00  0.00     0.000 C 
BRANCH  18  19
ATOM     19  C   UNL     1      71.326  57.391  -2.181  1.00  0.00     0.000 C 
BRANCH  19  20
ATOM     20  C   UNL     1      71.318  58.923  -2.372  1.00  0.00     0.006 C 
BRANCH  20  21
ATOM     21  C   UNL     1      72.440  59.618  -1.589  1.00  0.00     0.053 C 
BRANCH  21  22
ATOM     22  C   UNL     1      73.505  60.102  -2.520  1.00  0.00     0.041 C 
ATOM     23  O   UNL     1      74.648  60.391  -2.079  1.00  0.00    -0.550 OA
ATOM     24  O   UNL     1      73.223  60.276  -3.869  1.00  0.00    -0.550 OA
ENDBRANCH  21  22
ENDBRANCH  20  21
ENDBRANCH  19  20
ENDBRANCH  18  19
ENDBRANCH  17  18
ENDBRANCH  16  17
ENDBRANCH  15  16
ENDBRANCH  14  15
ENDBRANCH  13  14
ENDBRANCH   1  13
TORSDOF 20
ENDMDL
MODEL 2
REMARK VINA RESULT:    14.733      0.784      1.154
REMARK INTER + INTRA:          31.507
REMARK INTER:                  31.934
REMARK INTRA:                  -0.427
REMARK UNBOUND:                -0.453
REMARK SMILES CCCCCCCCCCCCCCCCCCCCCC(=O)[O-]
REMARK SMILES IDX 12 1 11 2 10 3 9 4 8 5 7 6 6 7 5 8 4 9 3 10 2 11 1 12 13 13
REMARK SMILES IDX 14 14 15 15 16 16 17 17 18 18 19 19 20 20 21 21 22 22 23 23
REMARK SMILES IDX 24 24
REMARK H PARENT
REMARK Flexibility Score: inf
ROOT
ATOM      1  C   UNL     1      75.319  50.250  -3.382  1.00  0.00     0.000 C 
ENDROOT
BRANCH   1   2
ATOM      2  C   UNL     1      76.591  50.980  -3.839  1.00  0.00     0.000 C 
BRANCH   2   3
ATOM      3  C   UNL     1      77.651  50.022  -4.410  1.00  0.00     0.000 C 
BRANCH   3   4
ATOM      4  C   UNL     1      78.069  48.937  -3.404  1.00  0.00    -0.000 C 
BRANCH   4   5
ATOM      5  C   UNL     1      79.440  49.216  -2.771  1.00  0.00    -0.000 C 
BRANCH   5   6
ATOM      6  C   UNL     1      80.370  48.006  -2.919  1.00  0.00    -0.000 C 
BRANCH   6   7
ATOM      7  C   UNL     1      81.843  48.426  -2.804  1.00  0.00    -0.000 C 
BRANCH   7   8
ATOM      8  C   UNL     1      82.077  49.905  -3.156  1.00  0.00    -0.000 C 
BRANCH   8   9
ATOM      9  C   UNL     1      81.976  50.883  -1.971  1.00  0.00    -0.000 C 
BRANCH   9  10
ATOM     10  C   UNL     1      80.697  51.738  -2.008  1.00  0.00    -0.000 C 
BRANCH  10  11
ATOM     11  C   UNL     1      80.342  52.323  -0.633  1.00  0.00    -0.003 C 
ATOM     12  C   UNL     1      80.342  51.271   0.477  1.00  0.00     0.004 C 
ENDBRANCH  10  11
ENDBRANCH   9  10
ENDBRANCH   8   9
ENDBRANCH   7   8
ENDBRANCH   6   7
ENDBRANCH   5   6
ENDBRANCH   4   5
ENDBRANCH   3   4
ENDBRANCH   2   3
ENDBRANCH   1   2
BRANCH   1  13
ATOM     13  C   UNL     1      74.295  51.196  -2.735  1.00  0.00     0.000 C 
BRANCH  13  14
ATOM     14  C   UNL     1      74.609  52.658  -3.068  1.00  0.00     0.000 C 
BRANCH  14  15
ATOM     15  C   UNL     1      73.587  53.229  -4.062  1.00  0.00     0.000 C 
BRANCH  15  16
ATOM     16  C   UNL     1      73.261  54.710  -3.803  1.00  0.00     0.000 C 
BRANCH  16  17
ATOM     17  C   UNL     1      71.762  55.070  -3.865  1.00  0.00     0.000 C 
BRANCH  17  18
ATOM     18  C   UNL     1      71.311  56.163  -2.878  1.00  0.00     0.000 C 
BRANCH  18  19
ATOM     19  C   UNL     1      72.067  57.501  -3.002  1.00  0.00     0.000 C 
BRANCH  19  20
ATOM     20  C   UNL     1      71.357  58.683  -2.306  1.00  0.00     0.006 C 
BRANCH  20  21
ATOM     21  C   UNL     1      72.341  59.637  -1.618  1.00  0.00     0.053 C 
BRANCH  21  22
ATOM     22  C   UNL     1      73.386  60.097  -2.585  1.00  0.00     0.041 C 
ATOM     23  O   UNL     1      74.606  60.002  -2.291  1.00  0.00    -0.550 OA
ATOM     24  O   UNL     1      73.012  60.672  -3.793  1.00  0.00    -0.550 OA
ENDBRANCH  21  22
ENDBRANCH  20  21
ENDBRANCH  19  20
ENDBRANCH  18  19
ENDBRANCH  17  18
ENDBRANCH  16  17
ENDBRANCH  15  16
ENDBRANCH  14  15
ENDBRANCH  13  14
ENDBRANCH   1  13
TORSDOF 20
ENDMDL
MODEL 3
REMARK VINA RESULT:    14.755      2.602      9.344
REMARK INTER + INTRA:          31.555
REMARK INTER:                  32.262
REMARK INTRA:                  -0.708
REMARK UNBOUND:                -0.453
REMARK SMILES CCCCCCCCCCCCCCCCCCCCCC(=O)[O-]
REMARK SMILES IDX 12 1 11 2 10 3 9 4 8 5 7 6 6 7 5 8 4 9 3 10 2 11 1 12 13 13
REMARK SMILES IDX 14 14 15 15 16 16 17 17 18 18 19 19 20 20 21 21 22 22 23 23
REMARK SMILES IDX 24 24
REMARK H PARENT
REMARK Flexibility Score: inf
ROOT
ATOM      1  C   UNL     1      74.913  50.599  -2.924  1.00  0.00     0.000 C 
ENDROOT
BRANCH   1   2
ATOM      2  C   UNL     1      73.786  51.623  -3.135  1.00  0.00     0.000 C 
BRANCH   2   3
ATOM      3  C   UNL     1      74.318  53.031  -3.455  1.00  0.00     0.000 C 
BRANCH   3   4
ATOM      4  C   UNL     1      73.376  53.821  -4.377  1.00  0.00    -0.000 C 
BRANCH   4   5
ATOM      5  C   UNL     1      73.109  55.245  -3.868  1.00  0.00    -0.000 C 
BRANCH   5   6
ATOM      6  C   UNL     1      71.680  55.378  -3.329  1.00  0.00    -0.000 C 
BRANCH   6   7
ATOM      7  C   UNL     1      71.201  56.836  -3.391  1.00  0.00    -0.000 C 
BRANCH   7   8
ATOM      8  C   UNL     1      71.368  57.582  -2.056  1.00  0.00    -0.000 C 
BRANCH   8   9
ATOM      9  C   UNL     1      71.543  59.108  -2.176  1.00  0.00    -0.000 C 
BRANCH   9  10
ATOM     10  C   UNL     1      72.805  59.624  -1.464  1.00  0.00    -0.000 C 
BRANCH  10  11
ATOM     11  C   UNL     1      73.866  60.138  -2.449  1.00  0.00    -0.003 C 
ATOM     12  C   UNL     1      73.339  60.257  -3.880  1.00  0.00     0.004 C 
ENDBRANCH  10  11
ENDBRANCH   9  10
ENDBRANCH   8   9
ENDBRANCH   7   8
ENDBRANCH   6   7
ENDBRANCH   5   6
ENDBRANCH   4   5
ENDBRANCH   3   4
ENDBRANCH   2   3
ENDBRANCH   1   2
BRANCH   1  13
ATOM     13  C   UNL     1      76.109  50.837  -3.859  1.00  0.00     0.000 C 
BRANCH  13  14
ATOM     14  C   UNL     1      77.046  49.625  -3.873  1.00  0.00     0.000 C 
BRANCH  14  15
ATOM     15  C   UNL     1      78.474  50.028  -3.478  1.00  0.00     0.000 C 
BRANCH  15  16
ATOM     16  C   UNL     1      79.227  48.915  -2.728  1.00  0.00     0.000 C 
BRANCH  16  17
ATOM     17  C   UNL     1      80.753  48.891  -2.951  1.00  0.00     0.000 C 
BRANCH  17  18
ATOM     18  C   UNL     1      81.518  50.089  -2.359  1.00  0.00     0.000 C 
BRANCH  18  19
ATOM     19  C   UNL     1      80.718  50.936  -1.349  1.00  0.00     0.000 C 
BRANCH  19  20
ATOM     20  C   UNL     1      80.672  52.439  -1.696  1.00  0.00     0.006 C 
BRANCH  20  21
ATOM     21  C   UNL     1      79.605  52.767  -2.749  1.00  0.00     0.053 C 
BRANCH  21  22
ATOM     22  C   UNL     1      80.144  53.731  -3.758  1.00  0.00     0.041 C 
ATOM     23  O   UNL     1      80.552  54.865  -3.396  1.00  0.00    -0.550 OA
ATOM     24  O   UNL     1      80.154  53.394  -5.106  1.00  0.00    -0.550 OA
ENDBRANCH  21  22
ENDBRANCH  20  21
ENDBRANCH  19  20
ENDBRANCH  18  19
ENDBRANCH  17  18
ENDBRANCH  16  17
ENDBRANCH  15  16
ENDBRANCH  14  15
ENDBRANCH  13  14
ENDBRANCH   1  13
TORSDOF 20
ENDMDL
MODEL 4
REMARK VINA RESULT:    15.059     12.778     16.815
REMARK INTER + INTRA:          32.213
REMARK INTER:                  29.597
REMARK INTRA:                   2.617
REMARK UNBOUND:                -0.453
REMARK SMILES CCCCCCCCCCCCCCCCCCCCCC(=O)[O-]
REMARK SMILES IDX 12 1 11 2 10 3 9 4 8 5 7 6 6 7 5 8 4 9 3 10 2 11 1 12 13 13
REMARK SMILES IDX 14 14 15 15 16 16 17 17 18 18 19 19 20 20 21 21 22 22 23 23
REMARK SMILES IDX 24 24
REMARK H PARENT
REMARK Flexibility Score: inf
ROOT
ATOM      1  C   UNL     1      70.133  55.728   8.764  1.00  0.00     0.000 C 
ENDROOT
BRANCH   1   2
ATOM      2  C   UNL     1      69.187  55.452   9.943  1.00  0.00     0.000 C 
BRANCH   2   3
ATOM      3  C   UNL     1      68.256  54.253   9.687  1.00  0.00     0.000 C 
BRANCH   3   4
ATOM      4  C   UNL     1      67.574  53.751  10.969  1.00  0.00    -0.000 C 
BRANCH   4   5
ATOM      5  C   UNL     1      66.122  54.236  11.094  1.00  0.00    -0.000 C 
BRANCH   5   6
ATOM      6  C   UNL     1      65.893  55.508  10.269  1.00  0.00    -0.000 C 
BRANCH   6   7
ATOM      7  C   UNL     1      66.747  56.670  10.800  1.00  0.00    -0.000 C 
BRANCH   7   8
ATOM      8  C   UNL     1      65.938  57.960  11.020  1.00  0.00    -0.000 C 
BRANCH   8   9
ATOM      9  C   UNL     1      64.409  57.799  10.921  1.00  0.00    -0.000 C 
BRANCH   9  10
ATOM     10  C   UNL     1      63.926  57.542   9.483  1.00  0.00    -0.000 C 
BRANCH  10  11
ATOM     11  C   UNL     1      65.046  57.719   8.447  1.00  0.00    -0.003 C 
ATOM     12  C   UNL     1      65.169  59.158   7.946  1.00  0.00     0.004 C 
ENDBRANCH  10  11
ENDBRANCH   9  10
ENDBRANCH   8   9
ENDBRANCH   7   8
ENDBRANCH   6   7
ENDBRANCH   5   6
ENDBRANCH   4   5
ENDBRANCH   3   4
ENDBRANCH   2   3
ENDBRANCH   1   2
BRANCH   1  13
ATOM     13  C   UNL     1      71.179  54.618   8.574  1.00  0.00     0.000 C 
BRANCH  13  14
ATOM     14  C   UNL     1      71.496  53.928   9.905  1.00  0.00     0.000 C 
BRANCH  14  15
ATOM     15  C   UNL     1      71.707  54.959  11.023  1.00  0.00     0.000 C 
BRANCH  15  16
ATOM     16  C   UNL     1      73.076  55.657  10.945  1.00  0.00     0.000 C 
BRANCH  16  17
ATOM     17  C   UNL     1      74.296  54.726  11.099  1.00  0.00     0.000 C 
BRANCH  17  18
ATOM     18  C   UNL     1      75.639  55.327  10.646  1.00  0.00     0.000 C 
BRANCH  18  19
ATOM     19  C   UNL     1      76.696  54.296  10.203  1.00  0.00     0.000 C 
BRANCH  19  20
ATOM     20  C   UNL     1      76.404  53.657   8.828  1.00  0.00     0.006 C 
BRANCH  20  21
ATOM     21  C   UNL     1      76.876  54.533   7.660  1.00  0.00     0.053 C 
BRANCH  21  22
ATOM     22  C   UNL     1      78.306  54.242   7.333  1.00  0.00     0.041 C 
ATOM     23  O   UNL     1      78.681  54.176   6.133  1.00  0.00    -0.550 OA
ATOM     24  O   UNL     1      79.218  53.997   8.353  1.00  0.00    -0.550 OA
ENDBRANCH  21  22
ENDBRANCH  20  21
ENDBRANCH  19  20
ENDBRANCH  18  19
ENDBRANCH  17  18
ENDBRANCH  16  17
ENDBRANCH  15  16
ENDBRANCH  14  15
ENDBRANCH  13  14
ENDBRANCH   1  13
TORSDOF 20
ENDMDL
MODEL 5
REMARK VINA RESULT:    15.073      3.090     10.021
REMARK INTER + INTRA:          32.244
REMARK INTER:                  32.904
REMARK INTRA:                  -0.660
REMARK UNBOUND:                -0.453
REMARK SMILES CCCCCCCCCCCCCCCCCCCCCC(=O)[O-]
REMARK SMILES IDX 12 1 11 2 10 3 9 4 8 5 7 6 6 7 5 8 4 9 3 10 2 11 1 12 13 13
REMARK SMILES IDX 14 14 15 15 16 16 17 17 18 18 19 19 20 20 21 21 22 22 23 23
REMARK SMILES IDX 24 24
REMARK H PARENT
REMARK Flexibility Score: inf
ROOT
ATOM      1  C   UNL     1      74.273  51.108  -2.783  1.00  0.00     0.000 C 
ENDROOT
BRANCH   1   2
ATOM      2  C   UNL     1      74.500  52.594  -3.101  1.00  0.00     0.000 C 
BRANCH   2   3
ATOM      3  C   UNL     1      73.430  53.168  -4.045  1.00  0.00     0.000 C 
BRANCH   3   4
ATOM      4  C   UNL     1      73.134  54.651  -3.771  1.00  0.00    -0.000 C 
BRANCH   4   5
ATOM      5  C   UNL     1      71.670  54.899  -3.377  1.00  0.00    -0.000 C 
BRANCH   5   6
ATOM      6  C   UNL     1      71.282  56.366  -3.596  1.00  0.00    -0.000 C 
BRANCH   6   7
ATOM      7  C   UNL     1      71.952  57.274  -2.555  1.00  0.00    -0.000 C 
BRANCH   7   8
ATOM      8  C   UNL     1      71.112  58.516  -2.209  1.00  0.00    -0.000 C 
BRANCH   8   9
ATOM      9  C   UNL     1      71.886  59.663  -1.533  1.00  0.00    -0.000 C 
BRANCH   9  10
ATOM     10  C   UNL     1      73.410  59.537  -1.702  1.00  0.00    -0.000 C 
BRANCH  10  11
ATOM     11  C   UNL     1      73.865  59.801  -3.145  1.00  0.00    -0.003 C 
ATOM     12  C   UNL     1      73.082  60.929  -3.816  1.00  0.00     0.004 C 
ENDBRANCH  10  11
ENDBRANCH   9  10
ENDBRANCH   8   9
ENDBRANCH   7   8
ENDBRANCH   6   7
ENDBRANCH   5   6
ENDBRANCH   4   5
ENDBRANCH   3   4
ENDBRANCH   2   3
ENDBRANCH   1   2
BRANCH   1  13
ATOM     13  C   UNL     1      75.280  50.191  -3.494  1.00  0.00     0.000 C 
BRANCH  13  14
ATOM     14  C   UNL     1      76.603  50.921  -3.752  1.00  0.00     0.000 C 
BRANCH  14  15
ATOM     15  C   UNL     1      77.628  49.985  -4.409  1.00  0.00     0.000 C 
BRANCH  15  16
ATOM     16  C   UNL     1      78.030  48.806  -3.505  1.00  0.00     0.000 C 
BRANCH  16  17
ATOM     17  C   UNL     1      79.334  49.010  -2.705  1.00  0.00     0.000 C 
BRANCH  17  18
ATOM     18  C   UNL     1      80.542  48.198  -3.208  1.00  0.00     0.000 C 
BRANCH  18  19
ATOM     19  C   UNL     1      81.916  48.733  -2.759  1.00  0.00     0.000 C 
BRANCH  19  20
ATOM     20  C   UNL     1      82.093  50.252  -2.972  1.00  0.00     0.006 C 
BRANCH  20  21
ATOM     21  C   UNL     1      82.125  51.032  -1.651  1.00  0.00     0.053 C 
BRANCH  21  22
ATOM     22  C   UNL     1      80.791  51.650  -1.377  1.00  0.00     0.041 C 
ATOM     23  O   UNL     1      80.189  52.284  -2.281  1.00  0.00    -0.550 OA
ATOM     24  O   UNL     1      80.232  51.564  -0.107  1.00  0.00    -0.550 OA
ENDBRANCH  21  22
ENDBRANCH  20  21
ENDBRANCH  19  20
ENDBRANCH  18  19
ENDBRANCH  17  18
ENDBRANCH  16  17
ENDBRANCH  15  16
ENDBRANCH  14  15
ENDBRANCH  13  14
ENDBRANCH   1  13
TORSDOF 20
ENDMDL
MODEL 6
REMARK VINA RESULT:    15.990      2.703      9.540
REMARK INTER + INTRA:          34.233
REMARK INTER:                  35.628
REMARK INTRA:                  -1.395
REMARK UNBOUND:                -0.453
REMARK SMILES CCCCCCCCCCCCCCCCCCCCCC(=O)[O-]
REMARK SMILES IDX 12 1 11 2 10 3 9 4 8 5 7 6 6 7 5 8 4 9 3 10 2 11 1 12 13 13
REMARK SMILES IDX 14 14 15 15 16 16 17 17 18 18 19 19 20 20 21 21 22 22 23 23
REMARK SMILES IDX 24 24
REMARK H PARENT
REMARK Flexibility Score: inf
ROOT
ATOM      1  C   UNL     1      74.359  52.843  -3.303  1.00  0.00     0.000 C 
ENDROOT
BRANCH   1   2
ATOM      2  C   UNL     1      73.553  53.612  -4.362  1.00  0.00     0.000 C 
BRANCH   2   3
ATOM      3  C   UNL     1      73.023  54.959  -3.840  1.00  0.00     0.000 C 
BRANCH   3   4
ATOM      4  C   UNL     1      71.526  54.911  -3.498  1.00  0.00    -0.000 C 
BRANCH   4   5
ATOM      5  C   UNL     1      70.902  56.310  -3.381  1.00  0.00    -0.000 C 
BRANCH   5   6
ATOM      6  C   UNL     1      71.903  57.312  -2.795  1.00  0.00    -0.000 C 
BRANCH   6   7
ATOM      7  C   UNL     1      71.181  58.421  -2.016  1.00  0.00    -0.000 C 
BRANCH   7   8
ATOM      8  C   UNL     1      72.051  59.672  -1.802  1.00  0.00    -0.000 C 
BRANCH   8   9
ATOM      9  C   UNL     1      73.055  59.972  -2.931  1.00  0.00    -0.000 C 
BRANCH   9  10
ATOM     10  C   UNL     1      74.486  60.199  -2.415  1.00  0.00    -0.000 C 
BRANCH  10  11
ATOM     11  C   UNL     1      74.664  59.747  -0.958  1.00  0.00    -0.003 C 
ATOM     12  C   UNL     1      75.897  60.359  -0.293  1.00  0.00     0.004 C 
ENDBRANCH  10  11
ENDBRANCH   9  10
ENDBRANCH   8   9
ENDBRANCH   7   8
ENDBRANCH   6   7
ENDBRANCH   5   6
ENDBRANCH   4   5
ENDBRANCH   3   4
ENDBRANCH   2   3
ENDBRANCH   1   2
BRANCH   1  13
ATOM     13  C   UNL     1      74.189  51.320  -3.423  1.00  0.00     0.000 C 
BRANCH  13  14
ATOM     14  C   UNL     1      75.484  50.591  -3.050  1.00  0.00     0.000 C 
BRANCH  14  15
ATOM     15  C   UNL     1      76.552  50.774  -4.138  1.00  0.00     0.000 C 
BRANCH  15  16
ATOM     16  C   UNL     1      77.577  49.626  -4.172  1.00  0.00     0.000 C 
BRANCH  16  17
ATOM     17  C   UNL     1      78.258  49.316  -2.823  1.00  0.00     0.000 C 
BRANCH  17  18
ATOM     18  C   UNL     1      79.662  48.694  -2.928  1.00  0.00     0.000 C 
BRANCH  18  19
ATOM     19  C   UNL     1      80.822  49.645  -2.571  1.00  0.00     0.000 C 
BRANCH  19  20
ATOM     20  C   UNL     1      80.405  50.821  -1.661  1.00  0.00     0.006 C 
BRANCH  20  21
ATOM     21  C   UNL     1      80.942  52.169  -2.160  1.00  0.00     0.053 C 
BRANCH  21  22
ATOM     22  C   UNL     1      79.861  52.940  -2.850  1.00  0.00     0.041 C 
ATOM     23  O   UNL     1      78.711  53.012  -2.343  1.00  0.00    -0.550 OA
ATOM     24  O   UNL     1      80.111  53.541  -4.077  1.00  0.00    -0.550 OA
ENDBRANCH  21  22
ENDBRANCH  20  21
ENDBRANCH  19  20
ENDBRANCH  18  19
ENDBRANCH  17  18
ENDBRANCH  16  17
ENDBRANCH  15  16
ENDBRANCH  14  15
ENDBRANCH  13  14
ENDBRANCH   1  13
TORSDOF 20
ENDMDL
MODEL 7
REMARK VINA RESULT:    17.561     12.925     16.742
REMARK INTER + INTRA:          37.641
REMARK INTER:                  35.127
REMARK INTRA:                   2.514
REMARK UNBOUND:                -0.453
REMARK SMILES CCCCCCCCCCCCCCCCCCCCCC(=O)[O-]
REMARK SMILES IDX 12 1 11 2 10 3 9 4 8 5 7 6 6 7 5 8 4 9 3 10 2 11 1 12 13 13
REMARK SMILES IDX 14 14 15 15 16 16 17 17 18 18 19 19 20 20 21 21 22 22 23 23
REMARK SMILES IDX 24 24
REMARK H PARENT
REMARK Flexibility Score: inf
ROOT
ATOM      1  C   UNL     1      69.920  54.639   8.381  1.00  0.00     0.000 C 
ENDROOT
BRANCH   1   2
ATOM      2  C   UNL     1      69.689  55.506   9.628  1.00  0.00     0.000 C 
BRANCH   2   3
ATOM      3  C   UNL     1      68.199  55.802   9.875  1.00  0.00     0.000 C 
BRANCH   3   4
ATOM      4  C   UNL     1      67.581  56.677   8.773  1.00  0.00    -0.000 C 
BRANCH   4   5
ATOM      5  C   UNL     1      66.311  56.058   8.170  1.00  0.00    -0.000 C 
BRANCH   5   6
ATOM      6  C   UNL     1      65.051  56.641   8.821  1.00  0.00    -0.000 C 
BRANCH   6   7
ATOM      7  C   UNL     1      65.226  56.770  10.341  1.00  0.00    -0.000 C 
BRANCH   7   8
ATOM      8  C   UNL     1      64.541  55.637  11.125  1.00  0.00    -0.000 C 
BRANCH   8   9
ATOM      9  C   UNL     1      64.528  54.268  10.419  1.00  0.00    -0.000 C 
BRANCH   9  10
ATOM     10  C   UNL     1      65.417  53.225  11.120  1.00  0.00    -0.000 C 
BRANCH  10  11
ATOM     11  C   UNL     1      65.544  51.925  10.312  1.00  0.00    -0.003 C 
ATOM     12  C   UNL     1      64.801  50.753  10.954  1.00  0.00     0.004 C 
ENDBRANCH  10  11
ENDBRANCH   9  10
ENDBRANCH   8   9
ENDBRANCH   7   8
ENDBRANCH   6   7
ENDBRANCH   5   6
ENDBRANCH   4   5
ENDBRANCH   3   4
ENDBRANCH   2   3
ENDBRANCH   1   2
BRANCH   1  13
ATOM     13  C   UNL     1      70.924  53.502   8.631  1.00  0.00     0.000 C 
BRANCH  13  14
ATOM     14  C   UNL     1      71.009  53.159  10.122  1.00  0.00     0.000 C 
BRANCH  14  15
ATOM     15  C   UNL     1      71.061  54.434  10.978  1.00  0.00     0.000 C 
BRANCH  15  16
ATOM     16  C   UNL     1      72.110  55.445  10.484  1.00  0.00     0.000 C 
BRANCH  16  17
ATOM     17  C   UNL     1      73.507  55.305  11.124  1.00  0.00     0.000 C 
BRANCH  17  18
ATOM     18  C   UNL     1      74.555  54.585  10.256  1.00  0.00     0.000 C 
BRANCH  18  19
ATOM     19  C   UNL     1      76.013  54.751  10.727  1.00  0.00     0.000 C 
BRANCH  19  20
ATOM     20  C   UNL     1      77.024  54.928   9.573  1.00  0.00     0.006 C 
BRANCH  20  21
ATOM     21  C   UNL     1      76.793  53.928   8.432  1.00  0.00     0.053 C 
BRANCH  21  22
ATOM     22  C   UNL     1      77.914  53.996   7.443  1.00  0.00     0.041 C 
ATOM     23  O   UNL     1      78.120  55.052   6.791  1.00  0.00    -0.550 OA
ATOM     24  O   UNL     1      78.704  52.877   7.209  1.00  0.00    -0.550 OA
ENDBRANCH  21  22
ENDBRANCH  20  21
ENDBRANCH  19  20
ENDBRANCH  18  19
ENDBRANCH  17  18
ENDBRANCH  16  17
ENDBRANCH  15  16
ENDBRANCH  14  15
ENDBRANCH  13  14
ENDBRANCH   1  13
TORSDOF 20
ENDMDL
