MODEL 1
REMARK VINA RESULT:    -4.666      0.000      0.000
REMARK INTER + INTRA:          -7.555
REMARK INTER:                  -7.121
REMARK INTRA:                  -0.434
REMARK UNBOUND:                -0.434
REMARK SMILES CCCCCCCCCCC(=O)[O-]
REMARK SMILES IDX 7 1 8 2 9 3 10 4 11 5 12 6 13 7 6 8 5 9 4 10 3 11 2 12 1 13
REMARK H PARENT
REMARK Flexibility Score: inf
ROOT
ATOM      1  C   UNL     1      -8.367  -5.822  -6.204  1.00  0.00     0.000 C 
ENDROOT
BRANCH   1   2
ATOM      2  C   UNL     1      -9.453  -5.098  -5.388  1.00  0.00     0.000 C 
BRANCH   2   3
ATOM      3  C   UNL     1      -8.870  -4.038  -4.441  1.00  0.00     0.006 C 
BRANCH   3   4
ATOM      4  C   UNL     1      -9.784  -3.750  -3.244  1.00  0.00     0.053 C 
BRANCH   4   5
ATOM      5  C   UNL     1      -8.971  -3.400  -2.038  1.00  0.00     0.041 C 
ATOM      6  O   UNL     1      -8.916  -2.208  -1.634  1.00  0.00    -0.550 OA
ATOM      7  O   UNL     1      -8.235  -4.381  -1.387  1.00  0.00    -0.550 OA
ENDBRANCH   4   5
ENDBRANCH   3   4
ENDBRANCH   2   3
ENDBRANCH   1   2
BRANCH   1   8
ATOM      8  C   UNL     1      -7.081  -6.057  -5.396  1.00  0.00     0.000 C 
BRANCH   8   9
ATOM      9  C   UNL     1      -5.886  -6.441  -6.287  1.00  0.00    -0.000 C 
BRANCH   9  10
ATOM     10  C   UNL     1      -4.580  -5.764  -5.843  1.00  0.00    -0.000 C 
BRANCH  10  11
ATOM     11  C   UNL     1      -4.534  -4.272  -6.214  1.00  0.00    -0.000 C 
BRANCH  11  12
ATOM     12  C   UNL     1      -3.247  -3.586  -5.730  1.00  0.00    -0.003 C 
ATOM     13  C   UNL     1      -3.316  -2.062  -5.830  1.00  0.00     0.004 C 
ENDBRANCH  11  12
ENDBRANCH  10  11
ENDBRANCH   9  10
ENDBRANCH   8   9
ENDBRANCH   1   8
TORSDOF 9
ENDMDL
MODEL 2
REMARK VINA RESULT:    -4.567      1.734      2.746
REMARK INTER + INTRA:          -7.403
REMARK INTER:                  -6.730
REMARK INTRA:                  -0.674
REMARK UNBOUND:                -0.434
REMARK SMILES CCCCCCCCCCC(=O)[O-]
REMARK SMILES IDX 7 1 8 2 9 3 10 4 11 5 12 6 13 7 6 8 5 9 4 10 3 11 2 12 1 13
REMARK H PARENT
REMARK Flexibility Score: inf
ROOT
ATOM      1  C   UNL     1      -6.044  -6.373  -7.850  1.00  0.00     0.000 C 
ENDROOT
BRANCH   1   2
ATOM      2  C   UNL     1      -6.637  -4.981  -7.571  1.00  0.00     0.000 C 
BRANCH   2   3
ATOM      3  C   UNL     1      -8.091  -5.047  -7.080  1.00  0.00     0.006 C 
BRANCH   3   4
ATOM      4  C   UNL     1      -8.197  -5.438  -5.600  1.00  0.00     0.053 C 
BRANCH   4   5
ATOM      5  C   UNL     1      -9.138  -4.523  -4.884  1.00  0.00     0.041 C 
ATOM      6  O   UNL     1      -9.328  -4.652  -3.645  1.00  0.00    -0.550 OA
ATOM      7  O   UNL     1      -9.843  -3.557  -5.591  1.00  0.00    -0.550 OA
ENDBRANCH   4   5
ENDBRANCH   3   4
ENDBRANCH   2   3
ENDBRANCH   1   2
BRANCH   1   8
ATOM      8  C   UNL     1      -4.958  -6.765  -6.835  1.00  0.00     0.000 C 
BRANCH   8   9
ATOM      9  C   UNL     1      -4.612  -5.617  -5.869  1.00  0.00    -0.000 C 
BRANCH   9  10
ATOM     10  C   UNL     1      -3.109  -5.543  -5.558  1.00  0.00    -0.000 C 
BRANCH  10  11
ATOM     11  C   UNL     1      -2.570  -4.102  -5.594  1.00  0.00    -0.000 C 
BRANCH  11  12
ATOM     12  C   UNL     1      -3.687  -3.061  -5.765  1.00  0.00    -0.003 C 
ATOM     13  C   UNL     1      -3.152  -1.672  -6.115  1.00  0.00     0.004 C 
ENDBRANCH  11  12
ENDBRANCH  10  11
ENDBRANCH   9  10
ENDBRANCH   8   9
ENDBRANCH   1   8
TORSDOF 9
ENDMDL
MODEL 3
REMARK VINA RESULT:    -4.521      3.291      5.712
REMARK INTER + INTRA:          -7.334
REMARK INTER:                  -6.822
REMARK INTRA:                  -0.512
REMARK UNBOUND:                -0.434
REMARK SMILES CCCCCCCCCCC(=O)[O-]
REMARK SMILES IDX 7 1 8 2 9 3 10 4 11 5 12 6 13 7 6 8 5 9 4 10 3 11 2 12 1 13
REMARK H PARENT
REMARK Flexibility Score: inf
ROOT
ATOM      1  C   UNL     1      -9.335  -5.626  -5.836  1.00  0.00     0.000 C 
ENDROOT
BRANCH   1   2
ATOM      2  C   UNL     1      -7.862  -5.367  -5.471  1.00  0.00     0.000 C 
BRANCH   2   3
ATOM      3  C   UNL     1      -6.925  -5.485  -6.683  1.00  0.00     0.006 C 
BRANCH   3   4
ATOM      4  C   UNL     1      -5.445  -5.361  -6.298  1.00  0.00     0.053 C 
BRANCH   4   5
ATOM      5  C   UNL     1      -4.855  -6.713  -6.053  1.00  0.00     0.041 C 
ATOM      6  O   UNL     1      -3.648  -6.825  -5.708  1.00  0.00    -0.550 OA
ATOM      7  O   UNL     1      -5.621  -7.854  -6.252  1.00  0.00    -0.550 OA
ENDBRANCH   4   5
ENDBRANCH   3   4
ENDBRANCH   2   3
ENDBRANCH   1   2
BRANCH   1   8
ATOM      8  C   UNL     1     -10.286  -5.385  -4.653  1.00  0.00     0.000 C 
BRANCH   8   9
ATOM      9  C   UNL     1     -10.262  -3.926  -4.164  1.00  0.00    -0.000 C 
BRANCH   9  10
ATOM     10  C   UNL     1     -10.957  -3.748  -2.806  1.00  0.00    -0.000 C 
BRANCH  10  11
ATOM     11  C   UNL     1      -9.972  -3.371  -1.685  1.00  0.00    -0.000 C 
BRANCH  11  12
ATOM     12  C   UNL     1      -8.559  -3.083  -2.216  1.00  0.00    -0.003 C 
ATOM     13  C   UNL     1      -7.905  -1.883  -1.532  1.00  0.00     0.004 C 
ENDBRANCH  11  12
ENDBRANCH  10  11
ENDBRANCH   9  10
ENDBRANCH   8   9
ENDBRANCH   1   8
TORSDOF 9
ENDMDL
MODEL 4
REMARK VINA RESULT:    -4.521      1.725      2.644
REMARK INTER + INTRA:          -7.334
REMARK INTER:                  -6.680
REMARK INTRA:                  -0.653
REMARK UNBOUND:                -0.434
REMARK SMILES CCCCCCCCCCC(=O)[O-]
REMARK SMILES IDX 7 1 8 2 9 3 10 4 11 5 12 6 13 7 6 8 5 9 4 10 3 11 2 12 1 13
REMARK H PARENT
REMARK Flexibility Score: inf
ROOT
ATOM      1  C   UNL     1     -10.005  -3.858  -5.556  1.00  0.00     0.000 C 
ENDROOT
BRANCH   1   2
ATOM      2  C   UNL     1     -10.938  -3.284  -4.476  1.00  0.00     0.000 C 
BRANCH   2   3
ATOM      3  C   UNL     1     -11.002  -4.168  -3.221  1.00  0.00     0.006 C 
BRANCH   3   4
ATOM      4  C   UNL     1     -10.592  -3.416  -1.948  1.00  0.00     0.053 C 
BRANCH   4   5
ATOM      5  C   UNL     1      -9.103  -3.312  -1.860  1.00  0.00     0.041 C 
ATOM      6  O   UNL     1      -8.409  -4.331  -1.602  1.00  0.00    -0.550 OA
ATOM      7  O   UNL     1      -8.481  -2.079  -2.015  1.00  0.00    -0.550 OA
ENDBRANCH   4   5
ENDBRANCH   3   4
ENDBRANCH   2   3
ENDBRANCH   1   2
BRANCH   1   8
ATOM      8  C   UNL     1      -9.596  -5.312  -5.270  1.00  0.00     0.000 C 
BRANCH   8   9
ATOM      9  C   UNL     1      -8.078  -5.534  -5.401  1.00  0.00    -0.000 C 
BRANCH   9  10
ATOM     10  C   UNL     1      -7.538  -5.110  -6.775  1.00  0.00    -0.000 C 
BRANCH  10  11
ATOM     11  C   UNL     1      -6.011  -5.265  -6.881  1.00  0.00    -0.000 C 
BRANCH  11  12
ATOM     12  C   UNL     1      -5.457  -6.316  -5.907  1.00  0.00    -0.003 C 
ATOM     13  C   UNL     1      -3.931  -6.395  -5.928  1.00  0.00     0.004 C 
ENDBRANCH  11  12
ENDBRANCH  10  11
ENDBRANCH   9  10
ENDBRANCH   8   9
ENDBRANCH   1   8
TORSDOF 9
ENDMDL
MODEL 5
REMARK VINA RESULT:    -4.494      1.768      2.365
REMARK INTER + INTRA:          -7.292
REMARK INTER:                  -6.674
REMARK INTRA:                  -0.619
REMARK UNBOUND:                -0.434
REMARK SMILES CCCCCCCCCCC(=O)[O-]
REMARK SMILES IDX 7 1 8 2 9 3 10 4 11 5 12 6 13 7 6 8 5 9 4 10 3 11 2 12 1 13
REMARK H PARENT
REMARK Flexibility Score: inf
ROOT
ATOM      1  C   UNL     1      -8.437  -4.697  -5.122  1.00  0.00     0.000 C 
ENDROOT
BRANCH   1   2
ATOM      2  C   UNL     1      -9.598  -3.783  -4.691  1.00  0.00     0.000 C 
BRANCH   2   3
ATOM      3  C   UNL     1     -10.461  -4.409  -3.584  1.00  0.00     0.006 C 
BRANCH   3   4
ATOM      4  C   UNL     1     -10.549  -3.525  -2.334  1.00  0.00     0.053 C 
BRANCH   4   5
ATOM      5  C   UNL     1      -9.185  -3.269  -1.779  1.00  0.00     0.041 C 
ATOM      6  O   UNL     1      -8.753  -2.089  -1.675  1.00  0.00    -0.550 OA
ATOM      7  O   UNL     1      -8.368  -4.333  -1.420  1.00  0.00    -0.550 OA
ENDBRANCH   4   5
ENDBRANCH   3   4
ENDBRANCH   2   3
ENDBRANCH   1   2
BRANCH   1   8
ATOM      8  C   UNL     1      -8.712  -5.412  -6.454  1.00  0.00     0.000 C 
BRANCH   8   9
ATOM      9  C   UNL     1      -7.893  -4.827  -7.618  1.00  0.00    -0.000 C 
BRANCH   9  10
ATOM     10  C   UNL     1      -6.382  -5.043  -7.442  1.00  0.00    -0.000 C 
BRANCH  10  11
ATOM     11  C   UNL     1      -5.995  -6.532  -7.453  1.00  0.00    -0.000 C 
BRANCH  11  12
ATOM     12  C   UNL     1      -5.379  -6.989  -6.122  1.00  0.00    -0.003 C 
ATOM     13  C   UNL     1      -4.008  -6.366  -5.860  1.00  0.00     0.004 C 
ENDBRANCH  11  12
ENDBRANCH  10  11
ENDBRANCH   9  10
ENDBRANCH   8   9
ENDBRANCH   1   8
TORSDOF 9
ENDMDL
MODEL 6
REMARK VINA RESULT:    -4.260      3.137      5.587
REMARK INTER + INTRA:          -6.935
REMARK INTER:                  -6.329
REMARK INTRA:                  -0.606
REMARK UNBOUND:                -0.434
REMARK SMILES CCCCCCCCCCC(=O)[O-]
REMARK SMILES IDX 7 1 8 2 9 3 10 4 11 5 12 6 13 7 6 8 5 9 4 10 3 11 2 12 1 13
REMARK H PARENT
REMARK Flexibility Score: inf
ROOT
ATOM      1  C   UNL     1      -9.947  -5.949  -5.144  1.00  0.00     0.000 C 
ENDROOT
BRANCH   1   2
ATOM      2  C   UNL     1     -10.055  -5.336  -6.551  1.00  0.00     0.000 C 
BRANCH   2   3
ATOM      3  C   UNL     1      -8.696  -4.873  -7.099  1.00  0.00     0.006 C 
BRANCH   3   4
ATOM      4  C   UNL     1      -7.515  -5.429  -6.295  1.00  0.00     0.053 C 
BRANCH   4   5
ATOM      5  C   UNL     1      -6.220  -5.053  -6.941  1.00  0.00     0.041 C 
ATOM      6  O   UNL     1      -5.141  -5.137  -6.296  1.00  0.00    -0.550 OA
ATOM      7  O   UNL     1      -6.207  -4.564  -8.241  1.00  0.00    -0.550 OA
ENDBRANCH   4   5
ENDBRANCH   3   4
ENDBRANCH   2   3
ENDBRANCH   1   2
BRANCH   1   8
ATOM      8  C   UNL     1     -10.858  -5.248  -4.124  1.00  0.00     0.000 C 
BRANCH   8   9
ATOM      9  C   UNL     1     -10.435  -3.792  -3.858  1.00  0.00    -0.000 C 
BRANCH   9  10
ATOM     10  C   UNL     1     -10.994  -3.250  -2.534  1.00  0.00    -0.000 C 
BRANCH  10  11
ATOM     11  C   UNL     1      -9.988  -3.368  -1.376  1.00  0.00    -0.000 C 
BRANCH  11  12
ATOM     12  C   UNL     1      -8.530  -3.249  -1.849  1.00  0.00    -0.003 C 
ATOM     13  C   UNL     1      -7.914  -1.888  -1.526  1.00  0.00     0.004 C 
ENDBRANCH  11  12
ENDBRANCH  10  11
ENDBRANCH   9  10
ENDBRANCH   8   9
ENDBRANCH   1   8
TORSDOF 9
ENDMDL
MODEL 7
REMARK VINA RESULT:    -4.060      2.728      5.696
REMARK INTER + INTRA:          -6.631
REMARK INTER:                  -6.095
REMARK INTRA:                  -0.536
REMARK UNBOUND:                -0.434
REMARK SMILES CCCCCCCCCCC(=O)[O-]
REMARK SMILES IDX 7 1 8 2 9 3 10 4 11 5 12 6 13 7 6 8 5 9 4 10 3 11 2 12 1 13
REMARK H PARENT
REMARK Flexibility Score: inf
ROOT
ATOM      1  C   UNL     1      -7.078  -6.422  -5.074  1.00  0.00     0.000 C 
ENDROOT
BRANCH   1   2
ATOM      2  C   UNL     1      -5.954  -7.339  -5.590  1.00  0.00     0.000 C 
BRANCH   2   3
ATOM      3  C   UNL     1      -4.987  -6.611  -6.535  1.00  0.00     0.006 C 
BRANCH   3   4
ATOM      4  C   UNL     1      -3.737  -6.091  -5.815  1.00  0.00     0.053 C 
BRANCH   4   5
ATOM      5  C   UNL     1      -3.678  -4.598  -5.883  1.00  0.00     0.041 C 
ATOM      6  O   UNL     1      -2.743  -3.973  -5.315  1.00  0.00    -0.550 OA
ATOM      7  O   UNL     1      -4.682  -3.890  -6.533  1.00  0.00    -0.550 OA
ENDBRANCH   4   5
ENDBRANCH   3   4
ENDBRANCH   2   3
ENDBRANCH   1   2
BRANCH   1   8
ATOM      8  C   UNL     1      -7.625  -5.489  -6.166  1.00  0.00     0.000 C 
BRANCH   8   9
ATOM      9  C   UNL     1      -8.975  -4.858  -5.781  1.00  0.00    -0.000 C 
BRANCH   9  10
ATOM     10  C   UNL     1      -8.934  -4.174  -4.406  1.00  0.00    -0.000 C 
BRANCH  10  11
ATOM     11  C   UNL     1     -10.336  -3.980  -3.802  1.00  0.00    -0.000 C 
BRANCH  11  12
ATOM     12  C   UNL     1     -10.287  -3.448  -2.361  1.00  0.00    -0.003 C 
ATOM     13  C   UNL     1      -8.907  -3.599  -1.722  1.00  0.00     0.004 C 
ENDBRANCH  11  12
ENDBRANCH  10  11
ENDBRANCH   9  10
ENDBRANCH   8   9
ENDBRANCH   1   8
TORSDOF 9
ENDMDL
MODEL 8
REMARK VINA RESULT:    -3.952      2.821      5.480
REMARK INTER + INTRA:          -6.465
REMARK INTER:                  -5.457
REMARK INTRA:                  -1.008
REMARK UNBOUND:                -0.434
REMARK SMILES CCCCCCCCCCC(=O)[O-]
REMARK SMILES IDX 7 1 8 2 9 3 10 4 11 5 12 6 13 7 6 8 5 9 4 10 3 11 2 12 1 13
REMARK H PARENT
REMARK Flexibility Score: inf
ROOT
ATOM      1  C   UNL     1      -7.595  -4.464  -8.665  1.00  0.00     0.000 C 
ENDROOT
BRANCH   1   2
ATOM      2  C   UNL     1      -6.800  -5.540  -7.904  1.00  0.00     0.000 C 
BRANCH   2   3
ATOM      3  C   UNL     1      -5.864  -4.942  -6.842  1.00  0.00     0.006 C 
BRANCH   3   4
ATOM      4  C   UNL     1      -5.016  -6.007  -6.136  1.00  0.00     0.053 C 
BRANCH   4   5
ATOM      5  C   UNL     1      -5.891  -7.084  -5.577  1.00  0.00     0.041 C 
ATOM      6  O   UNL     1      -5.803  -8.263  -6.013  1.00  0.00    -0.550 OA
ATOM      7  O   UNL     1      -6.838  -6.779  -4.607  1.00  0.00    -0.550 OA
ENDBRANCH   4   5
ENDBRANCH   3   4
ENDBRANCH   2   3
ENDBRANCH   1   2
BRANCH   1   8
ATOM      8  C   UNL     1      -8.915  -5.003  -9.239  1.00  0.00     0.000 C 
BRANCH   8   9
ATOM      9  C   UNL     1      -9.442  -6.223  -8.463  1.00  0.00    -0.000 C 
BRANCH   9  10
ATOM     10  C   UNL     1     -10.662  -5.885  -7.593  1.00  0.00    -0.000 C 
BRANCH  10  11
ATOM     11  C   UNL     1     -10.302  -5.741  -6.104  1.00  0.00    -0.000 C 
BRANCH  11  12
ATOM     12  C   UNL     1     -10.095  -4.276  -5.688  1.00  0.00    -0.003 C 
ATOM     13  C   UNL     1      -8.993  -4.109  -4.643  1.00  0.00     0.004 C 
ENDBRANCH  11  12
ENDBRANCH  10  11
ENDBRANCH   9  10
ENDBRANCH   8   9
ENDBRANCH   1   8
TORSDOF 9
ENDMDL
MODEL 9
REMARK VINA RESULT:    -3.871      2.884      5.743
REMARK INTER + INTRA:          -6.342
REMARK INTER:                  -5.794
REMARK INTRA:                  -0.548
REMARK UNBOUND:                -0.434
REMARK SMILES CCCCCCCCCCC(=O)[O-]
REMARK SMILES IDX 7 1 8 2 9 3 10 4 11 5 12 6 13 7 6 8 5 9 4 10 3 11 2 12 1 13
REMARK H PARENT
REMARK Flexibility Score: inf
ROOT
ATOM      1  C   UNL     1      -5.532  -6.844  -6.345  1.00  0.00     0.000 C 
ENDROOT
BRANCH   1   2
ATOM      2  C   UNL     1      -4.194  -6.119  -6.114  1.00  0.00     0.000 C 
BRANCH   2   3
ATOM      3  C   UNL     1      -4.359  -4.595  -6.012  1.00  0.00     0.006 C 
BRANCH   3   4
ATOM      4  C   UNL     1      -3.059  -3.886  -5.614  1.00  0.00     0.053 C 
BRANCH   4   5
ATOM      5  C   UNL     1      -3.238  -2.402  -5.659  1.00  0.00     0.041 C 
ATOM      6  O   UNL     1      -3.246  -1.732  -4.592  1.00  0.00    -0.550 OA
ATOM      7  O   UNL     1      -3.446  -1.762  -6.874  1.00  0.00    -0.550 OA
ENDBRANCH   4   5
ENDBRANCH   3   4
ENDBRANCH   2   3
ENDBRANCH   1   2
BRANCH   1   8
ATOM      8  C   UNL     1      -6.735  -6.042  -5.824  1.00  0.00     0.000 C 
BRANCH   8   9
ATOM      9  C   UNL     1      -7.673  -5.585  -6.955  1.00  0.00    -0.000 C 
BRANCH   9  10
ATOM     10  C   UNL     1      -8.848  -4.740  -6.439  1.00  0.00    -0.000 C 
BRANCH  10  11
ATOM     11  C   UNL     1      -8.787  -4.511  -4.919  1.00  0.00    -0.000 C 
BRANCH  11  12
ATOM     12  C   UNL     1     -10.124  -4.814  -4.224  1.00  0.00    -0.003 C 
ATOM     13  C   UNL     1     -10.824  -6.045  -4.800  1.00  0.00     0.004 C 
ENDBRANCH  11  12
ENDBRANCH  10  11
ENDBRANCH   9  10
ENDBRANCH   8   9
ENDBRANCH   1   8
TORSDOF 9
ENDMDL
