MODEL 1
REMARK VINA RESULT:    -4.199      0.000      0.000
REMARK INTER + INTRA:          -6.357
REMARK INTER:                  -6.040
REMARK INTRA:                  -0.317
REMARK UNBOUND:                -0.317
REMARK SMILES CCCCCCCCCO
REMARK SMILES IDX 6 1 5 2 4 3 3 4 2 5 1 6 7 7 8 8 9 9 10 10
REMARK H PARENT 10 11
REMARK Flexibility Score: inf
ROOT
ATOM      1  C   UNL     1      21.402  20.114  22.609  1.00  0.00     0.000 C 
ENDROOT
BRANCH   1   2
ATOM      2  C   UNL     1      20.571  19.179  21.715  1.00  0.00     0.000 C 
BRANCH   2   3
ATOM      3  C   UNL     1      19.907  18.041  22.508  1.00  0.00    -0.000 C 
BRANCH   3   4
ATOM      4  C   UNL     1      19.652  18.416  23.976  1.00  0.00    -0.000 C 
BRANCH   4   5
ATOM      5  C   UNL     1      19.640  17.195  24.907  1.00  0.00    -0.003 C 
ATOM      6  C   UNL     1      20.402  16.026  24.289  1.00  0.00     0.004 C 
ENDBRANCH   4   5
ENDBRANCH   3   4
ENDBRANCH   2   3
ENDBRANCH   1   2
BRANCH   1   7
ATOM      7  C   UNL     1      22.040  21.274  21.826  1.00  0.00     0.002 C 
BRANCH   7   8
ATOM      8  C   UNL     1      21.943  22.621  22.564  1.00  0.00     0.028 C 
BRANCH   8   9
ATOM      9  C   UNL     1      23.311  23.258  22.854  1.00  0.00     0.156 C 
BRANCH   9  10
ATOM     10  O   UNL     1      24.341  22.570  22.197  1.00  0.00    -0.396 OA
ATOM     11  H   UNL     1      25.022  22.352  22.884  1.00  0.00     0.210 HD
ENDBRANCH   9  10
ENDBRANCH   8   9
ENDBRANCH   7   8
ENDBRANCH   1   7
TORSDOF 8
ENDMDL
MODEL 2
REMARK VINA RESULT:    -3.927     10.640     13.128
REMARK INTER + INTRA:          -5.966
REMARK INTER:                  -5.256
REMARK INTRA:                  -0.710
REMARK UNBOUND:                -0.317
REMARK SMILES CCCCCCCCCO
REMARK SMILES IDX 6 1 5 2 4 3 3 4 2 5 1 6 7 7 8 8 9 9 10 10
REMARK H PARENT 10 11
REMARK Flexibility Score: inf
ROOT
ATOM      1  C   UNL     1      31.682  25.847  23.225  1.00  0.00     0.000 C 
ENDROOT
BRANCH   1   2
ATOM      2  C   UNL     1      32.960  26.529  22.709  1.00  0.00     0.000 C 
BRANCH   2   3
ATOM      3  C   UNL     1      32.986  28.037  23.010  1.00  0.00    -0.000 C 
BRANCH   3   4
ATOM      4  C   UNL     1      32.715  28.892  21.761  1.00  0.00    -0.000 C 
BRANCH   4   5
ATOM      5  C   UNL     1      31.246  29.322  21.644  1.00  0.00    -0.003 C 
ATOM      6  C   UNL     1      30.595  29.434  23.020  1.00  0.00     0.004 C 
ENDBRANCH   4   5
ENDBRANCH   3   4
ENDBRANCH   2   3
ENDBRANCH   1   2
BRANCH   1   7
ATOM      7  C   UNL     1      30.829  25.249  22.092  1.00  0.00     0.002 C 
BRANCH   7   8
ATOM      8  C   UNL     1      29.486  25.975  21.907  1.00  0.00     0.028 C 
BRANCH   8   9
ATOM      9  C   UNL     1      29.181  26.335  20.445  1.00  0.00     0.156 C 
BRANCH   9  10
ATOM     10  O   UNL     1      27.799  26.376  20.210  1.00  0.00    -0.396 OA
ATOM     11  H   UNL     1      27.664  26.934  19.401  1.00  0.00     0.210 HD
ENDBRANCH   9  10
ENDBRANCH   8   9
ENDBRANCH   7   8
ENDBRANCH   1   7
TORSDOF 8
ENDMDL
MODEL 3
REMARK VINA RESULT:    -3.894      8.537     10.255
REMARK INTER + INTRA:          -5.918
REMARK INTER:                  -5.675
REMARK INTRA:                  -0.243
REMARK UNBOUND:                -0.317
REMARK SMILES CCCCCCCCCO
REMARK SMILES IDX 6 1 5 2 4 3 3 4 2 5 1 6 7 7 8 8 9 9 10 10
REMARK H PARENT 10 11
REMARK Flexibility Score: inf
ROOT
ATOM      1  C   UNL     1      25.932  26.106  22.911  1.00  0.00     0.000 C 
ENDROOT
BRANCH   1   2
ATOM      2  C   UNL     1      27.283  25.429  22.629  1.00  0.00     0.000 C 
BRANCH   2   3
ATOM      3  C   UNL     1      28.135  26.211  21.615  1.00  0.00    -0.000 C 
BRANCH   3   4
ATOM      4  C   UNL     1      29.546  26.516  22.141  1.00  0.00    -0.000 C 
BRANCH   4   5
ATOM      5  C   UNL     1      30.492  25.310  22.037  1.00  0.00    -0.003 C 
ATOM      6  C   UNL     1      31.779  25.552  22.820  1.00  0.00     0.004 C 
ENDBRANCH   4   5
ENDBRANCH   3   4
ENDBRANCH   2   3
ENDBRANCH   1   2
BRANCH   1   7
ATOM      7  C   UNL     1      26.084  27.560  23.391  1.00  0.00     0.002 C 
BRANCH   7   8
ATOM      8  C   UNL     1      24.921  28.020  24.287  1.00  0.00     0.028 C 
BRANCH   8   9
ATOM      9  C   UNL     1      24.516  29.485  24.058  1.00  0.00     0.156 C 
BRANCH   9  10
ATOM     10  O   UNL     1      24.594  29.826  22.701  1.00  0.00    -0.396 OA
ATOM     11  H   UNL     1      23.992  29.204  22.216  1.00  0.00     0.210 HD
ENDBRANCH   9  10
ENDBRANCH   8   9
ENDBRANCH   7   8
ENDBRANCH   1   7
TORSDOF 8
ENDMDL
MODEL 4
REMARK VINA RESULT:    -3.862      2.293      5.474
REMARK INTER + INTRA:          -5.872
REMARK INTER:                  -5.578
REMARK INTRA:                  -0.294
REMARK UNBOUND:                -0.317
REMARK SMILES CCCCCCCCCO
REMARK SMILES IDX 6 1 5 2 4 3 3 4 2 5 1 6 7 7 8 8 9 9 10 10
REMARK H PARENT 10 11
REMARK Flexibility Score: inf
ROOT
ATOM      1  C   UNL     1      19.697  18.693  22.017  1.00  0.00     0.000 C 
ENDROOT
BRANCH   1   2
ATOM      2  C   UNL     1      21.011  19.394  21.635  1.00  0.00     0.000 C 
BRANCH   2   3
ATOM      3  C   UNL     1      21.347  20.567  22.571  1.00  0.00    -0.000 C 
BRANCH   3   4
ATOM      4  C   UNL     1      22.468  21.462  22.017  1.00  0.00    -0.000 C 
BRANCH   4   5
ATOM      5  C   UNL     1      22.353  22.919  22.489  1.00  0.00    -0.003 C 
ATOM      6  C   UNL     1      21.327  23.052  23.611  1.00  0.00     0.004 C 
ENDBRANCH   4   5
ENDBRANCH   3   4
ENDBRANCH   2   3
ENDBRANCH   1   2
BRANCH   1   7
ATOM      7  C   UNL     1      19.672  18.237  23.486  1.00  0.00     0.002 C 
BRANCH   7   8
ATOM      8  C   UNL     1      19.472  16.719  23.639  1.00  0.00     0.028 C 
BRANCH   8   9
ATOM      9  C   UNL     1      20.734  15.980  24.113  1.00  0.00     0.156 C 
BRANCH   9  10
ATOM     10  O   UNL     1      21.833  16.279  23.296  1.00  0.00    -0.396 OA
ATOM     11  H   UNL     1      22.055  15.448  22.802  1.00  0.00     0.210 HD
ENDBRANCH   9  10
ENDBRANCH   8   9
ENDBRANCH   7   8
ENDBRANCH   1   7
TORSDOF 8
ENDMDL
MODEL 5
REMARK VINA RESULT:    -3.665      8.708     11.994
REMARK INTER + INTRA:          -5.589
REMARK INTER:                  -5.198
REMARK INTRA:                  -0.391
REMARK UNBOUND:                -0.317
REMARK SMILES CCCCCCCCCO
REMARK SMILES IDX 6 1 5 2 4 3 3 4 2 5 1 6 7 7 8 8 9 9 10 10
REMARK H PARENT 10 11
REMARK Flexibility Score: inf
ROOT
ATOM      1  C   UNL     1      29.591  26.447  21.617  1.00  0.00     0.000 C 
ENDROOT
BRANCH   1   2
ATOM      2  C   UNL     1      30.521  25.248  21.865  1.00  0.00     0.000 C 
BRANCH   2   3
ATOM      3  C   UNL     1      31.675  25.584  22.825  1.00  0.00    -0.000 C 
BRANCH   3   4
ATOM      4  C   UNL     1      31.808  27.094  23.080  1.00  0.00    -0.000 C 
BRANCH   4   5
ATOM      5  C   UNL     1      33.125  27.673  22.542  1.00  0.00    -0.003 C 
ATOM      6  C   UNL     1      32.872  28.919  21.697  1.00  0.00     0.004 C 
ENDBRANCH   4   5
ENDBRANCH   3   4
ENDBRANCH   2   3
ENDBRANCH   1   2
BRANCH   1   7
ATOM      7  C   UNL     1      28.114  26.038  21.486  1.00  0.00     0.002 C 
BRANCH   7   8
ATOM      8  C   UNL     1      27.410  25.892  22.847  1.00  0.00     0.028 C 
BRANCH   8   9
ATOM      9  C   UNL     1      25.992  26.482  22.868  1.00  0.00     0.156 C 
BRANCH   9  10
ATOM     10  O   UNL     1      26.026  27.884  22.831  1.00  0.00    -0.396 OA
ATOM     11  H   UNL     1      26.960  28.140  22.616  1.00  0.00     0.210 HD
ENDBRANCH   9  10
ENDBRANCH   8   9
ENDBRANCH   7   8
ENDBRANCH   1   7
TORSDOF 8
ENDMDL
MODEL 6
REMARK VINA RESULT:    -3.661      2.569      5.419
REMARK INTER + INTRA:          -5.583
REMARK INTER:                  -5.338
REMARK INTRA:                  -0.244
REMARK UNBOUND:                -0.317
REMARK SMILES CCCCCCCCCO
REMARK SMILES IDX 6 1 5 2 4 3 3 4 2 5 1 6 7 7 8 8 9 9 10 10
REMARK H PARENT 10 11
REMARK Flexibility Score: inf
ROOT
ATOM      1  C   UNL     1      21.503  19.918  22.619  1.00  0.00     0.000 C 
ENDROOT
BRANCH   1   2
ATOM      2  C   UNL     1      22.326  21.105  22.092  1.00  0.00     0.000 C 
BRANCH   2   3
ATOM      3  C   UNL     1      21.544  22.429  22.132  1.00  0.00    -0.000 C 
BRANCH   3   4
ATOM      4  C   UNL     1      21.992  23.343  23.284  1.00  0.00    -0.000 C 
BRANCH   4   5
ATOM      5  C   UNL     1      21.046  23.283  24.492  1.00  0.00    -0.003 C 
ATOM      6  C   UNL     1      20.189  24.543  24.581  1.00  0.00     0.004 C 
ENDBRANCH   4   5
ENDBRANCH   3   4
ENDBRANCH   2   3
ENDBRANCH   1   2
BRANCH   1   7
ATOM      7  C   UNL     1      20.309  19.573  21.713  1.00  0.00     0.002 C 
BRANCH   7   8
ATOM      8  C   UNL     1      19.927  18.084  21.766  1.00  0.00     0.028 C 
BRANCH   8   9
ATOM      9  C   UNL     1      20.039  17.473  23.171  1.00  0.00     0.156 C 
BRANCH   9  10
ATOM     10  O   UNL     1      21.136  16.604  23.260  1.00  0.00    -0.396 OA
ATOM     11  H   UNL     1      21.864  17.008  22.721  1.00  0.00     0.210 HD
ENDBRANCH   9  10
ENDBRANCH   8   9
ENDBRANCH   7   8
ENDBRANCH   1   7
TORSDOF 8
ENDMDL
MODEL 7
REMARK VINA RESULT:    -3.599      8.747     11.059
REMARK INTER + INTRA:          -5.494
REMARK INTER:                  -5.282
REMARK INTRA:                  -0.213
REMARK UNBOUND:                -0.317
REMARK SMILES CCCCCCCCCO
REMARK SMILES IDX 6 1 5 2 4 3 3 4 2 5 1 6 7 7 8 8 9 9 10 10
REMARK H PARENT 10 11
REMARK Flexibility Score: inf
ROOT
ATOM      1  C   UNL     1      28.088  26.018  21.435  1.00  0.00     0.000 C 
ENDROOT
BRANCH   1   2
ATOM      2  C   UNL     1      29.428  26.577  20.931  1.00  0.00     0.000 C 
BRANCH   2   3
ATOM      3  C   UNL     1      30.424  26.841  22.073  1.00  0.00    -0.000 C 
BRANCH   3   4
ATOM      4  C   UNL     1      31.179  25.573  22.502  1.00  0.00    -0.000 C 
BRANCH   4   5
ATOM      5  C   UNL     1      32.540  25.881  23.142  1.00  0.00    -0.003 C 
ATOM      6  C   UNL     1      32.709  25.132  24.461  1.00  0.00     0.004 C 
ENDBRANCH   4   5
ENDBRANCH   3   4
ENDBRANCH   2   3
ENDBRANCH   1   2
BRANCH   1   7
ATOM      7  C   UNL     1      27.492  26.848  22.585  1.00  0.00     0.002 C 
BRANCH   7   8
ATOM      8  C   UNL     1      26.054  26.433  22.941  1.00  0.00     0.028 C 
BRANCH   8   9
ATOM      9  C   UNL     1      25.277  27.516  23.707  1.00  0.00     0.156 C 
BRANCH   9  10
ATOM     10  O   UNL     1      25.180  28.696  22.956  1.00  0.00    -0.396 OA
ATOM     11  H   UNL     1      25.105  29.442  23.606  1.00  0.00     0.210 HD
ENDBRANCH   9  10
ENDBRANCH   8   9
ENDBRANCH   7   8
ENDBRANCH   1   7
TORSDOF 8
ENDMDL
MODEL 8
REMARK VINA RESULT:    -3.595      7.925     10.305
REMARK INTER + INTRA:          -5.487
REMARK INTER:                  -4.801
REMARK INTRA:                  -0.687
REMARK UNBOUND:                -0.317
REMARK SMILES CCCCCCCCCO
REMARK SMILES IDX 6 1 5 2 4 3 3 4 2 5 1 6 7 7 8 8 9 9 10 10
REMARK H PARENT 10 11
REMARK Flexibility Score: inf
ROOT
ATOM      1  C   UNL     1      29.752  27.864  22.685  1.00  0.00     0.000 C 
ENDROOT
BRANCH   1   2
ATOM      2  C   UNL     1      29.000  28.243  23.971  1.00  0.00     0.000 C 
BRANCH   2   3
ATOM      3  C   UNL     1      27.983  27.169  24.397  1.00  0.00    -0.000 C 
BRANCH   3   4
ATOM      4  C   UNL     1      26.548  27.514  23.970  1.00  0.00    -0.000 C 
BRANCH   4   5
ATOM      5  C   UNL     1      26.003  26.560  22.897  1.00  0.00    -0.003 C 
ATOM      6  C   UNL     1      26.260  25.104  23.275  1.00  0.00     0.004 C 
ENDBRANCH   4   5
ENDBRANCH   3   4
ENDBRANCH   2   3
ENDBRANCH   1   2
BRANCH   1   7
ATOM      7  C   UNL     1      30.201  26.392  22.669  1.00  0.00     0.002 C 
BRANCH   7   8
ATOM      8  C   UNL     1      29.513  25.568  21.568  1.00  0.00     0.028 C 
BRANCH   8   9
ATOM      9  C   UNL     1      29.152  26.392  20.322  1.00  0.00     0.156 C 
BRANCH   9  10
ATOM     10  O   UNL     1      27.777  26.332  20.055  1.00  0.00    -0.396 OA
ATOM     11  H   UNL     1      27.546  25.372  19.964  1.00  0.00     0.210 HD
ENDBRANCH   9  10
ENDBRANCH   8   9
ENDBRANCH   7   8
ENDBRANCH   1   7
TORSDOF 8
ENDMDL
MODEL 9
REMARK VINA RESULT:    -3.456     10.821     13.021
REMARK INTER + INTRA:          -5.288
REMARK INTER:                  -4.737
REMARK INTRA:                  -0.551
REMARK UNBOUND:                -0.317
REMARK SMILES CCCCCCCCCO
REMARK SMILES IDX 6 1 5 2 4 3 3 4 2 5 1 6 7 7 8 8 9 9 10 10
REMARK H PARENT 10 11
REMARK Flexibility Score: inf
ROOT
ATOM      1  C   UNL     1      33.117  27.855  22.426  1.00  0.00     0.000 C 
ENDROOT
BRANCH   1   2
ATOM      2  C   UNL     1      32.896  26.444  22.995  1.00  0.00     0.000 C 
BRANCH   2   3
ATOM      3  C   UNL     1      31.408  26.128  23.225  1.00  0.00    -0.000 C 
BRANCH   3   4
ATOM      4  C   UNL     1      30.822  25.221  22.131  1.00  0.00    -0.000 C 
BRANCH   4   5
ATOM      5  C   UNL     1      29.392  25.616  21.735  1.00  0.00    -0.003 C 
ATOM      6  C   UNL     1      29.397  26.790  20.760  1.00  0.00     0.004 C 
ENDBRANCH   4   5
ENDBRANCH   3   4
ENDBRANCH   2   3
ENDBRANCH   1   2
BRANCH   1   7
ATOM      7  C   UNL     1      32.171  28.900  23.043  1.00  0.00     0.002 C 
BRANCH   7   8
ATOM      8  C   UNL     1      31.435  29.741  21.985  1.00  0.00     0.028 C 
BRANCH   8   9
ATOM      9  C   UNL     1      30.575  30.863  22.586  1.00  0.00     0.156 C 
BRANCH   9  10
ATOM     10  O   UNL     1      30.207  31.798  21.608  1.00  0.00    -0.396 OA
ATOM     11  H   UNL     1      30.928  31.796  20.927  1.00  0.00     0.210 HD
ENDBRANCH   9  10
ENDBRANCH   8   9
ENDBRANCH   7   8
ENDBRANCH   1   7
TORSDOF 8
ENDMDL
