MODEL 1
REMARK VINA RESULT:    -6.725      0.000      0.000
REMARK INTER + INTRA:         -12.526
REMARK INTER:                 -10.263
REMARK INTRA:                  -2.263
REMARK UNBOUND:                -2.263
REMARK SMILES CC(=O)CCC=C(C)CCC=C(C)CCC=C(C)C
REMARK SMILES IDX 10 1 11 2 12 3 13 4 14 5 15 6 16 7 18 8 17 9 19 10 9 11 7 12
REMARK SMILES IDX 6 13 8 14 5 15 4 16 2 17 3 18 1 19
REMARK H PARENT
REMARK Flexibility Score: inf
ROOT
ATOM      1  C   UNL     1     -14.588 -36.322  38.427  1.00  0.00     0.032 C 
ENDROOT
BRANCH   1   2
ATOM      2  C   UNL     1     -13.822 -37.495  38.992  1.00  0.00    -0.028 C 
ATOM      3  C   UNL     1     -13.632 -37.726  40.311  1.00  0.00    -0.077 C 
ATOM      4  C   UNL     1     -14.246 -36.844  41.373  1.00  0.00     0.039 C 
BRANCH   3   5
ATOM      5  C   UNL     1     -12.796 -38.913  40.733  1.00  0.00     0.034 C 
BRANCH   5   6
ATOM      6  C   UNL     1     -11.557 -39.053  39.842  1.00  0.00     0.032 C 
BRANCH   6   7
ATOM      7  C   UNL     1     -10.307 -38.682  40.600  1.00  0.00    -0.028 C 
ATOM      8  C   UNL     1      -9.715 -36.820  39.034  1.00  0.00     0.039 C 
ATOM      9  C   UNL     1      -9.456 -37.698  40.236  1.00  0.00    -0.080 C 
ATOM     10  C   UNL     1      -8.223 -37.468  41.071  1.00  0.00     0.039 C 
ENDBRANCH   6   7
ENDBRANCH   5   6
ENDBRANCH   3   5
ENDBRANCH   1   2
BRANCH   1  11
ATOM     11  C   UNL     1     -14.166 -36.003  36.985  1.00  0.00     0.034 C 
BRANCH  11  12
ATOM     12  C   UNL     1     -12.750 -35.457  36.914  1.00  0.00    -0.077 C 
ATOM     13  C   UNL     1     -11.758 -36.085  36.244  1.00  0.00    -0.028 C 
ATOM     14  C   UNL     1     -12.427 -34.175  37.637  1.00  0.00     0.039 C 
BRANCH  13  15
ATOM     15  C   UNL     1     -11.952 -37.356  35.452  1.00  0.00     0.035 C 
BRANCH  15  16
ATOM     16  C   UNL     1     -11.500 -38.582  36.253  1.00  0.00     0.079 C 
BRANCH  16  17
ATOM     17  C   UNL     1     -12.358 -39.777  35.928  1.00  0.00     0.130 C 
ATOM     18  O   UNL     1     -12.309 -40.266  34.808  1.00  0.00    -0.300 OA
ATOM     19  C   UNL     1     -13.283 -40.375  36.946  1.00  0.00     0.087 C 
ENDBRANCH  16  17
ENDBRANCH  15  16
ENDBRANCH  13  15
ENDBRANCH  11  12
ENDBRANCH   1  11
TORSDOF 9
ENDMDL
MODEL 2
REMARK VINA RESULT:    -6.695      2.400      4.371
REMARK INTER + INTRA:         -12.480
REMARK INTER:                 -10.658
REMARK INTRA:                  -1.822
REMARK UNBOUND:                -2.263
REMARK SMILES CC(=O)CCC=C(C)CCC=C(C)CCC=C(C)C
REMARK SMILES IDX 10 1 11 2 12 3 13 4 14 5 15 6 16 7 18 8 17 9 19 10 9 11 7 12
REMARK SMILES IDX 6 13 8 14 5 15 4 16 2 17 3 18 1 19
REMARK H PARENT
REMARK Flexibility Score: inf
ROOT
ATOM      1  C   UNL     1     -10.360 -37.236  39.113  1.00  0.00     0.032 C 
ENDROOT
BRANCH   1   2
ATOM      2  C   UNL     1     -11.624 -37.639  39.835  1.00  0.00    -0.028 C 
ATOM      3  C   UNL     1     -11.663 -38.404  40.950  1.00  0.00    -0.077 C 
ATOM      4  C   UNL     1     -10.403 -38.882  41.635  1.00  0.00     0.039 C 
BRANCH   3   5
ATOM      5  C   UNL     1     -13.006 -38.775  41.537  1.00  0.00     0.034 C 
BRANCH   5   6
ATOM      6  C   UNL     1     -13.157 -40.297  41.634  1.00  0.00     0.032 C 
BRANCH   6   7
ATOM      7  C   UNL     1     -13.359 -40.903  40.268  1.00  0.00    -0.028 C 
ATOM      8  C   UNL     1     -11.336 -42.370  40.443  1.00  0.00     0.039 C 
ATOM      9  C   UNL     1     -12.536 -41.818  39.709  1.00  0.00    -0.080 C 
ATOM     10  C   UNL     1     -12.843 -42.305  38.316  1.00  0.00     0.039 C 
ENDBRANCH   6   7
ENDBRANCH   5   6
ENDBRANCH   3   5
ENDBRANCH   1   2
BRANCH   1  11
ATOM     11  C   UNL     1     -10.584 -36.020  38.202  1.00  0.00     0.034 C 
BRANCH  11  12
ATOM     12  C   UNL     1     -10.882 -36.429  36.769  1.00  0.00    -0.077 C 
ATOM     13  C   UNL     1     -12.014 -36.067  36.125  1.00  0.00    -0.028 C 
ATOM     14  C   UNL     1      -9.887 -37.295  36.038  1.00  0.00     0.039 C 
BRANCH  13  15
ATOM     15  C   UNL     1     -13.075 -35.177  36.729  1.00  0.00     0.035 C 
BRANCH  15  16
ATOM     16  C   UNL     1     -14.194 -36.005  37.369  1.00  0.00     0.079 C 
BRANCH  16  17
ATOM     17  C   UNL     1     -14.577 -35.437  38.711  1.00  0.00     0.130 C 
ATOM     18  O   UNL     1     -14.462 -34.236  38.910  1.00  0.00    -0.300 OA
ATOM     19  C   UNL     1     -15.087 -36.314  39.816  1.00  0.00     0.087 C 
ENDBRANCH  16  17
ENDBRANCH  15  16
ENDBRANCH  13  15
ENDBRANCH  11  12
ENDBRANCH   1  11
TORSDOF 9
ENDMDL
MODEL 3
REMARK VINA RESULT:    -6.624      2.190      5.078
REMARK INTER + INTRA:         -12.372
REMARK INTER:                 -10.265
REMARK INTRA:                  -2.108
REMARK UNBOUND:                -2.263
REMARK SMILES CC(=O)CCC=C(C)CCC=C(C)CCC=C(C)C
REMARK SMILES IDX 10 1 11 2 12 3 13 4 14 5 15 6 16 7 18 8 17 9 19 10 9 11 7 12
REMARK SMILES IDX 6 13 8 14 5 15 4 16 2 17 3 18 1 19
REMARK H PARENT
REMARK Flexibility Score: inf
ROOT
ATOM      1  C   UNL     1     -13.120 -40.497  41.826  1.00  0.00     0.032 C 
ENDROOT
BRANCH   1   2
ATOM      2  C   UNL     1     -13.434 -40.850  40.392  1.00  0.00    -0.028 C 
ATOM      3  C   UNL     1     -12.683 -41.667  39.619  1.00  0.00    -0.077 C 
ATOM      4  C   UNL     1     -11.462 -42.375  40.157  1.00  0.00     0.039 C 
BRANCH   3   5
ATOM      5  C   UNL     1     -13.088 -41.889  38.179  1.00  0.00     0.034 C 
BRANCH   5   6
ATOM      6  C   UNL     1     -13.768 -40.642  37.604  1.00  0.00     0.032 C 
BRANCH   6   7
ATOM      7  C   UNL     1     -12.771 -39.525  37.422  1.00  0.00    -0.028 C 
ATOM      8  C   UNL     1     -12.270 -40.143  35.047  1.00  0.00     0.039 C 
ATOM      9  C   UNL     1     -12.071 -39.303  36.287  1.00  0.00    -0.080 C 
ATOM     10  C   UNL     1     -11.077 -38.171  36.266  1.00  0.00     0.039 C 
ENDBRANCH   6   7
ENDBRANCH   5   6
ENDBRANCH   3   5
ENDBRANCH   1   2
BRANCH   1  11
ATOM     11  C   UNL     1     -12.992 -38.979  42.028  1.00  0.00     0.034 C 
BRANCH  11  12
ATOM     12  C   UNL     1     -12.138 -38.331  40.951  1.00  0.00    -0.077 C 
ATOM     13  C   UNL     1     -12.622 -37.408  40.091  1.00  0.00    -0.028 C 
ATOM     14  C   UNL     1     -10.696 -38.750  40.817  1.00  0.00     0.039 C 
BRANCH  13  15
ATOM     15  C   UNL     1     -14.035 -36.877  40.136  1.00  0.00     0.035 C 
BRANCH  15  16
ATOM     16  C   UNL     1     -14.640 -36.793  38.730  1.00  0.00     0.079 C 
BRANCH  16  17
ATOM     17  C   UNL     1     -14.082 -35.613  37.979  1.00  0.00     0.130 C 
ATOM     18  O   UNL     1     -13.975 -34.535  38.547  1.00  0.00    -0.300 OA
ATOM     19  C   UNL     1     -13.665 -35.725  36.543  1.00  0.00     0.087 C 
ENDBRANCH  16  17
ENDBRANCH  15  16
ENDBRANCH  13  15
ENDBRANCH  11  12
ENDBRANCH   1  11
TORSDOF 9
ENDMDL
MODEL 4
REMARK VINA RESULT:    -6.618      1.922      5.325
REMARK INTER + INTRA:         -12.364
REMARK INTER:                 -10.532
REMARK INTRA:                  -1.832
REMARK UNBOUND:                -2.263
REMARK SMILES CC(=O)CCC=C(C)CCC=C(C)CCC=C(C)C
REMARK SMILES IDX 10 1 11 2 12 3 13 4 14 5 15 6 16 7 18 8 17 9 19 10 9 11 7 12
REMARK SMILES IDX 6 13 8 14 5 15 4 16 2 17 3 18 1 19
REMARK H PARENT
REMARK Flexibility Score: inf
ROOT
ATOM      1  C   UNL     1     -10.478 -38.065  40.201  1.00  0.00     0.032 C 
ENDROOT
BRANCH   1   2
ATOM      2  C   UNL     1     -11.227 -38.194  38.896  1.00  0.00    -0.028 C 
ATOM      3  C   UNL     1     -10.989 -37.444  37.796  1.00  0.00    -0.077 C 
ATOM      4  C   UNL     1      -9.873 -36.425  37.749  1.00  0.00     0.039 C 
BRANCH   3   5
ATOM      5  C   UNL     1     -11.854 -37.644  36.572  1.00  0.00     0.034 C 
BRANCH   5   6
ATOM      6  C   UNL     1     -12.610 -36.358  36.221  1.00  0.00     0.032 C 
BRANCH   6   7
ATOM      7  C   UNL     1     -13.675 -36.066  37.248  1.00  0.00    -0.028 C 
ATOM      8  C   UNL     1     -12.637 -33.896  37.945  1.00  0.00     0.039 C 
ATOM      9  C   UNL     1     -13.688 -34.977  38.048  1.00  0.00    -0.080 C 
ATOM     10  C   UNL     1     -14.798 -34.839  39.058  1.00  0.00     0.039 C 
ENDBRANCH   6   7
ENDBRANCH   5   6
ENDBRANCH   3   5
ENDBRANCH   1   2
BRANCH   1  11
ATOM     11  C   UNL     1     -10.502 -39.374  41.006  1.00  0.00     0.034 C 
BRANCH  11  12
ATOM     12  C   UNL     1     -11.584 -39.368  42.073  1.00  0.00    -0.077 C 
ATOM     13  C   UNL     1     -12.595 -40.264  42.093  1.00  0.00    -0.028 C 
ATOM     14  C   UNL     1     -11.546 -38.305  43.141  1.00  0.00     0.039 C 
BRANCH  13  15
ATOM     15  C   UNL     1     -12.734 -41.397  41.103  1.00  0.00     0.035 C 
BRANCH  15  16
ATOM     16  C   UNL     1     -13.643 -41.003  39.934  1.00  0.00     0.079 C 
BRANCH  16  17
ATOM     17  C   UNL     1     -13.120 -41.565  38.638  1.00  0.00     0.130 C 
ATOM     18  O   UNL     1     -12.408 -42.559  38.658  1.00  0.00    -0.300 OA
ATOM     19  C   UNL     1     -13.442 -40.925  37.321  1.00  0.00     0.087 C 
ENDBRANCH  16  17
ENDBRANCH  15  16
ENDBRANCH  13  15
ENDBRANCH  11  12
ENDBRANCH   1  11
TORSDOF 9
ENDMDL
MODEL 5
REMARK VINA RESULT:    -6.590      1.724      2.484
REMARK INTER + INTRA:         -12.320
REMARK INTER:                 -10.539
REMARK INTRA:                  -1.781
REMARK UNBOUND:                -2.263
REMARK SMILES CC(=O)CCC=C(C)CCC=C(C)CCC=C(C)C
REMARK SMILES IDX 10 1 11 2 12 3 13 4 14 5 15 6 16 7 18 8 17 9 19 10 9 11 7 12
REMARK SMILES IDX 6 13 8 14 5 15 4 16 2 17 3 18 1 19
REMARK H PARENT
REMARK Flexibility Score: inf
ROOT
ATOM      1  C   UNL     1     -14.672 -36.305  38.770  1.00  0.00     0.032 C 
ENDROOT
BRANCH   1   2
ATOM      2  C   UNL     1     -13.555 -36.945  39.562  1.00  0.00    -0.028 C 
ATOM      3  C   UNL     1     -13.566 -37.118  40.903  1.00  0.00    -0.077 C 
ATOM      4  C   UNL     1     -14.759 -36.739  41.748  1.00  0.00     0.039 C 
BRANCH   3   5
ATOM      5  C   UNL     1     -12.353 -37.726  41.572  1.00  0.00     0.034 C 
BRANCH   5   6
ATOM      6  C   UNL     1     -12.723 -39.026  42.294  1.00  0.00     0.032 C 
BRANCH   6   7
ATOM      7  C   UNL     1     -11.902 -40.180  41.774  1.00  0.00    -0.028 C 
ATOM      8  C   UNL     1     -13.873 -41.324  40.735  1.00  0.00     0.039 C 
ATOM      9  C   UNL     1     -12.408 -41.232  41.094  1.00  0.00    -0.080 C 
ATOM     10  C   UNL     1     -11.470 -42.333  40.672  1.00  0.00     0.039 C 
ENDBRANCH   6   7
ENDBRANCH   5   6
ENDBRANCH   3   5
ENDBRANCH   1   2
BRANCH   1  11
ATOM     11  C   UNL     1     -14.261 -36.040  37.313  1.00  0.00     0.034 C 
BRANCH  11  12
ATOM     12  C   UNL     1     -12.951 -35.276  37.220  1.00  0.00    -0.077 C 
ATOM     13  C   UNL     1     -11.889 -35.729  36.518  1.00  0.00    -0.028 C 
ATOM     14  C   UNL     1     -12.818 -33.968  37.959  1.00  0.00     0.039 C 
BRANCH  13  15
ATOM     15  C   UNL     1     -11.900 -37.004  35.708  1.00  0.00     0.035 C 
BRANCH  15  16
ATOM     16  C   UNL     1     -11.348 -38.181  36.520  1.00  0.00     0.079 C 
BRANCH  16  17
ATOM     17  C   UNL     1     -12.244 -39.385  36.391  1.00  0.00     0.130 C 
ATOM     18  O   UNL     1     -12.214 -40.049  35.364  1.00  0.00    -0.300 OA
ATOM     19  C   UNL     1     -13.185 -39.782  37.490  1.00  0.00     0.087 C 
ENDBRANCH  16  17
ENDBRANCH  15  16
ENDBRANCH  13  15
ENDBRANCH  11  12
ENDBRANCH   1  11
TORSDOF 9
ENDMDL
MODEL 6
REMARK VINA RESULT:    -6.572      2.201      5.794
REMARK INTER + INTRA:         -12.293
REMARK INTER:                 -10.241
REMARK INTRA:                  -2.052
REMARK UNBOUND:                -2.263
REMARK SMILES CC(=O)CCC=C(C)CCC=C(C)CCC=C(C)C
REMARK SMILES IDX 10 1 11 2 12 3 13 4 14 5 15 6 16 7 18 8 17 9 19 10 9 11 7 12
REMARK SMILES IDX 6 13 8 14 5 15 4 16 2 17 3 18 1 19
REMARK H PARENT
REMARK Flexibility Score: inf
ROOT
ATOM      1  C   UNL     1     -13.711 -40.644  38.051  1.00  0.00     0.032 C 
ENDROOT
BRANCH   1   2
ATOM      2  C   UNL     1     -12.793 -39.481  37.758  1.00  0.00    -0.028 C 
ATOM      3  C   UNL     1     -12.178 -39.267  36.572  1.00  0.00    -0.077 C 
ATOM      4  C   UNL     1     -12.413 -40.160  35.377  1.00  0.00     0.039 C 
BRANCH   3   5
ATOM      5  C   UNL     1     -11.241 -38.088  36.437  1.00  0.00     0.034 C 
BRANCH   5   6
ATOM      6  C   UNL     1     -11.925 -36.928  35.705  1.00  0.00     0.032 C 
BRANCH   6   7
ATOM      7  C   UNL     1     -11.969 -35.697  36.576  1.00  0.00    -0.028 C 
ATOM      8  C   UNL     1     -14.352 -36.066  37.253  1.00  0.00     0.039 C 
ATOM      9  C   UNL     1     -13.060 -35.283  37.258  1.00  0.00    -0.080 C 
ATOM     10  C   UNL     1     -12.967 -34.009  38.057  1.00  0.00     0.039 C 
ENDBRANCH   6   7
ENDBRANCH   5   6
ENDBRANCH   3   5
ENDBRANCH   1   2
BRANCH   1  11
ATOM     11  C   UNL     1     -13.848 -40.900  39.559  1.00  0.00     0.034 C 
BRANCH  11  12
ATOM     12  C   UNL     1     -12.560 -41.433  40.166  1.00  0.00    -0.077 C 
ATOM     13  C   UNL     1     -12.035 -40.945  41.312  1.00  0.00    -0.028 C 
ATOM     14  C   UNL     1     -11.822 -42.536  39.451  1.00  0.00     0.039 C 
BRANCH  13  15
ATOM     15  C   UNL     1     -12.688 -39.865  42.142  1.00  0.00     0.035 C 
BRANCH  15  16
ATOM     16  C   UNL     1     -11.926 -38.541  42.028  1.00  0.00     0.079 C 
BRANCH  16  17
ATOM     17  C   UNL     1     -12.477 -37.704  40.903  1.00  0.00     0.130 C 
ATOM     18  O   UNL     1     -11.727 -37.319  40.017  1.00  0.00    -0.300 OA
ATOM     19  C   UNL     1     -13.926 -37.319  40.852  1.00  0.00     0.087 C 
ENDBRANCH  16  17
ENDBRANCH  15  16
ENDBRANCH  13  15
ENDBRANCH  11  12
ENDBRANCH   1  11
TORSDOF 9
ENDMDL
MODEL 7
REMARK VINA RESULT:    -6.501      1.936      3.414
REMARK INTER + INTRA:         -12.184
REMARK INTER:                 -10.579
REMARK INTRA:                  -1.605
REMARK UNBOUND:                -2.263
REMARK SMILES CC(=O)CCC=C(C)CCC=C(C)CCC=C(C)C
REMARK SMILES IDX 10 1 11 2 12 3 13 4 14 5 15 6 16 7 18 8 17 9 19 10 9 11 7 12
REMARK SMILES IDX 6 13 8 14 5 15 4 16 2 17 3 18 1 19
REMARK H PARENT
REMARK Flexibility Score: inf
ROOT
ATOM      1  C   UNL     1     -14.846 -36.457  38.806  1.00  0.00     0.032 C 
ENDROOT
BRANCH   1   2
ATOM      2  C   UNL     1     -13.864 -37.466  39.352  1.00  0.00    -0.028 C 
ATOM      3  C   UNL     1     -13.608 -37.657  40.666  1.00  0.00    -0.077 C 
ATOM      4  C   UNL     1     -14.353 -36.904  41.743  1.00  0.00     0.039 C 
BRANCH   3   5
ATOM      5  C   UNL     1     -12.557 -38.668  41.068  1.00  0.00     0.034 C 
BRANCH   5   6
ATOM      6  C   UNL     1     -13.193 -40.032  41.356  1.00  0.00     0.032 C 
BRANCH   6   7
ATOM      7  C   UNL     1     -13.343 -40.832  40.087  1.00  0.00    -0.028 C 
ATOM      8  C   UNL     1     -11.323 -42.240  40.545  1.00  0.00     0.039 C 
ATOM      9  C   UNL     1     -12.497 -41.811  39.696  1.00  0.00    -0.080 C 
ATOM     10  C   UNL     1     -12.752 -42.497  38.379  1.00  0.00     0.039 C 
ENDBRANCH   6   7
ENDBRANCH   5   6
ENDBRANCH   3   5
ENDBRANCH   1   2
BRANCH   1  11
ATOM     11  C   UNL     1     -14.384 -35.877  37.461  1.00  0.00     0.034 C 
BRANCH  11  12
ATOM     12  C   UNL     1     -13.185 -34.956  37.619  1.00  0.00    -0.077 C 
ATOM     13  C   UNL     1     -11.976 -35.231  37.080  1.00  0.00    -0.028 C 
ATOM     14  C   UNL     1     -13.340 -33.693  38.428  1.00  0.00     0.039 C 
BRANCH  13  15
ATOM     15  C   UNL     1     -11.694 -36.442  36.223  1.00  0.00     0.035 C 
BRANCH  15  16
ATOM     16  C   UNL     1     -10.960 -37.526  37.020  1.00  0.00     0.079 C 
BRANCH  16  17
ATOM     17  C   UNL     1      -9.685 -36.983  37.610  1.00  0.00     0.130 C 
ATOM     18  O   UNL     1      -8.809 -36.565  36.866  1.00  0.00    -0.300 OA
ATOM     19  C   UNL     1      -9.459 -36.954  39.093  1.00  0.00     0.087 C 
ENDBRANCH  16  17
ENDBRANCH  15  16
ENDBRANCH  13  15
ENDBRANCH  11  12
ENDBRANCH   1  11
TORSDOF 9
ENDMDL
MODEL 8
REMARK VINA RESULT:    -6.433      1.794      3.937
REMARK INTER + INTRA:         -12.081
REMARK INTER:                  -9.907
REMARK INTRA:                  -2.174
REMARK UNBOUND:                -2.263
REMARK SMILES CC(=O)CCC=C(C)CCC=C(C)CCC=C(C)C
REMARK SMILES IDX 10 1 11 2 12 3 13 4 14 5 15 6 16 7 18 8 17 9 19 10 9 11 7 12
REMARK SMILES IDX 6 13 8 14 5 15 4 16 2 17 3 18 1 19
REMARK H PARENT
REMARK Flexibility Score: inf
ROOT
ATOM      1  C   UNL     1     -12.249 -36.006  35.858  1.00  0.00     0.032 C 
ENDROOT
BRANCH   1   2
ATOM      2  C   UNL     1     -13.382 -35.960  36.856  1.00  0.00    -0.028 C 
ATOM      3  C   UNL     1     -13.508 -35.033  37.833  1.00  0.00    -0.077 C 
ATOM      4  C   UNL     1     -12.536 -33.885  37.976  1.00  0.00     0.039 C 
BRANCH   3   5
ATOM      5  C   UNL     1     -14.668 -35.140  38.798  1.00  0.00     0.034 C 
BRANCH   5   6
ATOM      6  C   UNL     1     -14.960 -36.605  39.140  1.00  0.00     0.032 C 
BRANCH   6   7
ATOM      7  C   UNL     1     -13.833 -37.202  39.946  1.00  0.00    -0.028 C 
ATOM      8  C   UNL     1     -14.932 -36.712  42.143  1.00  0.00     0.039 C 
ATOM      9  C   UNL     1     -13.795 -37.235  41.297  1.00  0.00    -0.080 C 
ATOM     10  C   UNL     1     -12.582 -37.828  41.967  1.00  0.00     0.039 C 
ENDBRANCH   6   7
ENDBRANCH   5   6
ENDBRANCH   3   5
ENDBRANCH   1   2
BRANCH   1  11
ATOM     11  C   UNL     1     -11.535 -37.366  35.865  1.00  0.00     0.034 C 
BRANCH  11  12
ATOM     12  C   UNL     1     -11.271 -37.864  37.277  1.00  0.00    -0.077 C 
ATOM     13  C   UNL     1     -11.888 -38.949  37.796  1.00  0.00    -0.028 C 
ATOM     14  C   UNL     1     -10.301 -37.106  38.146  1.00  0.00     0.039 C 
BRANCH  13  15
ATOM     15  C   UNL     1     -12.855 -39.815  37.024  1.00  0.00     0.035 C 
BRANCH  15  16
ATOM     16  C   UNL     1     -13.905 -40.437  37.953  1.00  0.00     0.079 C 
BRANCH  16  17
ATOM     17  C   UNL     1     -13.258 -41.378  38.934  1.00  0.00     0.130 C 
ATOM     18  O   UNL     1     -12.670 -42.368  38.520  1.00  0.00    -0.300 OA
ATOM     19  C   UNL     1     -13.328 -41.137  40.413  1.00  0.00     0.087 C 
ENDBRANCH  16  17
ENDBRANCH  15  16
ENDBRANCH  13  15
ENDBRANCH  11  12
ENDBRANCH   1  11
TORSDOF 9
ENDMDL
MODEL 9
REMARK VINA RESULT:    -6.330      1.490      3.050
REMARK INTER + INTRA:         -11.924
REMARK INTER:                  -9.510
REMARK INTRA:                  -2.414
REMARK UNBOUND:                -2.263
REMARK SMILES CC(=O)CCC=C(C)CCC=C(C)CCC=C(C)C
REMARK SMILES IDX 10 1 11 2 12 3 13 4 14 5 15 6 16 7 18 8 17 9 19 10 9 11 7 12
REMARK SMILES IDX 6 13 8 14 5 15 4 16 2 17 3 18 1 19
REMARK H PARENT
REMARK Flexibility Score: inf
ROOT
ATOM      1  C   UNL     1     -12.178 -34.956  37.143  1.00  0.00     0.032 C 
ENDROOT
BRANCH   1   2
ATOM      2  C   UNL     1     -12.704 -35.668  38.367  1.00  0.00    -0.028 C 
ATOM      3  C   UNL     1     -13.976 -36.104  38.516  1.00  0.00    -0.077 C 
ATOM      4  C   UNL     1     -14.999 -35.975  37.413  1.00  0.00     0.039 C 
BRANCH   3   5
ATOM      5  C   UNL     1     -14.378 -36.755  39.821  1.00  0.00     0.034 C 
BRANCH   5   6
ATOM      6  C   UNL     1     -13.155 -37.327  40.545  1.00  0.00     0.032 C 
BRANCH   6   7
ATOM      7  C   UNL     1     -13.429 -38.728  41.034  1.00  0.00    -0.028 C 
ATOM      8  C   UNL     1     -11.145 -39.557  40.430  1.00  0.00     0.039 C 
ATOM      9  C   UNL     1     -12.544 -39.747  40.966  1.00  0.00    -0.080 C 
ATOM     10  C   UNL     1     -12.974 -41.105  41.457  1.00  0.00     0.039 C 
ENDBRANCH   6   7
ENDBRANCH   5   6
ENDBRANCH   3   5
ENDBRANCH   1   2
BRANCH   1  11
ATOM     11  C   UNL     1     -11.636 -35.941  36.096  1.00  0.00     0.034 C 
BRANCH  11  12
ATOM     12  C   UNL     1     -10.668 -36.943  36.704  1.00  0.00    -0.077 C 
ATOM     13  C   UNL     1     -10.926 -38.269  36.757  1.00  0.00    -0.028 C 
ATOM     14  C   UNL     1      -9.376 -36.439  37.294  1.00  0.00     0.039 C 
BRANCH  13  15
ATOM     15  C   UNL     1     -12.165 -38.908  36.176  1.00  0.00     0.035 C 
BRANCH  15  16
ATOM     16  C   UNL     1     -13.082 -39.446  37.280  1.00  0.00     0.079 C 
BRANCH  16  17
ATOM     17  C   UNL     1     -13.465 -40.876  37.005  1.00  0.00     0.130 C 
ATOM     18  O   UNL     1     -14.061 -41.151  35.973  1.00  0.00    -0.300 OA
ATOM     19  C   UNL     1     -13.143 -41.973  37.976  1.00  0.00     0.087 C 
ENDBRANCH  16  17
ENDBRANCH  15  16
ENDBRANCH  13  15
ENDBRANCH  11  12
ENDBRANCH   1  11
TORSDOF 9
ENDMDL
