MODEL 1
REMARK VINA RESULT:    -4.500      0.000      0.000
REMARK INTER + INTRA:          -5.290
REMARK INTER:                  -5.157
REMARK INTRA:                  -0.133
REMARK UNBOUND:                -0.133
REMARK SMILES O=C([O-])C=Cc1ccc(O)cc1
REMARK SMILES IDX 6 1 7 2 12 3 8 4 11 5 9 6 5 7 4 8 2 9 1 10 3 11 10 12
REMARK H PARENT 10 13
REMARK Flexibility Score: inf
ROOT
ATOM      1  C   UNL     1     -18.552  21.003  41.896  1.00  0.00    -0.025 A 
ATOM      2  C   UNL     1     -18.453  21.475  43.216  1.00  0.00     0.012 A 
ATOM      3  C   UNL     1     -18.091  19.704  41.602  1.00  0.00     0.012 A 
ATOM      4  C   UNL     1     -17.931  20.661  44.226  1.00  0.00     0.047 A 
ATOM      5  C   UNL     1     -17.568  18.893  42.615  1.00  0.00     0.047 A 
ATOM      6  C   UNL     1     -17.489  19.368  43.929  1.00  0.00     0.115 A 
ENDROOT
BRANCH   1   7
ATOM      7  C   UNL     1     -19.104  21.909  40.858  1.00  0.00     0.010 C 
ATOM      8  C   UNL     1     -20.392  21.917  40.484  1.00  0.00     0.025 C 
BRANCH   8   9
ATOM      9  C   UNL     1     -20.907  22.839  39.458  1.00  0.00     0.064 C 
ATOM     10  O   UNL     1     -20.955  24.082  39.662  1.00  0.00    -0.545 OA
ATOM     11  O   UNL     1     -21.346  22.330  38.243  1.00  0.00    -0.545 OA
ENDBRANCH   8   9
ENDBRANCH   1   7
BRANCH   6  12
ATOM     12  O   UNL     1     -16.972  18.568  44.946  1.00  0.00    -0.508 OA
ATOM     13  H   UNL     1     -16.081  18.096  44.845  1.00  0.00     0.293 HD
ENDBRANCH   6  12
TORSDOF 3
ENDMDL
MODEL 2
REMARK VINA RESULT:    -4.351     15.271     16.397
REMARK INTER + INTRA:          -5.120
REMARK INTER:                  -4.979
REMARK INTRA:                  -0.140
REMARK UNBOUND:                -0.133
REMARK SMILES O=C([O-])C=Cc1ccc(O)cc1
REMARK SMILES IDX 6 1 7 2 12 3 8 4 11 5 9 6 5 7 4 8 2 9 1 10 3 11 10 12
REMARK H PARENT 10 13
REMARK Flexibility Score: inf
ROOT
ATOM      1  C   UNL     1      -6.752  29.466  46.450  1.00  0.00    -0.025 A 
ATOM      2  C   UNL     1      -7.733  28.772  45.721  1.00  0.00     0.012 A 
ATOM      3  C   UNL     1      -5.552  28.803  46.779  1.00  0.00     0.012 A 
ATOM      4  C   UNL     1      -7.512  27.456  45.306  1.00  0.00     0.047 A 
ATOM      5  C   UNL     1      -5.336  27.485  46.362  1.00  0.00     0.047 A 
ATOM      6  C   UNL     1      -6.314  26.809  45.623  1.00  0.00     0.115 A 
ENDROOT
BRANCH   1   7
ATOM      7  C   UNL     1      -7.038  30.859  46.877  1.00  0.00     0.010 C 
ATOM      8  C   UNL     1      -6.192  31.604  47.604  1.00  0.00     0.025 C 
BRANCH   8   9
ATOM      9  C   UNL     1      -6.505  32.988  47.999  1.00  0.00     0.064 C 
ATOM     10  O   UNL     1      -7.223  33.728  47.273  1.00  0.00    -0.545 OA
ATOM     11  O   UNL     1      -6.003  33.486  49.193  1.00  0.00    -0.545 OA
ENDBRANCH   8   9
ENDBRANCH   1   7
BRANCH   6  12
ATOM     12  O   UNL     1      -6.108  25.497  45.202  1.00  0.00    -0.508 OA
ATOM     13  H   UNL     1      -6.866  24.827  45.169  1.00  0.00     0.293 HD
ENDBRANCH   6  12
TORSDOF 3
ENDMDL
MODEL 3
REMARK VINA RESULT:    -4.345     15.295     16.411
REMARK INTER + INTRA:          -5.114
REMARK INTER:                  -4.961
REMARK INTRA:                  -0.153
REMARK UNBOUND:                -0.133
REMARK SMILES O=C([O-])C=Cc1ccc(O)cc1
REMARK SMILES IDX 6 1 7 2 12 3 8 4 11 5 9 6 5 7 4 8 2 9 1 10 3 11 10 12
REMARK H PARENT 10 13
REMARK Flexibility Score: inf
ROOT
ATOM      1  C   UNL     1      -6.911  29.576  46.477  1.00  0.00    -0.025 A 
ATOM      2  C   UNL     1      -5.710  28.940  46.834  1.00  0.00     0.012 A 
ATOM      3  C   UNL     1      -7.838  28.879  45.675  1.00  0.00     0.012 A 
ATOM      4  C   UNL     1      -5.450  27.629  46.424  1.00  0.00     0.047 A 
ATOM      5  C   UNL     1      -7.573  27.568  45.265  1.00  0.00     0.047 A 
ATOM      6  C   UNL     1      -6.379  26.939  45.640  1.00  0.00     0.115 A 
ENDROOT
BRANCH   1   7
ATOM      7  C   UNL     1      -7.137  30.971  46.929  1.00  0.00     0.010 C 
ATOM      8  C   UNL     1      -6.247  31.677  47.643  1.00  0.00     0.025 C 
BRANCH   8   9
ATOM      9  C   UNL     1      -6.502  33.065  48.064  1.00  0.00     0.064 C 
ATOM     10  O   UNL     1      -7.151  33.861  47.333  1.00  0.00    -0.545 OA
ATOM     11  O   UNL     1      -6.021  33.505  49.290  1.00  0.00    -0.545 OA
ENDBRANCH   8   9
ENDBRANCH   1   7
BRANCH   6  12
ATOM     12  O   UNL     1      -6.107  25.633  45.239  1.00  0.00    -0.508 OA
ATOM     13  H   UNL     1      -5.983  25.395  44.262  1.00  0.00     0.293 HD
ENDBRANCH   6  12
TORSDOF 3
ENDMDL
MODEL 4
REMARK VINA RESULT:    -4.240      1.739      5.631
REMARK INTER + INTRA:          -4.993
REMARK INTER:                  -4.842
REMARK INTRA:                  -0.151
REMARK UNBOUND:                -0.133
REMARK SMILES O=C([O-])C=Cc1ccc(O)cc1
REMARK SMILES IDX 6 1 7 2 12 3 8 4 11 5 9 6 5 7 4 8 2 9 1 10 3 11 10 12
REMARK H PARENT 10 13
REMARK Flexibility Score: inf
ROOT
ATOM      1  C   UNL     1     -20.022  21.342  41.398  1.00  0.00    -0.025 A 
ATOM      2  C   UNL     1     -19.242  22.374  40.850  1.00  0.00     0.012 A 
ATOM      3  C   UNL     1     -21.412  21.537  41.530  1.00  0.00     0.012 A 
ATOM      4  C   UNL     1     -19.837  23.563  40.418  1.00  0.00     0.047 A 
ATOM      5  C   UNL     1     -22.003  22.729  41.097  1.00  0.00     0.047 A 
ATOM      6  C   UNL     1     -21.217  23.744  40.539  1.00  0.00     0.115 A 
ENDROOT
BRANCH   1   7
ATOM      7  C   UNL     1     -19.343  20.102  41.851  1.00  0.00     0.010 C 
ATOM      8  C   UNL     1     -18.050  19.832  41.618  1.00  0.00     0.025 C 
BRANCH   8   9
ATOM      9  C   UNL     1     -17.408  18.596  42.093  1.00  0.00     0.064 C 
ATOM     10  O   UNL     1     -17.081  18.453  43.302  1.00  0.00    -0.545 OA
ATOM     11  O   UNL     1     -17.159  17.568  41.195  1.00  0.00    -0.545 OA
ENDBRANCH   8   9
ENDBRANCH   1   7
BRANCH   6  12
ATOM     12  O   UNL     1     -21.796  24.934  40.103  1.00  0.00    -0.508 OA
ATOM     13  H   UNL     1     -21.413  25.834  40.363  1.00  0.00     0.293 HD
ENDBRANCH   6  12
TORSDOF 3
ENDMDL
MODEL 5
REMARK VINA RESULT:    -4.181     12.599     13.332
REMARK INTER + INTRA:          -4.925
REMARK INTER:                  -4.785
REMARK INTRA:                  -0.140
REMARK UNBOUND:                -0.133
REMARK SMILES O=C([O-])C=Cc1ccc(O)cc1
REMARK SMILES IDX 6 1 7 2 12 3 8 4 11 5 9 6 5 7 4 8 2 9 1 10 3 11 10 12
REMARK H PARENT 10 13
REMARK Flexibility Score: inf
ROOT
ATOM      1  C   UNL     1      -8.388  28.653  44.978  1.00  0.00    -0.025 A 
ATOM      2  C   UNL     1      -8.806  29.895  45.487  1.00  0.00     0.012 A 
ATOM      3  C   UNL     1      -7.198  28.081  45.474  1.00  0.00     0.012 A 
ATOM      4  C   UNL     1      -8.070  30.539  46.486  1.00  0.00     0.047 A 
ATOM      5  C   UNL     1      -6.464  28.729  46.473  1.00  0.00     0.047 A 
ATOM      6  C   UNL     1      -6.899  29.959  46.983  1.00  0.00     0.115 A 
ENDROOT
BRANCH   1   7
ATOM      7  C   UNL     1      -9.198  28.014  43.912  1.00  0.00     0.010 C 
ATOM      8  C   UNL     1     -10.469  27.619  44.076  1.00  0.00     0.025 C 
BRANCH   8   9
ATOM      9  C   UNL     1     -11.246  26.998  42.990  1.00  0.00     0.064 C 
ATOM     10  O   UNL     1     -12.480  26.776  43.115  1.00  0.00    -0.545 OA
ATOM     11  O   UNL     1     -10.608  26.653  41.807  1.00  0.00    -0.545 OA
ENDBRANCH   8   9
ENDBRANCH   1   7
BRANCH   6  12
ATOM     12  O   UNL     1      -6.176  30.611  47.979  1.00  0.00    -0.508 OA
ATOM     13  H   UNL     1      -5.788  30.107  48.767  1.00  0.00     0.293 HD
ENDBRANCH   6  12
TORSDOF 3
ENDMDL
MODEL 6
REMARK VINA RESULT:    -4.158     12.637     13.455
REMARK INTER + INTRA:          -4.899
REMARK INTER:                  -4.759
REMARK INTRA:                  -0.140
REMARK UNBOUND:                -0.133
REMARK SMILES O=C([O-])C=Cc1ccc(O)cc1
REMARK SMILES IDX 6 1 7 2 12 3 8 4 11 5 9 6 5 7 4 8 2 9 1 10 3 11 10 12
REMARK H PARENT 10 13
REMARK Flexibility Score: inf
ROOT
ATOM      1  C   UNL     1      -8.286  28.563  45.060  1.00  0.00    -0.025 A 
ATOM      2  C   UNL     1      -7.067  28.056  45.538  1.00  0.00     0.012 A 
ATOM      3  C   UNL     1      -8.766  29.784  45.578  1.00  0.00     0.012 A 
ATOM      4  C   UNL     1      -6.328  28.762  46.493  1.00  0.00     0.047 A 
ATOM      5  C   UNL     1      -8.024  30.486  46.534  1.00  0.00     0.047 A 
ATOM      6  C   UNL     1      -6.803  29.978  46.992  1.00  0.00     0.115 A 
ENDROOT
BRANCH   1   7
ATOM      7  C   UNL     1      -9.038  27.772  44.054  1.00  0.00     0.010 C 
ATOM      8  C   UNL     1     -10.376  27.688  44.020  1.00  0.00     0.025 C 
BRANCH   8   9
ATOM      9  C   UNL     1     -11.089  26.902  42.998  1.00  0.00     0.064 C 
ATOM     10  O   UNL     1     -10.465  26.322  42.069  1.00  0.00    -0.545 OA
ATOM     11  O   UNL     1     -12.471  26.797  43.060  1.00  0.00    -0.545 OA
ENDBRANCH   8   9
ENDBRANCH   1   7
BRANCH   6  12
ATOM     12  O   UNL     1      -6.056  30.671  47.942  1.00  0.00    -0.508 OA
ATOM     13  H   UNL     1      -5.214  30.275  48.344  1.00  0.00     0.293 HD
ENDBRANCH   6  12
TORSDOF 3
ENDMDL
MODEL 7
REMARK VINA RESULT:    -4.157     15.743     17.006
REMARK INTER + INTRA:          -4.898
REMARK INTER:                  -4.746
REMARK INTRA:                  -0.151
REMARK UNBOUND:                -0.133
REMARK SMILES O=C([O-])C=Cc1ccc(O)cc1
REMARK SMILES IDX 6 1 7 2 12 3 8 4 11 5 9 6 5 7 4 8 2 9 1 10 3 11 10 12
REMARK H PARENT 10 13
REMARK Flexibility Score: inf
ROOT
ATOM      1  C   UNL     1      -6.695  30.355  46.801  1.00  0.00    -0.025 A 
ATOM      2  C   UNL     1      -7.942  30.765  46.300  1.00  0.00     0.012 A 
ATOM      3  C   UNL     1      -6.236  29.056  46.501  1.00  0.00     0.012 A 
ATOM      4  C   UNL     1      -8.703  29.911  45.497  1.00  0.00     0.047 A 
ATOM      5  C   UNL     1      -7.001  28.203  45.698  1.00  0.00     0.047 A 
ATOM      6  C   UNL     1      -8.235  28.629  45.193  1.00  0.00     0.115 A 
ENDROOT
BRANCH   1   7
ATOM      7  C   UNL     1      -5.929  31.294  47.657  1.00  0.00     0.010 C 
ATOM      8  C   UNL     1      -6.382  32.500  48.032  1.00  0.00     0.025 C 
BRANCH   8   9
ATOM      9  C   UNL     1      -5.598  33.401  48.893  1.00  0.00     0.064 C 
ATOM     10  O   UNL     1      -4.570  33.987  48.459  1.00  0.00    -0.545 OA
ATOM     11  O   UNL     1      -5.998  33.610  50.205  1.00  0.00    -0.545 OA
ENDBRANCH   8   9
ENDBRANCH   1   7
BRANCH   6  12
ATOM     12  O   UNL     1      -9.004  27.789  44.390  1.00  0.00    -0.508 OA
ATOM     13  H   UNL     1      -8.759  27.612  43.423  1.00  0.00     0.293 HD
ENDBRANCH   6  12
TORSDOF 3
ENDMDL
MODEL 8
REMARK VINA RESULT:    -4.035     15.850     17.314
REMARK INTER + INTRA:          -4.758
REMARK INTER:                  -4.610
REMARK INTRA:                  -0.148
REMARK UNBOUND:                -0.133
REMARK SMILES O=C([O-])C=Cc1ccc(O)cc1
REMARK SMILES IDX 6 1 7 2 12 3 8 4 11 5 9 6 5 7 4 8 2 9 1 10 3 11 10 12
REMARK H PARENT 10 13
REMARK Flexibility Score: inf
ROOT
ATOM      1  C   UNL     1      -6.003  30.215  46.797  1.00  0.00    -0.025 A 
ATOM      2  C   UNL     1      -4.639  30.554  46.791  1.00  0.00     0.012 A 
ATOM      3  C   UNL     1      -6.937  31.165  47.259  1.00  0.00     0.012 A 
ATOM      4  C   UNL     1      -4.218  31.819  47.211  1.00  0.00     0.047 A 
ATOM      5  C   UNL     1      -6.511  32.430  47.679  1.00  0.00     0.047 A 
ATOM      6  C   UNL     1      -5.151  32.760  47.654  1.00  0.00     0.115 A 
ENDROOT
BRANCH   1   7
ATOM      7  C   UNL     1      -6.399  28.856  46.352  1.00  0.00     0.010 C 
ATOM      8  C   UNL     1      -5.613  27.775  46.466  1.00  0.00     0.025 C 
BRANCH   8   9
ATOM      9  C   UNL     1      -6.046  26.439  46.023  1.00  0.00     0.064 C 
ATOM     10  O   UNL     1      -6.375  25.550  46.854  1.00  0.00    -0.545 OA
ATOM     11  O   UNL     1      -6.093  26.153  44.666  1.00  0.00    -0.545 OA
ENDBRANCH   8   9
ENDBRANCH   1   7
BRANCH   6  12
ATOM     12  O   UNL     1      -4.717  34.018  48.068  1.00  0.00    -0.508 OA
ATOM     13  H   UNL     1      -5.345  34.811  48.095  1.00  0.00     0.293 HD
ENDBRANCH   6  12
TORSDOF 3
ENDMDL
MODEL 9
REMARK VINA RESULT:    -3.958     14.637     15.510
REMARK INTER + INTRA:          -4.670
REMARK INTER:                  -4.520
REMARK INTRA:                  -0.150
REMARK UNBOUND:                -0.133
REMARK SMILES O=C([O-])C=Cc1ccc(O)cc1
REMARK SMILES IDX 6 1 7 2 12 3 8 4 11 5 9 6 5 7 4 8 2 9 1 10 3 11 10 12
REMARK H PARENT 10 13
REMARK Flexibility Score: inf
ROOT
ATOM      1  C   UNL     1      -6.892  29.571  46.244  1.00  0.00    -0.025 A 
ATOM      2  C   UNL     1      -7.820  28.719  45.621  1.00  0.00     0.012 A 
ATOM      3  C   UNL     1      -5.696  29.021  46.749  1.00  0.00     0.012 A 
ATOM      4  C   UNL     1      -7.550  27.354  45.482  1.00  0.00     0.047 A 
ATOM      5  C   UNL     1      -5.431  27.654  46.609  1.00  0.00     0.047 A 
ATOM      6  C   UNL     1      -6.357  26.818  45.973  1.00  0.00     0.115 A 
ENDROOT
BRANCH   1   7
ATOM      7  C   UNL     1      -7.227  31.010  46.376  1.00  0.00     0.010 C 
ATOM      8  C   UNL     1      -8.047  31.665  45.541  1.00  0.00     0.025 C 
BRANCH   8   9
ATOM      9  C   UNL     1      -8.366  33.092  45.712  1.00  0.00     0.064 C 
ATOM     10  O   UNL     1      -9.246  33.654  45.004  1.00  0.00    -0.545 OA
ATOM     11  O   UNL     1      -7.688  33.833  46.669  1.00  0.00    -0.545 OA
ENDBRANCH   8   9
ENDBRANCH   1   7
BRANCH   6  12
ATOM     12  O   UNL     1      -6.102  25.456  45.826  1.00  0.00    -0.508 OA
ATOM     13  H   UNL     1      -5.259  25.033  46.196  1.00  0.00     0.293 HD
ENDBRANCH   6  12
TORSDOF 3
ENDMDL
