MODEL 1
REMARK VINA RESULT:    -2.879      0.000      0.000
REMARK INTER + INTRA:          -5.613
REMARK INTER:                  -4.393
REMARK INTRA:                  -1.220
REMARK UNBOUND:                -1.220
REMARK SMILES CCCCCCCCCCC(=O)[O-]
REMARK SMILES IDX 7 1 8 2 9 3 10 4 11 5 12 6 13 7 6 8 5 9 4 10 3 11 2 12 1 13
REMARK H PARENT
REMARK Flexibility Score: inf
ROOT
ATOM      1  C   UNL     1    -115.074  33.870  -8.977  1.00  0.00     0.000 C 
ENDROOT
BRANCH   1   2
ATOM      2  C   UNL     1    -116.507  33.462  -9.355  1.00  0.00     0.000 C 
BRANCH   2   3
ATOM      3  C   UNL     1    -116.822  33.714 -10.840  1.00  0.00     0.006 C 
BRANCH   3   4
ATOM      4  C   UNL     1    -115.630  34.320 -11.590  1.00  0.00     0.053 C 
BRANCH   4   5
ATOM      5  C   UNL     1    -115.285  33.535 -12.818  1.00  0.00     0.041 C 
ATOM      6  O   UNL     1    -114.264  32.799 -12.834  1.00  0.00    -0.550 OA
ATOM      7  O   UNL     1    -116.108  33.594 -13.936  1.00  0.00    -0.550 OA
ENDBRANCH   4   5
ENDBRANCH   3   4
ENDBRANCH   2   3
ENDBRANCH   1   2
BRANCH   1   8
ATOM      8  C   UNL     1    -115.012  34.652  -7.653  1.00  0.00     0.000 C 
BRANCH   8   9
ATOM      9  C   UNL     1    -116.365  35.278  -7.267  1.00  0.00    -0.000 C 
BRANCH   9  10
ATOM     10  C   UNL     1    -116.496  36.789  -7.551  1.00  0.00    -0.000 C 
BRANCH  10  11
ATOM     11  C   UNL     1    -116.939  37.149  -8.980  1.00  0.00    -0.000 C 
BRANCH  11  12
ATOM     12  C   UNL     1    -115.772  37.603  -9.870  1.00  0.00    -0.003 C 
ATOM     13  C   UNL     1    -114.731  38.371  -9.061  1.00  0.00     0.004 C 
ENDBRANCH  11  12
ENDBRANCH  10  11
ENDBRANCH   9  10
ENDBRANCH   8   9
ENDBRANCH   1   8
TORSDOF 9
ENDMDL
MODEL 2
REMARK VINA RESULT:    -2.753      3.453      5.034
REMARK INTER + INTRA:          -5.422
REMARK INTER:                  -4.350
REMARK INTRA:                  -1.072
REMARK UNBOUND:                -1.220
REMARK SMILES CCCCCCCCCCC(=O)[O-]
REMARK SMILES IDX 7 1 8 2 9 3 10 4 11 5 12 6 13 7 6 8 5 9 4 10 3 11 2 12 1 13
REMARK H PARENT
REMARK Flexibility Score: inf
ROOT
ATOM      1  C   UNL     1    -116.397  35.616  -7.308  1.00  0.00     0.000 C 
ENDROOT
BRANCH   1   2
ATOM      2  C   UNL     1    -116.468  37.043  -7.878  1.00  0.00     0.000 C 
BRANCH   2   3
ATOM      3  C   UNL     1    -115.223  37.414  -8.703  1.00  0.00     0.006 C 
BRANCH   3   4
ATOM      4  C   UNL     1    -115.460  38.648  -9.583  1.00  0.00     0.053 C 
BRANCH   4   5
ATOM      5  C   UNL     1    -114.694  39.838  -9.093  1.00  0.00     0.041 C 
ATOM      6  O   UNL     1    -114.630  40.087  -7.861  1.00  0.00    -0.550 OA
ATOM      7  O   UNL     1    -114.025  40.656  -9.995  1.00  0.00    -0.550 OA
ENDBRANCH   4   5
ENDBRANCH   3   4
ENDBRANCH   2   3
ENDBRANCH   1   2
BRANCH   1   8
ATOM      8  C   UNL     1    -115.041  34.940  -7.579  1.00  0.00     0.000 C 
BRANCH   8   9
ATOM      9  C   UNL     1    -115.122  33.861  -8.674  1.00  0.00    -0.000 C 
BRANCH   9  10
ATOM     10  C   UNL     1    -116.545  33.538  -9.176  1.00  0.00    -0.000 C 
BRANCH  10  11
ATOM     11  C   UNL     1    -116.819  33.905 -10.645  1.00  0.00    -0.000 C 
BRANCH  11  12
ATOM     12  C   UNL     1    -115.564  34.402 -11.379  1.00  0.00    -0.003 C 
ATOM     13  C   UNL     1    -115.814  35.754 -12.040  1.00  0.00     0.004 C 
ENDBRANCH  11  12
ENDBRANCH  10  11
ENDBRANCH   9  10
ENDBRANCH   8   9
ENDBRANCH   1   8
TORSDOF 9
ENDMDL
MODEL 3
REMARK VINA RESULT:    -2.741      2.433      4.500
REMARK INTER + INTRA:          -5.403
REMARK INTER:                  -4.405
REMARK INTRA:                  -0.998
REMARK UNBOUND:                -1.220
REMARK SMILES CCCCCCCCCCC(=O)[O-]
REMARK SMILES IDX 7 1 8 2 9 3 10 4 11 5 12 6 13 7 6 8 5 9 4 10 3 11 2 12 1 13
REMARK H PARENT
REMARK Flexibility Score: inf
ROOT
ATOM      1  C   UNL     1    -115.051  34.894  -7.553  1.00  0.00     0.000 C 
ENDROOT
BRANCH   1   2
ATOM      2  C   UNL     1    -116.448  35.483  -7.297  1.00  0.00     0.000 C 
BRANCH   2   3
ATOM      3  C   UNL     1    -116.509  36.999  -7.559  1.00  0.00     0.006 C 
BRANCH   3   4
ATOM      4  C   UNL     1    -116.673  37.321  -9.049  1.00  0.00     0.053 C 
BRANCH   4   5
ATOM      5  C   UNL     1    -115.431  37.922  -9.630  1.00  0.00     0.041 C 
ATOM      6  O   UNL     1    -114.460  38.216  -8.884  1.00  0.00    -0.550 OA
ATOM      7  O   UNL     1    -115.333  38.131 -11.001  1.00  0.00    -0.550 OA
ENDBRANCH   4   5
ENDBRANCH   3   4
ENDBRANCH   2   3
ENDBRANCH   1   2
BRANCH   1   8
ATOM      8  C   UNL     1    -115.047  33.858  -8.690  1.00  0.00     0.000 C 
BRANCH   8   9
ATOM      9  C   UNL     1    -116.457  33.565  -9.234  1.00  0.00    -0.000 C 
BRANCH   9  10
ATOM     10  C   UNL     1    -116.586  33.585 -10.772  1.00  0.00    -0.000 C 
BRANCH  10  11
ATOM     11  C   UNL     1    -115.718  34.635 -11.487  1.00  0.00    -0.000 C 
BRANCH  11  12
ATOM     12  C   UNL     1    -115.412  34.263 -12.945  1.00  0.00    -0.003 C 
ATOM     13  C   UNL     1    -114.690  32.921 -13.031  1.00  0.00     0.004 C 
ENDBRANCH  11  12
ENDBRANCH  10  11
ENDBRANCH   9  10
ENDBRANCH   8   9
ENDBRANCH   1   8
TORSDOF 9
ENDMDL
MODEL 4
REMARK VINA RESULT:    -2.614      2.765      4.269
REMARK INTER + INTRA:          -5.210
REMARK INTER:                  -3.952
REMARK INTRA:                  -1.258
REMARK UNBOUND:                -1.220
REMARK SMILES CCCCCCCCCCC(=O)[O-]
REMARK SMILES IDX 7 1 8 2 9 3 10 4 11 5 12 6 13 7 6 8 5 9 4 10 3 11 2 12 1 13
REMARK H PARENT
REMARK Flexibility Score: inf
ROOT
ATOM      1  C   UNL     1    -115.834  35.205 -11.856  1.00  0.00     0.000 C 
ENDROOT
BRANCH   1   2
ATOM      2  C   UNL     1    -117.113  35.816 -11.258  1.00  0.00     0.000 C 
BRANCH   2   3
ATOM      3  C   UNL     1    -116.937  37.295 -10.871  1.00  0.00     0.006 C 
BRANCH   3   4
ATOM      4  C   UNL     1    -115.586  37.560 -10.195  1.00  0.00     0.053 C 
BRANCH   4   5
ATOM      5  C   UNL     1    -114.848  38.688 -10.846  1.00  0.00     0.041 C 
ATOM      6  O   UNL     1    -114.865  38.818 -12.098  1.00  0.00    -0.550 OA
ATOM      7  O   UNL     1    -114.164  39.615 -10.068  1.00  0.00    -0.550 OA
ENDBRANCH   4   5
ENDBRANCH   3   4
ENDBRANCH   2   3
ENDBRANCH   1   2
BRANCH   1   8
ATOM      8  C   UNL     1    -115.429  33.891 -11.164  1.00  0.00     0.000 C 
BRANCH   8   9
ATOM      9  C   UNL     1    -115.978  33.779  -9.730  1.00  0.00    -0.000 C 
BRANCH   9  10
ATOM     10  C   UNL     1    -114.920  33.873  -8.611  1.00  0.00    -0.000 C 
BRANCH  10  11
ATOM     11  C   UNL     1    -115.236  34.884  -7.495  1.00  0.00    -0.000 C 
BRANCH  11  12
ATOM     12  C   UNL     1    -116.722  35.270  -7.444  1.00  0.00    -0.003 C 
ATOM     13  C   UNL     1    -116.909  36.659  -6.842  1.00  0.00     0.004 C 
ENDBRANCH  11  12
ENDBRANCH  10  11
ENDBRANCH   9  10
ENDBRANCH   8   9
ENDBRANCH   1   8
TORSDOF 9
ENDMDL
MODEL 5
REMARK VINA RESULT:    -2.554      3.545      5.215
REMARK INTER + INTRA:          -5.118
REMARK INTER:                  -4.193
REMARK INTRA:                  -0.925
REMARK UNBOUND:                -1.220
REMARK SMILES CCCCCCCCCCC(=O)[O-]
REMARK SMILES IDX 7 1 8 2 9 3 10 4 11 5 12 6 13 7 6 8 5 9 4 10 3 11 2 12 1 13
REMARK H PARENT
REMARK Flexibility Score: inf
ROOT
ATOM      1  C   UNL     1    -116.759  36.750  -7.987  1.00  0.00     0.000 C 
ENDROOT
BRANCH   1   2
ATOM      2  C   UNL     1    -115.483  37.469  -8.456  1.00  0.00     0.000 C 
BRANCH   2   3
ATOM      3  C   UNL     1    -115.746  38.448  -9.614  1.00  0.00     0.006 C 
BRANCH   3   4
ATOM      4  C   UNL     1    -114.445  38.955 -10.250  1.00  0.00     0.053 C 
BRANCH   4   5
ATOM      5  C   UNL     1    -114.249  40.422 -10.026  1.00  0.00     0.041 C 
ATOM      6  O   UNL     1    -114.189  40.882  -8.855  1.00  0.00    -0.550 OA
ATOM      7  O   UNL     1    -114.104  41.279 -11.109  1.00  0.00    -0.550 OA
ENDBRANCH   4   5
ENDBRANCH   3   4
ENDBRANCH   2   3
ENDBRANCH   1   2
BRANCH   1   8
ATOM      8  C   UNL     1    -116.459  35.430  -7.256  1.00  0.00     0.000 C 
BRANCH   8   9
ATOM      9  C   UNL     1    -115.053  34.884  -7.566  1.00  0.00    -0.000 C 
BRANCH   9  10
ATOM     10  C   UNL     1    -114.983  33.862  -8.720  1.00  0.00    -0.000 C 
BRANCH  10  11
ATOM     11  C   UNL     1    -116.339  33.491  -9.347  1.00  0.00    -0.000 C 
BRANCH  11  12
ATOM     12  C   UNL     1    -116.353  33.651 -10.874  1.00  0.00    -0.003 C 
ATOM     13  C   UNL     1    -115.877  35.040 -11.286  1.00  0.00     0.004 C 
ENDBRANCH  11  12
ENDBRANCH  10  11
ENDBRANCH   9  10
ENDBRANCH   8   9
ENDBRANCH   1   8
TORSDOF 9
ENDMDL
MODEL 6
REMARK VINA RESULT:    -2.529      1.303      2.170
REMARK INTER + INTRA:          -5.080
REMARK INTER:                  -4.424
REMARK INTRA:                  -0.656
REMARK UNBOUND:                -1.220
REMARK SMILES CCCCCCCCCCC(=O)[O-]
REMARK SMILES IDX 7 1 8 2 9 3 10 4 11 5 12 6 13 7 6 8 5 9 4 10 3 11 2 12 1 13
REMARK H PARENT
REMARK Flexibility Score: inf
ROOT
ATOM      1  C   UNL     1    -116.105  33.879 -10.783  1.00  0.00     0.000 C 
ENDROOT
BRANCH   1   2
ATOM      2  C   UNL     1    -115.682  34.967 -11.785  1.00  0.00     0.000 C 
BRANCH   2   3
ATOM      3  C   UNL     1    -115.305  34.391 -13.161  1.00  0.00     0.006 C 
BRANCH   3   4
ATOM      4  C   UNL     1    -114.652  33.007 -13.050  1.00  0.00     0.053 C 
BRANCH   4   5
ATOM      5  C   UNL     1    -115.347  31.991 -13.903  1.00  0.00     0.041 C 
ATOM      6  O   UNL     1    -115.295  32.076 -15.158  1.00  0.00    -0.550 OA
ATOM      7  O   UNL     1    -116.028  30.934 -13.312  1.00  0.00    -0.550 OA
ENDBRANCH   4   5
ENDBRANCH   3   4
ENDBRANCH   2   3
ENDBRANCH   1   2
BRANCH   1   8
ATOM      8  C   UNL     1    -115.257  33.897  -9.499  1.00  0.00     0.000 C 
BRANCH   8   9
ATOM      9  C   UNL     1    -116.086  34.217  -8.242  1.00  0.00    -0.000 C 
BRANCH   9  10
ATOM     10  C   UNL     1    -115.644  35.475  -7.465  1.00  0.00    -0.000 C 
BRANCH  10  11
ATOM     11  C   UNL     1    -116.721  36.564  -7.317  1.00  0.00    -0.000 C 
BRANCH  11  12
ATOM     12  C   UNL     1    -116.301  37.906  -7.936  1.00  0.00    -0.003 C 
ATOM     13  C   UNL     1    -115.547  37.695  -9.245  1.00  0.00     0.004 C 
ENDBRANCH  11  12
ENDBRANCH  10  11
ENDBRANCH   9  10
ENDBRANCH   8   9
ENDBRANCH   1   8
TORSDOF 9
ENDMDL
MODEL 7
REMARK VINA RESULT:    -2.527      2.606      4.352
REMARK INTER + INTRA:          -5.076
REMARK INTER:                  -4.418
REMARK INTRA:                  -0.658
REMARK UNBOUND:                -1.220
REMARK SMILES CCCCCCCCCCC(=O)[O-]
REMARK SMILES IDX 7 1 8 2 9 3 10 4 11 5 12 6 13 7 6 8 5 9 4 10 3 11 2 12 1 13
REMARK H PARENT
REMARK Flexibility Score: inf
ROOT
ATOM      1  C   UNL     1    -114.737  33.921 -13.755  1.00  0.00     0.000 C 
ENDROOT
BRANCH   1   2
ATOM      2  C   UNL     1    -114.867  32.413 -13.484  1.00  0.00     0.000 C 
BRANCH   2   3
ATOM      3  C   UNL     1    -116.233  31.849 -13.914  1.00  0.00     0.006 C 
BRANCH   3   4
ATOM      4  C   UNL     1    -116.762  30.801 -12.927  1.00  0.00     0.053 C 
BRANCH   4   5
ATOM      5  C   UNL     1    -116.767  29.426 -13.522  1.00  0.00     0.041 C 
ATOM      6  O   UNL     1    -116.929  28.418 -12.786  1.00  0.00    -0.550 OA
ATOM      7  O   UNL     1    -116.621  29.260 -14.893  1.00  0.00    -0.550 OA
ENDBRANCH   4   5
ENDBRANCH   3   4
ENDBRANCH   2   3
ENDBRANCH   1   2
BRANCH   1   8
ATOM      8  C   UNL     1    -115.941  34.721 -13.226  1.00  0.00     0.000 C 
BRANCH   8   9
ATOM      9  C   UNL     1    -115.842  35.021 -11.720  1.00  0.00    -0.000 C 
BRANCH   9  10
ATOM     10  C   UNL     1    -116.754  34.164 -10.817  1.00  0.00    -0.000 C 
BRANCH  10  11
ATOM     11  C   UNL     1    -116.605  34.418  -9.307  1.00  0.00    -0.000 C 
BRANCH  11  12
ATOM     12  C   UNL     1    -115.266  33.917  -8.747  1.00  0.00    -0.003 C 
ATOM     13  C   UNL     1    -114.826  34.748  -7.546  1.00  0.00     0.004 C 
ENDBRANCH  11  12
ENDBRANCH  10  11
ENDBRANCH   9  10
ENDBRANCH   8   9
ENDBRANCH   1   8
TORSDOF 9
ENDMDL
MODEL 8
REMARK VINA RESULT:    -2.470      2.182      2.563
REMARK INTER + INTRA:          -4.989
REMARK INTER:                  -4.071
REMARK INTRA:                  -0.918
REMARK UNBOUND:                -1.220
REMARK SMILES CCCCCCCCCCC(=O)[O-]
REMARK SMILES IDX 7 1 8 2 9 3 10 4 11 5 12 6 13 7 6 8 5 9 4 10 3 11 2 12 1 13
REMARK H PARENT
REMARK Flexibility Score: inf
ROOT
ATOM      1  C   UNL     1    -116.171  33.926  -9.663  1.00  0.00     0.000 C 
ENDROOT
BRANCH   1   2
ATOM      2  C   UNL     1    -115.695  34.064 -11.119  1.00  0.00     0.000 C 
BRANCH   2   3
ATOM      3  C   UNL     1    -116.009  35.446 -11.717  1.00  0.00     0.006 C 
BRANCH   3   4
ATOM      4  C   UNL     1    -115.311  35.666 -13.065  1.00  0.00     0.053 C 
BRANCH   4   5
ATOM      5  C   UNL     1    -114.907  37.095 -13.258  1.00  0.00     0.041 C 
ATOM      6  O   UNL     1    -113.789  37.374 -13.765  1.00  0.00    -0.550 OA
ATOM      7  O   UNL     1    -115.776  38.119 -12.904  1.00  0.00    -0.550 OA
ENDBRANCH   4   5
ENDBRANCH   3   4
ENDBRANCH   2   3
ENDBRANCH   1   2
BRANCH   1   8
ATOM      8  C   UNL     1    -115.003  33.799  -8.670  1.00  0.00     0.000 C 
BRANCH   8   9
ATOM      9  C   UNL     1    -115.049  34.862  -7.557  1.00  0.00    -0.000 C 
BRANCH   9  10
ATOM     10  C   UNL     1    -116.455  35.396  -7.215  1.00  0.00    -0.000 C 
BRANCH  10  11
ATOM     11  C   UNL     1    -116.633  36.917  -7.370  1.00  0.00    -0.000 C 
BRANCH  11  12
ATOM     12  C   UNL     1    -115.808  37.498  -8.528  1.00  0.00    -0.003 C 
ATOM     13  C   UNL     1    -116.687  38.304  -9.479  1.00  0.00     0.004 C 
ENDBRANCH  11  12
ENDBRANCH  10  11
ENDBRANCH   9  10
ENDBRANCH   8   9
ENDBRANCH   1   8
TORSDOF 9
ENDMDL
MODEL 9
REMARK VINA RESULT:    -2.469      3.436      5.189
REMARK INTER + INTRA:          -4.988
REMARK INTER:                  -3.977
REMARK INTRA:                  -1.012
REMARK UNBOUND:                -1.220
REMARK SMILES CCCCCCCCCCC(=O)[O-]
REMARK SMILES IDX 7 1 8 2 9 3 10 4 11 5 12 6 13 7 6 8 5 9 4 10 3 11 2 12 1 13
REMARK H PARENT
REMARK Flexibility Score: inf
ROOT
ATOM      1  C   UNL     1    -116.749  36.241 -11.815  1.00  0.00     0.000 C 
ENDROOT
BRANCH   1   2
ATOM      2  C   UNL     1    -116.870  37.263 -10.673  1.00  0.00     0.000 C 
BRANCH   2   3
ATOM      3  C   UNL     1    -115.510  37.612 -10.042  1.00  0.00     0.006 C 
BRANCH   3   4
ATOM      4  C   UNL     1    -114.815  38.769 -10.770  1.00  0.00     0.053 C 
BRANCH   4   5
ATOM      5  C   UNL     1    -114.416  39.862  -9.827  1.00  0.00     0.041 C 
ATOM      6  O   UNL     1    -113.931  40.936 -10.270  1.00  0.00    -0.550 OA
ATOM      7  O   UNL     1    -114.608  39.707  -8.459  1.00  0.00    -0.550 OA
ENDBRANCH   4   5
ENDBRANCH   3   4
ENDBRANCH   2   3
ENDBRANCH   1   2
BRANCH   1   8
ATOM      8  C   UNL     1    -115.693  35.159 -11.529  1.00  0.00     0.000 C 
BRANCH   8   9
ATOM      9  C   UNL     1    -116.303  33.870 -10.948  1.00  0.00    -0.000 C 
BRANCH   9  10
ATOM     10  C   UNL     1    -116.419  33.833  -9.410  1.00  0.00    -0.000 C 
BRANCH  10  11
ATOM     11  C   UNL     1    -115.080  33.803  -8.653  1.00  0.00    -0.000 C 
BRANCH  11  12
ATOM     12  C   UNL     1    -114.979  34.893  -7.576  1.00  0.00    -0.003 C 
ATOM     13  C   UNL     1    -116.359  35.424  -7.200  1.00  0.00     0.004 C 
ENDBRANCH  11  12
ENDBRANCH  10  11
ENDBRANCH   9  10
ENDBRANCH   8   9
ENDBRANCH   1   8
TORSDOF 9
ENDMDL
