MODEL 1
REMARK VINA RESULT:    -7.042      0.000      0.000
REMARK INTER + INTRA:          -8.343
REMARK INTER:                  -8.071
REMARK INTRA:                  -0.272
REMARK UNBOUND:                -0.272
REMARK SMILES CC1(C)CC[C@]23CO[C@@]4(C=C[C@H]5[C@]6(C)CC[C@H](O)[C@](C)(CO)[C@@H]6CC[C@]5(C)[C@@]4(C)C[C@H]2O)[C@@H]3C1
REMARK SMILES IDX 1 1 2 2 4 3 5 4 6 5 7 6 8 7 9 8 33 9 34 10 10 11 11 12 12 13
REMARK SMILES IDX 13 14 15 15 16 16 17 17 19 18 23 19 24 20 25 21 26 22 28 23
REMARK SMILES IDX 30 24 31 25 29 26 27 27 20 28 14 29 3 30 32 31 21 33 22 34
REMARK SMILES IDX 18 36
REMARK H PARENT 32 32 22 35 18 37
REMARK Flexibility Score: inf
ROOT
ATOM      1  C   UNL     1      21.854  28.767  38.663  1.00  0.00     0.011 C 
ATOM      2  C   UNL     1      21.201  29.107  37.300  1.00  0.00    -0.035 C 
ATOM      3  C   UNL     1      19.673  29.367  37.504  1.00  0.00     0.007 C 
ATOM      4  C   UNL     1      19.315  30.776  38.041  1.00  0.00     0.013 C 
ATOM      5  C   UNL     1      20.073  31.926  37.321  1.00  0.00     0.026 C 
ATOM      6  C   UNL     1      20.116  33.221  38.154  1.00  0.00     0.171 C 
ATOM      7  O   UNL     1      21.342  33.876  37.875  1.00  0.00    -0.369 OA
ATOM      8  C   UNL     1      22.088  33.050  36.984  1.00  0.00     0.096 C 
ATOM      9  C   UNL     1      21.550  31.643  37.330  1.00  0.00     0.037 C 
ATOM     10  C   UNL     1      21.916  30.324  36.626  1.00  0.00     0.014 C 
ATOM     11  C   UNL     1      23.541  33.190  37.409  1.00  0.00     0.005 C 
ATOM     12  C   UNL     1      24.502  33.773  36.675  1.00  0.00    -0.024 C 
ATOM     13  C   UNL     1      24.278  34.258  35.252  1.00  0.00     0.024 C 
ATOM     14  C   UNL     1      25.625  34.482  34.412  1.00  0.00    -0.022 C 
ATOM     15  C   UNL     1      26.276  35.790  34.988  1.00  0.00     0.010 C 
ATOM     16  C   UNL     1      27.421  36.367  34.161  1.00  0.00     0.033 C 
ATOM     17  C   UNL     1      26.993  36.669  32.722  1.00  0.00     0.123 C 
ATOM     18  C   UNL     1      26.403  35.417  31.990  1.00  0.00     0.020 C 
ATOM     19  C   UNL     1      25.299  34.652  32.859  1.00  0.00     0.006 C 
ATOM     20  C   UNL     1      23.828  35.115  32.664  1.00  0.00     0.005 C 
ATOM     21  C   UNL     1      22.867  33.996  33.099  1.00  0.00     0.008 C 
ATOM     22  C   UNL     1      23.134  33.438  34.551  1.00  0.00    -0.017 C 
ATOM     23  C   UNL     1      21.808  33.546  35.480  1.00  0.00     0.009 C 
ATOM     24  C   UNL     1      20.596  32.765  34.854  1.00  0.00     0.043 C 
ATOM     25  C   UNL     1      19.518  32.276  35.874  1.00  0.00     0.124 C 
ATOM     26  C   UNL     1      21.333  35.052  35.555  1.00  0.00     0.015 C 
ATOM     27  C   UNL     1      23.644  31.971  34.383  1.00  0.00     0.013 C 
ATOM     28  C   UNL     1      27.583  34.446  31.678  1.00  0.00     0.017 C 
ATOM     29  C   UNL     1      26.622  33.283  34.617  1.00  0.00     0.012 C 
ATOM     30  C   UNL     1      21.375  27.878  36.383  1.00  0.00     0.011 C 
ENDROOT
BRANCH  25  31
ATOM     31  O   UNL     1      18.743  31.239  35.322  1.00  0.00    -0.392 OA
ATOM     32  H   UNL     1      17.827  31.292  35.701  1.00  0.00     0.210 HD
ENDBRANCH  25  31
BRANCH  18  33
ATOM     33  C   UNL     1      25.867  35.874  30.598  1.00  0.00     0.165 C 
BRANCH  33  34
ATOM     34  O   UNL     1      26.696  36.860  30.042  1.00  0.00    -0.396 OA
ATOM     35  H   UNL     1      27.352  37.102  30.748  1.00  0.00     0.210 HD
ENDBRANCH  33  34
ENDBRANCH  18  33
BRANCH  17  36
ATOM     36  O   UNL     1      26.141  37.790  32.684  1.00  0.00    -0.392 OA
ATOM     37  H   UNL     1      25.700  37.821  31.802  1.00  0.00     0.210 HD
ENDBRANCH  17  36
TORSDOF 4
ENDMDL
MODEL 2
REMARK VINA RESULT:    -6.780      3.897      6.664
REMARK INTER + INTRA:          -8.043
REMARK INTER:                  -7.770
REMARK INTRA:                  -0.274
REMARK UNBOUND:                -0.272
REMARK SMILES CC1(C)CC[C@]23CO[C@@]4(C=C[C@H]5[C@]6(C)CC[C@H](O)[C@](C)(CO)[C@@H]6CC[C@]5(C)[C@@]4(C)C[C@H]2O)[C@@H]3C1
REMARK SMILES IDX 1 1 2 2 4 3 5 4 6 5 7 6 8 7 9 8 33 9 34 10 10 11 11 12 12 13
REMARK SMILES IDX 13 14 15 15 16 16 17 17 19 18 23 19 24 20 25 21 26 22 28 23
REMARK SMILES IDX 30 24 31 25 29 26 27 27 20 28 14 29 3 30 32 31 21 33 22 34
REMARK SMILES IDX 18 36
REMARK H PARENT 32 32 22 35 18 37
REMARK Flexibility Score: inf
ROOT
ATOM      1  C   UNL     1      18.374  38.510  39.074  1.00  0.00     0.011 C 
ATOM      2  C   UNL     1      17.880  37.098  39.479  1.00  0.00    -0.035 C 
ATOM      3  C   UNL     1      16.477  36.834  38.843  1.00  0.00     0.007 C 
ATOM      4  C   UNL     1      16.502  36.412  37.351  1.00  0.00     0.013 C 
ATOM      5  C   UNL     1      17.568  35.327  37.033  1.00  0.00     0.026 C 
ATOM      6  C   UNL     1      17.939  35.282  35.538  1.00  0.00     0.171 C 
ATOM      7  O   UNL     1      19.306  34.917  35.441  1.00  0.00    -0.369 OA
ATOM      8  C   UNL     1      19.823  34.798  36.764  1.00  0.00     0.096 C 
ATOM      9  C   UNL     1      18.910  35.767  37.550  1.00  0.00     0.037 C 
ATOM     10  C   UNL     1      18.921  36.005  39.070  1.00  0.00     0.014 C 
ATOM     11  C   UNL     1      21.246  35.333  36.701  1.00  0.00     0.005 C 
ATOM     12  C   UNL     1      22.351  34.590  36.874  1.00  0.00    -0.024 C 
ATOM     13  C   UNL     1      22.312  33.129  37.287  1.00  0.00     0.024 C 
ATOM     14  C   UNL     1      23.693  32.575  37.882  1.00  0.00    -0.022 C 
ATOM     15  C   UNL     1      24.660  32.427  36.654  1.00  0.00     0.010 C 
ATOM     16  C   UNL     1      25.944  31.648  36.925  1.00  0.00     0.033 C 
ATOM     17  C   UNL     1      25.659  30.238  37.449  1.00  0.00     0.123 C 
ATOM     18  C   UNL     1      24.771  30.239  38.738  1.00  0.00     0.020 C 
ATOM     19  C   UNL     1      23.474  31.165  38.598  1.00  0.00     0.006 C 
ATOM     20  C   UNL     1      22.193  30.475  38.051  1.00  0.00     0.005 C 
ATOM     21  C   UNL     1      20.948  31.276  38.472  1.00  0.00     0.008 C 
ATOM     22  C   UNL     1      21.009  32.810  38.108  1.00  0.00    -0.017 C 
ATOM     23  C   UNL     1      19.736  33.254  37.205  1.00  0.00     0.009 C 
ATOM     24  C   UNL     1      18.376  32.962  37.937  1.00  0.00     0.043 C 
ATOM     25  C   UNL     1      17.174  33.860  37.498  1.00  0.00     0.124 C 
ATOM     26  C   UNL     1      19.689  32.384  35.886  1.00  0.00     0.015 C 
ATOM     27  C   UNL     1      21.102  33.590  39.458  1.00  0.00     0.013 C 
ATOM     28  C   UNL     1      25.648  30.750  39.922  1.00  0.00     0.017 C 
ATOM     29  C   UNL     1      24.317  33.597  38.903  1.00  0.00     0.012 C 
ATOM     30  C   UNL     1      17.738  37.078  41.016  1.00  0.00     0.011 C 
ENDROOT
BRANCH  25  31
ATOM     31  O   UNL     1      16.162  33.852  38.475  1.00  0.00    -0.392 OA
ATOM     32  H   UNL     1      16.481  33.335  39.259  1.00  0.00     0.210 HD
ENDBRANCH  25  31
BRANCH  18  33
ATOM     33  C   UNL     1      24.423  28.760  39.092  1.00  0.00     0.165 C 
BRANCH  33  34
ATOM     34  O   UNL     1      25.516  27.916  38.843  1.00  0.00    -0.396 OA
ATOM     35  H   UNL     1      26.299  28.338  39.286  1.00  0.00     0.210 HD
ENDBRANCH  33  34
ENDBRANCH  18  33
BRANCH  17  36
ATOM     36  O   UNL     1      25.148  29.422  36.420  1.00  0.00    -0.392 OA
ATOM     37  H   UNL     1      25.906  29.009  35.941  1.00  0.00     0.210 HD
ENDBRANCH  17  36
TORSDOF 4
ENDMDL
MODEL 3
REMARK VINA RESULT:    -6.663      3.976      5.979
REMARK INTER + INTRA:          -7.909
REMARK INTER:                  -7.651
REMARK INTRA:                  -0.258
REMARK UNBOUND:                -0.272
REMARK SMILES CC1(C)CC[C@]23CO[C@@]4(C=C[C@H]5[C@]6(C)CC[C@H](O)[C@](C)(CO)[C@@H]6CC[C@]5(C)[C@@]4(C)C[C@H]2O)[C@@H]3C1
REMARK SMILES IDX 1 1 2 2 4 3 5 4 6 5 7 6 8 7 9 8 33 9 34 10 10 11 11 12 12 13
REMARK SMILES IDX 13 14 15 15 16 16 17 17 19 18 23 19 24 20 25 21 26 22 28 23
REMARK SMILES IDX 30 24 31 25 29 26 27 27 20 28 14 29 3 30 32 31 21 33 22 34
REMARK SMILES IDX 18 36
REMARK H PARENT 32 32 22 35 18 37
REMARK Flexibility Score: inf
ROOT
ATOM      1  C   UNL     1      25.856  31.066  40.034  1.00  0.00     0.011 C 
ATOM      2  C   UNL     1      25.676  30.891  38.505  1.00  0.00    -0.035 C 
ATOM      3  C   UNL     1      25.651  29.367  38.153  1.00  0.00     0.007 C 
ATOM      4  C   UNL     1      24.296  28.659  38.407  1.00  0.00     0.013 C 
ATOM      5  C   UNL     1      23.070  29.460  37.886  1.00  0.00     0.026 C 
ATOM      6  C   UNL     1      21.754  29.035  38.563  1.00  0.00     0.171 C 
ATOM      7  O   UNL     1      20.925  30.182  38.658  1.00  0.00    -0.369 OA
ATOM      8  C   UNL     1      21.658  31.296  38.153  1.00  0.00     0.096 C 
ATOM      9  C   UNL     1      23.117  30.864  38.422  1.00  0.00     0.037 C 
ATOM     10  C   UNL     1      24.389  31.626  38.006  1.00  0.00     0.014 C 
ATOM     11  C   UNL     1      21.275  32.476  39.032  1.00  0.00     0.005 C 
ATOM     12  C   UNL     1      20.577  33.546  38.618  1.00  0.00    -0.024 C 
ATOM     13  C   UNL     1      20.189  33.770  37.166  1.00  0.00     0.024 C 
ATOM     14  C   UNL     1      19.788  35.282  36.817  1.00  0.00    -0.022 C 
ATOM     15  C   UNL     1      18.373  35.510  37.459  1.00  0.00     0.010 C 
ATOM     16  C   UNL     1      17.656  36.784  37.020  1.00  0.00     0.033 C 
ATOM     17  C   UNL     1      17.481  36.850  35.501  1.00  0.00     0.123 C 
ATOM     18  C   UNL     1      18.837  36.725  34.729  1.00  0.00     0.020 C 
ATOM     19  C   UNL     1      19.732  35.501  35.237  1.00  0.00     0.006 C 
ATOM     20  C   UNL     1      19.513  34.143  34.512  1.00  0.00     0.005 C 
ATOM     21  C   UNL     1      20.751  33.249  34.694  1.00  0.00     0.008 C 
ATOM     22  C   UNL     1      21.204  33.064  36.195  1.00  0.00    -0.017 C 
ATOM     23  C   UNL     1      21.270  31.495  36.604  1.00  0.00     0.009 C 
ATOM     24  C   UNL     1      22.255  30.695  35.678  1.00  0.00     0.043 C 
ATOM     25  C   UNL     1      22.868  29.404  36.311  1.00  0.00     0.124 C 
ATOM     26  C   UNL     1      19.855  30.827  36.378  1.00  0.00     0.015 C 
ATOM     27  C   UNL     1      22.578  33.792  36.344  1.00  0.00     0.013 C 
ATOM     28  C   UNL     1      19.622  38.058  34.925  1.00  0.00     0.017 C 
ATOM     29  C   UNL     1      20.807  36.296  37.456  1.00  0.00     0.012 C 
ATOM     30  C   UNL     1      26.897  31.537  37.816  1.00  0.00     0.011 C 
ENDROOT
BRANCH  25  31
ATOM     31  O   UNL     1      24.033  29.016  35.625  1.00  0.00    -0.392 OA
ATOM     32  H   UNL     1      24.635  29.802  35.552  1.00  0.00     0.210 HD
ENDBRANCH  25  31
BRANCH  18  33
ATOM     33  C   UNL     1      18.524  36.654  33.202  1.00  0.00     0.165 C 
BRANCH  33  34
ATOM     34  O   UNL     1      17.624  37.664  32.828  1.00  0.00    -0.396 OA
ATOM     35  H   UNL     1      16.881  37.210  32.349  1.00  0.00     0.210 HD
ENDBRANCH  33  34
ENDBRANCH  18  33
BRANCH  17  36
ATOM     36  O   UNL     1      16.509  35.922  35.075  1.00  0.00    -0.392 OA
ATOM     37  H   UNL     1      15.941  36.353  34.392  1.00  0.00     0.210 HD
ENDBRANCH  17  36
TORSDOF 4
ENDMDL
MODEL 4
REMARK VINA RESULT:    -6.579      3.472      5.483
REMARK INTER + INTRA:          -7.813
REMARK INTER:                  -7.540
REMARK INTRA:                  -0.273
REMARK UNBOUND:                -0.272
REMARK SMILES CC1(C)CC[C@]23CO[C@@]4(C=C[C@H]5[C@]6(C)CC[C@H](O)[C@](C)(CO)[C@@H]6CC[C@]5(C)[C@@]4(C)C[C@H]2O)[C@@H]3C1
REMARK SMILES IDX 1 1 2 2 4 3 5 4 6 5 7 6 8 7 9 8 33 9 34 10 10 11 11 12 12 13
REMARK SMILES IDX 13 14 15 15 16 16 17 17 19 18 23 19 24 20 25 21 26 22 28 23
REMARK SMILES IDX 30 24 31 25 29 26 27 27 20 28 14 29 3 30 32 31 21 33 22 34
REMARK SMILES IDX 18 36
REMARK H PARENT 32 32 22 35 18 37
REMARK Flexibility Score: inf
ROOT
ATOM      1  C   UNL     1      18.570  30.043  35.299  1.00  0.00     0.011 C 
ATOM      2  C   UNL     1      19.083  29.913  36.756  1.00  0.00    -0.035 C 
ATOM      3  C   UNL     1      19.645  28.472  36.984  1.00  0.00     0.007 C 
ATOM      4  C   UNL     1      21.078  28.234  36.445  1.00  0.00     0.013 C 
ATOM      5  C   UNL     1      22.071  29.377  36.800  1.00  0.00     0.026 C 
ATOM      6  C   UNL     1      23.300  29.402  35.872  1.00  0.00     0.171 C 
ATOM      7  O   UNL     1      23.699  30.754  35.717  1.00  0.00    -0.369 OA
ATOM      8  C   UNL     1      22.768  31.570  36.424  1.00  0.00     0.096 C 
ATOM      9  C   UNL     1      21.491  30.700  36.385  1.00  0.00     0.037 C 
ATOM     10  C   UNL     1      20.149  31.012  37.073  1.00  0.00     0.014 C 
ATOM     11  C   UNL     1      22.592  32.823  35.581  1.00  0.00     0.005 C 
ATOM     12  C   UNL     1      22.990  34.053  35.944  1.00  0.00    -0.024 C 
ATOM     13  C   UNL     1      23.559  34.368  37.317  1.00  0.00     0.024 C 
ATOM     14  C   UNL     1      23.530  35.924  37.701  1.00  0.00    -0.022 C 
ATOM     15  C   UNL     1      24.655  36.599  36.839  1.00  0.00     0.010 C 
ATOM     16  C   UNL     1      25.012  38.029  37.237  1.00  0.00     0.033 C 
ATOM     17  C   UNL     1      25.444  38.125  38.703  1.00  0.00     0.123 C 
ATOM     18  C   UNL     1      24.367  37.565  39.690  1.00  0.00     0.020 C 
ATOM     19  C   UNL     1      23.815  36.126  39.258  1.00  0.00     0.006 C 
ATOM     20  C   UNL     1      24.577  34.898  39.831  1.00  0.00     0.005 C 
ATOM     21  C   UNL     1      23.666  33.660  39.804  1.00  0.00     0.008 C 
ATOM     22  C   UNL     1      23.016  33.362  38.397  1.00  0.00    -0.017 C 
ATOM     23  C   UNL     1      23.362  31.860  37.891  1.00  0.00     0.009 C 
ATOM     24  C   UNL     1      22.868  30.774  38.914  1.00  0.00     0.043 C 
ATOM     25  C   UNL     1      22.577  29.365  38.306  1.00  0.00     0.124 C 
ATOM     26  C   UNL     1      24.930  31.673  37.815  1.00  0.00     0.015 C 
ATOM     27  C   UNL     1      21.482  33.617  38.546  1.00  0.00     0.013 C 
ATOM     28  C   UNL     1      23.185  38.582  39.733  1.00  0.00     0.017 C 
ATOM     29  C   UNL     1      22.145  36.571  37.327  1.00  0.00     0.012 C 
ATOM     30  C   UNL     1      17.876  30.127  37.694  1.00  0.00     0.011 C 
ENDROOT
BRANCH  25  31
ATOM     31  O   UNL     1      21.741  28.617  39.156  1.00  0.00    -0.392 OA
ATOM     32  H   UNL     1      21.867  28.937  40.086  1.00  0.00     0.210 HD
ENDBRANCH  25  31
BRANCH  18  33
ATOM     33  C   UNL     1      24.971  37.575  41.129  1.00  0.00     0.165 C 
BRANCH  33  34
ATOM     34  O   UNL     1      25.653  38.775  41.376  1.00  0.00    -0.396 OA
ATOM     35  H   UNL     1      25.670  38.886  42.363  1.00  0.00     0.210 HD
ENDBRANCH  33  34
ENDBRANCH  18  33
BRANCH  17  36
ATOM     36  O   UNL     1      26.718  37.548  38.882  1.00  0.00    -0.392 OA
ATOM     37  H   UNL     1      26.737  37.092  39.756  1.00  0.00     0.210 HD
ENDBRANCH  17  36
TORSDOF 4
ENDMDL
MODEL 5
REMARK VINA RESULT:    -6.550      3.649      5.443
REMARK INTER + INTRA:          -7.780
REMARK INTER:                  -7.505
REMARK INTRA:                  -0.275
REMARK UNBOUND:                -0.272
REMARK SMILES CC1(C)CC[C@]23CO[C@@]4(C=C[C@H]5[C@]6(C)CC[C@H](O)[C@](C)(CO)[C@@H]6CC[C@]5(C)[C@@]4(C)C[C@H]2O)[C@@H]3C1
REMARK SMILES IDX 1 1 2 2 4 3 5 4 6 5 7 6 8 7 9 8 33 9 34 10 10 11 11 12 12 13
REMARK SMILES IDX 13 14 15 15 16 16 17 17 19 18 23 19 24 20 25 21 26 22 28 23
REMARK SMILES IDX 30 24 31 25 29 26 27 27 20 28 14 29 3 30 32 31 21 33 22 34
REMARK SMILES IDX 18 36
REMARK H PARENT 32 32 22 35 18 37
REMARK Flexibility Score: inf
ROOT
ATOM      1  C   UNL     1      22.142  28.045  40.067  1.00  0.00     0.011 C 
ATOM      2  C   UNL     1      23.171  28.588  39.043  1.00  0.00    -0.035 C 
ATOM      3  C   UNL     1      22.915  27.931  37.648  1.00  0.00     0.007 C 
ATOM      4  C   UNL     1      21.754  28.558  36.832  1.00  0.00     0.013 C 
ATOM      5  C   UNL     1      21.775  30.112  36.820  1.00  0.00     0.026 C 
ATOM      6  C   UNL     1      20.403  30.719  36.469  1.00  0.00     0.171 C 
ATOM      7  O   UNL     1      20.274  31.939  37.180  1.00  0.00    -0.369 OA
ATOM      8  C   UNL     1      21.434  32.097  37.994  1.00  0.00     0.096 C 
ATOM      9  C   UNL     1      21.859  30.630  38.228  1.00  0.00     0.037 C 
ATOM     10  C   UNL     1      23.118  30.150  38.972  1.00  0.00     0.014 C 
ATOM     11  C   UNL     1      20.948  32.730  39.288  1.00  0.00     0.005 C 
ATOM     12  C   UNL     1      21.258  33.971  39.698  1.00  0.00    -0.024 C 
ATOM     13  C   UNL     1      22.250  34.860  38.969  1.00  0.00     0.024 C 
ATOM     14  C   UNL     1      22.819  36.073  39.850  1.00  0.00    -0.022 C 
ATOM     15  C   UNL     1      21.643  37.107  39.965  1.00  0.00     0.010 C 
ATOM     16  C   UNL     1      22.030  38.477  40.517  1.00  0.00     0.033 C 
ATOM     17  C   UNL     1      23.136  39.137  39.688  1.00  0.00     0.123 C 
ATOM     18  C   UNL     1      24.416  38.245  39.567  1.00  0.00     0.020 C 
ATOM     19  C   UNL     1      24.086  36.738  39.143  1.00  0.00     0.006 C 
ATOM     20  C   UNL     1      24.071  36.440  37.618  1.00  0.00     0.005 C 
ATOM     21  C   UNL     1      24.289  34.937  37.377  1.00  0.00     0.008 C 
ATOM     22  C   UNL     1      23.306  34.001  38.183  1.00  0.00    -0.017 C 
ATOM     23  C   UNL     1      22.494  33.005  37.193  1.00  0.00     0.009 C 
ATOM     24  C   UNL     1      23.466  32.106  36.347  1.00  0.00     0.043 C 
ATOM     25  C   UNL     1      22.867  30.748  35.857  1.00  0.00     0.124 C 
ATOM     26  C   UNL     1      21.687  33.853  36.130  1.00  0.00     0.015 C 
ATOM     27  C   UNL     1      24.172  33.240  39.238  1.00  0.00     0.013 C 
ATOM     28  C   UNL     1      25.134  38.249  40.951  1.00  0.00     0.017 C 
ATOM     29  C   UNL     1      23.211  35.585  41.293  1.00  0.00     0.012 C 
ATOM     30  C   UNL     1      24.576  28.175  39.533  1.00  0.00     0.011 C 
ENDROOT
BRANCH  25  31
ATOM     31  O   UNL     1      23.890  29.843  35.520  1.00  0.00    -0.392 OA
ATOM     32  H   UNL     1      24.580  29.865  36.232  1.00  0.00     0.210 HD
ENDBRANCH  25  31
BRANCH  18  33
ATOM     33  C   UNL     1      25.408  38.946  38.586  1.00  0.00     0.165 C 
BRANCH  33  34
ATOM     34  O   UNL     1      25.449  40.328  38.821  1.00  0.00    -0.396 OA
ATOM     35  H   UNL     1      24.817  40.502  39.567  1.00  0.00     0.210 HD
ENDBRANCH  33  34
ENDBRANCH  18  33
BRANCH  17  36
ATOM     36  O   UNL     1      22.633  39.563  38.443  1.00  0.00    -0.392 OA
ATOM     37  H   UNL     1      23.017  38.992  37.736  1.00  0.00     0.210 HD
ENDBRANCH  17  36
TORSDOF 4
ENDMDL
MODEL 6
REMARK VINA RESULT:    -6.386      3.941      8.354
REMARK INTER + INTRA:          -7.591
REMARK INTER:                  -7.326
REMARK INTRA:                  -0.265
REMARK UNBOUND:                -0.272
REMARK SMILES CC1(C)CC[C@]23CO[C@@]4(C=C[C@H]5[C@]6(C)CC[C@H](O)[C@](C)(CO)[C@@H]6CC[C@]5(C)[C@@]4(C)C[C@H]2O)[C@@H]3C1
REMARK SMILES IDX 1 1 2 2 4 3 5 4 6 5 7 6 8 7 9 8 33 9 34 10 10 11 11 12 12 13
REMARK SMILES IDX 13 14 15 15 16 16 17 17 19 18 23 19 24 20 25 21 26 22 28 23
REMARK SMILES IDX 30 24 31 25 29 26 27 27 20 28 14 29 3 30 32 31 21 33 22 34
REMARK SMILES IDX 18 36
REMARK H PARENT 32 32 22 35 18 37
REMARK Flexibility Score: inf
ROOT
ATOM      1  C   UNL     1      24.535  35.334  33.800  1.00  0.00     0.011 C 
ATOM      2  C   UNL     1      23.015  35.282  33.500  1.00  0.00    -0.035 C 
ATOM      3  C   UNL     1      22.673  33.942  32.771  1.00  0.00     0.007 C 
ATOM      4  C   UNL     1      22.544  32.706  33.699  1.00  0.00     0.013 C 
ATOM      5  C   UNL     1      21.705  32.977  34.979  1.00  0.00     0.026 C 
ATOM      6  C   UNL     1      21.994  31.963  36.102  1.00  0.00     0.171 C 
ATOM      7  O   UNL     1      21.856  32.638  37.342  1.00  0.00    -0.369 OA
ATOM      8  C   UNL     1      21.570  34.007  37.066  1.00  0.00     0.096 C 
ATOM      9  C   UNL     1      22.231  34.197  35.682  1.00  0.00     0.037 C 
ATOM     10  C   UNL     1      22.181  35.465  34.810  1.00  0.00     0.014 C 
ATOM     11  C   UNL     1      22.309  34.806  38.129  1.00  0.00     0.005 C 
ATOM     12  C   UNL     1      21.717  35.525  39.096  1.00  0.00    -0.024 C 
ATOM     13  C   UNL     1      20.214  35.737  39.169  1.00  0.00     0.024 C 
ATOM     14  C   UNL     1      19.766  36.973  40.087  1.00  0.00    -0.022 C 
ATOM     15  C   UNL     1      19.994  36.510  41.570  1.00  0.00     0.010 C 
ATOM     16  C   UNL     1      19.373  37.409  42.636  1.00  0.00     0.033 C 
ATOM     17  C   UNL     1      17.864  37.574  42.438  1.00  0.00     0.123 C 
ATOM     18  C   UNL     1      17.495  38.122  41.019  1.00  0.00     0.020 C 
ATOM     19  C   UNL     1      18.231  37.333  39.838  1.00  0.00     0.006 C 
ATOM     20  C   UNL     1      17.476  36.105  39.257  1.00  0.00     0.005 C 
ATOM     21  C   UNL     1      17.994  35.796  37.841  1.00  0.00     0.008 C 
ATOM     22  C   UNL     1      19.561  35.641  37.742  1.00  0.00    -0.017 C 
ATOM     23  C   UNL     1      19.975  34.208  37.104  1.00  0.00     0.009 C 
ATOM     24  C   UNL     1      19.357  34.009  35.673  1.00  0.00     0.043 C 
ATOM     25  C   UNL     1      20.135  33.029  34.739  1.00  0.00     0.124 C 
ATOM     26  C   UNL     1      19.368  33.041  37.981  1.00  0.00     0.015 C 
ATOM     27  C   UNL     1      20.081  36.854  36.906  1.00  0.00     0.013 C 
ATOM     28  C   UNL     1      17.899  39.627  40.968  1.00  0.00     0.017 C 
ATOM     29  C   UNL     1      20.660  38.237  39.804  1.00  0.00     0.012 C 
ATOM     30  C   UNL     1      22.689  36.457  32.553  1.00  0.00     0.011 C 
ENDROOT
BRANCH  25  31
ATOM     31  O   UNL     1      19.797  33.249  33.391  1.00  0.00    -0.392 OA
ATOM     32  H   UNL     1      20.181  32.515  32.843  1.00  0.00     0.210 HD
ENDBRANCH  25  31
BRANCH  18  33
ATOM     33  C   UNL     1      15.941  38.107  40.880  1.00  0.00     0.165 C 
BRANCH  33  34
ATOM     34  O   UNL     1      15.326  38.354  42.116  1.00  0.00    -0.396 OA
ATOM     35  H   UNL     1      15.251  37.474  42.570  1.00  0.00     0.210 HD
ENDBRANCH  33  34
ENDBRANCH  18  33
BRANCH  17  36
ATOM     36  O   UNL     1      17.188  36.384  42.770  1.00  0.00    -0.392 OA
ATOM     37  H   UNL     1      16.697  36.525  43.614  1.00  0.00     0.210 HD
ENDBRANCH  17  36
TORSDOF 4
ENDMDL
MODEL 7
REMARK VINA RESULT:    -6.308      1.915      7.999
REMARK INTER + INTRA:          -7.502
REMARK INTER:                  -7.442
REMARK INTRA:                  -0.060
REMARK UNBOUND:                -0.272
REMARK SMILES CC1(C)CC[C@]23CO[C@@]4(C=C[C@H]5[C@]6(C)CC[C@H](O)[C@](C)(CO)[C@@H]6CC[C@]5(C)[C@@]4(C)C[C@H]2O)[C@@H]3C1
REMARK SMILES IDX 1 1 2 2 4 3 5 4 6 5 7 6 8 7 9 8 33 9 34 10 10 11 11 12 12 13
REMARK SMILES IDX 13 14 15 15 16 16 17 17 19 18 23 19 24 20 25 21 26 22 28 23
REMARK SMILES IDX 30 24 31 25 29 26 27 27 20 28 14 29 3 30 32 31 21 33 22 34
REMARK SMILES IDX 18 36
REMARK H PARENT 32 32 22 35 18 37
REMARK Flexibility Score: inf
ROOT
ATOM      1  C   UNL     1      23.110  38.857  31.715  1.00  0.00     0.011 C 
ATOM      2  C   UNL     1      23.783  37.504  31.371  1.00  0.00    -0.035 C 
ATOM      3  C   UNL     1      25.332  37.699  31.281  1.00  0.00     0.007 C 
ATOM      4  C   UNL     1      26.068  37.732  32.644  1.00  0.00     0.013 C 
ATOM      5  C   UNL     1      25.615  36.611  33.621  1.00  0.00     0.026 C 
ATOM      6  C   UNL     1      25.945  36.936  35.090  1.00  0.00     0.171 C 
ATOM      7  O   UNL     1      24.927  36.371  35.899  1.00  0.00    -0.369 OA
ATOM      8  C   UNL     1      23.959  35.779  35.035  1.00  0.00     0.096 C 
ATOM      9  C   UNL     1      24.118  36.627  33.753  1.00  0.00     0.037 C 
ATOM     10  C   UNL     1      23.392  36.405  32.413  1.00  0.00     0.014 C 
ATOM     11  C   UNL     1      22.610  36.038  35.688  1.00  0.00     0.005 C 
ATOM     12  C   UNL     1      21.813  35.088  36.203  1.00  0.00    -0.024 C 
ATOM     13  C   UNL     1      22.108  33.603  36.079  1.00  0.00     0.024 C 
ATOM     14  C   UNL     1      20.840  32.656  36.334  1.00  0.00    -0.022 C 
ATOM     15  C   UNL     1      20.578  32.698  37.882  1.00  0.00     0.010 C 
ATOM     16  C   UNL     1      19.598  31.652  38.406  1.00  0.00     0.033 C 
ATOM     17  C   UNL     1      20.040  30.228  38.059  1.00  0.00     0.123 C 
ATOM     18  C   UNL     1      20.253  30.016  36.524  1.00  0.00     0.020 C 
ATOM     19  C   UNL     1      21.145  31.164  35.855  1.00  0.00     0.006 C 
ATOM     20  C   UNL     1      22.678  30.911  35.822  1.00  0.00     0.005 C 
ATOM     21  C   UNL     1      23.324  31.768  34.720  1.00  0.00     0.008 C 
ATOM     22  C   UNL     1      22.969  33.304  34.799  1.00  0.00    -0.017 C 
ATOM     23  C   UNL     1      24.308  34.217  34.879  1.00  0.00     0.009 C 
ATOM     24  C   UNL     1      25.248  33.979  33.642  1.00  0.00     0.043 C 
ATOM     25  C   UNL     1      26.193  35.170  33.282  1.00  0.00     0.124 C 
ATOM     26  C   UNL     1      25.166  33.792  36.137  1.00  0.00     0.015 C 
ATOM     27  C   UNL     1      22.084  33.626  33.552  1.00  0.00     0.013 C 
ATOM     28  C   UNL     1      18.849  29.990  35.846  1.00  0.00     0.017 C 
ATOM     29  C   UNL     1      19.568  33.203  35.586  1.00  0.00     0.012 C 
ATOM     30  C   UNL     1      23.259  37.064  29.987  1.00  0.00     0.011 C 
ENDROOT
BRANCH  25  31
ATOM     31  O   UNL     1      26.647  35.063  31.955  1.00  0.00    -0.392 OA
ATOM     32  H   UNL     1      26.221  35.778  31.415  1.00  0.00     0.210 HD
ENDBRANCH  25  31
BRANCH  18  33
ATOM     33  C   UNL     1      20.842  28.588  36.305  1.00  0.00     0.165 C 
BRANCH  33  34
ATOM     34  O   UNL     1      19.858  27.709  35.827  1.00  0.00    -0.396 OA
ATOM     35  H   UNL     1      20.218  27.322  34.985  1.00  0.00     0.210 HD
ENDBRANCH  33  34
ENDBRANCH  18  33
BRANCH  17  36
ATOM     36  O   UNL     1      21.156  29.855  38.834  1.00  0.00    -0.392 OA
ATOM     37  H   UNL     1      21.960  30.284  38.455  1.00  0.00     0.210 HD
ENDBRANCH  17  36
TORSDOF 4
ENDMDL
MODEL 8
REMARK VINA RESULT:    -6.279      3.788      7.314
REMARK INTER + INTRA:          -7.469
REMARK INTER:                  -7.194
REMARK INTRA:                  -0.275
REMARK UNBOUND:                -0.272
REMARK SMILES CC1(C)CC[C@]23CO[C@@]4(C=C[C@H]5[C@]6(C)CC[C@H](O)[C@](C)(CO)[C@@H]6CC[C@]5(C)[C@@]4(C)C[C@H]2O)[C@@H]3C1
REMARK SMILES IDX 1 1 2 2 4 3 5 4 6 5 7 6 8 7 9 8 33 9 34 10 10 11 11 12 12 13
REMARK SMILES IDX 13 14 15 15 16 16 17 17 19 18 23 19 24 20 25 21 26 22 28 23
REMARK SMILES IDX 30 24 31 25 29 26 27 27 20 28 14 29 3 30 32 31 21 33 22 34
REMARK SMILES IDX 18 36
REMARK H PARENT 32 32 22 35 18 37
REMARK Flexibility Score: inf
ROOT
ATOM      1  C   UNL     1      22.200  27.509  37.726  1.00  0.00     0.011 C 
ATOM      2  C   UNL     1      22.661  28.602  38.723  1.00  0.00    -0.035 C 
ATOM      3  C   UNL     1      24.213  28.774  38.628  1.00  0.00     0.007 C 
ATOM      4  C   UNL     1      24.704  29.636  37.437  1.00  0.00     0.013 C 
ATOM      5  C   UNL     1      23.897  30.950  37.248  1.00  0.00     0.026 C 
ATOM      6  C   UNL     1      24.031  31.528  35.827  1.00  0.00     0.171 C 
ATOM      7  O   UNL     1      22.806  32.163  35.499  1.00  0.00    -0.369 OA
ATOM      8  C   UNL     1      21.904  31.962  36.584  1.00  0.00     0.096 C 
ATOM      9  C   UNL     1      22.427  30.640  37.191  1.00  0.00     0.037 C 
ATOM     10  C   UNL     1      21.908  29.948  38.464  1.00  0.00     0.014 C 
ATOM     11  C   UNL     1      20.536  31.759  35.953  1.00  0.00     0.005 C 
ATOM     12  C   UNL     1      19.504  32.610  36.071  1.00  0.00    -0.024 C 
ATOM     13  C   UNL     1      19.538  33.833  36.971  1.00  0.00     0.024 C 
ATOM     14  C   UNL     1      18.093  34.431  37.325  1.00  0.00    -0.022 C 
ATOM     15  C   UNL     1      17.588  35.137  36.016  1.00  0.00     0.010 C 
ATOM     16  C   UNL     1      16.360  36.026  36.187  1.00  0.00     0.033 C 
ATOM     17  C   UNL     1      16.586  37.120  37.235  1.00  0.00     0.123 C 
ATOM     18  C   UNL     1      17.009  36.547  38.628  1.00  0.00     0.020 C 
ATOM     19  C   UNL     1      18.195  35.478  38.526  1.00  0.00     0.006 C 
ATOM     20  C   UNL     1      19.640  36.043  38.628  1.00  0.00     0.005 C 
ATOM     21  C   UNL     1      20.607  34.926  39.059  1.00  0.00     0.008 C 
ATOM     22  C   UNL     1      20.531  33.624  38.171  1.00  0.00    -0.017 C 
ATOM     23  C   UNL     1      21.982  33.245  37.551  1.00  0.00     0.009 C 
ATOM     24  C   UNL     1      23.056  33.026  38.678  1.00  0.00     0.043 C 
ATOM     25  C   UNL     1      24.250  32.095  38.292  1.00  0.00     0.124 C 
ATOM     26  C   UNL     1      22.526  34.456  36.693  1.00  0.00     0.015 C 
ATOM     27  C   UNL     1      19.941  32.496  39.077  1.00  0.00     0.013 C 
ATOM     28  C   UNL     1      15.757  35.874  39.268  1.00  0.00     0.017 C 
ATOM     29  C   UNL     1      17.087  33.284  37.707  1.00  0.00     0.012 C 
ATOM     30  C   UNL     1      22.304  28.116  40.144  1.00  0.00     0.011 C 
ENDROOT
BRANCH  25  31
ATOM     31  O   UNL     1      24.892  31.604  39.444  1.00  0.00    -0.392 OA
ATOM     32  H   UNL     1      25.051  32.360  40.066  1.00  0.00     0.210 HD
ENDBRANCH  25  31
BRANCH  18  33
ATOM     33  C   UNL     1      17.355  37.747  39.564  1.00  0.00     0.165 C 
BRANCH  33  34
ATOM     34  O   UNL     1      16.437  38.794  39.394  1.00  0.00    -0.396 OA
ATOM     35  H   UNL     1      16.459  39.028  38.429  1.00  0.00     0.210 HD
ENDBRANCH  33  34
ENDBRANCH  18  33
BRANCH  17  36
ATOM     36  O   UNL     1      17.469  38.101  36.742  1.00  0.00    -0.392 OA
ATOM     37  H   UNL     1      16.940  38.816  36.314  1.00  0.00     0.210 HD
ENDBRANCH  17  36
TORSDOF 4
ENDMDL
MODEL 9
REMARK VINA RESULT:    -6.194      4.362      8.002
REMARK INTER + INTRA:          -7.372
REMARK INTER:                  -7.120
REMARK INTRA:                  -0.252
REMARK UNBOUND:                -0.272
REMARK SMILES CC1(C)CC[C@]23CO[C@@]4(C=C[C@H]5[C@]6(C)CC[C@H](O)[C@](C)(CO)[C@@H]6CC[C@]5(C)[C@@]4(C)C[C@H]2O)[C@@H]3C1
REMARK SMILES IDX 1 1 2 2 4 3 5 4 6 5 7 6 8 7 9 8 33 9 34 10 10 11 11 12 12 13
REMARK SMILES IDX 13 14 15 15 16 16 17 17 19 18 23 19 24 20 25 21 26 22 28 23
REMARK SMILES IDX 30 24 31 25 29 26 27 27 20 28 14 29 3 30 32 31 21 33 22 34
REMARK SMILES IDX 18 36
REMARK H PARENT 32 32 22 35 18 37
REMARK Flexibility Score: inf
ROOT
ATOM      1  C   UNL     1      19.707  39.861  36.377  1.00  0.00     0.011 C 
ATOM      2  C   UNL     1      21.102  39.570  36.986  1.00  0.00    -0.035 C 
ATOM      3  C   UNL     1      21.320  40.468  38.247  1.00  0.00     0.007 C 
ATOM      4  C   UNL     1      20.635  39.957  39.540  1.00  0.00     0.013 C 
ATOM      5  C   UNL     1      20.838  38.436  39.789  1.00  0.00     0.026 C 
ATOM      6  C   UNL     1      19.780  37.846  40.742  1.00  0.00     0.171 C 
ATOM      7  O   UNL     1      19.534  36.509  40.342  1.00  0.00    -0.369 OA
ATOM      8  C   UNL     1      20.309  36.250  39.174  1.00  0.00     0.096 C 
ATOM      9  C   UNL     1      20.442  37.664  38.562  1.00  0.00     0.037 C 
ATOM     10  C   UNL     1      21.261  38.049  37.317  1.00  0.00     0.014 C 
ATOM     11  C   UNL     1      19.445  35.362  38.292  1.00  0.00     0.005 C 
ATOM     12  C   UNL     1      19.718  34.081  37.995  1.00  0.00    -0.024 C 
ATOM     13  C   UNL     1      21.008  33.391  38.405  1.00  0.00     0.024 C 
ATOM     14  C   UNL     1      21.336  32.060  37.575  1.00  0.00    -0.022 C 
ATOM     15  C   UNL     1      20.332  30.971  38.098  1.00  0.00     0.010 C 
ATOM     16  C   UNL     1      20.637  29.540  37.661  1.00  0.00     0.033 C 
ATOM     17  C   UNL     1      22.042  29.100  38.081  1.00  0.00     0.123 C 
ATOM     18  C   UNL     1      23.161  30.055  37.547  1.00  0.00     0.020 C 
ATOM     19  C   UNL     1      22.845  31.599  37.822  1.00  0.00     0.006 C 
ATOM     20  C   UNL     1      23.374  32.180  39.163  1.00  0.00     0.005 C 
ATOM     21  C   UNL     1      23.492  33.711  39.057  1.00  0.00     0.008 C 
ATOM     22  C   UNL     1      22.176  34.431  38.567  1.00  0.00    -0.017 C 
ATOM     23  C   UNL     1      21.690  35.560  39.625  1.00  0.00     0.009 C 
ATOM     24  C   UNL     1      22.800  36.646  39.867  1.00  0.00     0.043 C 
ATOM     25  C   UNL     1      22.279  38.044  40.332  1.00  0.00     0.124 C 
ATOM     26  C   UNL     1      21.450  34.895  41.039  1.00  0.00     0.015 C 
ATOM     27  C   UNL     1      22.484  35.015  37.151  1.00  0.00     0.013 C 
ATOM     28  C   UNL     1      23.297  29.819  36.011  1.00  0.00     0.017 C 
ATOM     29  C   UNL     1      21.094  32.281  36.037  1.00  0.00     0.012 C 
ATOM     30  C   UNL     1      22.159  39.944  35.924  1.00  0.00     0.011 C 
ENDROOT
BRANCH  25  31
ATOM     31  O   UNL     1      23.241  39.041  40.092  1.00  0.00    -0.392 OA
ATOM     32  H   UNL     1      23.330  39.599  40.907  1.00  0.00     0.210 HD
ENDBRANCH  25  31
BRANCH  18  33
ATOM     33  C   UNL     1      24.523  29.599  38.155  1.00  0.00     0.165 C 
BRANCH  33  34
ATOM     34  O   UNL     1      24.522  28.218  38.404  1.00  0.00    -0.396 OA
ATOM     35  H   UNL     1      23.568  27.949  38.473  1.00  0.00     0.210 HD
ENDBRANCH  33  34
ENDBRANCH  18  33
BRANCH  17  36
ATOM     36  O   UNL     1      22.101  28.896  39.474  1.00  0.00    -0.392 OA
ATOM     37  H   UNL     1      23.008  28.588  39.709  1.00  0.00     0.210 HD
ENDBRANCH  17  36
TORSDOF 4
ENDMDL
