MODEL 1
REMARK VINA RESULT:    -3.472      0.000      0.000
REMARK INTER + INTRA:          -4.373
REMARK INTER:                  -4.283
REMARK INTRA:                  -0.090
REMARK UNBOUND:                -0.090
REMARK SMILES CCCCCC(=O)[O-]
REMARK SMILES IDX 4 1 5 2 6 3 7 4 8 5 3 6 2 7 1 8
REMARK H PARENT
REMARK Flexibility Score: inf
ROOT
ATOM      1  C   UNL     1      27.104  -6.232  52.459  1.00  0.00     0.006 C 
ENDROOT
BRANCH   1   2
ATOM      2  C   UNL     1      28.581  -5.860  52.641  1.00  0.00     0.053 C 
BRANCH   2   3
ATOM      3  C   UNL     1      29.488  -7.000  52.293  1.00  0.00     0.041 C 
ATOM      4  O   UNL     1      30.350  -7.400  53.118  1.00  0.00    -0.550 OA
ATOM      5  O   UNL     1      29.357  -7.642  51.068  1.00  0.00    -0.550 OA
ENDBRANCH   2   3
ENDBRANCH   1   2
BRANCH   1   6
ATOM      6  C   UNL     1      26.258  -5.873  53.690  1.00  0.00     0.000 C 
BRANCH   6   7
ATOM      7  C   UNL     1      24.769  -5.803  53.332  1.00  0.00    -0.003 C 
ATOM      8  C   UNL     1      24.570  -5.378  51.880  1.00  0.00     0.004 C 
ENDBRANCH   6   7
ENDBRANCH   1   6
TORSDOF 4
ENDMDL
MODEL 2
REMARK VINA RESULT:    -3.445     15.225     15.949
REMARK INTER + INTRA:          -4.340
REMARK INTER:                  -4.239
REMARK INTRA:                  -0.101
REMARK UNBOUND:                -0.090
REMARK SMILES CCCCCC(=O)[O-]
REMARK SMILES IDX 4 1 5 2 6 3 7 4 8 5 3 6 2 7 1 8
REMARK H PARENT
REMARK Flexibility Score: inf
ROOT
ATOM      1  C   UNL     1      23.642   2.795  39.596  1.00  0.00     0.006 C 
ENDROOT
BRANCH   1   2
ATOM      2  C   UNL     1      25.129   3.116  39.395  1.00  0.00     0.053 C 
BRANCH   2   3
ATOM      3  C   UNL     1      25.679   3.929  40.527  1.00  0.00     0.041 C 
ATOM      4  O   UNL     1      24.910   4.383  41.414  1.00  0.00    -0.550 OA
ATOM      5  O   UNL     1      27.046   4.156  40.619  1.00  0.00    -0.550 OA
ENDBRANCH   2   3
ENDBRANCH   1   2
BRANCH   1   6
ATOM      6  C   UNL     1      23.254   1.437  38.992  1.00  0.00     0.000 C 
BRANCH   6   7
ATOM      7  C   UNL     1      23.591   0.292  39.955  1.00  0.00    -0.003 C 
ATOM      8  C   UNL     1      23.939  -0.984  39.194  1.00  0.00     0.004 C 
ENDBRANCH   6   7
ENDBRANCH   1   6
TORSDOF 4
ENDMDL
MODEL 3
REMARK VINA RESULT:    -3.443     12.889     13.571
REMARK INTER + INTRA:          -4.338
REMARK INTER:                  -4.212
REMARK INTRA:                  -0.126
REMARK UNBOUND:                -0.090
REMARK SMILES CCCCCC(=O)[O-]
REMARK SMILES IDX 4 1 5 2 6 3 7 4 8 5 3 6 2 7 1 8
REMARK H PARENT
REMARK Flexibility Score: inf
ROOT
ATOM      1  C   UNL     1      31.439   5.744  48.324  1.00  0.00     0.006 C 
ENDROOT
BRANCH   1   2
ATOM      2  C   UNL     1      30.938   6.469  47.069  1.00  0.00     0.053 C 
BRANCH   2   3
ATOM      3  C   UNL     1      31.479   5.849  45.817  1.00  0.00     0.041 C 
ATOM      4  O   UNL     1      31.035   4.742  45.413  1.00  0.00    -0.550 OA
ATOM      5  O   UNL     1      32.450   6.512  45.078  1.00  0.00    -0.550 OA
ENDBRANCH   2   3
ENDBRANCH   1   2
BRANCH   1   6
ATOM      6  C   UNL     1      30.293   5.110  49.126  1.00  0.00     0.000 C 
BRANCH   6   7
ATOM      7  C   UNL     1      30.777   3.875  49.895  1.00  0.00    -0.003 C 
ATOM      8  C   UNL     1      32.186   3.476  49.467  1.00  0.00     0.004 C 
ENDBRANCH   6   7
ENDBRANCH   1   6
TORSDOF 4
ENDMDL
MODEL 4
REMARK VINA RESULT:    -3.435     11.936     12.760
REMARK INTER + INTRA:          -4.328
REMARK INTER:                  -4.185
REMARK INTRA:                  -0.142
REMARK UNBOUND:                -0.090
REMARK SMILES CCCCCC(=O)[O-]
REMARK SMILES IDX 4 1 5 2 6 3 7 4 8 5 3 6 2 7 1 8
REMARK H PARENT
REMARK Flexibility Score: inf
ROOT
ATOM      1  C   UNL     1      29.733   5.872  47.824  1.00  0.00     0.006 C 
ENDROOT
BRANCH   1   2
ATOM      2  C   UNL     1      28.672   5.361  48.806  1.00  0.00     0.053 C 
BRANCH   2   3
ATOM      3  C   UNL     1      27.566   4.638  48.101  1.00  0.00     0.041 C 
ATOM      4  O   UNL     1      27.571   4.537  46.847  1.00  0.00    -0.550 OA
ATOM      5  O   UNL     1      26.545   4.045  48.835  1.00  0.00    -0.550 OA
ENDBRANCH   2   3
ENDBRANCH   1   2
BRANCH   1   6
ATOM      6  C   UNL     1      31.159   5.518  48.272  1.00  0.00     0.000 C 
BRANCH   6   7
ATOM      7  C   UNL     1      31.143   4.758  49.603  1.00  0.00    -0.003 C 
ATOM      8  C   UNL     1      32.102   3.571  49.573  1.00  0.00     0.004 C 
ENDBRANCH   6   7
ENDBRANCH   1   6
TORSDOF 4
ENDMDL
MODEL 5
REMARK VINA RESULT:    -3.373     14.902     15.812
REMARK INTER + INTRA:          -4.252
REMARK INTER:                  -4.164
REMARK INTRA:                  -0.088
REMARK UNBOUND:                -0.090
REMARK SMILES CCCCCC(=O)[O-]
REMARK SMILES IDX 4 1 5 2 6 3 7 4 8 5 3 6 2 7 1 8
REMARK H PARENT
REMARK Flexibility Score: inf
ROOT
ATOM      1  C   UNL     1      23.938   2.766  39.773  1.00  0.00     0.006 C 
ENDROOT
BRANCH   1   2
ATOM      2  C   UNL     1      23.639   1.494  38.969  1.00  0.00     0.053 C 
BRANCH   2   3
ATOM      3  C   UNL     1      23.592   0.281  39.847  1.00  0.00     0.041 C 
ATOM      4  O   UNL     1      23.232   0.381  41.049  1.00  0.00    -0.550 OA
ATOM      5  O   UNL     1      23.914  -0.965  39.326  1.00  0.00    -0.550 OA
ENDBRANCH   2   3
ENDBRANCH   1   2
BRANCH   1   6
ATOM      6  C   UNL     1      25.345   3.315  39.490  1.00  0.00     0.000 C 
BRANCH   6   7
ATOM      7  C   UNL     1      25.883   4.094  40.696  1.00  0.00    -0.003 C 
ATOM      8  C   UNL     1      24.877   5.137  41.173  1.00  0.00     0.004 C 
ENDBRANCH   6   7
ENDBRANCH   1   6
TORSDOF 4
ENDMDL
MODEL 6
REMARK VINA RESULT:    -3.295      8.213      9.110
REMARK INTER + INTRA:          -4.155
REMARK INTER:                  -3.954
REMARK INTRA:                  -0.201
REMARK UNBOUND:                -0.090
REMARK SMILES CCCCCC(=O)[O-]
REMARK SMILES IDX 4 1 5 2 6 3 7 4 8 5 3 6 2 7 1 8
REMARK H PARENT
REMARK Flexibility Score: inf
ROOT
ATOM      1  C   UNL     1      22.629  -2.226  55.568  1.00  0.00     0.006 C 
ENDROOT
BRANCH   1   2
ATOM      2  C   UNL     1      22.193  -0.789  55.880  1.00  0.00     0.053 C 
BRANCH   2   3
ATOM      3  C   UNL     1      20.999  -0.755  56.784  1.00  0.00     0.041 C 
ATOM      4  O   UNL     1      21.083  -0.234  57.927  1.00  0.00    -0.550 OA
ATOM      5  O   UNL     1      19.784  -1.270  56.350  1.00  0.00    -0.550 OA
ENDBRANCH   2   3
ENDBRANCH   1   2
BRANCH   1   6
ATOM      6  C   UNL     1      23.920  -2.616  56.304  1.00  0.00     0.000 C 
BRANCH   6   7
ATOM      7  C   UNL     1      23.608  -3.222  57.677  1.00  0.00    -0.003 C 
ATOM      8  C   UNL     1      22.346  -4.078  57.628  1.00  0.00     0.004 C 
ENDBRANCH   6   7
ENDBRANCH   1   6
TORSDOF 4
ENDMDL
MODEL 7
REMARK VINA RESULT:    -3.262      6.539      7.540
REMARK INTER + INTRA:          -4.115
REMARK INTER:                  -3.851
REMARK INTRA:                  -0.264
REMARK UNBOUND:                -0.090
REMARK SMILES CCCCCC(=O)[O-]
REMARK SMILES IDX 4 1 5 2 6 3 7 4 8 5 3 6 2 7 1 8
REMARK H PARENT
REMARK Flexibility Score: inf
ROOT
ATOM      1  C   UNL     1      22.933  -3.594  57.663  1.00  0.00     0.006 C 
ENDROOT
BRANCH   1   2
ATOM      2  C   UNL     1      24.032  -2.920  56.831  1.00  0.00     0.053 C 
BRANCH   2   3
ATOM      3  C   UNL     1      23.695  -2.908  55.372  1.00  0.00     0.041 C 
ATOM      4  O   UNL     1      23.541  -1.816  54.765  1.00  0.00    -0.550 OA
ATOM      5  O   UNL     1      23.586  -4.104  54.674  1.00  0.00    -0.550 OA
ENDBRANCH   2   3
ENDBRANCH   1   2
BRANCH   1   6
ATOM      6  C   UNL     1      21.555  -2.958  57.429  1.00  0.00     0.000 C 
BRANCH   6   7
ATOM      7  C   UNL     1      21.477  -1.566  58.066  1.00  0.00    -0.003 C 
ATOM      8  C   UNL     1      21.165  -0.498  57.022  1.00  0.00     0.004 C 
ENDBRANCH   6   7
ENDBRANCH   1   6
TORSDOF 4
ENDMDL
MODEL 8
REMARK VINA RESULT:    -3.234      6.476      7.594
REMARK INTER + INTRA:          -4.081
REMARK INTER:                  -3.834
REMARK INTRA:                  -0.247
REMARK UNBOUND:                -0.090
REMARK SMILES CCCCCC(=O)[O-]
REMARK SMILES IDX 4 1 5 2 6 3 7 4 8 5 3 6 2 7 1 8
REMARK H PARENT
REMARK Flexibility Score: inf
ROOT
ATOM      1  C   UNL     1      24.265  -3.201  56.238  1.00  0.00     0.006 C 
ENDROOT
BRANCH   1   2
ATOM      2  C   UNL     1      23.648  -3.182  57.642  1.00  0.00     0.053 C 
BRANCH   2   3
ATOM      3  C   UNL     1      22.182  -3.487  57.607  1.00  0.00     0.041 C 
ATOM      4  O   UNL     1      21.783  -4.665  57.413  1.00  0.00    -0.550 OA
ATOM      5  O   UNL     1      21.256  -2.474  57.824  1.00  0.00    -0.550 OA
ENDBRANCH   2   3
ENDBRANCH   1   2
BRANCH   1   6
ATOM      6  C   UNL     1      23.597  -2.188  55.295  1.00  0.00     0.000 C 
BRANCH   6   7
ATOM      7  C   UNL     1      23.050  -2.882  54.042  1.00  0.00    -0.003 C 
ATOM      8  C   UNL     1      23.447  -4.355  54.009  1.00  0.00     0.004 C 
ENDBRANCH   6   7
ENDBRANCH   1   6
TORSDOF 4
ENDMDL
MODEL 9
REMARK VINA RESULT:    -3.170     13.371     14.035
REMARK INTER + INTRA:          -4.001
REMARK INTER:                  -3.875
REMARK INTRA:                  -0.126
REMARK UNBOUND:                -0.090
REMARK SMILES CCCCCC(=O)[O-]
REMARK SMILES IDX 4 1 5 2 6 3 7 4 8 5 3 6 2 7 1 8
REMARK H PARENT
REMARK Flexibility Score: inf
ROOT
ATOM      1  C   UNL     1      31.460   5.737  48.344  1.00  0.00     0.006 C 
ENDROOT
BRANCH   1   2
ATOM      2  C   UNL     1      31.117   5.854  46.854  1.00  0.00     0.053 C 
BRANCH   2   3
ATOM      3  C   UNL     1      30.610   7.220  46.506  1.00  0.00     0.041 C 
ATOM      4  O   UNL     1      31.389   8.083  46.024  1.00  0.00    -0.550 OA
ATOM      5  O   UNL     1      29.267   7.528  46.684  1.00  0.00    -0.550 OA
ENDBRANCH   2   3
ENDBRANCH   1   2
BRANCH   1   6
ATOM      6  C   UNL     1      30.321   5.102  49.155  1.00  0.00     0.000 C 
BRANCH   6   7
ATOM      7  C   UNL     1      30.815   3.874  49.928  1.00  0.00    -0.003 C 
ATOM      8  C   UNL     1      32.227   3.485  49.502  1.00  0.00     0.004 C 
ENDBRANCH   6   7
ENDBRANCH   1   6
TORSDOF 4
ENDMDL
