MODEL 1
REMARK VINA RESULT:    -4.386      0.000      0.000
REMARK INTER + INTRA:          -6.438
REMARK INTER:                  -5.925
REMARK INTRA:                  -0.513
REMARK UNBOUND:                -0.513
REMARK SMILES C=C[C@](C)(CCC=C(C)C)OC(C)=O
REMARK SMILES IDX 3 1 4 2 5 3 6 4 7 5 9 6 8 7 10 8 2 9 1 10 11 11 12 12 14 13
REMARK SMILES IDX 13 14
REMARK H PARENT
REMARK Flexibility Score: inf
ROOT
ATOM      1  C   UNL     1      -1.009  -1.720 -36.069  1.00  0.00     0.127 C 
ATOM      2  C   UNL     1      -0.559  -2.236 -37.448  1.00  0.00     0.061 C 
ENDROOT
BRANCH   1   3
ATOM      3  C   UNL     1      -2.078  -2.671 -35.448  1.00  0.00     0.057 C 
BRANCH   3   4
ATOM      4  C   UNL     1      -2.904  -2.054 -34.298  1.00  0.00     0.032 C 
BRANCH   4   5
ATOM      5  C   UNL     1      -3.871  -3.041 -33.690  1.00  0.00    -0.028 C 
ATOM      6  C   UNL     1      -3.150  -2.552 -31.340  1.00  0.00     0.039 C 
ATOM      7  C   UNL     1      -4.008  -3.260 -32.363  1.00  0.00    -0.080 C 
ATOM      8  C   UNL     1      -5.030  -4.267 -31.903  1.00  0.00     0.039 C 
ENDBRANCH   4   5
ENDBRANCH   3   4
ENDBRANCH   1   3
BRANCH   1   9
ATOM      9  C   UNL     1      -1.579  -0.317 -36.236  1.00  0.00     0.013 C 
ATOM     10  C   UNL     1      -1.754   0.264 -37.431  1.00  0.00     0.008 C 
ENDBRANCH   1   9
BRANCH   1  11
ATOM     11  O   UNL     1       0.160  -1.661 -35.238  1.00  0.00    -0.455 OA
BRANCH  11  12
ATOM     12  C   UNL     1       0.506  -0.604 -34.382  1.00  0.00     0.303 C 
ATOM     13  O   UNL     1      -0.079  -0.439 -33.278  1.00  0.00    -0.253 OA
ATOM     14  C   UNL     1       1.613   0.316 -34.771  1.00  0.00     0.139 C 
ENDBRANCH  11  12
ENDBRANCH   1  11
TORSDOF 6
ENDMDL
MODEL 2
REMARK VINA RESULT:    -4.035      1.051      1.593
REMARK INTER + INTRA:          -5.963
REMARK INTER:                  -5.346
REMARK INTRA:                  -0.617
REMARK UNBOUND:                -0.513
REMARK SMILES C=C[C@](C)(CCC=C(C)C)OC(C)=O
REMARK SMILES IDX 3 1 4 2 5 3 6 4 7 5 9 6 8 7 10 8 2 9 1 10 11 11 12 12 14 13
REMARK SMILES IDX 13 14
REMARK H PARENT
REMARK Flexibility Score: inf
ROOT
ATOM      1  C   UNL     1      -0.463  -0.697 -36.558  1.00  0.00     0.127 C 
ATOM      2  C   UNL     1       0.156  -0.887 -37.955  1.00  0.00     0.061 C 
ENDROOT
BRANCH   1   3
ATOM      3  C   UNL     1      -0.852  -2.073 -35.936  1.00  0.00     0.057 C 
BRANCH   3   4
ATOM      4  C   UNL     1      -2.344  -2.216 -35.563  1.00  0.00     0.032 C 
BRANCH   4   5
ATOM      5  C   UNL     1      -2.578  -2.101 -34.076  1.00  0.00    -0.028 C 
ATOM      6  C   UNL     1      -4.389  -3.833 -34.060  1.00  0.00     0.039 C 
ATOM      7  C   UNL     1      -3.477  -2.836 -33.384  1.00  0.00    -0.080 C 
ATOM      8  C   UNL     1      -3.586  -2.622 -31.896  1.00  0.00     0.039 C 
ENDBRANCH   4   5
ENDBRANCH   3   4
ENDBRANCH   1   3
BRANCH   1   9
ATOM      9  C   UNL     1      -1.692   0.194 -36.688  1.00  0.00     0.013 C 
ATOM     10  C   UNL     1      -2.042   0.795 -37.833  1.00  0.00     0.008 C 
ENDBRANCH   1   9
BRANCH   1  11
ATOM     11  O   UNL     1       0.520  -0.034 -35.747  1.00  0.00    -0.455 OA
BRANCH  11  12
ATOM     12  C   UNL     1       0.735  -0.251 -34.377  1.00  0.00     0.303 C 
ATOM     13  O   UNL     1       0.002   0.292 -33.507  1.00  0.00    -0.253 OA
ATOM     14  C   UNL     1       1.826  -1.171 -33.947  1.00  0.00     0.139 C 
ENDBRANCH  11  12
ENDBRANCH   1  11
TORSDOF 6
ENDMDL
MODEL 3
REMARK VINA RESULT:    -3.803      3.857      6.567
REMARK INTER + INTRA:          -5.649
REMARK INTER:                  -4.898
REMARK INTRA:                  -0.751
REMARK UNBOUND:                -0.513
REMARK SMILES C=C[C@](C)(CCC=C(C)C)OC(C)=O
REMARK SMILES IDX 3 1 4 2 5 3 6 4 7 5 9 6 8 7 10 8 2 9 1 10 11 11 12 12 14 13
REMARK SMILES IDX 13 14
REMARK H PARENT
REMARK Flexibility Score: inf
ROOT
ATOM      1  C   UNL     1      -4.158  -4.280 -31.125  1.00  0.00     0.127 C 
ATOM      2  C   UNL     1      -3.261  -3.123 -30.650  1.00  0.00     0.061 C 
ENDROOT
BRANCH   1   3
ATOM      3  C   UNL     1      -5.072  -4.781 -29.965  1.00  0.00     0.057 C 
BRANCH   3   4
ATOM      4  C   UNL     1      -4.665  -4.284 -28.560  1.00  0.00     0.032 C 
BRANCH   4   5
ATOM      5  C   UNL     1      -4.240  -5.413 -27.652  1.00  0.00    -0.028 C 
ATOM      6  C   UNL     1      -1.794  -5.015 -28.030  1.00  0.00     0.039 C 
ATOM      7  C   UNL     1      -2.955  -5.739 -27.387  1.00  0.00    -0.080 C 
ATOM      8  C   UNL     1      -2.684  -6.884 -26.445  1.00  0.00     0.039 C 
ENDBRANCH   4   5
ENDBRANCH   3   4
ENDBRANCH   1   3
BRANCH   1   9
ATOM      9  C   UNL     1      -3.269  -5.411 -31.627  1.00  0.00     0.013 C 
ATOM     10  C   UNL     1      -3.243  -6.626 -31.064  1.00  0.00     0.008 C 
ENDBRANCH   1   9
BRANCH   1  11
ATOM     11  O   UNL     1      -4.951  -3.782 -32.214  1.00  0.00    -0.455 OA
BRANCH  11  12
ATOM     12  C   UNL     1      -4.494  -3.545 -33.520  1.00  0.00     0.303 C 
ATOM     13  O   UNL     1      -4.884  -4.253 -34.487  1.00  0.00    -0.253 OA
ATOM     14  C   UNL     1      -3.562  -2.409 -33.771  1.00  0.00     0.139 C 
ENDBRANCH  11  12
ENDBRANCH   1  11
TORSDOF 6
ENDMDL
MODEL 4
REMARK VINA RESULT:    -3.784      4.101      7.128
REMARK INTER + INTRA:          -5.624
REMARK INTER:                  -4.712
REMARK INTRA:                  -0.912
REMARK UNBOUND:                -0.513
REMARK SMILES C=C[C@](C)(CCC=C(C)C)OC(C)=O
REMARK SMILES IDX 3 1 4 2 5 3 6 4 7 5 9 6 8 7 10 8 2 9 1 10 11 11 12 12 14 13
REMARK SMILES IDX 13 14
REMARK H PARENT
REMARK Flexibility Score: inf
ROOT
ATOM      1  C   UNL     1      -3.607  -5.577 -30.183  1.00  0.00     0.127 C 
ATOM      2  C   UNL     1      -5.125  -5.604 -30.436  1.00  0.00     0.061 C 
ENDROOT
BRANCH   1   3
ATOM      3  C   UNL     1      -3.094  -4.109 -30.066  1.00  0.00     0.057 C 
BRANCH   3   4
ATOM      4  C   UNL     1      -3.972  -3.058 -30.780  1.00  0.00     0.032 C 
BRANCH   4   5
ATOM      5  C   UNL     1      -3.310  -2.500 -32.018  1.00  0.00    -0.028 C 
ATOM      6  C   UNL     1      -4.801  -3.766 -33.585  1.00  0.00     0.039 C 
ATOM      7  C   UNL     1      -3.686  -2.792 -33.283  1.00  0.00    -0.080 C 
ATOM      8  C   UNL     1      -2.939  -2.144 -34.421  1.00  0.00     0.039 C 
ENDBRANCH   4   5
ENDBRANCH   3   4
ENDBRANCH   1   3
BRANCH   1   9
ATOM      9  C   UNL     1      -2.909  -6.294 -31.333  1.00  0.00     0.013 C 
ATOM     10  C   UNL     1      -3.434  -7.356 -31.959  1.00  0.00     0.008 C 
ENDBRANCH   1   9
BRANCH   1  11
ATOM     11  O   UNL     1      -3.368  -6.295 -28.963  1.00  0.00    -0.455 OA
BRANCH  11  12
ATOM     12  C   UNL     1      -3.245  -5.725 -27.686  1.00  0.00     0.303 C 
ATOM     13  O   UNL     1      -4.256  -5.326 -27.048  1.00  0.00    -0.253 OA
ATOM     14  C   UNL     1      -1.896  -5.627 -27.059  1.00  0.00     0.139 C 
ENDBRANCH  11  12
ENDBRANCH   1  11
TORSDOF 6
ENDMDL
MODEL 5
REMARK VINA RESULT:    -3.777      4.667      7.148
REMARK INTER + INTRA:          -5.614
REMARK INTER:                  -4.936
REMARK INTRA:                  -0.678
REMARK UNBOUND:                -0.513
REMARK SMILES C=C[C@](C)(CCC=C(C)C)OC(C)=O
REMARK SMILES IDX 3 1 4 2 5 3 6 4 7 5 9 6 8 7 10 8 2 9 1 10 11 11 12 12 14 13
REMARK SMILES IDX 13 14
REMARK H PARENT
REMARK Flexibility Score: inf
ROOT
ATOM      1  C   UNL     1      -3.863  -4.594 -30.622  1.00  0.00     0.127 C 
ATOM      2  C   UNL     1      -5.125  -4.543 -29.742  1.00  0.00     0.061 C 
ENDROOT
BRANCH   1   3
ATOM      3  C   UNL     1      -2.723  -5.382 -29.907  1.00  0.00     0.057 C 
BRANCH   3   4
ATOM      4  C   UNL     1      -2.070  -4.640 -28.719  1.00  0.00     0.032 C 
BRANCH   4   5
ATOM      5  C   UNL     1      -1.843  -5.544 -27.532  1.00  0.00    -0.028 C 
ATOM      6  C   UNL     1      -3.932  -4.805 -26.361  1.00  0.00     0.039 C 
ATOM      7  C   UNL     1      -2.682  -5.645 -26.476  1.00  0.00    -0.080 C 
ATOM      8  C   UNL     1      -2.330  -6.606 -25.369  1.00  0.00     0.039 C 
ENDBRANCH   4   5
ENDBRANCH   3   4
ENDBRANCH   1   3
BRANCH   1   9
ATOM      9  C   UNL     1      -3.418  -3.167 -30.919  1.00  0.00     0.013 C 
ATOM     10  C   UNL     1      -3.534  -2.601 -32.127  1.00  0.00     0.008 C 
ENDBRANCH   1   9
BRANCH   1  11
ATOM     11  O   UNL     1      -4.231  -5.240 -31.851  1.00  0.00    -0.455 OA
BRANCH  11  12
ATOM     12  C   UNL     1      -3.946  -6.571 -32.196  1.00  0.00     0.303 C 
ATOM     13  O   UNL     1      -4.526  -7.533 -31.624  1.00  0.00    -0.253 OA
ATOM     14  C   UNL     1      -2.967  -6.847 -33.286  1.00  0.00     0.139 C 
ENDBRANCH  11  12
ENDBRANCH   1  11
TORSDOF 6
ENDMDL
MODEL 6
REMARK VINA RESULT:    -3.742      6.697     10.037
REMARK INTER + INTRA:          -5.567
REMARK INTER:                  -4.810
REMARK INTRA:                  -0.757
REMARK UNBOUND:                -0.513
REMARK SMILES C=C[C@](C)(CCC=C(C)C)OC(C)=O
REMARK SMILES IDX 3 1 4 2 5 3 6 4 7 5 9 6 8 7 10 8 2 9 1 10 11 11 12 12 14 13
REMARK SMILES IDX 13 14
REMARK H PARENT
REMARK Flexibility Score: inf
ROOT
ATOM      1  C   UNL     1      -3.910  -5.677 -25.762  1.00  0.00     0.127 C 
ATOM      2  C   UNL     1      -4.440  -7.054 -26.200  1.00  0.00     0.061 C 
ENDROOT
BRANCH   1   3
ATOM      3  C   UNL     1      -4.553  -4.543 -26.618  1.00  0.00     0.057 C 
BRANCH   3   4
ATOM      4  C   UNL     1      -5.065  -4.990 -28.005  1.00  0.00     0.032 C 
BRANCH   4   5
ATOM      5  C   UNL     1      -4.667  -4.031 -29.101  1.00  0.00    -0.028 C 
ATOM      6  C   UNL     1      -2.561  -5.274 -29.650  1.00  0.00     0.039 C 
ATOM      7  C   UNL     1      -3.556  -4.157 -29.863  1.00  0.00    -0.080 C 
ATOM      8  C   UNL     1      -3.299  -3.128 -30.933  1.00  0.00     0.039 C 
ENDBRANCH   4   5
ENDBRANCH   3   4
ENDBRANCH   1   3
BRANCH   1   9
ATOM      9  C   UNL     1      -2.394  -5.666 -25.917  1.00  0.00     0.013 C 
ATOM     10  C   UNL     1      -1.690  -6.742 -26.292  1.00  0.00     0.008 C 
ENDBRANCH   1   9
BRANCH   1  11
ATOM     11  O   UNL     1      -4.246  -5.516 -24.375  1.00  0.00    -0.455 OA
BRANCH  11  12
ATOM     12  C   UNL     1      -3.671  -4.587 -23.494  1.00  0.00     0.303 C 
ATOM     13  O   UNL     1      -4.117  -3.412 -23.401  1.00  0.00    -0.253 OA
ATOM     14  C   UNL     1      -2.537  -5.012 -22.625  1.00  0.00     0.139 C 
ENDBRANCH  11  12
ENDBRANCH   1  11
TORSDOF 6
ENDMDL
MODEL 7
REMARK VINA RESULT:    -3.688      6.227      9.586
REMARK INTER + INTRA:          -5.494
REMARK INTER:                  -4.536
REMARK INTRA:                  -0.958
REMARK UNBOUND:                -0.513
REMARK SMILES C=C[C@](C)(CCC=C(C)C)OC(C)=O
REMARK SMILES IDX 3 1 4 2 5 3 6 4 7 5 9 6 8 7 10 8 2 9 1 10 11 11 12 12 14 13
REMARK SMILES IDX 13 14
REMARK H PARENT
REMARK Flexibility Score: inf
ROOT
ATOM      1  C   UNL     1      -3.374  -5.692 -26.364  1.00  0.00     0.127 C 
ATOM      2  C   UNL     1      -4.242  -4.460 -26.048  1.00  0.00     0.061 C 
ENDROOT
BRANCH   1   3
ATOM      3  C   UNL     1      -2.255  -5.329 -27.387  1.00  0.00     0.057 C 
BRANCH   3   4
ATOM      4  C   UNL     1      -2.562  -5.722 -28.849  1.00  0.00     0.032 C 
BRANCH   4   5
ATOM      5  C   UNL     1      -2.611  -4.525 -29.768  1.00  0.00    -0.028 C 
ATOM      6  C   UNL     1      -5.116  -4.469 -29.833  1.00  0.00     0.039 C 
ATOM      7  C   UNL     1      -3.750  -3.938 -30.200  1.00  0.00    -0.080 C 
ATOM      8  C   UNL     1      -3.640  -2.736 -31.103  1.00  0.00     0.039 C 
ENDBRANCH   4   5
ENDBRANCH   3   4
ENDBRANCH   1   3
BRANCH   1   9
ATOM      9  C   UNL     1      -4.271  -6.789 -26.923  1.00  0.00     0.013 C 
ATOM     10  C   UNL     1      -4.857  -7.717 -26.156  1.00  0.00     0.008 C 
ENDBRANCH   1   9
BRANCH   1  11
ATOM     11  O   UNL     1      -2.802  -6.134 -25.123  1.00  0.00    -0.455 OA
BRANCH  11  12
ATOM     12  C   UNL     1      -1.473  -6.544 -24.932  1.00  0.00     0.303 C 
ATOM     13  O   UNL     1      -0.614  -5.766 -24.439  1.00  0.00    -0.253 OA
ATOM     14  C   UNL     1      -1.083  -7.939 -25.285  1.00  0.00     0.139 C 
ENDBRANCH  11  12
ENDBRANCH   1  11
TORSDOF 6
ENDMDL
MODEL 8
REMARK VINA RESULT:    -3.552      6.481      9.743
REMARK INTER + INTRA:          -5.310
REMARK INTER:                  -4.771
REMARK INTRA:                  -0.539
REMARK UNBOUND:                -0.513
REMARK SMILES C=C[C@](C)(CCC=C(C)C)OC(C)=O
REMARK SMILES IDX 3 1 4 2 5 3 6 4 7 5 9 6 8 7 10 8 2 9 1 10 11 11 12 12 14 13
REMARK SMILES IDX 13 14
REMARK H PARENT
REMARK Flexibility Score: inf
ROOT
ATOM      1  C   UNL     1      -2.233  -6.383 -26.292  1.00  0.00     0.127 C 
ATOM      2  C   UNL     1      -1.709  -7.809 -26.539  1.00  0.00     0.061 C 
ENDROOT
BRANCH   1   3
ATOM      3  C   UNL     1      -1.785  -5.425 -27.439  1.00  0.00     0.057 C 
BRANCH   3   4
ATOM      4  C   UNL     1      -2.539  -5.617 -28.773  1.00  0.00     0.032 C 
BRANCH   4   5
ATOM      5  C   UNL     1      -2.839  -4.305 -29.458  1.00  0.00    -0.028 C 
ATOM      6  C   UNL     1      -3.496  -5.392 -31.618  1.00  0.00     0.039 C 
ATOM      7  C   UNL     1      -3.289  -4.190 -30.727  1.00  0.00    -0.080 C 
ATOM      8  C   UNL     1      -3.561  -2.810 -31.270  1.00  0.00     0.039 C 
ENDBRANCH   4   5
ENDBRANCH   3   4
ENDBRANCH   1   3
BRANCH   1   9
ATOM      9  C   UNL     1      -1.698  -5.893 -24.952  1.00  0.00     0.013 C 
ATOM     10  C   UNL     1      -0.904  -6.633 -24.167  1.00  0.00     0.008 C 
ENDBRANCH   1   9
BRANCH   1  11
ATOM     11  O   UNL     1      -3.665  -6.464 -26.230  1.00  0.00    -0.455 OA
BRANCH  11  12
ATOM     12  C   UNL     1      -4.502  -5.637 -25.463  1.00  0.00     0.303 C 
ATOM     13  O   UNL     1      -4.994  -6.037 -24.375  1.00  0.00    -0.253 OA
ATOM     14  C   UNL     1      -4.779  -4.249 -25.928  1.00  0.00     0.139 C 
ENDBRANCH  11  12
ENDBRANCH   1  11
TORSDOF 6
ENDMDL
MODEL 9
REMARK VINA RESULT:    -3.522      4.957      8.109
REMARK INTER + INTRA:          -5.271
REMARK INTER:                  -4.633
REMARK INTRA:                  -0.638
REMARK UNBOUND:                -0.513
REMARK SMILES C=C[C@](C)(CCC=C(C)C)OC(C)=O
REMARK SMILES IDX 3 1 4 2 5 3 6 4 7 5 9 6 8 7 10 8 2 9 1 10 11 11 12 12 14 13
REMARK SMILES IDX 13 14
REMARK H PARENT
REMARK Flexibility Score: inf
ROOT
ATOM      1  C   UNL     1      -3.666  -5.596 -28.132  1.00  0.00     0.127 C 
ATOM      2  C   UNL     1      -2.157  -5.372 -27.919  1.00  0.00     0.061 C 
ENDROOT
BRANCH   1   3
ATOM      3  C   UNL     1      -4.231  -4.583 -29.174  1.00  0.00     0.057 C 
BRANCH   3   4
ATOM      4  C   UNL     1      -3.164  -3.900 -30.058  1.00  0.00     0.032 C 
BRANCH   4   5
ATOM      5  C   UNL     1      -3.774  -2.993 -31.099  1.00  0.00    -0.028 C 
ATOM      6  C   UNL     1      -4.002  -4.822 -32.797  1.00  0.00     0.039 C 
ATOM      7  C   UNL     1      -4.176  -3.397 -32.325  1.00  0.00    -0.080 C 
ATOM      8  C   UNL     1      -4.785  -2.377 -33.253  1.00  0.00     0.039 C 
ENDBRANCH   4   5
ENDBRANCH   3   4
ENDBRANCH   1   3
BRANCH   1   9
ATOM      9  C   UNL     1      -4.376  -5.434 -26.793  1.00  0.00     0.013 C 
ATOM     10  C   UNL     1      -4.384  -4.285 -26.104  1.00  0.00     0.008 C 
ENDBRANCH   1   9
BRANCH   1  11
ATOM     11  O   UNL     1      -3.831  -6.945 -28.596  1.00  0.00    -0.455 OA
BRANCH  11  12
ATOM     12  C   UNL     1      -3.844  -7.355 -29.938  1.00  0.00     0.303 C 
ATOM     13  O   UNL     1      -2.787  -7.377 -30.624  1.00  0.00    -0.253 OA
ATOM     14  C   UNL     1      -5.125  -7.810 -30.549  1.00  0.00     0.139 C 
ENDBRANCH  11  12
ENDBRANCH   1  11
TORSDOF 6
ENDMDL
