MODEL 1
REMARK VINA RESULT:    -6.701      0.000      0.000
REMARK INTER + INTRA:          -6.701
REMARK INTER:                  -6.701
REMARK INTRA:                   0.000
REMARK UNBOUND:                 0.000
REMARK SMILES Cc1cc2cc3c(C)cc(=O)oc3c(C)c2o1
REMARK SMILES IDX 8 1 7 2 9 3 10 4 11 5 12 6 13 7 6 8 5 9 4 10 3 11 2 12 17 13
REMARK SMILES IDX 16 14 14 15 15 16 1 17
REMARK H PARENT
REMARK Flexibility Score: inf
ROOT
ATOM      1  C   UNL     1      48.985 -26.579   2.358  1.00  0.00     0.045 C 
ATOM      2  C   UNL     1      49.552 -26.569   3.755  1.00  0.00    -0.033 A 
ATOM      3  C   UNL     1      50.903 -26.248   3.943  1.00  0.00     0.098 A 
ATOM      4  C   UNL     1      51.435 -26.238   5.233  1.00  0.00     0.336 A 
ATOM      5  O   UNL     1      52.649 -25.952   5.407  1.00  0.00    -0.246 OA
ATOM      6  O   UNL     1      50.674 -26.530   6.280  1.00  0.00    -0.422 OA
ATOM      7  C   UNL     1      49.385 -26.841   6.173  1.00  0.00     0.145 A 
ATOM      8  C   UNL     1      48.762 -26.877   4.885  1.00  0.00     0.022 A 
ATOM      9  C   UNL     1      47.392 -27.221   4.780  1.00  0.00     0.024 A 
ATOM     10  C   UNL     1      46.701 -27.516   5.949  1.00  0.00     0.022 A 
ATOM     11  C   UNL     1      45.390 -27.887   6.141  1.00  0.00     0.054 A 
ATOM     12  C   UNL     1      45.281 -28.053   7.517  1.00  0.00     0.102 A 
ATOM     13  O   UNL     1      46.433 -27.808   8.112  1.00  0.00    -0.461 OA
ATOM     14  C   UNL     1      47.297 -27.481   7.180  1.00  0.00     0.140 A 
ATOM     15  C   UNL     1      48.642 -27.137   7.341  1.00  0.00     0.036 A 
ATOM     16  C   UNL     1      49.286 -27.133   8.698  1.00  0.00     0.052 C 
ATOM     17  C   UNL     1      44.045 -28.474   8.238  1.00  0.00     0.087 C 
ENDROOT
TORSDOF 0
ENDMDL
MODEL 2
REMARK VINA RESULT:    -6.650      1.181      5.217
REMARK INTER + INTRA:          -6.650
REMARK INTER:                  -6.650
REMARK INTRA:                   0.000
REMARK UNBOUND:                 0.000
REMARK SMILES Cc1cc2cc3c(C)cc(=O)oc3c(C)c2o1
REMARK SMILES IDX 8 1 7 2 9 3 10 4 11 5 12 6 13 7 6 8 5 9 4 10 3 11 2 12 17 13
REMARK SMILES IDX 16 14 14 15 15 16 1 17
REMARK H PARENT
REMARK Flexibility Score: inf
ROOT
ATOM      1  C   UNL     1      45.257 -28.758   5.145  1.00  0.00     0.045 C 
ATOM      2  C   UNL     1      45.918 -28.293   6.417  1.00  0.00    -0.033 A 
ATOM      3  C   UNL     1      45.327 -28.604   7.649  1.00  0.00     0.098 A 
ATOM      4  C   UNL     1      45.932 -28.176   8.831  1.00  0.00     0.336 A 
ATOM      5  O   UNL     1      45.404 -28.452   9.941  1.00  0.00    -0.246 OA
ATOM      6  O   UNL     1      47.061 -27.479   8.799  1.00  0.00    -0.422 OA
ATOM      7  C   UNL     1      47.676 -27.151   7.666  1.00  0.00     0.145 A 
ATOM      8  C   UNL     1      47.119 -27.548   6.408  1.00  0.00     0.022 A 
ATOM      9  C   UNL     1      47.775 -27.185   5.206  1.00  0.00     0.024 A 
ATOM     10  C   UNL     1      48.947 -26.443   5.300  1.00  0.00     0.022 A 
ATOM     11  C   UNL     1      49.772 -25.950   4.315  1.00  0.00     0.054 A 
ATOM     12  C   UNL     1      50.776 -25.288   5.012  1.00  0.00     0.102 A 
ATOM     13  O   UNL     1      50.576 -25.369   6.314  1.00  0.00    -0.461 OA
ATOM     14  C   UNL     1      49.478 -26.064   6.502  1.00  0.00     0.140 A 
ATOM     15  C   UNL     1      48.879 -26.406   7.717  1.00  0.00     0.036 A 
ATOM     16  C   UNL     1      49.462 -25.954   9.026  1.00  0.00     0.052 C 
ATOM     17  C   UNL     1      51.920 -24.561   4.389  1.00  0.00     0.087 C 
ENDROOT
TORSDOF 0
ENDMDL
MODEL 3
REMARK VINA RESULT:    -6.562      1.903      5.525
REMARK INTER + INTRA:          -6.562
REMARK INTER:                  -6.562
REMARK INTRA:                   0.000
REMARK UNBOUND:                 0.000
REMARK SMILES Cc1cc2cc3c(C)cc(=O)oc3c(C)c2o1
REMARK SMILES IDX 8 1 7 2 9 3 10 4 11 5 12 6 13 7 6 8 5 9 4 10 3 11 2 12 17 13
REMARK SMILES IDX 16 14 14 15 15 16 1 17
REMARK H PARENT
REMARK Flexibility Score: inf
ROOT
ATOM      1  C   UNL     1      49.529 -26.327   9.883  1.00  0.00     0.045 C 
ATOM      2  C   UNL     1      48.312 -26.919   9.221  1.00  0.00    -0.033 A 
ATOM      3  C   UNL     1      47.285 -27.441  10.019  1.00  0.00     0.098 A 
ATOM      4  C   UNL     1      46.155 -27.993   9.413  1.00  0.00     0.336 A 
ATOM      5  O   UNL     1      45.230 -28.464  10.125  1.00  0.00    -0.246 OA
ATOM      6  O   UNL     1      46.046 -28.028   8.091  1.00  0.00    -0.422 OA
ATOM      7  C   UNL     1      46.982 -27.549   7.275  1.00  0.00     0.145 A 
ATOM      8  C   UNL     1      48.174 -26.969   7.816  1.00  0.00     0.022 A 
ATOM      9  C   UNL     1      49.170 -26.473   6.939  1.00  0.00     0.024 A 
ATOM     10  C   UNL     1      48.947 -26.574   5.572  1.00  0.00     0.022 A 
ATOM     11  C   UNL     1      49.733 -26.194   4.508  1.00  0.00     0.054 A 
ATOM     12  C   UNL     1      48.990 -26.554   3.389  1.00  0.00     0.102 A 
ATOM     13  O   UNL     1      47.848 -27.112   3.744  1.00  0.00    -0.461 OA
ATOM     14  C   UNL     1      47.808 -27.129   5.055  1.00  0.00     0.140 A 
ATOM     15  C   UNL     1      46.789 -27.622   5.875  1.00  0.00     0.036 A 
ATOM     16  C   UNL     1      45.558 -28.255   5.289  1.00  0.00     0.052 C 
ATOM     17  C   UNL     1      49.420 -26.364   1.974  1.00  0.00     0.087 C 
ENDROOT
TORSDOF 0
ENDMDL
MODEL 4
REMARK VINA RESULT:    -6.540     15.039     15.701
REMARK INTER + INTRA:          -6.540
REMARK INTER:                  -6.540
REMARK INTRA:                   0.000
REMARK UNBOUND:                 0.000
REMARK SMILES Cc1cc2cc3c(C)cc(=O)oc3c(C)c2o1
REMARK SMILES IDX 8 1 7 2 9 3 10 4 11 5 12 6 13 7 6 8 5 9 4 10 3 11 2 12 17 13
REMARK SMILES IDX 16 14 14 15 15 16 1 17
REMARK H PARENT
REMARK Flexibility Score: inf
ROOT
ATOM      1  C   UNL     1      49.335 -32.002  -8.090  1.00  0.00     0.045 C 
ATOM      2  C   UNL     1      50.709 -32.615  -8.173  1.00  0.00    -0.033 A 
ATOM      3  C   UNL     1      51.686 -32.002  -8.970  1.00  0.00     0.098 A 
ATOM      4  C   UNL     1      52.959 -32.564  -9.053  1.00  0.00     0.336 A 
ATOM      5  O   UNL     1      53.840 -32.018  -9.769  1.00  0.00    -0.246 OA
ATOM      6  O   UNL     1      53.254 -33.674  -8.386  1.00  0.00    -0.422 OA
ATOM      7  C   UNL     1      52.376 -34.306  -7.612  1.00  0.00     0.145 A 
ATOM      8  C   UNL     1      51.045 -33.796  -7.474  1.00  0.00     0.022 A 
ATOM      9  C   UNL     1      50.115 -34.482  -6.655  1.00  0.00     0.024 A 
ATOM     10  C   UNL     1      50.538 -35.640  -6.014  1.00  0.00     0.022 A 
ATOM     11  C   UNL     1      49.855 -36.500  -5.184  1.00  0.00     0.054 A 
ATOM     12  C   UNL     1      50.792 -37.475  -4.861  1.00  0.00     0.102 A 
ATOM     13  O   UNL     1      51.948 -37.230  -5.450  1.00  0.00    -0.461 OA
ATOM     14  C   UNL     1      51.809 -36.127  -6.146  1.00  0.00     0.140 A 
ATOM     15  C   UNL     1      52.770 -35.483  -6.930  1.00  0.00     0.036 A 
ATOM     16  C   UNL     1      54.152 -36.049  -7.087  1.00  0.00     0.052 C 
ATOM     17  C   UNL     1      50.537 -38.657  -3.987  1.00  0.00     0.087 C 
ENDROOT
TORSDOF 0
ENDMDL
MODEL 5
REMARK VINA RESULT:    -6.382     14.232     15.867
REMARK INTER + INTRA:          -6.382
REMARK INTER:                  -6.382
REMARK INTRA:                   0.000
REMARK UNBOUND:                 0.000
REMARK SMILES Cc1cc2cc3c(C)cc(=O)oc3c(C)c2o1
REMARK SMILES IDX 8 1 7 2 9 3 10 4 11 5 12 6 13 7 6 8 5 9 4 10 3 11 2 12 17 13
REMARK SMILES IDX 16 14 14 15 15 16 1 17
REMARK H PARENT
REMARK Flexibility Score: inf
ROOT
ATOM      1  C   UNL     1      41.862 -25.276  -7.200  1.00  0.00     0.045 C 
ATOM      2  C   UNL     1      40.495 -24.682  -7.419  1.00  0.00    -0.033 A 
ATOM      3  C   UNL     1      40.126 -24.268  -8.706  1.00  0.00     0.098 A 
ATOM      4  C   UNL     1      38.863 -23.715  -8.917  1.00  0.00     0.336 A 
ATOM      5  O   UNL     1      38.527 -23.340 -10.071  1.00  0.00    -0.246 OA
ATOM      6  O   UNL     1      38.008 -23.578  -7.910  1.00  0.00    -0.422 OA
ATOM      7  C   UNL     1      38.292 -23.951  -6.666  1.00  0.00     0.145 A 
ATOM      8  C   UNL     1      39.569 -24.525  -6.364  1.00  0.00     0.022 A 
ATOM      9  C   UNL     1      39.865 -24.909  -5.032  1.00  0.00     0.024 A 
ATOM     10  C   UNL     1      38.892 -24.707  -4.062  1.00  0.00     0.022 A 
ATOM     11  C   UNL     1      38.912 -24.968  -2.710  1.00  0.00     0.054 A 
ATOM     12  C   UNL     1      37.663 -24.550  -2.265  1.00  0.00     0.102 A 
ATOM     13  O   UNL     1      36.946 -24.069  -3.262  1.00  0.00    -0.461 OA
ATOM     14  C   UNL     1      37.673 -24.159  -4.351  1.00  0.00     0.140 A 
ATOM     15  C   UNL     1      37.323 -23.774  -5.648  1.00  0.00     0.036 A 
ATOM     16  C   UNL     1      35.990 -23.147  -5.940  1.00  0.00     0.052 C 
ATOM     17  C   UNL     1      37.191 -24.608  -0.851  1.00  0.00     0.087 C 
ENDROOT
TORSDOF 0
ENDMDL
MODEL 6
REMARK VINA RESULT:    -6.130     13.545     15.314
REMARK INTER + INTRA:          -6.130
REMARK INTER:                  -6.130
REMARK INTRA:                   0.000
REMARK UNBOUND:                 0.000
REMARK SMILES Cc1cc2cc3c(C)cc(=O)oc3c(C)c2o1
REMARK SMILES IDX 8 1 7 2 9 3 10 4 11 5 12 6 13 7 6 8 5 9 4 10 3 11 2 12 17 13
REMARK SMILES IDX 16 14 14 15 15 16 1 17
REMARK H PARENT
REMARK Flexibility Score: inf
ROOT
ATOM      1  C   UNL     1      38.532 -20.093  -1.950  1.00  0.00     0.045 C 
ATOM      2  C   UNL     1      38.942 -21.528  -2.159  1.00  0.00    -0.033 A 
ATOM      3  C   UNL     1      39.649 -22.192  -1.148  1.00  0.00     0.098 A 
ATOM      4  C   UNL     1      40.034 -23.520  -1.334  1.00  0.00     0.336 A 
ATOM      5  O   UNL     1      40.671 -24.121  -0.429  1.00  0.00    -0.246 OA
ATOM      6  O   UNL     1      39.735 -24.159  -2.459  1.00  0.00    -0.422 OA
ATOM      7  C   UNL     1      39.065 -23.590  -3.457  1.00  0.00     0.145 A 
ATOM      8  C   UNL     1      38.637 -22.228  -3.348  1.00  0.00     0.022 A 
ATOM      9  C   UNL     1      37.934 -21.628  -4.421  1.00  0.00     0.024 A 
ATOM     10  C   UNL     1      37.689 -22.396  -5.553  1.00  0.00     0.022 A 
ATOM     11  C   UNL     1      37.052 -22.073  -6.729  1.00  0.00     0.054 A 
ATOM     12  C   UNL     1      37.120 -23.238  -7.484  1.00  0.00     0.102 A 
ATOM     13  O   UNL     1      37.752 -24.190  -6.823  1.00  0.00    -0.461 OA
ATOM     14  C   UNL     1      38.098 -23.696  -5.657  1.00  0.00     0.140 A 
ATOM     15  C   UNL     1      38.784 -24.341  -4.624  1.00  0.00     0.036 A 
ATOM     16  C   UNL     1      39.251 -25.762  -4.769  1.00  0.00     0.052 C 
ATOM     17  C   UNL     1      36.580 -23.402  -8.865  1.00  0.00     0.087 C 
ENDROOT
TORSDOF 0
ENDMDL
MODEL 7
REMARK VINA RESULT:    -6.053     14.604     16.880
REMARK INTER + INTRA:          -6.053
REMARK INTER:                  -6.053
REMARK INTRA:                   0.000
REMARK UNBOUND:                 0.000
REMARK SMILES Cc1cc2cc3c(C)cc(=O)oc3c(C)c2o1
REMARK SMILES IDX 8 1 7 2 9 3 10 4 11 5 12 6 13 7 6 8 5 9 4 10 3 11 2 12 17 13
REMARK SMILES IDX 16 14 14 15 15 16 1 17
REMARK H PARENT
REMARK Flexibility Score: inf
ROOT
ATOM      1  C   UNL     1      37.053 -21.197  -8.614  1.00  0.00     0.045 C 
ATOM      2  C   UNL     1      37.266 -21.960  -7.333  1.00  0.00    -0.033 A 
ATOM      3  C   UNL     1      36.430 -21.707  -6.237  1.00  0.00     0.098 A 
ATOM      4  C   UNL     1      36.623 -22.408  -5.047  1.00  0.00     0.336 A 
ATOM      5  O   UNL     1      35.875 -22.184  -4.059  1.00  0.00    -0.246 OA
ATOM      6  O   UNL     1      37.589 -23.313  -4.944  1.00  0.00    -0.422 OA
ATOM      7  C   UNL     1      38.417 -23.603  -5.944  1.00  0.00     0.145 A 
ATOM      8  C   UNL     1      38.289 -22.926  -7.198  1.00  0.00     0.022 A 
ATOM      9  C   UNL     1      39.182 -23.235  -8.254  1.00  0.00     0.024 A 
ATOM     10  C   UNL     1      40.161 -24.194  -8.023  1.00  0.00     0.022 A 
ATOM     11  C   UNL     1      41.152 -24.674  -8.848  1.00  0.00     0.054 A 
ATOM     12  C   UNL     1      41.823 -25.608  -8.066  1.00  0.00     0.102 A 
ATOM     13  O   UNL     1      41.286 -25.686  -6.863  1.00  0.00    -0.461 OA
ATOM     14  C   UNL     1      40.282 -24.841  -6.824  1.00  0.00     0.140 A 
ATOM     15  C   UNL     1      39.421 -24.583  -5.754  1.00  0.00     0.036 A 
ATOM     16  C   UNL     1      39.589 -25.283  -4.435  1.00  0.00     0.052 C 
ATOM     17  C   UNL     1      43.004 -26.406  -8.503  1.00  0.00     0.087 C 
ENDROOT
TORSDOF 0
ENDMDL
MODEL 8
REMARK VINA RESULT:    -5.964     13.254     14.856
REMARK INTER + INTRA:          -5.964
REMARK INTER:                  -5.964
REMARK INTRA:                   0.000
REMARK UNBOUND:                 0.000
REMARK SMILES Cc1cc2cc3c(C)cc(=O)oc3c(C)c2o1
REMARK SMILES IDX 8 1 7 2 9 3 10 4 11 5 12 6 13 7 6 8 5 9 4 10 3 11 2 12 17 13
REMARK SMILES IDX 16 14 14 15 15 16 1 17
REMARK H PARENT
REMARK Flexibility Score: inf
ROOT
ATOM      1  C   UNL     1      40.416 -25.620  -5.956  1.00  0.00     0.045 C 
ATOM      2  C   UNL     1      39.225 -24.716  -5.769  1.00  0.00    -0.033 A 
ATOM      3  C   UNL     1      38.588 -24.180  -6.897  1.00  0.00     0.098 A 
ATOM      4  C   UNL     1      37.486 -23.340  -6.732  1.00  0.00     0.336 A 
ATOM      5  O   UNL     1      36.912 -22.855  -7.742  1.00  0.00    -0.246 OA
ATOM      6  O   UNL     1      37.036 -23.046  -5.519  1.00  0.00    -0.422 OA
ATOM      7  C   UNL     1      37.591 -23.520  -4.407  1.00  0.00     0.145 A 
ATOM      8  C   UNL     1      38.729 -24.386  -4.488  1.00  0.00     0.022 A 
ATOM      9  C   UNL     1      39.320 -24.878  -3.298  1.00  0.00     0.024 A 
ATOM     10  C   UNL     1      38.764 -24.490  -2.084  1.00  0.00     0.022 A 
ATOM     11  C   UNL     1      39.134 -24.799  -0.795  1.00  0.00     0.054 A 
ATOM     12  C   UNL     1      38.215 -24.118  -0.005  1.00  0.00     0.102 A 
ATOM     13  O   UNL     1      37.360 -23.446  -0.753  1.00  0.00    -0.461 OA
ATOM     14  C   UNL     1      37.678 -23.663  -2.007  1.00  0.00     0.140 A 
ATOM     15  C   UNL     1      37.049 -23.160  -3.150  1.00  0.00     0.036 A 
ATOM     16  C   UNL     1      35.875 -22.229  -3.044  1.00  0.00     0.052 C 
ATOM     17  C   UNL     1      38.197 -24.116   1.486  1.00  0.00     0.087 C 
ENDROOT
TORSDOF 0
ENDMDL
MODEL 9
REMARK VINA RESULT:    -5.931     11.968     14.175
REMARK INTER + INTRA:          -5.931
REMARK INTER:                  -5.931
REMARK INTRA:                   0.000
REMARK UNBOUND:                 0.000
REMARK SMILES Cc1cc2cc3c(C)cc(=O)oc3c(C)c2o1
REMARK SMILES IDX 8 1 7 2 9 3 10 4 11 5 12 6 13 7 6 8 5 9 4 10 3 11 2 12 17 13
REMARK SMILES IDX 16 14 14 15 15 16 1 17
REMARK H PARENT
REMARK Flexibility Score: inf
ROOT
ATOM      1  C   UNL     1      40.009 -25.518   1.159  1.00  0.00     0.045 C 
ATOM      2  C   UNL     1      38.870 -24.600   0.798  1.00  0.00    -0.033 A 
ATOM      3  C   UNL     1      38.124 -24.000   1.822  1.00  0.00     0.098 A 
ATOM      4  C   UNL     1      37.066 -23.150   1.496  1.00  0.00     0.336 A 
ATOM      5  O   UNL     1      36.392 -22.609   2.411  1.00  0.00    -0.246 OA
ATOM      6  O   UNL     1      36.762 -22.905   0.227  1.00  0.00    -0.422 OA
ATOM      7  C   UNL     1      37.429 -23.440  -0.792  1.00  0.00     0.145 A 
ATOM      8  C   UNL     1      38.525 -24.326  -0.544  1.00  0.00     0.022 A 
ATOM      9  C   UNL     1      39.222 -24.899  -1.637  1.00  0.00     0.024 A 
ATOM     10  C   UNL     1      38.803 -24.574  -2.922  1.00  0.00     0.022 A 
ATOM     11  C   UNL     1      39.279 -24.987  -4.146  1.00  0.00     0.054 A 
ATOM     12  C   UNL     1      38.461 -24.338  -5.064  1.00  0.00     0.102 A 
ATOM     13  O   UNL     1      37.560 -23.596  -4.449  1.00  0.00    -0.461 OA
ATOM     14  C   UNL     1      37.756 -23.728  -3.158  1.00  0.00     0.140 A 
ATOM     15  C   UNL     1      37.042 -23.126  -2.118  1.00  0.00     0.036 A 
ATOM     16  C   UNL     1      35.875 -22.222  -2.397  1.00  0.00     0.052 C 
ATOM     17  C   UNL     1      38.560 -24.469  -6.547  1.00  0.00     0.087 C 
ENDROOT
TORSDOF 0
ENDMDL
