MODEL 1
REMARK VINA RESULT:    -3.708      0.000      0.000
REMARK INTER + INTRA:          -5.474
REMARK INTER:                  -5.008
REMARK INTRA:                  -0.466
REMARK UNBOUND:                -0.466
REMARK SMILES CCCCCCCC(=O)[O-]
REMARK SMILES IDX 5 1 6 2 7 3 8 4 9 5 10 6 4 7 3 8 2 9 1 10
REMARK H PARENT
REMARK Flexibility Score: inf
ROOT
ATOM      1  C   UNL     1      -5.958  36.429  22.923  1.00  0.00     0.000 C 
ENDROOT
BRANCH   1   2
ATOM      2  C   UNL     1      -5.103  35.210  22.530  1.00  0.00     0.006 C 
BRANCH   2   3
ATOM      3  C   UNL     1      -4.233  35.427  21.281  1.00  0.00     0.053 C 
BRANCH   3   4
ATOM      4  C   UNL     1      -5.054  35.794  20.083  1.00  0.00     0.041 C 
ATOM      5  O   UNL     1      -5.884  34.975  19.608  1.00  0.00    -0.550 OA
ATOM      6  O   UNL     1      -4.926  37.054  19.511  1.00  0.00    -0.550 OA
ENDBRANCH   3   4
ENDBRANCH   2   3
ENDBRANCH   1   2
BRANCH   1   7
ATOM      7  C   UNL     1      -5.430  37.147  24.176  1.00  0.00     0.000 C 
BRANCH   7   8
ATOM      8  C   UNL     1      -5.089  38.621  23.913  1.00  0.00    -0.000 C 
BRANCH   8   9
ATOM      9  C   UNL     1      -4.834  38.910  22.426  1.00  0.00    -0.003 C 
ATOM     10  C   UNL     1      -5.771  39.999  21.909  1.00  0.00     0.004 C 
ENDBRANCH   8   9
ENDBRANCH   7   8
ENDBRANCH   1   7
TORSDOF 6
ENDMDL
MODEL 2
REMARK VINA RESULT:    -3.692      1.858      2.831
REMARK INTER + INTRA:          -5.453
REMARK INTER:                  -5.172
REMARK INTRA:                  -0.281
REMARK UNBOUND:                -0.466
REMARK SMILES CCCCCCCC(=O)[O-]
REMARK SMILES IDX 5 1 6 2 7 3 8 4 9 5 10 6 4 7 3 8 2 9 1 10
REMARK H PARENT
REMARK Flexibility Score: inf
ROOT
ATOM      1  C   UNL     1      -6.077  35.366  22.346  1.00  0.00     0.000 C 
ENDROOT
BRANCH   1   2
ATOM      2  C   UNL     1      -4.736  35.323  21.591  1.00  0.00     0.006 C 
BRANCH   2   3
ATOM      3  C   UNL     1      -4.700  36.187  20.320  1.00  0.00     0.053 C 
BRANCH   3   4
ATOM      4  C   UNL     1      -5.001  37.625  20.609  1.00  0.00     0.041 C 
ATOM      5  O   UNL     1      -5.810  38.262  19.884  1.00  0.00    -0.550 OA
ATOM      6  O   UNL     1      -4.414  38.253  21.702  1.00  0.00    -0.550 OA
ENDBRANCH   3   4
ENDBRANCH   2   3
ENDBRANCH   1   2
BRANCH   1   7
ATOM      7  C   UNL     1      -6.088  34.459  23.589  1.00  0.00     0.000 C 
BRANCH   7   8
ATOM      8  C   UNL     1      -6.086  35.256  24.902  1.00  0.00    -0.000 C 
BRANCH   8   9
ATOM      9  C   UNL     1      -5.827  36.754  24.681  1.00  0.00    -0.003 C 
ATOM     10  C   UNL     1      -4.947  37.328  25.788  1.00  0.00     0.004 C 
ENDBRANCH   8   9
ENDBRANCH   7   8
ENDBRANCH   1   7
TORSDOF 6
ENDMDL
MODEL 3
REMARK VINA RESULT:    -3.648      2.798      4.173
REMARK INTER + INTRA:          -5.394
REMARK INTER:                  -5.093
REMARK INTRA:                  -0.301
REMARK UNBOUND:                -0.466
REMARK SMILES CCCCCCCC(=O)[O-]
REMARK SMILES IDX 5 1 6 2 7 3 8 4 9 5 10 6 4 7 3 8 2 9 1 10
REMARK H PARENT
REMARK Flexibility Score: inf
ROOT
ATOM      1  C   UNL     1      -5.290  34.860  22.627  1.00  0.00     0.000 C 
ENDROOT
BRANCH   1   2
ATOM      2  C   UNL     1      -6.123  35.950  23.326  1.00  0.00     0.006 C 
BRANCH   2   3
ATOM      3  C   UNL     1      -5.820  36.111  24.825  1.00  0.00     0.053 C 
BRANCH   3   4
ATOM      4  C   UNL     1      -5.146  37.414  25.124  1.00  0.00     0.041 C 
ATOM      5  O   UNL     1      -4.601  37.603  26.244  1.00  0.00    -0.550 OA
ATOM      6  O   UNL     1      -5.089  38.408  24.154  1.00  0.00    -0.550 OA
ENDBRANCH   3   4
ENDBRANCH   2   3
ENDBRANCH   1   2
BRANCH   1   7
ATOM      7  C   UNL     1      -4.419  35.417  21.487  1.00  0.00     0.000 C 
BRANCH   7   8
ATOM      8  C   UNL     1      -5.226  35.696  20.210  1.00  0.00    -0.000 C 
BRANCH   8   9
ATOM      9  C   UNL     1      -5.003  37.117  19.670  1.00  0.00    -0.003 C 
ATOM     10  C   UNL     1      -5.390  38.166  20.709  1.00  0.00     0.004 C 
ENDBRANCH   8   9
ENDBRANCH   7   8
ENDBRANCH   1   7
TORSDOF 6
ENDMDL
MODEL 4
REMARK VINA RESULT:    -3.555      2.856      4.772
REMARK INTER + INTRA:          -5.268
REMARK INTER:                  -4.999
REMARK INTRA:                  -0.269
REMARK UNBOUND:                -0.466
REMARK SMILES CCCCCCCC(=O)[O-]
REMARK SMILES IDX 5 1 6 2 7 3 8 4 9 5 10 6 4 7 3 8 2 9 1 10
REMARK H PARENT
REMARK Flexibility Score: inf
ROOT
ATOM      1  C   UNL     1      -5.048  35.673  22.168  1.00  0.00     0.000 C 
ENDROOT
BRANCH   1   2
ATOM      2  C   UNL     1      -6.123  36.045  23.205  1.00  0.00     0.006 C 
BRANCH   2   3
ATOM      3  C   UNL     1      -5.615  36.076  24.656  1.00  0.00     0.053 C 
BRANCH   3   4
ATOM      4  C   UNL     1      -5.115  37.432  25.047  1.00  0.00     0.041 C 
ATOM      5  O   UNL     1      -4.613  37.618  26.187  1.00  0.00    -0.550 OA
ATOM      6  O   UNL     1      -5.171  38.483  24.140  1.00  0.00    -0.550 OA
ENDBRANCH   3   4
ENDBRANCH   2   3
ENDBRANCH   1   2
BRANCH   1   7
ATOM      7  C   UNL     1      -4.879  36.744  21.077  1.00  0.00     0.000 C 
BRANCH   7   8
ATOM      8  C   UNL     1      -4.976  36.163  19.658  1.00  0.00    -0.000 C 
BRANCH   8   9
ATOM      9  C   UNL     1      -5.887  34.928  19.588  1.00  0.00    -0.003 C 
ATOM     10  C   UNL     1      -5.516  34.038  18.405  1.00  0.00     0.004 C 
ENDBRANCH   8   9
ENDBRANCH   7   8
ENDBRANCH   1   7
TORSDOF 6
ENDMDL
MODEL 5
REMARK VINA RESULT:    -3.545      2.886      4.641
REMARK INTER + INTRA:          -5.255
REMARK INTER:                  -4.978
REMARK INTRA:                  -0.276
REMARK UNBOUND:                -0.466
REMARK SMILES CCCCCCCC(=O)[O-]
REMARK SMILES IDX 5 1 6 2 7 3 8 4 9 5 10 6 4 7 3 8 2 9 1 10
REMARK H PARENT
REMARK Flexibility Score: inf
ROOT
ATOM      1  C   UNL     1      -4.538  37.974  21.482  1.00  0.00     0.000 C 
ENDROOT
BRANCH   1   2
ATOM      2  C   UNL     1      -5.408  37.859  22.747  1.00  0.00     0.006 C 
BRANCH   2   3
ATOM      3  C   UNL     1      -5.750  36.415  23.148  1.00  0.00     0.053 C 
BRANCH   3   4
ATOM      4  C   UNL     1      -5.661  36.208  24.628  1.00  0.00     0.041 C 
ATOM      5  O   UNL     1      -6.125  35.160  25.150  1.00  0.00    -0.550 OA
ATOM      6  O   UNL     1      -5.036  37.157  25.428  1.00  0.00    -0.550 OA
ENDBRANCH   3   4
ENDBRANCH   2   3
ENDBRANCH   1   2
BRANCH   1   7
ATOM      7  C   UNL     1      -5.316  37.653  20.194  1.00  0.00     0.000 C 
BRANCH   7   8
ATOM      8  C   UNL     1      -4.845  36.351  19.529  1.00  0.00    -0.000 C 
BRANCH   8   9
ATOM      9  C   UNL     1      -5.849  35.202  19.706  1.00  0.00    -0.003 C 
ATOM     10  C   UNL     1      -5.636  34.119  18.652  1.00  0.00     0.004 C 
ENDBRANCH   8   9
ENDBRANCH   7   8
ENDBRANCH   1   7
TORSDOF 6
ENDMDL
MODEL 6
REMARK VINA RESULT:    -3.335      2.489      3.392
REMARK INTER + INTRA:          -4.971
REMARK INTER:                  -4.547
REMARK INTRA:                  -0.425
REMARK UNBOUND:                -0.466
REMARK SMILES CCCCCCCC(=O)[O-]
REMARK SMILES IDX 5 1 6 2 7 3 8 4 9 5 10 6 4 7 3 8 2 9 1 10
REMARK H PARENT
REMARK Flexibility Score: inf
ROOT
ATOM      1  C   UNL     1      -4.288  36.577  20.909  1.00  0.00     0.000 C 
ENDROOT
BRANCH   1   2
ATOM      2  C   UNL     1      -4.857  35.270  21.490  1.00  0.00     0.006 C 
BRANCH   2   3
ATOM      3  C   UNL     1      -6.110  35.460  22.360  1.00  0.00     0.053 C 
BRANCH   3   4
ATOM      4  C   UNL     1      -5.933  34.886  23.732  1.00  0.00     0.041 C 
ATOM      5  O   UNL     1      -5.726  35.646  24.715  1.00  0.00    -0.550 OA
ATOM      6  O   UNL     1      -6.031  33.514  23.931  1.00  0.00    -0.550 OA
ENDBRANCH   3   4
ENDBRANCH   2   3
ENDBRANCH   1   2
BRANCH   1   7
ATOM      7  C   UNL     1      -5.372  37.471  20.281  1.00  0.00     0.000 C 
BRANCH   7   8
ATOM      8  C   UNL     1      -5.682  38.711  21.134  1.00  0.00    -0.000 C 
BRANCH   8   9
ATOM      9  C   UNL     1      -4.577  39.012  22.158  1.00  0.00    -0.003 C 
ATOM     10  C   UNL     1      -5.137  39.032  23.578  1.00  0.00     0.004 C 
ENDBRANCH   8   9
ENDBRANCH   7   8
ENDBRANCH   1   7
TORSDOF 6
ENDMDL
MODEL 7
REMARK VINA RESULT:    -3.335      2.839      4.436
REMARK INTER + INTRA:          -4.970
REMARK INTER:                  -4.568
REMARK INTRA:                  -0.402
REMARK UNBOUND:                -0.466
REMARK SMILES CCCCCCCC(=O)[O-]
REMARK SMILES IDX 5 1 6 2 7 3 8 4 9 5 10 6 4 7 3 8 2 9 1 10
REMARK H PARENT
REMARK Flexibility Score: inf
ROOT
ATOM      1  C   UNL     1      -4.820  39.120  22.058  1.00  0.00     0.000 C 
ENDROOT
BRANCH   1   2
ATOM      2  C   UNL     1      -5.016  38.676  23.519  1.00  0.00     0.006 C 
BRANCH   2   3
ATOM      3  C   UNL     1      -5.791  37.357  23.679  1.00  0.00     0.053 C 
BRANCH   3   4
ATOM      4  C   UNL     1      -5.480  36.677  24.976  1.00  0.00     0.041 C 
ATOM      5  O   UNL     1      -5.842  35.487  25.171  1.00  0.00    -0.550 OA
ATOM      6  O   UNL     1      -4.760  37.347  25.958  1.00  0.00    -0.550 OA
ENDBRANCH   3   4
ENDBRANCH   2   3
ENDBRANCH   1   2
BRANCH   1   7
ATOM      7  C   UNL     1      -5.744  38.373  21.080  1.00  0.00     0.000 C 
BRANCH   7   8
ATOM      8  C   UNL     1      -4.965  37.530  20.059  1.00  0.00    -0.000 C 
BRANCH   8   9
ATOM      9  C   UNL     1      -5.237  36.025  20.207  1.00  0.00    -0.003 C 
ATOM     10  C   UNL     1      -4.256  35.383  21.184  1.00  0.00     0.004 C 
ENDBRANCH   8   9
ENDBRANCH   7   8
ENDBRANCH   1   7
TORSDOF 6
ENDMDL
MODEL 8
REMARK VINA RESULT:    -3.117      2.493      4.229
REMARK INTER + INTRA:          -4.677
REMARK INTER:                  -4.691
REMARK INTRA:                   0.014
REMARK UNBOUND:                -0.466
REMARK SMILES CCCCCCCC(=O)[O-]
REMARK SMILES IDX 5 1 6 2 7 3 8 4 9 5 10 6 4 7 3 8 2 9 1 10
REMARK H PARENT
REMARK Flexibility Score: inf
ROOT
ATOM      1  C   UNL     1      -4.885  36.114  20.212  1.00  0.00     0.000 C 
ENDROOT
BRANCH   1   2
ATOM      2  C   UNL     1      -5.003  37.623  20.494  1.00  0.00     0.006 C 
BRANCH   2   3
ATOM      3  C   UNL     1      -5.761  37.965  21.787  1.00  0.00     0.053 C 
BRANCH   3   4
ATOM      4  C   UNL     1      -5.372  39.306  22.327  1.00  0.00     0.041 C 
ATOM      5  O   UNL     1      -5.747  40.357  21.745  1.00  0.00    -0.550 OA
ATOM      6  O   UNL     1      -4.623  39.395  23.495  1.00  0.00    -0.550 OA
ENDBRANCH   3   4
ENDBRANCH   2   3
ENDBRANCH   1   2
BRANCH   1   7
ATOM      7  C   UNL     1      -4.648  35.287  21.488  1.00  0.00     0.000 C 
BRANCH   7   8
ATOM      8  C   UNL     1      -5.957  34.829  22.146  1.00  0.00    -0.000 C 
BRANCH   8   9
ATOM      9  C   UNL     1      -5.767  34.420  23.615  1.00  0.00    -0.003 C 
ATOM     10  C   UNL     1      -6.125  35.567  24.556  1.00  0.00     0.004 C 
ENDBRANCH   8   9
ENDBRANCH   7   8
ENDBRANCH   1   7
TORSDOF 6
ENDMDL
MODEL 9
REMARK VINA RESULT:    -3.054      2.036      2.657
REMARK INTER + INTRA:          -4.592
REMARK INTER:                  -4.343
REMARK INTRA:                  -0.248
REMARK UNBOUND:                -0.466
REMARK SMILES CCCCCCCC(=O)[O-]
REMARK SMILES IDX 5 1 6 2 7 3 8 4 9 5 10 6 4 7 3 8 2 9 1 10
REMARK H PARENT
REMARK Flexibility Score: inf
ROOT
ATOM      1  C   UNL     1      -4.826  35.512  22.485  1.00  0.00     0.000 C 
ENDROOT
BRANCH   1   2
ATOM      2  C   UNL     1      -5.555  36.089  21.258  1.00  0.00     0.006 C 
BRANCH   2   3
ATOM      3  C   UNL     1      -6.125  35.025  20.305  1.00  0.00     0.053 C 
BRANCH   3   4
ATOM      4  C   UNL     1      -5.372  34.968  19.012  1.00  0.00     0.041 C 
ATOM      5  O   UNL     1      -5.451  33.949  18.277  1.00  0.00    -0.550 OA
ATOM      6  O   UNL     1      -4.610  36.056  18.602  1.00  0.00    -0.550 OA
ENDBRANCH   3   4
ENDBRANCH   2   3
ENDBRANCH   1   2
BRANCH   1   7
ATOM      7  C   UNL     1      -5.747  34.662  23.379  1.00  0.00     0.000 C 
BRANCH   7   8
ATOM      8  C   UNL     1      -5.999  35.308  24.749  1.00  0.00    -0.000 C 
BRANCH   8   9
ATOM      9  C   UNL     1      -5.775  36.828  24.735  1.00  0.00    -0.003 C 
ATOM     10  C   UNL     1      -4.882  37.262  25.894  1.00  0.00     0.004 C 
ENDBRANCH   8   9
ENDBRANCH   7   8
ENDBRANCH   1   7
TORSDOF 6
ENDMDL
