MODEL 1
REMARK VINA RESULT:    -3.764      0.000      0.000
REMARK INTER + INTRA:          -3.880
REMARK INTER:                  -4.644
REMARK INTRA:                   0.764
REMARK UNBOUND:                 0.764
REMARK SMILES CC1=CC=CC(C)(C)CC1=O
REMARK SMILES IDX 1 1 2 2 3 3 10 4 11 5 9 6 4 8 5 9 6 10 7 11 8 12
REMARK H PARENT
REMARK Flexibility Score: 80.00
ROOT
ATOM      1  C   UNL     1     -28.752  14.374 -31.471  1.00  0.00     0.048 C 
ATOM      2  C   UNL     1     -28.250  13.408 -30.424  1.00  0.00    -0.008 C 
ATOM      3  C   UNL     1     -29.169  12.777 -29.662  1.00  0.00     0.007 C 
ENDROOT
BRANCH   2   4
ATOM      4  C   UNL     1     -26.785  13.176 -30.367  1.00  0.00     0.159 C 
ATOM      5  O   UNL     1     -26.061  13.626 -31.298  1.00  0.00    -0.295 OA
BRANCH   4   6
ATOM      6  C   UNL     1     -26.107  12.440 -29.252  1.00  0.00     0.091 CG0
ATOM      7  G   UNL     1     -26.607  10.988 -29.087  1.00  0.00     0.000 G0
ENDBRANCH   4   6
ENDBRANCH   2   4
BRANCH   3   8
ATOM      8  C   UNL     1     -28.986  11.772 -28.589  1.00  0.00    -0.003 C 
ATOM      9  C   UNL     1     -27.925  10.997 -28.329  1.00  0.00    -0.020 C 
BRANCH   9  10
ATOM     10  C   UNL     1     -26.614  10.989 -29.080  1.00  0.00    -0.010 CG0
ATOM     11  C   UNL     1     -26.782  10.249 -30.427  1.00  0.00     0.016 C 
ATOM     12  C   UNL     1     -25.577  10.215 -28.236  1.00  0.00     0.016 C 
ATOM     13  G   UNL     1     -26.106  12.438 -29.256  1.00  0.00     0.000 G0
ENDBRANCH   9  10
ENDBRANCH   3   8
TORSDOF 0
ENDMDL
MODEL 2
REMARK VINA RESULT:    -3.732      9.465     11.025
REMARK INTER + INTRA:          -3.841
REMARK INTER:                  -4.588
REMARK INTRA:                   0.747
REMARK UNBOUND:                 0.764
REMARK SMILES CC1=CC=CC(C)(C)CC1=O
REMARK SMILES IDX 1 1 2 2 3 3 10 4 11 5 9 6 4 8 5 9 6 10 7 11 8 12
REMARK H PARENT
REMARK Flexibility Score: 80.00
ROOT
ATOM      1  C   UNL     1     -18.910  10.178 -29.095  1.00  0.00     0.048 C 
ATOM      2  C   UNL     1     -17.707  11.078 -29.257  1.00  0.00    -0.008 C 
ATOM      3  C   UNL     1     -16.489  10.497 -29.283  1.00  0.00     0.007 C 
ENDROOT
BRANCH   2   4
ATOM      4  C   UNL     1     -17.970  12.527 -29.450  1.00  0.00     0.159 C 
ATOM      5  O   UNL     1     -19.152  12.906 -29.674  1.00  0.00    -0.295 OA
BRANCH   4   6
ATOM      6  C   UNL     1     -16.903  13.576 -29.380  1.00  0.00     0.091 CG0
ATOM      7  G   UNL     1     -15.785  13.380 -30.429  1.00  0.00     0.000 G0
ENDBRANCH   4   6
ENDBRANCH   2   4
BRANCH   3   8
ATOM      8  C   UNL     1     -15.149  11.105 -29.452  1.00  0.00    -0.003 C 
ATOM      9  C   UNL     1     -14.823  12.308 -29.943  1.00  0.00    -0.020 C 
BRANCH   9  10
ATOM     10  C   UNL     1     -15.782  13.370 -30.427  1.00  0.00    -0.010 CG0
ATOM     11  C   UNL     1     -16.315  13.000 -31.831  1.00  0.00     0.016 C 
ATOM     12  C   UNL     1     -15.010  14.703 -30.545  1.00  0.00     0.016 C 
ATOM     13  G   UNL     1     -16.913  13.560 -29.392  1.00  0.00     0.000 G0
ENDBRANCH   9  10
ENDBRANCH   3   8
TORSDOF 0
ENDMDL
MODEL 3
REMARK VINA RESULT:    -3.705      1.741      2.617
REMARK INTER + INTRA:          -3.807
REMARK INTER:                  -4.548
REMARK INTRA:                   0.741
REMARK UNBOUND:                 0.764
REMARK SMILES CC1=CC=CC(C)(C)CC1=O
REMARK SMILES IDX 1 1 2 2 3 3 10 4 11 5 9 6 4 8 5 9 6 10 7 11 8 12
REMARK H PARENT
REMARK Flexibility Score: 80.00
ROOT
ATOM      1  C   UNL     1     -28.752  14.002 -31.190  1.00  0.00     0.048 C 
ATOM      2  C   UNL     1     -27.437  13.306 -30.928  1.00  0.00    -0.008 C 
ATOM      3  C   UNL     1     -26.369  14.076 -30.630  1.00  0.00     0.007 C 
ENDROOT
BRANCH   2   4
ATOM      4  C   UNL     1     -27.444  11.821 -30.948  1.00  0.00     0.159 C 
ATOM      5  O   UNL     1     -28.552  11.218 -30.969  1.00  0.00    -0.295 OA
BRANCH   4   6
ATOM      6  C   UNL     1     -26.199  10.989 -30.954  1.00  0.00     0.091 CG0
ATOM      7  G   UNL     1     -25.301  11.225 -29.720  1.00  0.00     0.000 G0
ENDBRANCH   4   6
ENDBRANCH   2   4
BRANCH   3   8
ATOM      8  C   UNL     1     -24.977  13.687 -30.306  1.00  0.00    -0.003 C 
ATOM      9  C   UNL     1     -24.503  12.499 -29.908  1.00  0.00    -0.020 C 
BRANCH   9  10
ATOM     10  C   UNL     1     -25.302  11.230 -29.721  1.00  0.00    -0.010 CG0
ATOM     11  C   UNL     1     -26.093  11.295 -28.393  1.00  0.00     0.016 C 
ATOM     12  C   UNL     1     -24.316  10.045 -29.632  1.00  0.00     0.016 C 
ATOM     13  G   UNL     1     -26.216  11.005 -30.947  1.00  0.00     0.000 G0
ENDBRANCH   9  10
ENDBRANCH   3   8
TORSDOF 0
ENDMDL
MODEL 4
REMARK VINA RESULT:    -3.680     12.515     13.721
REMARK INTER + INTRA:          -3.777
REMARK INTER:                  -4.538
REMARK INTRA:                   0.761
REMARK UNBOUND:                 0.764
REMARK SMILES CC1=CC=CC(C)(C)CC1=O
REMARK SMILES IDX 1 1 2 2 3 3 10 4 11 5 9 6 4 8 5 9 6 10 7 11 8 12
REMARK H PARENT
REMARK Flexibility Score: 80.00
ROOT
ATOM      1  C   UNL     1     -11.226  14.761 -32.649  1.00  0.00     0.048 C 
ATOM      2  C   UNL     1     -12.443  14.425 -31.820  1.00  0.00    -0.008 C 
ATOM      3  C   UNL     1     -13.241  15.445 -31.438  1.00  0.00     0.007 C 
ENDROOT
BRANCH   2   4
ATOM      4  C   UNL     1     -12.704  12.988 -31.555  1.00  0.00     0.159 C 
ATOM      5  O   UNL     1     -12.027  12.122 -32.174  1.00  0.00    -0.295 OA
BRANCH   4   6
ATOM      6  C   UNL     1     -13.728  12.501 -30.576  1.00  0.00     0.091 CG0
ATOM      7  G   UNL     1     -15.158  12.989 -30.896  1.00  0.00     0.000 G0
ENDBRANCH   4   6
ENDBRANCH   2   4
BRANCH   3   8
ATOM      8  C   UNL     1     -14.498  15.427 -30.655  1.00  0.00    -0.003 C 
ATOM      9  C   UNL     1     -15.333  14.407 -30.421  1.00  0.00    -0.020 C 
BRANCH   9  10
ATOM     10  C   UNL     1     -15.164  12.982 -30.895  1.00  0.00    -0.010 CG0
ATOM     11  C   UNL     1     -15.514  12.881 -32.398  1.00  0.00     0.016 C 
ATOM     12  C   UNL     1     -16.155  12.091 -30.113  1.00  0.00     0.016 C 
ATOM     13  G   UNL     1     -13.731  12.497 -30.584  1.00  0.00     0.000 G0
ENDBRANCH   9  10
ENDBRANCH   3   8
TORSDOF 0
ENDMDL
MODEL 5
REMARK VINA RESULT:    -3.673     11.768     12.993
REMARK INTER + INTRA:          -3.768
REMARK INTER:                  -4.515
REMARK INTRA:                   0.747
REMARK UNBOUND:                 0.764
REMARK SMILES CC1=CC=CC(C)(C)CC1=O
REMARK SMILES IDX 1 1 2 2 3 3 10 4 11 5 9 6 4 8 5 9 6 10 7 11 8 12
REMARK H PARENT
REMARK Flexibility Score: 80.00
ROOT
ATOM      1  C   UNL     1     -12.006  14.870 -32.546  1.00  0.00     0.048 C 
ATOM      2  C   UNL     1     -13.343  14.342 -32.078  1.00  0.00    -0.008 C 
ATOM      3  C   UNL     1     -13.847  13.262 -32.713  1.00  0.00     0.007 C 
ENDROOT
BRANCH   2   4
ATOM      4  C   UNL     1     -13.959  15.012 -30.906  1.00  0.00     0.159 C 
ATOM      5  O   UNL     1     -13.278  15.853 -30.257  1.00  0.00    -0.295 OA
BRANCH   4   6
ATOM      6  C   UNL     1     -15.363  14.754 -30.451  1.00  0.00     0.091 CG0
ATOM      7  G   UNL     1     -15.635  13.270 -30.121  1.00  0.00     0.000 G0
ENDBRANCH   4   6
ENDBRANCH   2   4
BRANCH   3   8
ATOM      8  C   UNL     1     -15.102  12.515 -32.467  1.00  0.00    -0.003 C 
ATOM      9  C   UNL     1     -15.874  12.497 -31.373  1.00  0.00    -0.020 C 
BRANCH   9  10
ATOM     10  C   UNL     1     -15.650  13.286 -30.103  1.00  0.00    -0.010 CG0
ATOM     11  C   UNL     1     -14.534  12.624 -29.261  1.00  0.00     0.016 C 
ATOM     12  C   UNL     1     -16.955  13.253 -29.276  1.00  0.00     0.016 C 
ATOM     13  G   UNL     1     -15.338  14.758 -30.453  1.00  0.00     0.000 G0
ENDBRANCH   9  10
ENDBRANCH   3   8
TORSDOF 0
ENDMDL
MODEL 6
REMARK VINA RESULT:    -3.566      9.533     11.043
REMARK INTER + INTRA:          -3.636
REMARK INTER:                  -4.385
REMARK INTRA:                   0.749
REMARK UNBOUND:                 0.764
REMARK SMILES CC1=CC=CC(C)(C)CC1=O
REMARK SMILES IDX 1 1 2 2 3 3 10 4 11 5 9 6 4 8 5 9 6 10 7 11 8 12
REMARK H PARENT
REMARK Flexibility Score: 80.00
ROOT
ATOM      1  C   UNL     1     -13.441  12.344 -31.081  1.00  0.00     0.048 C 
ATOM      2  C   UNL     1     -14.854  11.933 -30.737  1.00  0.00    -0.008 C 
ATOM      3  C   UNL     1     -15.019  10.797 -30.025  1.00  0.00     0.007 C 
ENDROOT
BRANCH   2   4
ATOM      4  C   UNL     1     -15.944  12.853 -31.147  1.00  0.00     0.159 C 
ATOM      5  O   UNL     1     -15.642  14.006 -31.561  1.00  0.00    -0.295 OA
BRANCH   4   6
ATOM      6  C   UNL     1     -17.395  12.484 -31.109  1.00  0.00     0.091 CG0
ATOM      7  G   UNL     1     -17.892  12.110 -29.696  1.00  0.00     0.000 G0
ENDBRANCH   4   6
ENDBRANCH   2   4
BRANCH   3   8
ATOM      8  C   UNL     1     -16.260  10.162 -29.524  1.00  0.00    -0.003 C 
ATOM      9  C   UNL     1     -17.477  10.696 -29.364  1.00  0.00    -0.020 C 
BRANCH   9  10
ATOM     10  C   UNL     1     -17.888  12.112 -29.697  1.00  0.00    -0.010 CG0
ATOM     11  C   UNL     1     -17.371  13.081 -28.608  1.00  0.00     0.016 C 
ATOM     12  C   UNL     1     -19.431  12.181 -29.704  1.00  0.00     0.016 C 
ATOM     13  G   UNL     1     -17.383  12.481 -31.110  1.00  0.00     0.000 G0
ENDBRANCH   9  10
ENDBRANCH   3   8
TORSDOF 0
ENDMDL
MODEL 7
REMARK VINA RESULT:    -3.549      1.548      2.670
REMARK INTER + INTRA:          -3.615
REMARK INTER:                  -4.373
REMARK INTRA:                   0.759
REMARK UNBOUND:                 0.764
REMARK SMILES CC1=CC=CC(C)(C)CC1=O
REMARK SMILES IDX 1 1 2 2 3 3 10 4 11 5 9 6 4 8 5 9 6 10 7 11 8 12
REMARK H PARENT
REMARK Flexibility Score: 80.00
ROOT
ATOM      1  C   UNL     1     -25.662  15.482 -30.538  1.00  0.00     0.048 C 
ATOM      2  C   UNL     1     -25.970  14.011 -30.378  1.00  0.00    -0.008 C 
ATOM      3  C   UNL     1     -25.126  13.273 -29.625  1.00  0.00     0.007 C 
ENDROOT
BRANCH   2   4
ATOM      4  C   UNL     1     -27.221  13.512 -31.001  1.00  0.00     0.159 C 
ATOM      5  O   UNL     1     -28.056  14.348 -31.443  1.00  0.00    -0.295 OA
BRANCH   4   6
ATOM      6  C   UNL     1     -27.547  12.057 -31.148  1.00  0.00     0.091 CG0
ATOM      7  G   UNL     1     -27.615  11.308 -29.799  1.00  0.00     0.000 G0
ENDBRANCH   4   6
ENDBRANCH   2   4
BRANCH   3   8
ATOM      8  C   UNL     1     -25.178  11.836 -29.270  1.00  0.00    -0.003 C 
ATOM      9  C   UNL     1     -26.215  10.991 -29.321  1.00  0.00    -0.020 C 
BRANCH   9  10
ATOM     10  C   UNL     1     -27.613  11.312 -29.797  1.00  0.00    -0.010 CG0
ATOM     11  C   UNL     1     -28.369  12.111 -28.710  1.00  0.00     0.016 C 
ATOM     12  C   UNL     1     -28.365   9.982 -30.022  1.00  0.00     0.016 C 
ATOM     13  G   UNL     1     -27.544  12.061 -31.146  1.00  0.00     0.000 G0
ENDBRANCH   9  10
ENDBRANCH   3   8
TORSDOF 0
ENDMDL
MODEL 8
REMARK VINA RESULT:    -3.545      1.672      2.783
REMARK INTER + INTRA:          -3.610
REMARK INTER:                  -4.369
REMARK INTRA:                   0.759
REMARK UNBOUND:                 0.764
REMARK SMILES CC1=CC=CC(C)(C)CC1=O
REMARK SMILES IDX 1 1 2 2 3 3 10 4 11 5 9 6 4 8 5 9 6 10 7 11 8 12
REMARK H PARENT
REMARK Flexibility Score: 80.00
ROOT
ATOM      1  C   UNL     1     -24.167  13.898 -30.408  1.00  0.00     0.048 C 
ATOM      2  C   UNL     1     -25.533  13.262 -30.309  1.00  0.00    -0.008 C 
ATOM      3  C   UNL     1     -26.590  13.973 -30.756  1.00  0.00     0.007 C 
ENDROOT
BRANCH   2   4
ATOM      4  C   UNL     1     -25.594  11.870 -29.794  1.00  0.00     0.159 C 
ATOM      5  O   UNL     1     -24.518  11.227 -29.653  1.00  0.00    -0.295 OA
BRANCH   4   6
ATOM      6  C   UNL     1     -26.871  11.183 -29.418  1.00  0.00     0.091 CG0
ATOM      7  G   UNL     1     -27.884  11.099 -30.581  1.00  0.00     0.000 G0
ENDBRANCH   4   6
ENDBRANCH   2   4
BRANCH   3   8
ATOM      8  C   UNL     1     -28.025  13.611 -30.812  1.00  0.00    -0.003 C 
ATOM      9  C   UNL     1     -28.594  12.400 -30.753  1.00  0.00    -0.020 C 
BRANCH   9  10
ATOM     10  C   UNL     1     -27.879  11.080 -30.579  1.00  0.00    -0.010 CG0
ATOM     11  C   UNL     1     -27.215  10.660 -31.912  1.00  0.00     0.016 C 
ATOM     12  C   UNL     1     -28.926  10.007 -30.208  1.00  0.00     0.016 C 
ATOM     13  G   UNL     1     -26.866  11.186 -29.418  1.00  0.00     0.000 G0
ENDBRANCH   9  10
ENDBRANCH   3   8
TORSDOF 0
ENDMDL
MODEL 9
REMARK VINA RESULT:    -3.442     10.588     12.113
REMARK INTER + INTRA:          -3.483
REMARK INTER:                  -4.229
REMARK INTRA:                   0.746
REMARK UNBOUND:                 0.764
REMARK SMILES CC1=CC=CC(C)(C)CC1=O
REMARK SMILES IDX 1 1 2 2 3 3 10 4 11 5 9 6 4 8 5 9 6 10 7 11 8 12
REMARK H PARENT
REMARK Flexibility Score: 80.00
ROOT
ATOM      1  C   UNL     1     -15.102  11.307 -26.658  1.00  0.00     0.048 C 
ATOM      2  C   UNL     1     -15.539  11.568 -28.080  1.00  0.00    -0.008 C 
ATOM      3  C   UNL     1     -16.864  11.559 -28.340  1.00  0.00     0.007 C 
ENDROOT
BRANCH   2   4
ATOM      4  C   UNL     1     -14.475  11.888 -29.065  1.00  0.00     0.159 C 
ATOM      5  O   UNL     1     -13.313  12.140 -28.644  1.00  0.00    -0.295 OA
BRANCH   4   6
ATOM      6  C   UNL     1     -14.702  11.918 -30.545  1.00  0.00     0.091 CG0
ATOM      7  G   UNL     1     -15.760  12.957 -30.979  1.00  0.00     0.000 G0
ENDBRANCH   4   6
ENDBRANCH   2   4
BRANCH   3   8
ATOM      8  C   UNL     1     -17.585  11.803 -29.610  1.00  0.00    -0.003 C 
ATOM      9  C   UNL     1     -17.151  12.401 -30.727  1.00  0.00    -0.020 C 
BRANCH   9  10
ATOM     10  C   UNL     1     -15.767  12.958 -30.967  1.00  0.00    -0.010 CG0
ATOM     11  C   UNL     1     -15.612  14.316 -30.243  1.00  0.00     0.016 C 
ATOM     12  C   UNL     1     -15.600  13.204 -32.483  1.00  0.00     0.016 C 
ATOM     13  G   UNL     1     -14.707  11.924 -30.527  1.00  0.00     0.000 G0
ENDBRANCH   9  10
ENDBRANCH   3   8
TORSDOF 0
ENDMDL
