MODEL 1
REMARK VINA RESULT:    -2.268      0.000      0.000
REMARK INTER + INTRA:          -2.268
REMARK INTER:                  -2.268
REMARK INTRA:                   0.000
REMARK UNBOUND:                 0.000
REMARK SMILES CC(=O)[O-]
REMARK SMILES IDX 1 1 2 2 3 3 4 4
REMARK H PARENT
REMARK Flexibility Score: inf
ROOT
ATOM      1  C   UNL     1       8.816   4.884  21.633  1.00  0.00     0.063 C 
ATOM      2  C   UNL     1       7.531   5.549  21.994  1.00  0.00     0.038 C 
ATOM      3  O   UNL     1       7.043   6.431  21.241  1.00  0.00    -0.550 OA
ATOM      4  O   UNL     1       6.844   5.159  23.137  1.00  0.00    -0.550 OA
ENDROOT
TORSDOF 0
ENDMDL
MODEL 2
REMARK VINA RESULT:    -2.249      9.676     10.060
REMARK INTER + INTRA:          -2.249
REMARK INTER:                  -2.249
REMARK INTRA:                   0.000
REMARK UNBOUND:                 0.000
REMARK SMILES CC(=O)[O-]
REMARK SMILES IDX 1 1 2 2 3 3 4 4
REMARK H PARENT
REMARK Flexibility Score: inf
ROOT
ATOM      1  C   UNL     1      11.020   6.307  13.818  1.00  0.00     0.063 C 
ATOM      2  C   UNL     1      10.735   7.301  12.745  1.00  0.00     0.038 C 
ATOM      3  O   UNL     1      11.154   8.483  12.851  1.00  0.00    -0.550 OA
ATOM      4  O   UNL     1      10.051   6.912  11.600  1.00  0.00    -0.550 OA
ENDROOT
TORSDOF 0
ENDMDL
MODEL 3
REMARK VINA RESULT:    -2.243     19.945     20.396
REMARK INTER + INTRA:          -2.243
REMARK INTER:                  -2.243
REMARK INTRA:                   0.000
REMARK UNBOUND:                 0.000
REMARK SMILES CC(=O)[O-]
REMARK SMILES IDX 1 1 2 2 3 3 4 4
REMARK H PARENT
REMARK Flexibility Score: inf
ROOT
ATOM      1  C   UNL     1      16.747  -4.605   8.503  1.00  0.00     0.063 C 
ATOM      2  C   UNL     1      17.055  -4.494   7.049  1.00  0.00     0.038 C 
ATOM      3  O   UNL     1      18.250  -4.447   6.658  1.00  0.00    -0.550 OA
ATOM      4  O   UNL     1      16.024  -4.494   6.118  1.00  0.00    -0.550 OA
ENDROOT
TORSDOF 0
ENDMDL
MODEL 4
REMARK VINA RESULT:    -2.233     14.154     14.523
REMARK INTER + INTRA:          -2.233
REMARK INTER:                  -2.233
REMARK INTRA:                   0.000
REMARK UNBOUND:                 0.000
REMARK SMILES CC(=O)[O-]
REMARK SMILES IDX 1 1 2 2 3 3 4 4
REMARK H PARENT
REMARK Flexibility Score: inf
ROOT
ATOM      1  C   UNL     1       8.781  -3.120  10.461  1.00  0.00     0.063 C 
ATOM      2  C   UNL     1       7.294  -3.088  10.355  1.00  0.00     0.038 C 
ATOM      3  O   UNL     1       6.639  -4.161  10.324  1.00  0.00    -0.550 OA
ATOM      4  O   UNL     1       6.624  -1.870  10.343  1.00  0.00    -0.550 OA
ENDROOT
TORSDOF 0
ENDMDL
MODEL 5
REMARK VINA RESULT:    -2.227      1.390      1.769
REMARK INTER + INTRA:          -2.227
REMARK INTER:                  -2.227
REMARK INTRA:                   0.000
REMARK UNBOUND:                 0.000
REMARK SMILES CC(=O)[O-]
REMARK SMILES IDX 1 1 2 2 3 3 4 4
REMARK H PARENT
REMARK Flexibility Score: inf
ROOT
ATOM      1  C   UNL     1       6.648   5.225  23.152  1.00  0.00     0.063 C 
ATOM      2  C   UNL     1       7.520   5.607  22.005  1.00  0.00     0.038 C 
ATOM      3  O   UNL     1       7.095   6.399  21.125  1.00  0.00    -0.550 OA
ATOM      4  O   UNL     1       8.823   5.130  21.934  1.00  0.00    -0.550 OA
ENDROOT
TORSDOF 0
ENDMDL
MODEL 6
REMARK VINA RESULT:    -2.197      1.367      1.708
REMARK INTER + INTRA:          -2.197
REMARK INTER:                  -2.197
REMARK INTRA:                   0.000
REMARK UNBOUND:                 0.000
REMARK SMILES CC(=O)[O-]
REMARK SMILES IDX 1 1 2 2 3 3 4 4
REMARK H PARENT
REMARK Flexibility Score: inf
ROOT
ATOM      1  C   UNL     1       8.639   4.589  20.833  1.00  0.00     0.063 C 
ATOM      2  C   UNL     1       7.735   5.721  20.480  1.00  0.00     0.038 C 
ATOM      3  O   UNL     1       7.594   6.065  19.278  1.00  0.00    -0.550 OA
ATOM      4  O   UNL     1       7.006   6.364  21.472  1.00  0.00    -0.550 OA
ENDROOT
TORSDOF 0
ENDMDL
MODEL 7
REMARK VINA RESULT:    -2.185     19.524     20.040
REMARK INTER + INTRA:          -2.185
REMARK INTER:                  -2.185
REMARK INTRA:                   0.000
REMARK UNBOUND:                 0.000
REMARK SMILES CC(=O)[O-]
REMARK SMILES IDX 1 1 2 2 3 3 4 4
REMARK H PARENT
REMARK Flexibility Score: inf
ROOT
ATOM      1  C   UNL     1      18.188  -4.275   6.998  1.00  0.00     0.063 C 
ATOM      2  C   UNL     1      16.773  -4.496   7.412  1.00  0.00     0.038 C 
ATOM      3  O   UNL     1      16.491  -4.676   8.625  1.00  0.00    -0.550 OA
ATOM      4  O   UNL     1      15.756  -4.451   6.466  1.00  0.00    -0.550 OA
ENDROOT
TORSDOF 0
ENDMDL
MODEL 8
REMARK VINA RESULT:    -2.180      5.016      5.180
REMARK INTER + INTRA:          -2.180
REMARK INTER:                  -2.180
REMARK INTRA:                   0.000
REMARK UNBOUND:                 0.000
REMARK SMILES CC(=O)[O-]
REMARK SMILES IDX 1 1 2 2 3 3 4 4
REMARK H PARENT
REMARK Flexibility Score: inf
ROOT
ATOM      1  C   UNL     1       6.230   6.469  18.228  1.00  0.00     0.063 C 
ATOM      2  C   UNL     1       7.359   6.502  17.255  1.00  0.00     0.038 C 
ATOM      3  O   UNL     1       7.972   7.578  17.036  1.00  0.00    -0.550 OA
ATOM      4  O   UNL     1       7.771   5.333  16.628  1.00  0.00    -0.550 OA
ENDROOT
TORSDOF 0
ENDMDL
MODEL 9
REMARK VINA RESULT:    -2.173     13.137     13.634
REMARK INTER + INTRA:          -2.173
REMARK INTER:                  -2.173
REMARK INTRA:                   0.000
REMARK UNBOUND:                 0.000
REMARK SMILES CC(=O)[O-]
REMARK SMILES IDX 1 1 2 2 3 3 4 4
REMARK H PARENT
REMARK Flexibility Score: inf
ROOT
ATOM      1  C   UNL     1      19.352   8.315  21.104  1.00  0.00     0.063 C 
ATOM      2  C   UNL     1      20.580   8.633  20.321  1.00  0.00     0.038 C 
ATOM      3  O   UNL     1      21.621   7.943  20.470  1.00  0.00    -0.550 OA
ATOM      4  O   UNL     1      20.562   9.661  19.386  1.00  0.00    -0.550 OA
ENDROOT
TORSDOF 0
ENDMDL
