MODEL 1
REMARK VINA RESULT:    -3.420      0.000      0.000
REMARK INTER + INTRA:          -9.312
REMARK INTER:                  -6.419
REMARK INTRA:                  -2.893
REMARK UNBOUND:                -2.893
REMARK SMILES CCCCCCCCC=CCCCCCCCC(=O)[O-]
REMARK SMILES IDX 10 1 9 2 11 3 12 4 13 5 14 6 15 7 16 8 17 9 18 10 19 11
REMARK SMILES IDX 20 12 8 13 7 14 6 15 5 16 4 17 3 18 2 19 1 20
REMARK H PARENT
REMARK Flexibility Score: inf
ROOT
ATOM      1  C   UNL     1      26.383  -4.014 -27.020  1.00  0.00    -0.031 C 
ATOM      2  C   UNL     1      25.741  -4.802 -26.136  1.00  0.00    -0.031 C 
ENDROOT
BRANCH   1   3
ATOM      3  C   UNL     1      25.728  -3.190 -28.102  1.00  0.00     0.027 C 
BRANCH   3   4
ATOM      4  C   UNL     1      25.592  -3.975 -29.414  1.00  0.00     0.004 C 
BRANCH   4   5
ATOM      5  C   UNL     1      24.166  -3.912 -29.988  1.00  0.00     0.000 C 
BRANCH   5   6
ATOM      6  C   UNL     1      23.718  -5.249 -30.598  1.00  0.00     0.000 C 
BRANCH   6   7
ATOM      7  C   UNL     1      24.230  -5.445 -32.036  1.00  0.00     0.000 C 
BRANCH   7   8
ATOM      8  C   UNL     1      23.816  -4.298 -32.975  1.00  0.00     0.006 C 
BRANCH   8   9
ATOM      9  C   UNL     1      24.995  -3.577 -33.647  1.00  0.00     0.053 C 
BRANCH   9  10
ATOM     10  C   UNL     1      26.137  -4.507 -33.923  1.00  0.00     0.041 C 
ATOM     11  O   UNL     1      26.065  -5.335 -34.869  1.00  0.00    -0.550 OA
ATOM     12  O   UNL     1      27.293  -4.435 -33.157  1.00  0.00    -0.550 OA
ENDBRANCH   9  10
ENDBRANCH   8   9
ENDBRANCH   7   8
ENDBRANCH   6   7
ENDBRANCH   5   6
ENDBRANCH   4   5
ENDBRANCH   3   4
ENDBRANCH   1   3
BRANCH   2  13
ATOM     13  C   UNL     1      24.247  -5.007 -26.060  1.00  0.00     0.027 C 
BRANCH  13  14
ATOM     14  C   UNL     1      23.761  -6.126 -26.998  1.00  0.00     0.004 C 
BRANCH  14  15
ATOM     15  C   UNL     1      24.724  -7.327 -27.082  1.00  0.00     0.000 C 
BRANCH  15  16
ATOM     16  C   UNL     1      24.859  -7.878 -28.511  1.00  0.00     0.000 C 
BRANCH  16  17
ATOM     17  C   UNL     1      26.294  -7.778 -29.052  1.00  0.00    -0.000 C 
BRANCH  17  18
ATOM     18  C   UNL     1      27.351  -7.805 -27.934  1.00  0.00    -0.000 C 
BRANCH  18  19
ATOM     19  C   UNL     1      28.476  -6.783 -28.164  1.00  0.00    -0.003 C 
ATOM     20  C   UNL     1      28.492  -6.227 -29.587  1.00  0.00     0.004 C 
ENDBRANCH  18  19
ENDBRANCH  17  18
ENDBRANCH  16  17
ENDBRANCH  15  16
ENDBRANCH  14  15
ENDBRANCH  13  14
ENDBRANCH   2  13
TORSDOF 15
ENDMDL
MODEL 2
REMARK VINA RESULT:    -3.140      8.717     11.293
REMARK INTER + INTRA:          -8.786
REMARK INTER:                  -6.307
REMARK INTRA:                  -2.479
REMARK UNBOUND:                -2.893
REMARK SMILES CCCCCCCCC=CCCCCCCCC(=O)[O-]
REMARK SMILES IDX 10 1 9 2 11 3 12 4 13 5 14 6 15 7 16 8 17 9 18 10 19 11
REMARK SMILES IDX 20 12 8 13 7 14 6 15 5 16 4 17 3 18 2 19 1 20
REMARK H PARENT
REMARK Flexibility Score: inf
ROOT
ATOM      1  C   UNL     1      33.411  -2.521 -38.368  1.00  0.00    -0.031 C 
ATOM      2  C   UNL     1      32.944  -1.331 -38.791  1.00  0.00    -0.031 C 
ENDROOT
BRANCH   1   3
ATOM      3  C   UNL     1      34.102  -2.777 -37.050  1.00  0.00     0.027 C 
BRANCH   3   4
ATOM      4  C   UNL     1      33.398  -3.873 -36.240  1.00  0.00     0.004 C 
BRANCH   4   5
ATOM      5  C   UNL     1      32.714  -3.321 -34.978  1.00  0.00     0.000 C 
BRANCH   5   6
ATOM      6  C   UNL     1      31.268  -2.872 -35.242  1.00  0.00     0.000 C 
BRANCH   6   7
ATOM      7  C   UNL     1      30.550  -3.762 -36.272  1.00  0.00     0.000 C 
BRANCH   7   8
ATOM      8  C   UNL     1      29.818  -2.946 -37.352  1.00  0.00     0.006 C 
BRANCH   8   9
ATOM      9  C   UNL     1      29.289  -3.787 -38.526  1.00  0.00     0.053 C 
BRANCH   9  10
ATOM     10  C   UNL     1      28.518  -4.983 -38.056  1.00  0.00     0.041 C 
ATOM     11  O   UNL     1      27.436  -4.832 -37.430  1.00  0.00    -0.550 OA
ATOM     12  O   UNL     1      28.977  -6.262 -38.341  1.00  0.00    -0.550 OA
ENDBRANCH   9  10
ENDBRANCH   8   9
ENDBRANCH   7   8
ENDBRANCH   6   7
ENDBRANCH   5   6
ENDBRANCH   4   5
ENDBRANCH   3   4
ENDBRANCH   1   3
BRANCH   2  13
ATOM     13  C   UNL     1      33.020  -0.031 -38.026  1.00  0.00     0.027 C 
BRANCH  13  14
ATOM     14  C   UNL     1      31.722   0.272 -37.257  1.00  0.00     0.004 C 
BRANCH  14  15
ATOM     15  C   UNL     1      31.956   0.811 -35.833  1.00  0.00     0.000 C 
BRANCH  15  16
ATOM     16  C   UNL     1      33.253   0.277 -35.202  1.00  0.00     0.000 C 
BRANCH  16  17
ATOM     17  C   UNL     1      33.938   1.307 -34.290  1.00  0.00    -0.000 C 
BRANCH  17  18
ATOM     18  C   UNL     1      32.961   2.374 -33.765  1.00  0.00    -0.000 C 
BRANCH  18  19
ATOM     19  C   UNL     1      33.677   3.663 -33.330  1.00  0.00    -0.003 C 
ATOM     20  C   UNL     1      32.708   4.759 -32.888  1.00  0.00     0.004 C 
ENDBRANCH  18  19
ENDBRANCH  17  18
ENDBRANCH  16  17
ENDBRANCH  15  16
ENDBRANCH  14  15
ENDBRANCH  13  14
ENDBRANCH   2  13
TORSDOF 15
ENDMDL
MODEL 3
REMARK VINA RESULT:    -3.136     13.794     15.800
REMARK INTER + INTRA:          -8.778
REMARK INTER:                  -6.658
REMARK INTRA:                  -2.120
REMARK UNBOUND:                -2.893
REMARK SMILES CCCCCCCCC=CCCCCCCCC(=O)[O-]
REMARK SMILES IDX 10 1 9 2 11 3 12 4 13 5 14 6 15 7 16 8 17 9 18 10 19 11
REMARK SMILES IDX 20 12 8 13 7 14 6 15 5 16 4 17 3 18 2 19 1 20
REMARK H PARENT
REMARK Flexibility Score: inf
ROOT
ATOM      1  C   UNL     1      35.798   6.581 -31.663  1.00  0.00    -0.031 C 
ATOM      2  C   UNL     1      35.752   5.565 -32.546  1.00  0.00    -0.031 C 
ENDROOT
BRANCH   1   3
ATOM      3  C   UNL     1      34.731   7.632 -31.475  1.00  0.00     0.027 C 
BRANCH   3   4
ATOM      4  C   UNL     1      33.720   7.232 -30.392  1.00  0.00     0.004 C 
BRANCH   4   5
ATOM      5  C   UNL     1      32.349   7.900 -30.596  1.00  0.00     0.000 C 
BRANCH   5   6
ATOM      6  C   UNL     1      32.399   9.421 -30.386  1.00  0.00     0.000 C 
BRANCH   6   7
ATOM      7  C   UNL     1      31.922   9.841 -28.984  1.00  0.00     0.000 C 
BRANCH   7   8
ATOM      8  C   UNL     1      33.087  10.190 -28.041  1.00  0.00     0.006 C 
BRANCH   8   9
ATOM      9  C   UNL     1      33.078   9.412 -26.715  1.00  0.00     0.053 C 
BRANCH   9  10
ATOM     10  C   UNL     1      33.387  10.296 -25.545  1.00  0.00     0.041 C 
ATOM     11  O   UNL     1      33.368   9.828 -24.376  1.00  0.00    -0.550 OA
ATOM     12  O   UNL     1      33.729  11.626 -25.749  1.00  0.00    -0.550 OA
ENDBRANCH   9  10
ENDBRANCH   8   9
ENDBRANCH   7   8
ENDBRANCH   6   7
ENDBRANCH   5   6
ENDBRANCH   4   5
ENDBRANCH   3   4
ENDBRANCH   1   3
BRANCH   2  13
ATOM     13  C   UNL     1      34.626   5.285 -33.512  1.00  0.00     0.027 C 
BRANCH  13  14
ATOM     14  C   UNL     1      34.013   3.889 -33.306  1.00  0.00     0.004 C 
BRANCH  14  15
ATOM     15  C   UNL     1      32.592   3.916 -32.712  1.00  0.00     0.000 C 
BRANCH  15  16
ATOM     16  C   UNL     1      32.592   4.065 -31.181  1.00  0.00     0.000 C 
BRANCH  16  17
ATOM     17  C   UNL     1      33.723   3.271 -30.508  1.00  0.00    -0.000 C 
BRANCH  17  18
ATOM     18  C   UNL     1      34.062   3.800 -29.103  1.00  0.00    -0.000 C 
BRANCH  18  19
ATOM     19  C   UNL     1      35.567   4.050 -28.917  1.00  0.00    -0.003 C 
ATOM     20  C   UNL     1      36.119   3.426 -27.637  1.00  0.00     0.004 C 
ENDBRANCH  18  19
ENDBRANCH  17  18
ENDBRANCH  16  17
ENDBRANCH  15  16
ENDBRANCH  14  15
ENDBRANCH  13  14
ENDBRANCH   2  13
TORSDOF 15
ENDMDL
MODEL 4
REMARK VINA RESULT:    -3.118      2.059      3.291
REMARK INTER + INTRA:          -8.745
REMARK INTER:                  -6.235
REMARK INTRA:                  -2.510
REMARK UNBOUND:                -2.893
REMARK SMILES CCCCCCCCC=CCCCCCCCC(=O)[O-]
REMARK SMILES IDX 10 1 9 2 11 3 12 4 13 5 14 6 15 7 16 8 17 9 18 10 19 11
REMARK SMILES IDX 20 12 8 13 7 14 6 15 5 16 4 17 3 18 2 19 1 20
REMARK H PARENT
REMARK Flexibility Score: inf
ROOT
ATOM      1  C   UNL     1      26.662  -4.246 -28.857  1.00  0.00    -0.031 C 
ATOM      2  C   UNL     1      27.408  -5.292 -28.454  1.00  0.00    -0.031 C 
ENDROOT
BRANCH   1   3
ATOM      3  C   UNL     1      26.020  -4.095 -30.215  1.00  0.00     0.027 C 
BRANCH   3   4
ATOM      4  C   UNL     1      24.501  -4.306 -30.155  1.00  0.00     0.004 C 
BRANCH   4   5
ATOM      5  C   UNL     1      24.026  -5.416 -31.109  1.00  0.00     0.000 C 
BRANCH   5   6
ATOM      6  C   UNL     1      24.513  -5.201 -32.550  1.00  0.00     0.000 C 
BRANCH   6   7
ATOM      7  C   UNL     1      23.670  -4.161 -33.310  1.00  0.00     0.000 C 
BRANCH   7   8
ATOM      8  C   UNL     1      24.443  -3.503 -34.467  1.00  0.00     0.006 C 
BRANCH   8   9
ATOM      9  C   UNL     1      24.694  -1.998 -34.281  1.00  0.00     0.053 C 
BRANCH   9  10
ATOM     10  C   UNL     1      23.756  -1.392 -33.282  1.00  0.00     0.041 C 
ATOM     11  O   UNL     1      22.603  -1.030 -33.635  1.00  0.00    -0.550 OA
ATOM     12  O   UNL     1      24.144  -1.258 -31.956  1.00  0.00    -0.550 OA
ENDBRANCH   9  10
ENDBRANCH   8   9
ENDBRANCH   7   8
ENDBRANCH   6   7
ENDBRANCH   5   6
ENDBRANCH   4   5
ENDBRANCH   3   4
ENDBRANCH   1   3
BRANCH   2  13
ATOM     13  C   UNL     1      27.739  -6.511 -29.281  1.00  0.00     0.027 C 
BRANCH  13  14
ATOM     14  C   UNL     1      27.055  -7.782 -28.749  1.00  0.00     0.004 C 
BRANCH  14  15
ATOM     15  C   UNL     1      25.563  -7.887 -29.121  1.00  0.00     0.000 C 
BRANCH  15  16
ATOM     16  C   UNL     1      24.650  -7.984 -27.887  1.00  0.00     0.000 C 
BRANCH  16  17
ATOM     17  C   UNL     1      24.071  -6.623 -27.468  1.00  0.00    -0.000 C 
BRANCH  17  18
ATOM     18  C   UNL     1      24.544  -6.184 -26.072  1.00  0.00    -0.000 C 
BRANCH  18  19
ATOM     19  C   UNL     1      25.412  -7.249 -25.383  1.00  0.00    -0.003 C 
ATOM     20  C   UNL     1      26.833  -6.766 -25.100  1.00  0.00     0.004 C 
ENDBRANCH  18  19
ENDBRANCH  17  18
ENDBRANCH  16  17
ENDBRANCH  15  16
ENDBRANCH  14  15
ENDBRANCH  13  14
ENDBRANCH   2  13
TORSDOF 15
ENDMDL
MODEL 5
REMARK VINA RESULT:    -3.099     13.617     15.445
REMARK INTER + INTRA:          -8.710
REMARK INTER:                  -6.407
REMARK INTRA:                  -2.303
REMARK UNBOUND:                -2.893
REMARK SMILES CCCCCCCCC=CCCCCCCCC(=O)[O-]
REMARK SMILES IDX 10 1 9 2 11 3 12 4 13 5 14 6 15 7 16 8 17 9 18 10 19 11
REMARK SMILES IDX 20 12 8 13 7 14 6 15 5 16 4 17 3 18 2 19 1 20
REMARK H PARENT
REMARK Flexibility Score: inf
ROOT
ATOM      1  C   UNL     1      33.217  10.438 -27.894  1.00  0.00    -0.031 C 
ATOM      2  C   UNL     1      33.703  10.690 -26.663  1.00  0.00    -0.031 C 
ENDROOT
BRANCH   1   3
ATOM      3  C   UNL     1      31.798  10.036 -28.214  1.00  0.00     0.027 C 
BRANCH   3   4
ATOM      4  C   UNL     1      31.729   9.107 -29.433  1.00  0.00     0.004 C 
BRANCH   4   5
ATOM      5  C   UNL     1      33.042   9.094 -30.235  1.00  0.00     0.000 C 
BRANCH   5   6
ATOM      6  C   UNL     1      33.453   7.679 -30.669  1.00  0.00     0.000 C 
BRANCH   6   7
ATOM      7  C   UNL     1      34.689   7.677 -31.586  1.00  0.00     0.000 C 
BRANCH   7   8
ATOM      8  C   UNL     1      35.435   6.331 -31.574  1.00  0.00     0.006 C 
BRANCH   8   9
ATOM      9  C   UNL     1      35.270   5.508 -32.862  1.00  0.00     0.053 C 
BRANCH   9  10
ATOM     10  C   UNL     1      34.323   4.361 -32.677  1.00  0.00     0.041 C 
ATOM     11  O   UNL     1      34.084   3.577 -33.633  1.00  0.00    -0.550 OA
ATOM     12  O   UNL     1      33.730   4.142 -31.441  1.00  0.00    -0.550 OA
ENDBRANCH   9  10
ENDBRANCH   8   9
ENDBRANCH   7   8
ENDBRANCH   6   7
ENDBRANCH   5   6
ENDBRANCH   4   5
ENDBRANCH   3   4
ENDBRANCH   1   3
BRANCH   2  13
ATOM     13  C   UNL     1      32.920  10.619 -25.374  1.00  0.00     0.027 C 
BRANCH  13  14
ATOM     14  C   UNL     1      33.556   9.658 -24.355  1.00  0.00     0.004 C 
BRANCH  14  15
ATOM     15  C   UNL     1      33.402   8.170 -24.725  1.00  0.00     0.000 C 
BRANCH  15  16
ATOM     16  C   UNL     1      31.954   7.795 -25.082  1.00  0.00     0.000 C 
BRANCH  16  17
ATOM     17  C   UNL     1      31.864   6.896 -26.326  1.00  0.00    -0.000 C 
BRANCH  17  18
ATOM     18  C   UNL     1      33.208   6.770 -27.063  1.00  0.00    -0.000 C 
BRANCH  18  19
ATOM     19  C   UNL     1      33.566   5.311 -27.389  1.00  0.00    -0.003 C 
ATOM     20  C   UNL     1      35.063   5.027 -27.271  1.00  0.00     0.004 C 
ENDBRANCH  18  19
ENDBRANCH  17  18
ENDBRANCH  16  17
ENDBRANCH  15  16
ENDBRANCH  14  15
ENDBRANCH  13  14
ENDBRANCH   2  13
TORSDOF 15
ENDMDL
MODEL 6
REMARK VINA RESULT:    -3.099     10.871     13.634
REMARK INTER + INTRA:          -8.708
REMARK INTER:                  -7.048
REMARK INTRA:                  -1.660
REMARK UNBOUND:                -2.893
REMARK SMILES CCCCCCCCC=CCCCCCCCC(=O)[O-]
REMARK SMILES IDX 10 1 9 2 11 3 12 4 13 5 14 6 15 7 16 8 17 9 18 10 19 11
REMARK SMILES IDX 20 12 8 13 7 14 6 15 5 16 4 17 3 18 2 19 1 20
REMARK H PARENT
REMARK Flexibility Score: inf
ROOT
ATOM      1  C   UNL     1      31.740   2.466 -34.482  1.00  0.00    -0.031 C 
ATOM      2  C   UNL     1      31.497   1.322 -35.149  1.00  0.00    -0.031 C 
ENDROOT
BRANCH   1   3
ATOM      3  C   UNL     1      32.480   2.580 -33.171  1.00  0.00     0.027 C 
BRANCH   3   4
ATOM      4  C   UNL     1      33.883   3.172 -33.356  1.00  0.00     0.004 C 
BRANCH   4   5
ATOM      5  C   UNL     1      33.888   4.707 -33.266  1.00  0.00     0.000 C 
BRANCH   5   6
ATOM      6  C   UNL     1      35.305   5.296 -33.332  1.00  0.00     0.000 C 
BRANCH   6   7
ATOM      7  C   UNL     1      35.705   6.022 -32.035  1.00  0.00     0.000 C 
BRANCH   7   8
ATOM      8  C   UNL     1      34.894   5.549 -30.816  1.00  0.00     0.006 C 
BRANCH   8   9
ATOM      9  C   UNL     1      34.220   6.684 -30.028  1.00  0.00     0.053 C 
BRANCH   9  10
ATOM     10  C   UNL     1      33.307   7.500 -30.892  1.00  0.00     0.041 C 
ATOM     11  O   UNL     1      32.186   7.042 -31.238  1.00  0.00    -0.550 OA
ATOM     12  O   UNL     1      33.680   8.778 -31.285  1.00  0.00    -0.550 OA
ENDBRANCH   9  10
ENDBRANCH   8   9
ENDBRANCH   7   8
ENDBRANCH   6   7
ENDBRANCH   5   6
ENDBRANCH   4   5
ENDBRANCH   3   4
ENDBRANCH   1   3
BRANCH   2  13
ATOM     13  C   UNL     1      31.921  -0.060 -34.714  1.00  0.00     0.027 C 
BRANCH  13  14
ATOM     14  C   UNL     1      33.434  -0.286 -34.876  1.00  0.00     0.004 C 
BRANCH  14  15
ATOM     15  C   UNL     1      33.933  -0.126 -36.325  1.00  0.00     0.000 C 
BRANCH  15  16
ATOM     16  C   UNL     1      33.564  -1.324 -37.216  1.00  0.00     0.000 C 
BRANCH  16  17
ATOM     17  C   UNL     1      32.995  -0.898 -38.578  1.00  0.00    -0.000 C 
BRANCH  17  18
ATOM     18  C   UNL     1      32.424   0.530 -38.560  1.00  0.00    -0.000 C 
BRANCH  18  19
ATOM     19  C   UNL     1      30.891   0.552 -38.668  1.00  0.00    -0.003 C 
ATOM     20  C   UNL     1      30.306  -0.793 -39.096  1.00  0.00     0.004 C 
ENDBRANCH  18  19
ENDBRANCH  17  18
ENDBRANCH  16  17
ENDBRANCH  15  16
ENDBRANCH  14  15
ENDBRANCH  13  14
ENDBRANCH   2  13
TORSDOF 15
ENDMDL
MODEL 7
REMARK VINA RESULT:    -3.089      5.805      9.814
REMARK INTER + INTRA:          -8.690
REMARK INTER:                  -5.691
REMARK INTRA:                  -2.999
REMARK UNBOUND:                -2.893
REMARK SMILES CCCCCCCCC=CCCCCCCCC(=O)[O-]
REMARK SMILES IDX 10 1 9 2 11 3 12 4 13 5 14 6 15 7 16 8 17 9 18 10 19 11
REMARK SMILES IDX 20 12 8 13 7 14 6 15 5 16 4 17 3 18 2 19 1 20
REMARK H PARENT
REMARK Flexibility Score: inf
ROOT
ATOM      1  C   UNL     1      30.843  -2.266 -35.199  1.00  0.00    -0.031 C 
ATOM      2  C   UNL     1      30.191  -1.097 -35.343  1.00  0.00    -0.031 C 
ENDROOT
BRANCH   1   3
ATOM      3  C   UNL     1      30.325  -3.620 -35.621  1.00  0.00     0.027 C 
BRANCH   3   4
ATOM      4  C   UNL     1      30.657  -3.926 -37.088  1.00  0.00     0.004 C 
BRANCH   4   5
ATOM      5  C   UNL     1      29.641  -4.887 -37.730  1.00  0.00     0.000 C 
BRANCH   5   6
ATOM      6  C   UNL     1      28.274  -4.227 -37.964  1.00  0.00     0.000 C 
BRANCH   6   7
ATOM      7  C   UNL     1      27.195  -4.739 -36.993  1.00  0.00     0.000 C 
BRANCH   7   8
ATOM      8  C   UNL     1      26.301  -3.610 -36.451  1.00  0.00     0.006 C 
BRANCH   8   9
ATOM      9  C   UNL     1      26.317  -3.472 -34.920  1.00  0.00     0.053 C 
BRANCH   9  10
ATOM     10  C   UNL     1      25.129  -4.128 -34.285  1.00  0.00     0.041 C 
ATOM     11  O   UNL     1      23.965  -3.755 -34.585  1.00  0.00    -0.550 OA
ATOM     12  O   UNL     1      25.308  -5.172 -33.387  1.00  0.00    -0.550 OA
ENDBRANCH   9  10
ENDBRANCH   8   9
ENDBRANCH   7   8
ENDBRANCH   6   7
ENDBRANCH   5   6
ENDBRANCH   4   5
ENDBRANCH   3   4
ENDBRANCH   1   3
BRANCH   2  13
ATOM     13  C   UNL     1      28.822  -0.920 -35.956  1.00  0.00     0.027 C 
BRANCH  13  14
ATOM     14  C   UNL     1      28.838   0.045 -37.155  1.00  0.00     0.004 C 
BRANCH  14  15
ATOM     15  C   UNL     1      28.529  -0.635 -38.503  1.00  0.00     0.000 C 
BRANCH  15  16
ATOM     16  C   UNL     1      29.801  -1.048 -39.264  1.00  0.00     0.000 C 
BRANCH  16  17
ATOM     17  C   UNL     1      31.001  -0.140 -38.951  1.00  0.00    -0.000 C 
BRANCH  17  18
ATOM     18  C   UNL     1      32.265  -0.937 -38.584  1.00  0.00    -0.000 C 
BRANCH  18  19
ATOM     19  C   UNL     1      33.384  -0.041 -38.030  1.00  0.00    -0.003 C 
ATOM     20  C   UNL     1      33.749  -0.373 -36.583  1.00  0.00     0.004 C 
ENDBRANCH  18  19
ENDBRANCH  17  18
ENDBRANCH  16  17
ENDBRANCH  15  16
ENDBRANCH  14  15
ENDBRANCH  13  14
ENDBRANCH   2  13
TORSDOF 15
ENDMDL
MODEL 8
REMARK VINA RESULT:    -3.081      1.270      2.946
REMARK INTER + INTRA:          -8.676
REMARK INTER:                  -6.257
REMARK INTRA:                  -2.419
REMARK UNBOUND:                -2.893
REMARK SMILES CCCCCCCCC=CCCCCCCCC(=O)[O-]
REMARK SMILES IDX 10 1 9 2 11 3 12 4 13 5 14 6 15 7 16 8 17 9 18 10 19 11
REMARK SMILES IDX 20 12 8 13 7 14 6 15 5 16 4 17 3 18 2 19 1 20
REMARK H PARENT
REMARK Flexibility Score: inf
ROOT
ATOM      1  C   UNL     1      27.862  -5.227 -29.621  1.00  0.00    -0.031 C 
ATOM      2  C   UNL     1      28.112  -6.362 -28.941  1.00  0.00    -0.031 C 
ENDROOT
BRANCH   1   3
ATOM      3  C   UNL     1      26.683  -4.991 -30.534  1.00  0.00     0.027 C 
BRANCH   3   4
ATOM      4  C   UNL     1      26.211  -3.531 -30.493  1.00  0.00     0.004 C 
BRANCH   4   5
ATOM      5  C   UNL     1      24.710  -3.392 -30.796  1.00  0.00     0.000 C 
BRANCH   5   6
ATOM      6  C   UNL     1      24.144  -4.612 -31.538  1.00  0.00     0.000 C 
BRANCH   6   7
ATOM      7  C   UNL     1      23.963  -4.358 -33.045  1.00  0.00     0.000 C 
BRANCH   7   8
ATOM      8  C   UNL     1      25.207  -4.743 -33.865  1.00  0.00     0.006 C 
BRANCH   8   9
ATOM      9  C   UNL     1      25.437  -3.870 -35.109  1.00  0.00     0.053 C 
BRANCH   9  10
ATOM     10  C   UNL     1      26.642  -4.306 -35.886  1.00  0.00     0.041 C 
ATOM     11  O   UNL     1      26.546  -5.227 -36.738  1.00  0.00    -0.550 OA
ATOM     12  O   UNL     1      27.861  -3.671 -35.690  1.00  0.00    -0.550 OA
ENDBRANCH   9  10
ENDBRANCH   8   9
ENDBRANCH   7   8
ENDBRANCH   6   7
ENDBRANCH   5   6
ENDBRANCH   4   5
ENDBRANCH   3   4
ENDBRANCH   1   3
BRANCH   2  13
ATOM     13  C   UNL     1      27.262  -7.609 -28.961  1.00  0.00     0.027 C 
BRANCH  13  14
ATOM     14  C   UNL     1      26.851  -8.060 -27.549  1.00  0.00     0.004 C 
BRANCH  14  15
ATOM     15  C   UNL     1      25.326  -8.121 -27.336  1.00  0.00     0.000 C 
BRANCH  15  16
ATOM     16  C   UNL     1      24.540  -7.461 -28.481  1.00  0.00     0.000 C 
BRANCH  16  17
ATOM     17  C   UNL     1      24.071  -6.038 -28.137  1.00  0.00    -0.000 C 
BRANCH  17  18
ATOM     18  C   UNL     1      23.722  -5.876 -26.647  1.00  0.00    -0.000 C 
BRANCH  18  19
ATOM     19  C   UNL     1      24.548  -4.773 -25.967  1.00  0.00    -0.003 C 
ATOM     20  C   UNL     1      25.720  -4.294 -26.823  1.00  0.00     0.004 C 
ENDBRANCH  18  19
ENDBRANCH  17  18
ENDBRANCH  16  17
ENDBRANCH  15  16
ENDBRANCH  14  15
ENDBRANCH  13  14
ENDBRANCH   2  13
TORSDOF 15
ENDMDL
MODEL 9
REMARK VINA RESULT:    -3.076      1.183      2.709
REMARK INTER + INTRA:          -8.666
REMARK INTER:                  -5.569
REMARK INTRA:                  -3.097
REMARK UNBOUND:                -2.893
REMARK SMILES CCCCCCCCC=CCCCCCCCC(=O)[O-]
REMARK SMILES IDX 10 1 9 2 11 3 12 4 13 5 14 6 15 7 16 8 17 9 18 10 19 11
REMARK SMILES IDX 20 12 8 13 7 14 6 15 5 16 4 17 3 18 2 19 1 20
REMARK H PARENT
REMARK Flexibility Score: inf
ROOT
ATOM      1  C   UNL     1      25.263  -7.582 -26.805  1.00  0.00    -0.031 C 
ATOM      2  C   UNL     1      24.947  -6.604 -25.935  1.00  0.00    -0.031 C 
ENDROOT
BRANCH   1   3
ATOM      3  C   UNL     1      24.499  -7.923 -28.062  1.00  0.00     0.027 C 
BRANCH   3   4
ATOM      4  C   UNL     1      25.057  -7.186 -29.287  1.00  0.00     0.004 C 
BRANCH   4   5
ATOM      5  C   UNL     1      24.010  -6.274 -29.949  1.00  0.00     0.000 C 
BRANCH   5   6
ATOM      6  C   UNL     1      24.543  -5.589 -31.216  1.00  0.00     0.000 C 
BRANCH   6   7
ATOM      7  C   UNL     1      24.428  -4.055 -31.153  1.00  0.00     0.000 C 
BRANCH   7   8
ATOM      8  C   UNL     1      25.594  -3.343 -31.863  1.00  0.00     0.006 C 
BRANCH   8   9
ATOM      9  C   UNL     1      26.749  -4.274 -32.264  1.00  0.00     0.053 C 
BRANCH   9  10
ATOM     10  C   UNL     1      26.880  -4.397 -33.751  1.00  0.00     0.041 C 
ATOM     11  O   UNL     1      27.797  -3.787 -34.359  1.00  0.00    -0.550 OA
ATOM     12  O   UNL     1      26.008  -5.213 -34.460  1.00  0.00    -0.550 OA
ENDBRANCH   9  10
ENDBRANCH   8   9
ENDBRANCH   7   8
ENDBRANCH   6   7
ENDBRANCH   5   6
ENDBRANCH   4   5
ENDBRANCH   3   4
ENDBRANCH   1   3
BRANCH   2  13
ATOM     13  C   UNL     1      23.771  -5.664 -26.054  1.00  0.00     0.027 C 
BRANCH  13  14
ATOM     14  C   UNL     1      24.110  -4.404 -26.869  1.00  0.00     0.004 C 
BRANCH  14  15
ATOM     15  C   UNL     1      25.555  -3.906 -26.671  1.00  0.00     0.000 C 
BRANCH  15  16
ATOM     16  C   UNL     1      26.148  -3.285 -27.946  1.00  0.00     0.000 C 
BRANCH  16  17
ATOM     17  C   UNL     1      27.177  -4.200 -28.630  1.00  0.00    -0.000 C 
BRANCH  17  18
ATOM     18  C   UNL     1      28.210  -4.770 -27.642  1.00  0.00    -0.000 C 
BRANCH  18  19
ATOM     19  C   UNL     1      28.516  -6.253 -27.903  1.00  0.00    -0.003 C 
ATOM     20  C   UNL     1      28.543  -6.602 -29.390  1.00  0.00     0.004 C 
ENDBRANCH  18  19
ENDBRANCH  17  18
ENDBRANCH  16  17
ENDBRANCH  15  16
ENDBRANCH  14  15
ENDBRANCH  13  14
ENDBRANCH   2  13
TORSDOF 15
ENDMDL
