MODEL 1
REMARK VINA RESULT:    -4.202      0.000      0.000
REMARK INTER + INTRA:          -6.509
REMARK INTER:                  -6.167
REMARK INTRA:                  -0.342
REMARK UNBOUND:                -0.342
REMARK SMILES O=C([O-])CCCCCCCC(=O)[O-]
REMARK SMILES IDX 7 1 6 2 5 3 4 4 2 5 1 6 3 7 8 8 9 9 10 10 11 11 12 12 13 13
REMARK H PARENT
REMARK Flexibility Score: inf
ROOT
ATOM      1  C   UNL     1       9.125  -6.653  -2.267  1.00  0.00     0.000 C 
ENDROOT
BRANCH   1   2
ATOM      2  C   UNL     1       9.099  -5.383  -3.131  1.00  0.00     0.000 C 
BRANCH   2   3
ATOM      3  C   UNL     1       7.982  -5.458  -4.183  1.00  0.00     0.006 C 
BRANCH   3   4
ATOM      4  C   UNL     1       7.571  -4.071  -4.694  1.00  0.00     0.053 C 
BRANCH   4   5
ATOM      5  C   UNL     1       7.999  -3.852  -6.113  1.00  0.00     0.041 C 
ATOM      6  O   UNL     1       7.324  -3.107  -6.871  1.00  0.00    -0.550 OA
ATOM      7  O   UNL     1       9.125  -4.497  -6.607  1.00  0.00    -0.550 OA
ENDBRANCH   4   5
ENDBRANCH   3   4
ENDBRANCH   2   3
ENDBRANCH   1   2
BRANCH   1   8
ATOM      8  C   UNL     1       8.304  -7.801  -2.876  1.00  0.00     0.000 C 
BRANCH   8   9
ATOM      9  C   UNL     1       8.088  -8.962  -1.893  1.00  0.00     0.006 C 
BRANCH   9  10
ATOM     10  C   UNL     1       8.557  -8.581  -0.486  1.00  0.00     0.053 C 
BRANCH  10  11
ATOM     11  C   UNL     1       8.098  -9.596   0.513  1.00  0.00     0.041 C 
ATOM     12  O   UNL     1       6.882  -9.662   0.836  1.00  0.00    -0.550 OA
ATOM     13  O   UNL     1       9.002 -10.503   1.049  1.00  0.00    -0.550 OA
ENDBRANCH  10  11
ENDBRANCH   9  10
ENDBRANCH   8   9
ENDBRANCH   1   8
TORSDOF 8
ENDMDL
MODEL 2
REMARK VINA RESULT:    -4.191      1.667      2.420
REMARK INTER + INTRA:          -6.493
REMARK INTER:                  -6.259
REMARK INTRA:                  -0.234
REMARK UNBOUND:                -0.342
REMARK SMILES O=C([O-])CCCCCCCC(=O)[O-]
REMARK SMILES IDX 7 1 6 2 5 3 4 4 2 5 1 6 3 7 8 8 9 9 10 10 11 11 12 12 13 13
REMARK H PARENT
REMARK Flexibility Score: inf
ROOT
ATOM      1  C   UNL     1       7.975  -8.114  -1.941  1.00  0.00     0.000 C 
ENDROOT
BRANCH   1   2
ATOM      2  C   UNL     1       8.006  -8.315  -3.464  1.00  0.00     0.000 C 
BRANCH   2   3
ATOM      3  C   UNL     1       8.468  -7.035  -4.177  1.00  0.00     0.006 C 
BRANCH   3   4
ATOM      4  C   UNL     1       8.243  -5.781  -3.321  1.00  0.00     0.053 C 
BRANCH   4   5
ATOM      5  C   UNL     1       8.027  -4.562  -4.166  1.00  0.00     0.041 C 
ATOM      6  O   UNL     1       8.959  -3.732  -4.330  1.00  0.00    -0.550 OA
ATOM      7  O   UNL     1       6.786  -4.328  -4.744  1.00  0.00    -0.550 OA
ENDBRANCH   4   5
ENDBRANCH   3   4
ENDBRANCH   2   3
ENDBRANCH   1   2
BRANCH   1   8
ATOM      8  C   UNL     1       8.326  -9.395  -1.166  1.00  0.00     0.000 C 
BRANCH   8   9
ATOM      9  C   UNL     1       8.590  -9.133   0.324  1.00  0.00     0.006 C 
BRANCH   9  10
ATOM     10  C   UNL     1       8.094 -10.301   1.181  1.00  0.00     0.053 C 
BRANCH  10  11
ATOM     11  C   UNL     1       6.759  -9.984   1.778  1.00  0.00     0.041 C 
ATOM     12  O   UNL     1       5.792  -9.669   1.036  1.00  0.00    -0.550 OA
ATOM     13  O   UNL     1       6.569 -10.085   3.150  1.00  0.00    -0.550 OA
ENDBRANCH  10  11
ENDBRANCH   9  10
ENDBRANCH   8   9
ENDBRANCH   1   8
TORSDOF 8
ENDMDL
MODEL 3
REMARK VINA RESULT:    -4.150      1.217      7.641
REMARK INTER + INTRA:          -6.434
REMARK INTER:                  -6.290
REMARK INTRA:                  -0.144
REMARK UNBOUND:                -0.342
REMARK SMILES O=C([O-])CCCCCCCC(=O)[O-]
REMARK SMILES IDX 7 1 6 2 5 3 4 4 2 5 1 6 3 7 8 8 9 9 10 10 11 11 12 12 13 13
REMARK H PARENT
REMARK Flexibility Score: inf
ROOT
ATOM      1  C   UNL     1       8.039  -8.031  -2.592  1.00  0.00     0.000 C 
ENDROOT
BRANCH   1   2
ATOM      2  C   UNL     1       8.483  -8.565  -1.221  1.00  0.00     0.000 C 
BRANCH   2   3
ATOM      3  C   UNL     1       7.285  -9.114  -0.432  1.00  0.00     0.006 C 
BRANCH   3   4
ATOM      4  C   UNL     1       7.687  -9.611   0.963  1.00  0.00     0.053 C 
BRANCH   4   5
ATOM      5  C   UNL     1       6.491  -9.921   1.809  1.00  0.00     0.041 C 
ATOM      6  O   UNL     1       5.335  -9.881   1.312  1.00  0.00    -0.550 OA
ATOM      7  O   UNL     1       6.651 -10.221   3.156  1.00  0.00    -0.550 OA
ENDBRANCH   4   5
ENDBRANCH   3   4
ENDBRANCH   2   3
ENDBRANCH   1   2
BRANCH   1   8
ATOM      8  C   UNL     1       8.418  -6.556  -2.804  1.00  0.00     0.000 C 
BRANCH   8   9
ATOM      9  C   UNL     1       8.449  -6.160  -4.288  1.00  0.00     0.006 C 
BRANCH   9  10
ATOM     10  C   UNL     1       7.726  -4.830  -4.515  1.00  0.00     0.053 C 
BRANCH  10  11
ATOM     11  C   UNL     1       8.076  -4.264  -5.854  1.00  0.00     0.041 C 
ATOM     12  O   UNL     1       7.453  -3.265  -6.303  1.00  0.00    -0.550 OA
ATOM     13  O   UNL     1       9.124  -4.806  -6.587  1.00  0.00    -0.550 OA
ENDBRANCH  10  11
ENDBRANCH   9  10
ENDBRANCH   8   9
ENDBRANCH   1   8
TORSDOF 8
ENDMDL
MODEL 4
REMARK VINA RESULT:    -4.116      1.050      6.960
REMARK INTER + INTRA:          -6.383
REMARK INTER:                  -6.009
REMARK INTRA:                  -0.374
REMARK UNBOUND:                -0.342
REMARK SMILES O=C([O-])CCCCCCCC(=O)[O-]
REMARK SMILES IDX 7 1 6 2 5 3 4 4 2 5 1 6 3 7 8 8 9 9 10 10 11 11 12 12 13 13
REMARK H PARENT
REMARK Flexibility Score: inf
ROOT
ATOM      1  C   UNL     1       8.034  -6.379  -3.495  1.00  0.00     0.000 C 
ENDROOT
BRANCH   1   2
ATOM      2  C   UNL     1       8.690  -7.622  -4.116  1.00  0.00     0.000 C 
BRANCH   2   3
ATOM      3  C   UNL     1       8.651  -8.808  -3.141  1.00  0.00     0.006 C 
BRANCH   3   4
ATOM      4  C   UNL     1       7.848  -8.490  -1.872  1.00  0.00     0.053 C 
BRANCH   4   5
ATOM      5  C   UNL     1       7.909  -9.611  -0.880  1.00  0.00     0.041 C 
ATOM      6  O   UNL     1       7.265  -9.538   0.199  1.00  0.00    -0.550 OA
ATOM      7  O   UNL     1       8.704 -10.721  -1.133  1.00  0.00    -0.550 OA
ENDBRANCH   4   5
ENDBRANCH   3   4
ENDBRANCH   2   3
ENDBRANCH   1   2
BRANCH   1   8
ATOM      8  C   UNL     1       9.058  -5.298  -3.110  1.00  0.00     0.000 C 
BRANCH   8   9
ATOM      9  C   UNL     1       8.888  -4.005  -3.922  1.00  0.00     0.006 C 
BRANCH   9  10
ATOM     10  C   UNL     1       7.651  -4.083  -4.822  1.00  0.00     0.053 C 
BRANCH  10  11
ATOM     11  C   UNL     1       8.017  -3.792  -6.243  1.00  0.00     0.041 C 
ATOM     12  O   UNL     1       7.352  -2.955  -6.909  1.00  0.00    -0.550 OA
ATOM     13  O   UNL     1       9.123  -4.406  -6.816  1.00  0.00    -0.550 OA
ENDBRANCH  10  11
ENDBRANCH   9  10
ENDBRANCH   8   9
ENDBRANCH   1   8
TORSDOF 8
ENDMDL
MODEL 5
REMARK VINA RESULT:    -4.093      4.340      6.756
REMARK INTER + INTRA:          -6.349
REMARK INTER:                  -5.967
REMARK INTRA:                  -0.382
REMARK UNBOUND:                -0.342
REMARK SMILES O=C([O-])CCCCCCCC(=O)[O-]
REMARK SMILES IDX 7 1 6 2 5 3 4 4 2 5 1 6 3 7 8 8 9 9 10 10 11 11 12 12 13 13
REMARK H PARENT
REMARK Flexibility Score: inf
ROOT
ATOM      1  C   UNL     1       6.753  -9.971   2.055  1.00  0.00     0.000 C 
ENDROOT
BRANCH   1   2
ATOM      2  C   UNL     1       7.991 -10.853   1.830  1.00  0.00     0.000 C 
BRANCH   2   3
ATOM      3  C   UNL     1       8.853 -10.306   0.683  1.00  0.00     0.006 C 
BRANCH   3   4
ATOM      4  C   UNL     1       8.285  -9.006   0.098  1.00  0.00     0.053 C 
BRANCH   4   5
ATOM      5  C   UNL     1       7.979  -9.140  -1.362  1.00  0.00     0.041 C 
ATOM      6  O   UNL     1       7.778  -8.115  -2.064  1.00  0.00    -0.550 OA
ATOM      7  O   UNL     1       7.885 -10.400  -1.940  1.00  0.00    -0.550 OA
ENDBRANCH   4   5
ENDBRANCH   3   4
ENDBRANCH   2   3
ENDBRANCH   1   2
BRANCH   1   8
ATOM      8  C   UNL     1       5.499 -10.787   2.406  1.00  0.00     0.000 C 
BRANCH   8   9
ATOM      9  C   UNL     1       5.283 -10.920   3.921  1.00  0.00     0.006 C 
BRANCH   9  10
ATOM     10  C   UNL     1       4.905  -9.571   4.540  1.00  0.00     0.053 C 
BRANCH  10  11
ATOM     11  C   UNL     1       3.448  -9.294   4.343  1.00  0.00     0.041 C 
ATOM     12  O   UNL     1       2.627 -10.245   4.262  1.00  0.00    -0.550 OA
ATOM     13  O   UNL     1       2.989  -7.983   4.301  1.00  0.00    -0.550 OA
ENDBRANCH  10  11
ENDBRANCH   9  10
ENDBRANCH   8   9
ENDBRANCH   1   8
TORSDOF 8
ENDMDL
MODEL 6
REMARK VINA RESULT:    -4.088      3.140      4.686
REMARK INTER + INTRA:          -6.341
REMARK INTER:                  -6.063
REMARK INTRA:                  -0.278
REMARK UNBOUND:                -0.342
REMARK SMILES O=C([O-])CCCCCCCC(=O)[O-]
REMARK SMILES IDX 7 1 6 2 5 3 4 4 2 5 1 6 3 7 8 8 9 9 10 10 11 11 12 12 13 13
REMARK H PARENT
REMARK Flexibility Score: inf
ROOT
ATOM      1  C   UNL     1       8.652  -9.858   0.719  1.00  0.00     0.000 C 
ENDROOT
BRANCH   1   2
ATOM      2  C   UNL     1       9.125  -9.032  -0.487  1.00  0.00     0.000 C 
BRANCH   2   3
ATOM      3  C   UNL     1       7.968  -8.778  -1.465  1.00  0.00     0.006 C 
BRANCH   3   4
ATOM      4  C   UNL     1       8.190  -7.517  -2.311  1.00  0.00     0.053 C 
BRANCH   4   5
ATOM      5  C   UNL     1       8.068  -7.802  -3.777  1.00  0.00     0.041 C 
ATOM      6  O   UNL     1       8.572  -7.014  -4.620  1.00  0.00    -0.550 OA
ATOM      7  O   UNL     1       7.369  -8.921  -4.212  1.00  0.00    -0.550 OA
ENDBRANCH   4   5
ENDBRANCH   3   4
ENDBRANCH   2   3
ENDBRANCH   1   2
BRANCH   1   8
ATOM      8  C   UNL     1       7.207  -9.531   1.132  1.00  0.00     0.000 C 
BRANCH   8   9
ATOM      9  C   UNL     1       6.730 -10.364   2.330  1.00  0.00     0.006 C 
BRANCH   9  10
ATOM     10  C   UNL     1       5.216 -10.583   2.276  1.00  0.00     0.053 C 
BRANCH  10  11
ATOM     11  C   UNL     1       4.603 -10.345   3.620  1.00  0.00     0.041 C 
ATOM     12  O   UNL     1       3.716 -11.124   4.060  1.00  0.00    -0.550 OA
ATOM     13  O   UNL     1       5.046  -9.292   4.410  1.00  0.00    -0.550 OA
ENDBRANCH  10  11
ENDBRANCH   9  10
ENDBRANCH   8   9
ENDBRANCH   1   8
TORSDOF 8
ENDMDL
MODEL 7
REMARK VINA RESULT:    -3.884      1.139      6.966
REMARK INTER + INTRA:          -6.042
REMARK INTER:                  -5.797
REMARK INTRA:                  -0.246
REMARK UNBOUND:                -0.342
REMARK SMILES O=C([O-])CCCCCCCC(=O)[O-]
REMARK SMILES IDX 7 1 6 2 5 3 4 4 2 5 1 6 3 7 8 8 9 9 10 10 11 11 12 12 13 13
REMARK H PARENT
REMARK Flexibility Score: inf
ROOT
ATOM      1  C   UNL     1       8.358  -7.555  -3.855  1.00  0.00     0.000 C 
ENDROOT
BRANCH   1   2
ATOM      2  C   UNL     1       7.846  -8.856  -3.218  1.00  0.00     0.000 C 
BRANCH   2   3
ATOM      3  C   UNL     1       8.420  -9.037  -1.804  1.00  0.00     0.006 C 
BRANCH   3   4
ATOM      4  C   UNL     1       7.331  -8.980  -0.724  1.00  0.00     0.053 C 
BRANCH   4   5
ATOM      5  C   UNL     1       7.770  -9.647   0.543  1.00  0.00     0.041 C 
ATOM      6  O   UNL     1       6.916 -10.059   1.371  1.00  0.00    -0.550 OA
ATOM      7  O   UNL     1       9.123  -9.784   0.825  1.00  0.00    -0.550 OA
ENDBRANCH   4   5
ENDBRANCH   3   4
ENDBRANCH   2   3
ENDBRANCH   1   2
BRANCH   1   8
ATOM      8  C   UNL     1       8.624  -6.451  -2.818  1.00  0.00     0.000 C 
BRANCH   8   9
ATOM      9  C   UNL     1       9.005  -5.111  -3.464  1.00  0.00     0.006 C 
BRANCH   9  10
ATOM     10  C   UNL     1       8.899  -5.189  -4.989  1.00  0.00     0.053 C 
BRANCH  10  11
ATOM     11  C   UNL     1       7.660  -4.500  -5.465  1.00  0.00     0.041 C 
ATOM     12  O   UNL     1       7.534  -4.190  -6.680  1.00  0.00    -0.550 OA
ATOM     13  O   UNL     1       6.620  -4.247  -4.580  1.00  0.00    -0.550 OA
ENDBRANCH  10  11
ENDBRANCH   9  10
ENDBRANCH   8   9
ENDBRANCH   1   8
TORSDOF 8
ENDMDL
MODEL 8
REMARK VINA RESULT:    -3.848     21.197     22.398
REMARK INTER + INTRA:          -5.990
REMARK INTER:                  -5.469
REMARK INTRA:                  -0.521
REMARK UNBOUND:                -0.342
REMARK SMILES O=C([O-])CCCCCCCC(=O)[O-]
REMARK SMILES IDX 7 1 6 2 5 3 4 4 2 5 1 6 3 7 8 8 9 9 10 10 11 11 12 12 13 13
REMARK H PARENT
REMARK Flexibility Score: inf
ROOT
ATOM      1  C   UNL     1      -6.640   7.461  -9.253  1.00  0.00     0.000 C 
ENDROOT
BRANCH   1   2
ATOM      2  C   UNL     1      -6.030   7.363 -10.659  1.00  0.00     0.000 C 
BRANCH   2   3
ATOM      3  C   UNL     1      -6.270   5.972 -11.265  1.00  0.00     0.006 C 
BRANCH   3   4
ATOM      4  C   UNL     1      -7.762   5.618 -11.334  1.00  0.00     0.053 C 
BRANCH   4   5
ATOM      5  C   UNL     1      -7.982   4.136 -11.355  1.00  0.00     0.041 C 
ATOM      6  O   UNL     1      -7.073   3.367 -11.761  1.00  0.00    -0.550 OA
ATOM      7  O   UNL     1      -9.204   3.610 -10.956  1.00  0.00    -0.550 OA
ENDBRANCH   4   5
ENDBRANCH   3   4
ENDBRANCH   2   3
ENDBRANCH   1   2
BRANCH   1   8
ATOM      8  C   UNL     1      -7.717   8.554  -9.148  1.00  0.00     0.000 C 
BRANCH   8   9
ATOM      9  C   UNL     1      -8.616   8.383  -7.915  1.00  0.00     0.006 C 
BRANCH   9  10
ATOM     10  C   UNL     1      -8.629   6.926  -7.444  1.00  0.00     0.053 C 
BRANCH  10  11
ATOM     11  C   UNL     1      -9.981   6.319  -7.653  1.00  0.00     0.041 C 
ATOM     12  O   UNL     1     -10.087   5.141  -8.085  1.00  0.00    -0.550 OA
ATOM     13  O   UNL     1     -11.123   7.036  -7.321  1.00  0.00    -0.550 OA
ENDBRANCH  10  11
ENDBRANCH   9  10
ENDBRANCH   8   9
ENDBRANCH   1   8
TORSDOF 8
ENDMDL
MODEL 9
REMARK VINA RESULT:    -3.813     20.973     22.399
REMARK INTER + INTRA:          -5.938
REMARK INTER:                  -5.432
REMARK INTRA:                  -0.507
REMARK UNBOUND:                -0.342
REMARK SMILES O=C([O-])CCCCCCCC(=O)[O-]
REMARK SMILES IDX 7 1 6 2 5 3 4 4 2 5 1 6 3 7 8 8 9 9 10 10 11 11 12 12 13 13
REMARK H PARENT
REMARK Flexibility Score: inf
ROOT
ATOM      1  C   UNL     1      -6.718   7.355  -9.341  1.00  0.00     0.000 C 
ENDROOT
BRANCH   1   2
ATOM      2  C   UNL     1      -7.743   8.492  -9.214  1.00  0.00     0.000 C 
BRANCH   2   3
ATOM      3  C   UNL     1      -8.509   8.394  -7.886  1.00  0.00     0.006 C 
BRANCH   3   4
ATOM      4  C   UNL     1      -8.560   6.957  -7.350  1.00  0.00     0.053 C 
BRANCH   4   5
ATOM      5  C   UNL     1      -9.818   6.254  -7.760  1.00  0.00     0.041 C 
ATOM      6  O   UNL     1     -10.925   6.603  -7.274  1.00  0.00    -0.550 OA
ATOM      7  O   UNL     1      -9.761   5.192  -8.653  1.00  0.00    -0.550 OA
ENDBRANCH   4   5
ENDBRANCH   3   4
ENDBRANCH   2   3
ENDBRANCH   1   2
BRANCH   1   8
ATOM      8  C   UNL     1      -5.922   7.418 -10.655  1.00  0.00     0.000 C 
BRANCH   8   9
ATOM      9  C   UNL     1      -6.072   6.144 -11.500  1.00  0.00     0.006 C 
BRANCH   9  10
ATOM     10  C   UNL     1      -7.470   5.541 -11.337  1.00  0.00     0.053 C 
BRANCH  10  11
ATOM     11  C   UNL     1      -7.449   4.077 -11.646  1.00  0.00     0.041 C 
ATOM     12  O   UNL     1      -6.379   3.422 -11.539  1.00  0.00    -0.550 OA
ATOM     13  O   UNL     1      -8.622   3.425 -12.005  1.00  0.00    -0.550 OA
ENDBRANCH  10  11
ENDBRANCH   9  10
ENDBRANCH   8   9
ENDBRANCH   1   8
TORSDOF 8
ENDMDL
