MODEL 1
REMARK VINA RESULT:    -3.464      0.000      0.000
REMARK INTER + INTRA:          -8.433
REMARK INTER:                  -6.097
REMARK INTRA:                  -2.336
REMARK UNBOUND:                -2.336
REMARK SMILES CCCCCCC=CCCCCCCCC(=O)[O-]
REMARK SMILES IDX 10 1 11 2 12 3 13 4 14 5 15 6 16 7 17 8 18 9 9 10 8 11 7 12
REMARK SMILES IDX 6 13 5 14 4 15 3 16 2 17 1 18
REMARK H PARENT
REMARK Flexibility Score: inf
ROOT
ATOM      1  C   UNL     1      -3.296  31.719 -16.831  1.00  0.00     0.004 C 
ENDROOT
BRANCH   1   2
ATOM      2  C   UNL     1      -2.704  31.194 -18.150  1.00  0.00     0.000 C 
BRANCH   2   3
ATOM      3  C   UNL     1      -2.835  29.669 -18.293  1.00  0.00     0.000 C 
BRANCH   3   4
ATOM      4  C   UNL     1      -4.007  29.097 -17.476  1.00  0.00     0.000 C 
BRANCH   4   5
ATOM      5  C   UNL     1      -3.810  27.614 -17.125  1.00  0.00     0.006 C 
BRANCH   5   6
ATOM      6  C   UNL     1      -2.679  26.959 -17.928  1.00  0.00     0.053 C 
BRANCH   6   7
ATOM      7  C   UNL     1      -2.980  25.514 -18.170  1.00  0.00     0.041 C 
ATOM      8  O   UNL     1      -3.216  25.101 -19.336  1.00  0.00    -0.550 OA
ATOM      9  O   UNL     1      -3.050  24.630 -17.101  1.00  0.00    -0.550 OA
ENDBRANCH   6   7
ENDBRANCH   5   6
ENDBRANCH   4   5
ENDBRANCH   3   4
ENDBRANCH   2   3
ENDBRANCH   1   2
BRANCH   1  10
ATOM     10  C   UNL     1      -2.343  32.676 -16.103  1.00  0.00     0.027 C 
BRANCH  10  11
ATOM     11  C   UNL     1      -2.860  33.046 -14.733  1.00  0.00    -0.031 C 
ATOM     12  C   UNL     1      -2.180  32.918 -13.577  1.00  0.00    -0.031 C 
BRANCH  12  13
ATOM     13  C   UNL     1      -0.760  32.420 -13.444  1.00  0.00     0.027 C 
BRANCH  13  14
ATOM     14  C   UNL     1      -0.706  31.002 -12.861  1.00  0.00     0.004 C 
BRANCH  14  15
ATOM     15  C   UNL     1      -0.296  29.954 -13.909  1.00  0.00     0.000 C 
BRANCH  15  16
ATOM     16  C   UNL     1      -1.498  29.364 -14.669  1.00  0.00    -0.000 C 
BRANCH  16  17
ATOM     17  C   UNL     1      -2.585  28.740 -13.777  1.00  0.00    -0.003 C 
ATOM     18  C   UNL     1      -3.895  29.526 -13.792  1.00  0.00     0.004 C 
ENDBRANCH  16  17
ENDBRANCH  15  16
ENDBRANCH  14  15
ENDBRANCH  13  14
ENDBRANCH  12  13
ENDBRANCH  10  11
ENDBRANCH   1  10
TORSDOF 13
ENDMDL
MODEL 2
REMARK VINA RESULT:    -3.301      2.409      3.821
REMARK INTER + INTRA:          -8.146
REMARK INTER:                  -5.386
REMARK INTRA:                  -2.760
REMARK UNBOUND:                -2.336
REMARK SMILES CCCCCCC=CCCCCCCCC(=O)[O-]
REMARK SMILES IDX 10 1 11 2 12 3 13 4 14 5 15 6 16 7 17 8 18 9 9 10 8 11 7 12
REMARK SMILES IDX 6 13 5 14 4 15 3 16 2 17 1 18
REMARK H PARENT
REMARK Flexibility Score: inf
ROOT
ATOM      1  C   UNL     1      -2.934  28.661 -14.165  1.00  0.00     0.004 C 
ENDROOT
BRANCH   1   2
ATOM      2  C   UNL     1      -2.648  29.355 -15.508  1.00  0.00     0.000 C 
BRANCH   2   3
ATOM      3  C   UNL     1      -3.848  30.166 -16.024  1.00  0.00     0.000 C 
BRANCH   3   4
ATOM      4  C   UNL     1      -3.459  31.594 -16.442  1.00  0.00     0.000 C 
BRANCH   4   5
ATOM      5  C   UNL     1      -2.034  31.672 -17.013  1.00  0.00     0.006 C 
BRANCH   5   6
ATOM      6  C   UNL     1      -2.004  31.596 -18.545  1.00  0.00     0.053 C 
BRANCH   6   7
ATOM      7  C   UNL     1      -1.570  30.235 -18.991  1.00  0.00     0.041 C 
ATOM      8  O   UNL     1      -2.425  29.342 -19.227  1.00  0.00    -0.550 OA
ATOM      9  O   UNL     1      -0.217  29.937 -19.099  1.00  0.00    -0.550 OA
ENDBRANCH   6   7
ENDBRANCH   5   6
ENDBRANCH   4   5
ENDBRANCH   3   4
ENDBRANCH   2   3
ENDBRANCH   1   2
BRANCH   1  10
ATOM     10  C   UNL     1      -3.957  29.429 -13.317  1.00  0.00     0.027 C 
BRANCH  10  11
ATOM     11  C   UNL     1      -3.329  30.011 -12.072  1.00  0.00    -0.031 C 
ATOM     12  C   UNL     1      -2.845  31.262 -11.950  1.00  0.00    -0.031 C 
BRANCH  12  13
ATOM     13  C   UNL     1      -2.880  32.326 -13.020  1.00  0.00     0.027 C 
BRANCH  13  14
ATOM     14  C   UNL     1      -1.475  32.842 -13.358  1.00  0.00     0.004 C 
BRANCH  14  15
ATOM     15  C   UNL     1      -0.373  31.856 -12.934  1.00  0.00     0.000 C 
BRANCH  15  16
ATOM     16  C   UNL     1       0.264  31.122 -14.128  1.00  0.00    -0.000 C 
BRANCH  16  17
ATOM     17  C   UNL     1       0.896  29.760 -13.789  1.00  0.00    -0.003 C 
ATOM     18  C   UNL     1       0.332  29.139 -12.512  1.00  0.00     0.004 C 
ENDBRANCH  16  17
ENDBRANCH  15  16
ENDBRANCH  14  15
ENDBRANCH  13  14
ENDBRANCH  12  13
ENDBRANCH  10  11
ENDBRANCH   1  10
TORSDOF 13
ENDMDL
MODEL 3
REMARK VINA RESULT:    -3.289      2.096      3.188
REMARK INTER + INTRA:          -8.124
REMARK INTER:                  -5.935
REMARK INTRA:                  -2.190
REMARK UNBOUND:                -2.336
REMARK SMILES CCCCCCC=CCCCCCCCC(=O)[O-]
REMARK SMILES IDX 10 1 11 2 12 3 13 4 14 5 15 6 16 7 17 8 18 9 9 10 8 11 7 12
REMARK SMILES IDX 6 13 5 14 4 15 3 16 2 17 1 18
REMARK H PARENT
REMARK Flexibility Score: inf
ROOT
ATOM      1  C   UNL     1      -2.649  33.021 -15.824  1.00  0.00     0.004 C 
ENDROOT
BRANCH   1   2
ATOM      2  C   UNL     1      -3.451  31.838 -16.392  1.00  0.00     0.000 C 
BRANCH   2   3
ATOM      3  C   UNL     1      -2.923  31.365 -17.756  1.00  0.00     0.000 C 
BRANCH   3   4
ATOM      4  C   UNL     1      -3.370  29.933 -18.098  1.00  0.00     0.000 C 
BRANCH   4   5
ATOM      5  C   UNL     1      -2.223  29.077 -18.660  1.00  0.00     0.006 C 
BRANCH   5   6
ATOM      6  C   UNL     1      -1.360  29.835 -19.676  1.00  0.00     0.053 C 
BRANCH   6   7
ATOM      7  C   UNL     1      -1.446  29.186 -21.021  1.00  0.00     0.041 C 
ATOM      8  O   UNL     1      -2.166  28.167 -21.189  1.00  0.00    -0.550 OA
ATOM      9  O   UNL     1      -0.692  29.677 -22.079  1.00  0.00    -0.550 OA
ENDBRANCH   6   7
ENDBRANCH   5   6
ENDBRANCH   4   5
ENDBRANCH   3   4
ENDBRANCH   2   3
ENDBRANCH   1   2
BRANCH   1  10
ATOM     10  C   UNL     1      -2.839  33.182 -14.310  1.00  0.00     0.027 C 
BRANCH  10  11
ATOM     11  C   UNL     1      -1.578  32.852 -13.548  1.00  0.00    -0.031 C 
ATOM     12  C   UNL     1      -1.464  31.910 -12.592  1.00  0.00    -0.031 C 
BRANCH  12  13
ATOM     13  C   UNL     1      -2.565  30.982 -12.137  1.00  0.00     0.027 C 
BRANCH  13  14
ATOM     14  C   UNL     1      -2.298  29.531 -12.559  1.00  0.00     0.004 C 
BRANCH  14  15
ATOM     15  C   UNL     1      -2.980  29.174 -13.890  1.00  0.00     0.000 C 
BRANCH  15  16
ATOM     16  C   UNL     1      -1.999  28.613 -14.934  1.00  0.00    -0.000 C 
BRANCH  16  17
ATOM     17  C   UNL     1      -0.784  29.510 -15.229  1.00  0.00    -0.003 C 
ATOM     18  C   UNL     1       0.550  28.832 -14.920  1.00  0.00     0.004 C 
ENDBRANCH  16  17
ENDBRANCH  15  16
ENDBRANCH  14  15
ENDBRANCH  13  14
ENDBRANCH  12  13
ENDBRANCH  10  11
ENDBRANCH   1  10
TORSDOF 13
ENDMDL
MODEL 4
REMARK VINA RESULT:    -3.253      3.832      6.280
REMARK INTER + INTRA:          -8.061
REMARK INTER:                  -5.375
REMARK INTRA:                  -2.686
REMARK UNBOUND:                -2.336
REMARK SMILES CCCCCCC=CCCCCCCCC(=O)[O-]
REMARK SMILES IDX 10 1 11 2 12 3 13 4 14 5 15 6 16 7 17 8 18 9 9 10 8 11 7 12
REMARK SMILES IDX 6 13 5 14 4 15 3 16 2 17 1 18
REMARK H PARENT
REMARK Flexibility Score: inf
ROOT
ATOM      1  C   UNL     1      -0.309  29.354 -14.508  1.00  0.00     0.004 C 
ENDROOT
BRANCH   1   2
ATOM      2  C   UNL     1      -0.150  30.881 -14.595  1.00  0.00     0.000 C 
BRANCH   2   3
ATOM      3  C   UNL     1      -0.450  31.586 -13.263  1.00  0.00     0.000 C 
BRANCH   3   4
ATOM      4  C   UNL     1      -1.474  32.725 -13.414  1.00  0.00     0.000 C 
BRANCH   4   5
ATOM      5  C   UNL     1      -2.861  32.346 -12.870  1.00  0.00     0.006 C 
BRANCH   5   6
ATOM      6  C   UNL     1      -2.814  31.150 -11.910  1.00  0.00     0.053 C 
BRANCH   6   7
ATOM      7  C   UNL     1      -3.857  31.294 -10.847  1.00  0.00     0.041 C 
ATOM      8  O   UNL     1      -4.668  32.256 -10.880  1.00  0.00    -0.550 OA
ATOM      9  O   UNL     1      -3.902  30.392  -9.791  1.00  0.00    -0.550 OA
ENDBRANCH   6   7
ENDBRANCH   5   6
ENDBRANCH   4   5
ENDBRANCH   3   4
ENDBRANCH   2   3
ENDBRANCH   1   2
BRANCH   1  10
ATOM     10  C   UNL     1      -1.448  28.834 -15.394  1.00  0.00     0.027 C 
BRANCH  10  11
ATOM     11  C   UNL     1      -2.789  28.944 -14.706  1.00  0.00    -0.031 C 
ATOM     12  C   UNL     1      -3.871  29.578 -15.196  1.00  0.00    -0.031 C 
BRANCH  12  13
ATOM     13  C   UNL     1      -3.957  30.258 -16.542  1.00  0.00     0.027 C 
BRANCH  13  14
ATOM     14  C   UNL     1      -3.558  31.737 -16.459  1.00  0.00     0.004 C 
BRANCH  14  15
ATOM     15  C   UNL     1      -2.339  32.064 -17.338  1.00  0.00     0.000 C 
BRANCH  15  16
ATOM     16  C   UNL     1      -2.275  31.206 -18.615  1.00  0.00    -0.000 C 
BRANCH  16  17
ATOM     17  C   UNL     1      -1.004  30.351 -18.759  1.00  0.00    -0.003 C 
ATOM     18  C   UNL     1       0.251  31.053 -18.241  1.00  0.00     0.004 C 
ENDBRANCH  16  17
ENDBRANCH  15  16
ENDBRANCH  14  15
ENDBRANCH  13  14
ENDBRANCH  12  13
ENDBRANCH  10  11
ENDBRANCH   1  10
TORSDOF 13
ENDMDL
MODEL 5
REMARK VINA RESULT:    -3.247      7.547      9.305
REMARK INTER + INTRA:          -8.050
REMARK INTER:                  -6.140
REMARK INTRA:                  -1.909
REMARK UNBOUND:                -2.336
REMARK SMILES CCCCCCC=CCCCCCCCC(=O)[O-]
REMARK SMILES IDX 10 1 11 2 12 3 13 4 14 5 15 6 16 7 17 8 18 9 9 10 8 11 7 12
REMARK SMILES IDX 6 13 5 14 4 15 3 16 2 17 1 18
REMARK H PARENT
REMARK Flexibility Score: inf
ROOT
ATOM      1  C   UNL     1       2.027  22.043 -10.534  1.00  0.00     0.004 C 
ENDROOT
BRANCH   1   2
ATOM      2  C   UNL     1       0.517  22.336 -10.501  1.00  0.00     0.000 C 
BRANCH   2   3
ATOM      3  C   UNL     1       0.108  23.449 -11.480  1.00  0.00     0.000 C 
BRANCH   3   4
ATOM      4  C   UNL     1       1.212  23.771 -12.502  1.00  0.00     0.000 C 
BRANCH   4   5
ATOM      5  C   UNL     1       0.896  23.221 -13.902  1.00  0.00     0.006 C 
BRANCH   5   6
ATOM      6  C   UNL     1      -0.468  22.520 -13.970  1.00  0.00     0.053 C 
BRANCH   6   7
ATOM      7  C   UNL     1      -0.296  21.081 -14.341  1.00  0.00     0.041 C 
ATOM      8  O   UNL     1       0.799  20.497 -14.131  1.00  0.00    -0.550 OA
ATOM      9  O   UNL     1      -1.331  20.396 -14.965  1.00  0.00    -0.550 OA
ENDBRANCH   6   7
ENDBRANCH   5   6
ENDBRANCH   4   5
ENDBRANCH   3   4
ENDBRANCH   2   3
ENDBRANCH   1   2
BRANCH   1  10
ATOM     10  C   UNL     1       2.757  22.597  -9.304  1.00  0.00     0.027 C 
BRANCH  10  11
ATOM     11  C   UNL     1       3.948  23.440  -9.692  1.00  0.00    -0.031 C 
ATOM     12  C   UNL     1       4.542  24.365  -8.912  1.00  0.00    -0.031 C 
BRANCH  12  13
ATOM     13  C   UNL     1       4.152  24.697  -7.492  1.00  0.00     0.027 C 
BRANCH  13  14
ATOM     14  C   UNL     1       3.123  25.834  -7.434  1.00  0.00     0.004 C 
BRANCH  14  15
ATOM     15  C   UNL     1       3.071  26.642  -8.742  1.00  0.00     0.000 C 
BRANCH  15  16
ATOM     16  C   UNL     1       1.687  26.603  -9.415  1.00  0.00    -0.000 C 
BRANCH  16  17
ATOM     17  C   UNL     1       0.655  25.693  -8.726  1.00  0.00    -0.003 C 
ATOM     18  C   UNL     1      -0.789  26.094  -9.021  1.00  0.00     0.004 C 
ENDBRANCH  16  17
ENDBRANCH  15  16
ENDBRANCH  14  15
ENDBRANCH  13  14
ENDBRANCH  12  13
ENDBRANCH  10  11
ENDBRANCH   1  10
TORSDOF 13
ENDMDL
MODEL 6
REMARK VINA RESULT:    -3.226      3.407      5.606
REMARK INTER + INTRA:          -8.013
REMARK INTER:                  -5.307
REMARK INTRA:                  -2.706
REMARK UNBOUND:                -2.336
REMARK SMILES CCCCCCC=CCCCCCCCC(=O)[O-]
REMARK SMILES IDX 10 1 11 2 12 3 13 4 14 5 15 6 16 7 17 8 18 9 9 10 8 11 7 12
REMARK SMILES IDX 6 13 5 14 4 15 3 16 2 17 1 18
REMARK H PARENT
REMARK Flexibility Score: inf
ROOT
ATOM      1  C   UNL     1       0.063  31.098 -12.889  1.00  0.00     0.004 C 
ENDROOT
BRANCH   1   2
ATOM      2  C   UNL     1      -0.282  29.730 -13.503  1.00  0.00     0.000 C 
BRANCH   2   3
ATOM      3  C   UNL     1      -1.496  29.068 -12.833  1.00  0.00     0.000 C 
BRANCH   3   4
ATOM      4  C   UNL     1      -2.790  29.246 -13.648  1.00  0.00     0.000 C 
BRANCH   4   5
ATOM      5  C   UNL     1      -3.966  29.730 -12.785  1.00  0.00     0.006 C 
BRANCH   5   6
ATOM      6  C   UNL     1      -3.513  30.330 -11.448  1.00  0.00     0.053 C 
BRANCH   6   7
ATOM      7  C   UNL     1      -4.114  29.573 -10.306  1.00  0.00     0.041 C 
ATOM      8  O   UNL     1      -4.196  30.102  -9.166  1.00  0.00    -0.550 OA
ATOM      9  O   UNL     1      -4.540  28.263 -10.488  1.00  0.00    -0.550 OA
ENDBRANCH   6   7
ENDBRANCH   5   6
ENDBRANCH   4   5
ENDBRANCH   3   4
ENDBRANCH   2   3
ENDBRANCH   1   2
BRANCH   1  10
ATOM     10  C   UNL     1      -0.409  32.267 -13.763  1.00  0.00     0.027 C 
BRANCH  10  11
ATOM     11  C   UNL     1      -1.756  32.788 -13.322  1.00  0.00    -0.031 C 
ATOM     12  C   UNL     1      -2.760  33.159 -14.141  1.00  0.00    -0.031 C 
BRANCH  12  13
ATOM     13  C   UNL     1      -2.737  33.080 -15.649  1.00  0.00     0.027 C 
BRANCH  13  14
ATOM     14  C   UNL     1      -3.516  31.864 -16.167  1.00  0.00     0.004 C 
BRANCH  14  15
ATOM     15  C   UNL     1      -2.682  31.003 -17.131  1.00  0.00     0.000 C 
BRANCH  15  16
ATOM     16  C   UNL     1      -1.283  31.589 -17.399  1.00  0.00    -0.000 C 
BRANCH  16  17
ATOM     17  C   UNL     1      -0.114  30.627 -17.122  1.00  0.00    -0.003 C 
ATOM     18  C   UNL     1      -0.531  29.158 -17.137  1.00  0.00     0.004 C 
ENDBRANCH  16  17
ENDBRANCH  15  16
ENDBRANCH  14  15
ENDBRANCH  13  14
ENDBRANCH  12  13
ENDBRANCH  10  11
ENDBRANCH   1  10
TORSDOF 13
ENDMDL
MODEL 7
REMARK VINA RESULT:    -3.224      2.824      5.822
REMARK INTER + INTRA:          -8.009
REMARK INTER:                  -5.861
REMARK INTRA:                  -2.148
REMARK UNBOUND:                -2.336
REMARK SMILES CCCCCCC=CCCCCCCCC(=O)[O-]
REMARK SMILES IDX 10 1 11 2 12 3 13 4 14 5 15 6 16 7 17 8 18 9 9 10 8 11 7 12
REMARK SMILES IDX 6 13 5 14 4 15 3 16 2 17 1 18
REMARK H PARENT
REMARK Flexibility Score: inf
ROOT
ATOM      1  C   UNL     1       0.201  31.893 -15.339  1.00  0.00     0.004 C 
ENDROOT
BRANCH   1   2
ATOM      2  C   UNL     1       0.217  31.023 -14.071  1.00  0.00     0.000 C 
BRANCH   2   3
ATOM      3  C   UNL     1      -0.383  31.741 -12.851  1.00  0.00     0.000 C 
BRANCH   3   4
ATOM      4  C   UNL     1      -1.450  32.778 -13.242  1.00  0.00     0.000 C 
BRANCH   4   5
ATOM      5  C   UNL     1      -2.870  32.189 -13.247  1.00  0.00     0.006 C 
BRANCH   5   6
ATOM      6  C   UNL     1      -3.274  31.606 -11.887  1.00  0.00     0.053 C 
BRANCH   6   7
ATOM      7  C   UNL     1      -3.547  30.140 -12.009  1.00  0.00     0.041 C 
ATOM      8  O   UNL     1      -3.141  29.343 -11.122  1.00  0.00    -0.550 OA
ATOM      9  O   UNL     1      -4.208  29.646 -13.126  1.00  0.00    -0.550 OA
ENDBRANCH   6   7
ENDBRANCH   5   6
ENDBRANCH   4   5
ENDBRANCH   3   4
ENDBRANCH   2   3
ENDBRANCH   1   2
BRANCH   1  10
ATOM     10  C   UNL     1      -0.593  31.246 -16.481  1.00  0.00     0.027 C 
BRANCH  10  11
ATOM     11  C   UNL     1      -1.725  32.131 -16.949  1.00  0.00    -0.031 C 
ATOM     12  C   UNL     1      -3.025  31.783 -16.995  1.00  0.00    -0.031 C 
BRANCH  12  13
ATOM     13  C   UNL     1      -3.596  30.459 -16.548  1.00  0.00     0.027 C 
BRANCH  13  14
ATOM     14  C   UNL     1      -3.721  29.469 -17.715  1.00  0.00     0.004 C 
BRANCH  14  15
ATOM     15  C   UNL     1      -2.720  28.307 -17.606  1.00  0.00     0.000 C 
BRANCH  15  16
ATOM     16  C   UNL     1      -1.595  28.386 -18.654  1.00  0.00    -0.000 C 
BRANCH  16  17
ATOM     17  C   UNL     1      -1.931  29.217 -19.904  1.00  0.00    -0.003 C 
ATOM     18  C   UNL     1      -0.935  30.349 -20.155  1.00  0.00     0.004 C 
ENDBRANCH  16  17
ENDBRANCH  15  16
ENDBRANCH  14  15
ENDBRANCH  13  14
ENDBRANCH  12  13
ENDBRANCH  10  11
ENDBRANCH   1  10
TORSDOF 13
ENDMDL
MODEL 8
REMARK VINA RESULT:    -3.210      2.332      3.812
REMARK INTER + INTRA:          -7.986
REMARK INTER:                  -5.547
REMARK INTRA:                  -2.439
REMARK UNBOUND:                -2.336
REMARK SMILES CCCCCCC=CCCCCCCCC(=O)[O-]
REMARK SMILES IDX 10 1 11 2 12 3 13 4 14 5 15 6 16 7 17 8 18 9 9 10 8 11 7 12
REMARK SMILES IDX 6 13 5 14 4 15 3 16 2 17 1 18
REMARK H PARENT
REMARK Flexibility Score: inf
ROOT
ATOM      1  C   UNL     1      -1.902  32.993 -13.497  1.00  0.00     0.004 C 
ENDROOT
BRANCH   1   2
ATOM      2  C   UNL     1      -2.755  32.108 -14.420  1.00  0.00     0.000 C 
BRANCH   2   3
ATOM      3  C   UNL     1      -2.855  32.664 -15.850  1.00  0.00     0.000 C 
BRANCH   3   4
ATOM      4  C   UNL     1      -2.288  31.696 -16.902  1.00  0.00     0.000 C 
BRANCH   4   5
ATOM      5  C   UNL     1      -2.527  30.222 -16.535  1.00  0.00     0.006 C 
BRANCH   5   6
ATOM      6  C   UNL     1      -3.648  29.579 -17.361  1.00  0.00     0.053 C 
BRANCH   6   7
ATOM      7  C   UNL     1      -4.802  29.216 -16.482  1.00  0.00     0.041 C 
ATOM      8  O   UNL     1      -4.690  29.281 -15.229  1.00  0.00    -0.550 OA
ATOM      9  O   UNL     1      -5.988  28.758 -17.043  1.00  0.00    -0.550 OA
ENDBRANCH   6   7
ENDBRANCH   5   6
ENDBRANCH   4   5
ENDBRANCH   3   4
ENDBRANCH   2   3
ENDBRANCH   1   2
BRANCH   1  10
ATOM     10  C   UNL     1      -0.737  32.223 -12.861  1.00  0.00     0.027 C 
BRANCH  10  11
ATOM     11  C   UNL     1       0.065  31.467 -13.893  1.00  0.00    -0.031 C 
ATOM     12  C   UNL     1       0.297  30.141 -13.888  1.00  0.00    -0.031 C 
BRANCH  12  13
ATOM     13  C   UNL     1      -0.239  29.159 -12.874  1.00  0.00     0.027 C 
BRANCH  13  14
ATOM     14  C   UNL     1      -1.700  28.786 -13.160  1.00  0.00     0.004 C 
BRANCH  14  15
ATOM     15  C   UNL     1      -2.541  28.693 -11.876  1.00  0.00     0.000 C 
BRANCH  15  16
ATOM     16  C   UNL     1      -3.717  29.687 -11.857  1.00  0.00    -0.000 C 
BRANCH  16  17
ATOM     17  C   UNL     1      -3.644  30.757 -10.754  1.00  0.00    -0.003 C 
ATOM     18  C   UNL     1      -4.498  31.988 -11.056  1.00  0.00     0.004 C 
ENDBRANCH  16  17
ENDBRANCH  15  16
ENDBRANCH  14  15
ENDBRANCH  13  14
ENDBRANCH  12  13
ENDBRANCH  10  11
ENDBRANCH   1  10
TORSDOF 13
ENDMDL
MODEL 9
REMARK VINA RESULT:    -3.170      1.759      3.162
REMARK INTER + INTRA:          -7.915
REMARK INTER:                  -5.348
REMARK INTRA:                  -2.566
REMARK UNBOUND:                -2.336
REMARK SMILES CCCCCCC=CCCCCCCCC(=O)[O-]
REMARK SMILES IDX 10 1 11 2 12 3 13 4 14 5 15 6 16 7 17 8 18 9 9 10 8 11 7 12
REMARK SMILES IDX 6 13 5 14 4 15 3 16 2 17 1 18
REMARK H PARENT
REMARK Flexibility Score: inf
ROOT
ATOM      1  C   UNL     1      -2.859  33.109 -14.802  1.00  0.00     0.004 C 
ENDROOT
BRANCH   1   2
ATOM      2  C   UNL     1      -2.255  32.648 -16.139  1.00  0.00     0.000 C 
BRANCH   2   3
ATOM      3  C   UNL     1      -3.141  31.625 -16.869  1.00  0.00     0.000 C 
BRANCH   3   4
ATOM      4  C   UNL     1      -2.320  30.599 -17.670  1.00  0.00     0.000 C 
BRANCH   4   5
ATOM      5  C   UNL     1      -3.196  29.492 -18.279  1.00  0.00     0.006 C 
BRANCH   5   6
ATOM      6  C   UNL     1      -3.167  28.194 -17.461  1.00  0.00     0.053 C 
BRANCH   6   7
ATOM      7  C   UNL     1      -4.440  28.034 -16.693  1.00  0.00     0.041 C 
ATOM      8  O   UNL     1      -4.506  27.217 -15.737  1.00  0.00    -0.550 OA
ATOM      9  O   UNL     1      -5.571  28.751 -17.064  1.00  0.00    -0.550 OA
ENDBRANCH   6   7
ENDBRANCH   5   6
ENDBRANCH   4   5
ENDBRANCH   3   4
ENDBRANCH   2   3
ENDBRANCH   1   2
BRANCH   1  10
ATOM     10  C   UNL     1      -2.001  32.696 -13.600  1.00  0.00     0.027 C 
BRANCH  10  11
ATOM     11  C   UNL     1      -2.833  32.073 -12.504  1.00  0.00    -0.031 C 
ATOM     12  C   UNL     1      -3.375  30.840 -12.536  1.00  0.00    -0.031 C 
BRANCH  12  13
ATOM     13  C   UNL     1      -3.214  29.839 -13.655  1.00  0.00     0.027 C 
BRANCH  13  14
ATOM     14  C   UNL     1      -2.007  28.918 -13.426  1.00  0.00     0.004 C 
BRANCH  14  15
ATOM     15  C   UNL     1      -1.014  28.955 -14.600  1.00  0.00     0.000 C 
BRANCH  15  16
ATOM     16  C   UNL     1       0.247  29.782 -14.291  1.00  0.00    -0.000 C 
BRANCH  16  17
ATOM     17  C   UNL     1       0.803  30.585 -15.481  1.00  0.00    -0.003 C 
ATOM     18  C   UNL     1       1.301  31.974 -15.085  1.00  0.00     0.004 C 
ENDBRANCH  16  17
ENDBRANCH  15  16
ENDBRANCH  14  15
ENDBRANCH  13  14
ENDBRANCH  12  13
ENDBRANCH  10  11
ENDBRANCH   1  10
TORSDOF 13
ENDMDL
