MODEL 1
REMARK VINA RESULT:    -3.964      0.000      0.000
REMARK INTER + INTRA:          -5.042
REMARK INTER:                  -4.891
REMARK INTRA:                  -0.151
REMARK UNBOUND:                -0.151
REMARK SMILES CCCCCC(=O)[O-]
REMARK SMILES IDX 4 1 5 2 6 3 7 4 8 5 3 6 2 7 1 8
REMARK H PARENT
REMARK Flexibility Score: inf
ROOT
ATOM      1  C   UNL     1      27.667  42.746  35.200  1.00  0.00     0.006 C 
ENDROOT
BRANCH   1   2
ATOM      2  C   UNL     1      27.793  42.766  33.671  1.00  0.00     0.053 C 
BRANCH   2   3
ATOM      3  C   UNL     1      27.636  41.397  33.083  1.00  0.00     0.041 C 
ATOM      4  O   UNL     1      27.906  41.193  31.871  1.00  0.00    -0.550 OA
ATOM      5  O   UNL     1      27.159  40.354  33.866  1.00  0.00    -0.550 OA
ENDBRANCH   2   3
ENDBRANCH   1   2
BRANCH   1   6
ATOM      6  C   UNL     1      26.555  43.679  35.703  1.00  0.00     0.000 C 
BRANCH   6   7
ATOM      7  C   UNL     1      25.202  42.959  35.723  1.00  0.00    -0.003 C 
ATOM      8  C   UNL     1      24.047  43.955  35.719  1.00  0.00     0.004 C 
ENDBRANCH   6   7
ENDBRANCH   1   6
TORSDOF 4
ENDMDL
MODEL 2
REMARK VINA RESULT:    -3.849      1.476      2.004
REMARK INTER + INTRA:          -4.899
REMARK INTER:                  -4.801
REMARK INTRA:                  -0.099
REMARK UNBOUND:                -0.151
REMARK SMILES CCCCCC(=O)[O-]
REMARK SMILES IDX 4 1 5 2 6 3 7 4 8 5 3 6 2 7 1 8
REMARK H PARENT
REMARK Flexibility Score: inf
ROOT
ATOM      1  C   UNL     1      26.839  41.505  34.137  1.00  0.00     0.006 C 
ENDROOT
BRANCH   1   2
ATOM      2  C   UNL     1      27.628  40.207  33.925  1.00  0.00     0.053 C 
BRANCH   2   3
ATOM      3  C   UNL     1      27.897  39.951  32.473  1.00  0.00     0.041 C 
ATOM      4  O   UNL     1      28.201  40.903  31.708  1.00  0.00    -0.550 OA
ATOM      5  O   UNL     1      27.778  38.666  31.960  1.00  0.00    -0.550 OA
ENDBRANCH   2   3
ENDBRANCH   1   2
BRANCH   1   6
ATOM      6  C   UNL     1      25.491  41.259  34.831  1.00  0.00     0.000 C 
BRANCH   6   7
ATOM      7  C   UNL     1      24.990  42.531  35.525  1.00  0.00    -0.003 C 
ATOM      8  C   UNL     1      26.128  43.523  35.744  1.00  0.00     0.004 C 
ENDBRANCH   6   7
ENDBRANCH   1   6
TORSDOF 4
ENDMDL
MODEL 3
REMARK VINA RESULT:    -3.847      1.757      2.472
REMARK INTER + INTRA:          -4.898
REMARK INTER:                  -4.787
REMARK INTRA:                  -0.111
REMARK UNBOUND:                -0.151
REMARK SMILES CCCCCC(=O)[O-]
REMARK SMILES IDX 4 1 5 2 6 3 7 4 8 5 3 6 2 7 1 8
REMARK H PARENT
REMARK Flexibility Score: inf
ROOT
ATOM      1  C   UNL     1      25.363  41.958  35.135  1.00  0.00     0.006 C 
ENDROOT
BRANCH   1   2
ATOM      2  C   UNL     1      26.335  43.104  35.444  1.00  0.00     0.053 C 
BRANCH   2   3
ATOM      3  C   UNL     1      27.701  42.837  34.890  1.00  0.00     0.041 C 
ATOM      4  O   UNL     1      27.861  42.668  33.653  1.00  0.00    -0.550 OA
ATOM      5  O   UNL     1      28.793  42.743  35.744  1.00  0.00    -0.550 OA
ENDBRANCH   2   3
ENDBRANCH   1   2
BRANCH   1   6
ATOM      6  C   UNL     1      23.897  42.417  35.163  1.00  0.00     0.000 C 
BRANCH   6   7
ATOM      7  C   UNL     1      23.790  43.887  35.583  1.00  0.00    -0.003 C 
ATOM      8  C   UNL     1      22.365  44.406  35.417  1.00  0.00     0.004 C 
ENDBRANCH   6   7
ENDBRANCH   1   6
TORSDOF 4
ENDMDL
MODEL 4
REMARK VINA RESULT:    -3.815      2.929      5.029
REMARK INTER + INTRA:          -4.858
REMARK INTER:                  -4.718
REMARK INTRA:                  -0.140
REMARK UNBOUND:                -0.151
REMARK SMILES CCCCCC(=O)[O-]
REMARK SMILES IDX 4 1 5 2 6 3 7 4 8 5 3 6 2 7 1 8
REMARK H PARENT
REMARK Flexibility Score: inf
ROOT
ATOM      1  C   UNL     1      28.178  39.173  33.965  1.00  0.00     0.006 C 
ENDROOT
BRANCH   1   2
ATOM      2  C   UNL     1      27.222  40.373  33.938  1.00  0.00     0.053 C 
BRANCH   2   3
ATOM      3  C   UNL     1      27.683  41.428  32.980  1.00  0.00     0.041 C 
ATOM      4  O   UNL     1      27.744  42.631  33.344  1.00  0.00    -0.550 OA
ATOM      5  O   UNL     1      28.013  41.087  31.675  1.00  0.00    -0.550 OA
ENDBRANCH   2   3
ENDBRANCH   1   2
BRANCH   1   6
ATOM      6  C   UNL     1      27.455  37.848  33.680  1.00  0.00     0.000 C 
BRANCH   6   7
ATOM      7  C   UNL     1      27.192  37.679  32.179  1.00  0.00    -0.003 C 
ATOM      8  C   UNL     1      27.861  36.418  31.640  1.00  0.00     0.004 C 
ENDBRANCH   6   7
ENDBRANCH   1   6
TORSDOF 4
ENDMDL
MODEL 5
REMARK VINA RESULT:    -3.809      6.604      8.224
REMARK INTER + INTRA:          -4.850
REMARK INTER:                  -4.707
REMARK INTRA:                  -0.144
REMARK UNBOUND:                -0.151
REMARK SMILES CCCCCC(=O)[O-]
REMARK SMILES IDX 4 1 5 2 6 3 7 4 8 5 3 6 2 7 1 8
REMARK H PARENT
REMARK Flexibility Score: inf
ROOT
ATOM      1  C   UNL     1      27.447  36.179  31.273  1.00  0.00     0.006 C 
ENDROOT
BRANCH   1   2
ATOM      2  C   UNL     1      27.499  36.714  32.710  1.00  0.00     0.053 C 
BRANCH   2   3
ATOM      3  C   UNL     1      27.478  35.604  33.716  1.00  0.00     0.041 C 
ATOM      4  O   UNL     1      26.886  35.757  34.816  1.00  0.00    -0.550 OA
ATOM      5  O   UNL     1      28.142  34.413  33.452  1.00  0.00    -0.550 OA
ENDBRANCH   2   3
ENDBRANCH   1   2
BRANCH   1   6
ATOM      6  C   UNL     1      26.064  35.616  30.911  1.00  0.00     0.000 C 
BRANCH   6   7
ATOM      7  C   UNL     1      26.180  34.193  30.356  1.00  0.00    -0.003 C 
ATOM      8  C   UNL     1      24.824  33.673  29.887  1.00  0.00     0.004 C 
ENDBRANCH   6   7
ENDBRANCH   1   6
TORSDOF 4
ENDMDL
MODEL 6
REMARK VINA RESULT:    -3.801      6.608      8.308
REMARK INTER + INTRA:          -4.841
REMARK INTER:                  -4.625
REMARK INTRA:                  -0.216
REMARK UNBOUND:                -0.151
REMARK SMILES CCCCCC(=O)[O-]
REMARK SMILES IDX 4 1 5 2 6 3 7 4 8 5 3 6 2 7 1 8
REMARK H PARENT
REMARK Flexibility Score: inf
ROOT
ATOM      1  C   UNL     1      27.005  36.033  31.420  1.00  0.00     0.006 C 
ENDROOT
BRANCH   1   2
ATOM      2  C   UNL     1      27.463  36.652  32.748  1.00  0.00     0.053 C 
BRANCH   2   3
ATOM      3  C   UNL     1      27.414  35.660  33.869  1.00  0.00     0.041 C 
ATOM      4  O   UNL     1      27.854  34.493  33.702  1.00  0.00    -0.550 OA
ATOM      5  O   UNL     1      26.852  36.016  35.089  1.00  0.00    -0.550 OA
ENDBRANCH   2   3
ENDBRANCH   1   2
BRANCH   1   6
ATOM      6  C   UNL     1      28.170  35.841  30.437  1.00  0.00     0.000 C 
BRANCH   6   7
ATOM      7  C   UNL     1      28.143  34.437  29.823  1.00  0.00    -0.003 C 
ATOM      8  C   UNL     1      26.964  33.626  30.352  1.00  0.00     0.004 C 
ENDBRANCH   6   7
ENDBRANCH   1   6
TORSDOF 4
ENDMDL
MODEL 7
REMARK VINA RESULT:    -3.650      7.215      8.885
REMARK INTER + INTRA:          -4.654
REMARK INTER:                  -4.426
REMARK INTRA:                  -0.228
REMARK UNBOUND:                -0.151
REMARK SMILES CCCCCC(=O)[O-]
REMARK SMILES IDX 4 1 5 2 6 3 7 4 8 5 3 6 2 7 1 8
REMARK H PARENT
REMARK Flexibility Score: inf
ROOT
ATOM      1  C   UNL     1      27.894  33.426  31.757  1.00  0.00     0.006 C 
ENDROOT
BRANCH   1   2
ATOM      2  C   UNL     1      28.696  34.474  32.540  1.00  0.00     0.053 C 
BRANCH   2   3
ATOM      3  C   UNL     1      27.810  35.538  33.112  1.00  0.00     0.041 C 
ATOM      4  O   UNL     1      27.564  36.580  32.451  1.00  0.00    -0.550 OA
ATOM      5  O   UNL     1      27.285  35.393  34.390  1.00  0.00    -0.550 OA
ENDBRANCH   2   3
ENDBRANCH   1   2
BRANCH   1   6
ATOM      6  C   UNL     1      27.768  33.784  30.269  1.00  0.00     0.000 C 
BRANCH   6   7
ATOM      7  C   UNL     1      29.005  34.547  29.782  1.00  0.00    -0.003 C 
ATOM      8  C   UNL     1      28.610  35.823  29.044  1.00  0.00     0.004 C 
ENDBRANCH   6   7
ENDBRANCH   1   6
TORSDOF 4
ENDMDL
MODEL 8
REMARK VINA RESULT:    -3.621      5.795      7.972
REMARK INTER + INTRA:          -4.619
REMARK INTER:                  -4.516
REMARK INTRA:                  -0.102
REMARK UNBOUND:                -0.151
REMARK SMILES CCCCCC(=O)[O-]
REMARK SMILES IDX 4 1 5 2 6 3 7 4 8 5 3 6 2 7 1 8
REMARK H PARENT
REMARK Flexibility Score: inf
ROOT
ATOM      1  C   UNL     1      28.112  35.924  31.268  1.00  0.00     0.006 C 
ENDROOT
BRANCH   1   2
ATOM      2  C   UNL     1      26.957  36.780  31.802  1.00  0.00     0.053 C 
BRANCH   2   3
ATOM      3  C   UNL     1      27.453  37.946  32.602  1.00  0.00     0.041 C 
ATOM      4  O   UNL     1      27.465  37.893  33.859  1.00  0.00    -0.550 OA
ATOM      5  O   UNL     1      27.872  39.103  31.958  1.00  0.00    -0.550 OA
ENDBRANCH   2   3
ENDBRANCH   1   2
BRANCH   1   6
ATOM      6  C   UNL     1      27.785  35.291  29.907  1.00  0.00     0.000 C 
BRANCH   6   7
ATOM      7  C   UNL     1      27.546  33.783  30.046  1.00  0.00    -0.003 C 
ATOM      8  C   UNL     1      26.055  33.462  30.082  1.00  0.00     0.004 C 
ENDBRANCH   6   7
ENDBRANCH   1   6
TORSDOF 4
ENDMDL
MODEL 9
REMARK VINA RESULT:    -3.516      4.753      6.202
REMARK INTER + INTRA:          -4.489
REMARK INTER:                  -4.308
REMARK INTRA:                  -0.181
REMARK UNBOUND:                -0.151
REMARK SMILES CCCCCC(=O)[O-]
REMARK SMILES IDX 4 1 5 2 6 3 7 4 8 5 3 6 2 7 1 8
REMARK H PARENT
REMARK Flexibility Score: inf
ROOT
ATOM      1  C   UNL     1      27.081  37.455  32.113  1.00  0.00     0.006 C 
ENDROOT
BRANCH   1   2
ATOM      2  C   UNL     1      27.892  36.411  31.335  1.00  0.00     0.053 C 
BRANCH   2   3
ATOM      3  C   UNL     1      28.358  35.296  32.222  1.00  0.00     0.041 C 
ATOM      4  O   UNL     1      27.999  35.254  33.428  1.00  0.00    -0.550 OA
ATOM      5  O   UNL     1      29.217  34.324  31.725  1.00  0.00    -0.550 OA
ENDBRANCH   2   3
ENDBRANCH   1   2
BRANCH   1   6
ATOM      6  C   UNL     1      27.800  38.810  32.191  1.00  0.00     0.000 C 
BRANCH   6   7
ATOM      7  C   UNL     1      27.725  39.390  33.608  1.00  0.00    -0.003 C 
ATOM      8  C   UNL     1      27.085  38.399  34.575  1.00  0.00     0.004 C 
ENDBRANCH   6   7
ENDBRANCH   1   6
TORSDOF 4
ENDMDL
