MODEL 1
REMARK VINA RESULT:    -4.334      0.000      0.000
REMARK INTER + INTRA:          -5.554
REMARK INTER:                  -5.347
REMARK INTRA:                  -0.207
REMARK UNBOUND:                -0.207
REMARK SMILES O=c1c(O)c(-c2cc(O)c(O)c(O)c2)oc2cc(O)cc(O)c12
REMARK SMILES IDX 5 1 3 2 2 3 1 4 23 5 21 6 20 7 18 8 17 9 16 10 15 11 6 12
REMARK SMILES IDX 7 13 8 14 14 15 10 16 12 17 9 18 11 20 13 22 4 24 22 26
REMARK SMILES IDX 19 28
REMARK H PARENT 9 19 11 21 13 23 4 25 22 27 19 29
REMARK Flexibility Score: inf
ROOT
ATOM      1  C   UNL     1     170.379 175.061 150.093  1.00  0.00     0.180 A 
ATOM      2  C   UNL     1     171.096 176.224 150.425  1.00  0.00     0.208 A 
ATOM      3  C   UNL     1     172.471 176.281 150.146  1.00  0.00     0.238 A 
ATOM      4  O   UNL     1     173.116 177.302 150.495  1.00  0.00    -0.285 OA
ATOM      5  C   UNL     1     173.108 175.180 149.524  1.00  0.00     0.111 A 
ATOM      6  C   UNL     1     174.488 175.143 149.159  1.00  0.00     0.134 A 
ATOM      7  C   UNL     1     175.041 173.953 148.669  1.00  0.00     0.093 A 
ATOM      8  C   UNL     1     174.252 172.822 148.469  1.00  0.00     0.123 A 
ATOM      9  C   UNL     1     172.890 172.864 148.766  1.00  0.00     0.094 A 
ATOM     10  C   UNL     1     172.317 174.025 149.291  1.00  0.00     0.146 A 
ATOM     11  O   UNL     1     171.019 174.021 149.571  1.00  0.00    -0.452 OA
ENDROOT
BRANCH   1  12
ATOM     12  C   UNL     1     168.923 174.937 150.333  1.00  0.00     0.029 A 
ATOM     13  C   UNL     1     168.014 174.819 149.267  1.00  0.00     0.062 A 
ATOM     14  C   UNL     1     166.644 174.678 149.512  1.00  0.00     0.162 A 
ATOM     15  C   UNL     1     168.443 174.878 151.649  1.00  0.00     0.062 A 
ATOM     16  C   UNL     1     166.167 174.643 150.833  1.00  0.00     0.200 A 
ATOM     17  C   UNL     1     167.072 174.740 151.905  1.00  0.00     0.162 A 
BRANCH  14  18
ATOM     18  O   UNL     1     165.773 174.570 148.428  1.00  0.00    -0.504 OA
ATOM     19  H   UNL     1     164.996 175.207 148.295  1.00  0.00     0.293 HD
ENDBRANCH  14  18
BRANCH  16  20
ATOM     20  O   UNL     1     164.797 174.507 151.069  1.00  0.00    -0.502 OA
ATOM     21  H   UNL     1     164.174 175.305 151.104  1.00  0.00     0.293 HD
ENDBRANCH  16  20
BRANCH  17  22
ATOM     22  O   UNL     1     166.606 174.696 153.218  1.00  0.00    -0.504 OA
ATOM     23  H   UNL     1     167.100 174.186 153.940  1.00  0.00     0.293 HD
ENDBRANCH  17  22
ENDBRANCH   1  12
BRANCH   2  24
ATOM     24  O   UNL     1     170.451 177.291 151.057  1.00  0.00    -0.502 OA
ATOM     25  H   UNL     1     170.857 178.216 151.113  1.00  0.00     0.293 HD
ENDBRANCH   2  24
BRANCH   6  26
ATOM     26  O   UNL     1     175.344 176.245 149.232  1.00  0.00    -0.507 OA
ATOM     27  H   UNL     1     175.413 176.967 148.531  1.00  0.00     0.293 HD
ENDBRANCH   6  26
BRANCH   8  28
ATOM     28  O   UNL     1     174.833 171.659 147.964  1.00  0.00    -0.508 OA
ATOM     29  H   UNL     1     174.525 170.741 148.262  1.00  0.00     0.293 HD
ENDBRANCH   8  28
TORSDOF 7
ENDMDL
MODEL 2
REMARK VINA RESULT:    -4.321      4.168      7.054
REMARK INTER + INTRA:          -5.539
REMARK INTER:                  -5.332
REMARK INTRA:                  -0.207
REMARK UNBOUND:                -0.207
REMARK SMILES O=c1c(O)c(-c2cc(O)c(O)c(O)c2)oc2cc(O)cc(O)c12
REMARK SMILES IDX 5 1 3 2 2 3 1 4 23 5 21 6 20 7 18 8 17 9 16 10 15 11 6 12
REMARK SMILES IDX 7 13 8 14 14 15 10 16 12 17 9 18 11 20 13 22 4 24 22 26
REMARK SMILES IDX 19 28
REMARK H PARENT 9 19 11 21 13 23 4 25 22 27 19 29
REMARK Flexibility Score: inf
ROOT
ATOM      1  C   UNL     1     175.047 177.627 150.071  1.00  0.00     0.180 A 
ATOM      2  C   UNL     1     176.208 176.901 150.389  1.00  0.00     0.208 A 
ATOM      3  C   UNL     1     176.256 175.528 150.096  1.00  0.00     0.238 A 
ATOM      4  O   UNL     1     177.275 174.874 150.432  1.00  0.00    -0.285 OA
ATOM      5  C   UNL     1     175.148 174.903 149.474  1.00  0.00     0.111 A 
ATOM      6  C   UNL     1     175.101 173.527 149.095  1.00  0.00     0.134 A 
ATOM      7  C   UNL     1     173.906 172.986 148.606  1.00  0.00     0.093 A 
ATOM      8  C   UNL     1     172.778 173.783 148.421  1.00  0.00     0.123 A 
ATOM      9  C   UNL     1     172.829 175.142 148.731  1.00  0.00     0.094 A 
ATOM     10  C   UNL     1     173.996 175.703 149.256  1.00  0.00     0.146 A 
ATOM     11  O   UNL     1     174.001 176.998 149.548  1.00  0.00    -0.452 OA
ENDROOT
BRANCH   1  12
ATOM     12  C   UNL     1     174.933 179.081 150.326  1.00  0.00     0.029 A 
ATOM     13  C   UNL     1     174.811 180.001 149.270  1.00  0.00     0.062 A 
ATOM     14  C   UNL     1     174.679 181.369 149.530  1.00  0.00     0.162 A 
ATOM     15  C   UNL     1     174.887 179.548 151.647  1.00  0.00     0.062 A 
ATOM     16  C   UNL     1     174.657 181.834 150.856  1.00  0.00     0.200 A 
ATOM     17  C   UNL     1     174.757 180.918 151.917  1.00  0.00     0.162 A 
BRANCH  14  18
ATOM     18  O   UNL     1     174.566 182.252 148.455  1.00  0.00    -0.504 OA
ATOM     19  H   UNL     1     175.175 182.196 147.647  1.00  0.00     0.293 HD
ENDBRANCH  14  18
BRANCH  16  20
ATOM     20  O   UNL     1     174.530 183.201 151.106  1.00  0.00    -0.502 OA
ATOM     21  H   UNL     1     174.598 183.894 150.370  1.00  0.00     0.293 HD
ENDBRANCH  16  20
BRANCH  17  22
ATOM     22  O   UNL     1     174.727 181.371 153.235  1.00  0.00    -0.504 OA
ATOM     23  H   UNL     1     175.331 182.119 153.553  1.00  0.00     0.293 HD
ENDBRANCH  17  22
ENDBRANCH   1  12
BRANCH   2  24
ATOM     24  O   UNL     1     177.282 177.534 151.021  1.00  0.00    -0.502 OA
ATOM     25  H   UNL     1     177.349 178.541 151.102  1.00  0.00     0.293 HD
ENDBRANCH   2  24
BRANCH   6  26
ATOM     26  O   UNL     1     176.199 172.665 149.154  1.00  0.00    -0.507 OA
ATOM     27  H   UNL     1     176.194 171.706 148.840  1.00  0.00     0.293 HD
ENDBRANCH   6  26
BRANCH   8  28
ATOM     28  O   UNL     1     171.609 173.214 147.917  1.00  0.00    -0.508 OA
ATOM     29  H   UNL     1     171.396 172.232 148.052  1.00  0.00     0.293 HD
ENDBRANCH   8  28
TORSDOF 7
ENDMDL
MODEL 3
REMARK VINA RESULT:    -4.319      4.172      7.122
REMARK INTER + INTRA:          -5.536
REMARK INTER:                  -5.241
REMARK INTRA:                  -0.295
REMARK UNBOUND:                -0.207
REMARK SMILES O=c1c(O)c(-c2cc(O)c(O)c(O)c2)oc2cc(O)cc(O)c12
REMARK SMILES IDX 5 1 3 2 2 3 1 4 23 5 21 6 20 7 18 8 17 9 16 10 15 11 6 12
REMARK SMILES IDX 7 13 8 14 14 15 10 16 12 17 9 18 11 20 13 22 4 24 22 26
REMARK SMILES IDX 19 28
REMARK H PARENT 9 19 11 21 13 23 4 25 22 27 19 29
REMARK Flexibility Score: inf
ROOT
ATOM      1  C   UNL     1     173.159 170.395 150.093  1.00  0.00     0.180 A 
ATOM      2  C   UNL     1     171.992 171.113 150.406  1.00  0.00     0.208 A 
ATOM      3  C   UNL     1     171.938 172.486 150.117  1.00  0.00     0.238 A 
ATOM      4  O   UNL     1     170.912 173.133 150.449  1.00  0.00    -0.285 OA
ATOM      5  C   UNL     1     173.045 173.120 149.504  1.00  0.00     0.111 A 
ATOM      6  C   UNL     1     173.085 174.497 149.129  1.00  0.00     0.134 A 
ATOM      7  C   UNL     1     174.281 175.047 148.649  1.00  0.00     0.093 A 
ATOM      8  C   UNL     1     175.415 174.258 148.468  1.00  0.00     0.123 A 
ATOM      9  C   UNL     1     175.370 172.897 148.775  1.00  0.00     0.094 A 
ATOM     10  C   UNL     1     174.203 172.327 149.290  1.00  0.00     0.146 A 
ATOM     11  O   UNL     1     174.205 171.031 149.579  1.00  0.00    -0.452 OA
ENDROOT
BRANCH   1  12
ATOM     12  C   UNL     1     173.281 168.941 150.346  1.00  0.00     0.029 A 
ATOM     13  C   UNL     1     173.226 168.010 149.294  1.00  0.00     0.062 A 
ATOM     14  C   UNL     1     173.368 166.641 149.547  1.00  0.00     0.162 A 
ATOM     15  C   UNL     1     173.514 168.484 151.651  1.00  0.00     0.062 A 
ATOM     16  C   UNL     1     173.578 166.187 150.860  1.00  0.00     0.200 A 
ATOM     17  C   UNL     1     173.655 167.114 151.914  1.00  0.00     0.162 A 
BRANCH  14  18
ATOM     18  O   UNL     1     173.301 165.747 148.478  1.00  0.00    -0.504 OA
ATOM     19  H   UNL     1     173.548 164.769 148.576  1.00  0.00     0.293 HD
ENDBRANCH  14  18
BRANCH  16  20
ATOM     20  O   UNL     1     173.713 164.819 151.104  1.00  0.00    -0.502 OA
ATOM     21  H   UNL     1     173.021 164.145 150.798  1.00  0.00     0.293 HD
ENDBRANCH  16  20
BRANCH  17  22
ATOM     22  O   UNL     1     173.872 166.671 153.218  1.00  0.00    -0.504 OA
ATOM     23  H   UNL     1     173.324 167.021 153.995  1.00  0.00     0.293 HD
ENDBRANCH  17  22
ENDBRANCH   1  12
BRANCH   2  24
ATOM     24  O   UNL     1     170.918 170.472 151.031  1.00  0.00    -0.502 OA
ATOM     25  H   UNL     1     170.378 170.908 151.767  1.00  0.00     0.293 HD
ENDBRANCH   2  24
BRANCH   6  26
ATOM     26  O   UNL     1     171.982 175.352 149.183  1.00  0.00    -0.507 OA
ATOM     27  H   UNL     1     171.674 175.842 150.009  1.00  0.00     0.293 HD
ENDBRANCH   6  26
BRANCH   8  28
ATOM     28  O   UNL     1     176.583 174.835 147.973  1.00  0.00    -0.508 OA
ATOM     29  H   UNL     1     177.316 175.162 148.591  1.00  0.00     0.293 HD
ENDBRANCH   8  28
TORSDOF 7
ENDMDL
MODEL 4
REMARK VINA RESULT:    -4.309      4.583      9.980
REMARK INTER + INTRA:          -5.524
REMARK INTER:                  -5.232
REMARK INTRA:                  -0.292
REMARK UNBOUND:                -0.207
REMARK SMILES O=c1c(O)c(-c2cc(O)c(O)c(O)c2)oc2cc(O)cc(O)c12
REMARK SMILES IDX 5 1 3 2 2 3 1 4 23 5 21 6 20 7 18 8 17 9 16 10 15 11 6 12
REMARK SMILES IDX 7 13 8 14 14 15 10 16 12 17 9 18 11 20 13 22 4 24 22 26
REMARK SMILES IDX 19 28
REMARK H PARENT 9 19 11 21 13 23 4 25 22 27 19 29
REMARK Flexibility Score: inf
ROOT
ATOM      1  C   UNL     1     177.686 173.165 150.091  1.00  0.00     0.180 A 
ATOM      2  C   UNL     1     176.967 171.998 150.405  1.00  0.00     0.208 A 
ATOM      3  C   UNL     1     175.595 171.944 150.113  1.00  0.00     0.238 A 
ATOM      4  O   UNL     1     174.946 170.919 150.446  1.00  0.00    -0.285 OA
ATOM      5  C   UNL     1     174.962 173.050 149.496  1.00  0.00     0.111 A 
ATOM      6  C   UNL     1     173.586 173.089 149.117  1.00  0.00     0.134 A 
ATOM      7  C   UNL     1     173.037 174.283 148.633  1.00  0.00     0.093 A 
ATOM      8  C   UNL     1     173.827 175.417 148.451  1.00  0.00     0.123 A 
ATOM      9  C   UNL     1     175.187 175.372 148.761  1.00  0.00     0.094 A 
ATOM     10  C   UNL     1     175.755 174.207 149.281  1.00  0.00     0.146 A 
ATOM     11  O   UNL     1     177.051 174.209 149.573  1.00  0.00    -0.452 OA
ENDROOT
BRANCH   1  12
ATOM     12  C   UNL     1     179.139 173.287 150.347  1.00  0.00     0.029 A 
ATOM     13  C   UNL     1     180.073 173.234 149.297  1.00  0.00     0.062 A 
ATOM     14  C   UNL     1     181.441 173.375 149.553  1.00  0.00     0.162 A 
ATOM     15  C   UNL     1     179.594 173.519 151.653  1.00  0.00     0.062 A 
ATOM     16  C   UNL     1     181.892 173.585 150.866  1.00  0.00     0.200 A 
ATOM     17  C   UNL     1     180.963 173.660 151.919  1.00  0.00     0.162 A 
BRANCH  14  18
ATOM     18  O   UNL     1     182.337 173.310 148.485  1.00  0.00    -0.504 OA
ATOM     19  H   UNL     1     182.278 172.588 147.776  1.00  0.00     0.293 HD
ENDBRANCH  14  18
BRANCH  16  20
ATOM     20  O   UNL     1     183.259 173.720 151.114  1.00  0.00    -0.502 OA
ATOM     21  H   UNL     1     183.630 173.832 152.049  1.00  0.00     0.293 HD
ENDBRANCH  16  20
BRANCH  17  22
ATOM     22  O   UNL     1     181.403 173.877 153.224  1.00  0.00    -0.504 OA
ATOM     23  H   UNL     1     182.045 174.627 153.450  1.00  0.00     0.293 HD
ENDBRANCH  17  22
ENDBRANCH   1  12
BRANCH   2  24
ATOM     24  O   UNL     1     177.607 170.927 151.034  1.00  0.00    -0.502 OA
ATOM     25  H   UNL     1     178.612 170.806 151.016  1.00  0.00     0.293 HD
ENDBRANCH   2  24
BRANCH   6  26
ATOM     26  O   UNL     1     172.730 171.986 149.172  1.00  0.00    -0.507 OA
ATOM     27  H   UNL     1     172.543 171.365 148.400  1.00  0.00     0.293 HD
ENDBRANCH   6  26
BRANCH   8  28
ATOM     28  O   UNL     1     173.251 176.583 147.951  1.00  0.00    -0.508 OA
ATOM     29  H   UNL     1     173.814 177.389 147.702  1.00  0.00     0.293 HD
ENDBRANCH   8  28
TORSDOF 7
ENDMDL
MODEL 5
REMARK VINA RESULT:    -4.279      4.023      7.220
REMARK INTER + INTRA:          -5.487
REMARK INTER:                  -5.381
REMARK INTRA:                  -0.105
REMARK UNBOUND:                -0.207
REMARK SMILES O=c1c(O)c(-c2cc(O)c(O)c(O)c2)oc2cc(O)cc(O)c12
REMARK SMILES IDX 5 1 3 2 2 3 1 4 23 5 21 6 20 7 18 8 17 9 16 10 15 11 6 12
REMARK SMILES IDX 7 13 8 14 14 15 10 16 12 17 9 18 11 20 13 22 4 24 22 26
REMARK SMILES IDX 19 28
REMARK H PARENT 9 19 11 21 13 23 4 25 22 27 19 29
REMARK Flexibility Score: inf
ROOT
ATOM      1  C   UNL     1     173.077 171.635 149.823  1.00  0.00     0.180 A 
ATOM      2  C   UNL     1     171.889 171.606 150.574  1.00  0.00     0.208 A 
ATOM      3  C   UNL     1     171.276 170.369 150.831  1.00  0.00     0.238 A 
ATOM      4  O   UNL     1     170.185 170.355 151.457  1.00  0.00    -0.285 OA
ATOM      5  C   UNL     1     171.866 169.177 150.348  1.00  0.00     0.111 A 
ATOM      6  C   UNL     1     171.354 167.865 150.583  1.00  0.00     0.134 A 
ATOM      7  C   UNL     1     171.946 166.767 149.947  1.00  0.00     0.093 A 
ATOM      8  C   UNL     1     173.071 166.925 149.140  1.00  0.00     0.123 A 
ATOM      9  C   UNL     1     173.618 168.195 148.951  1.00  0.00     0.094 A 
ATOM     10  C   UNL     1     173.026 169.314 149.542  1.00  0.00     0.146 A 
ATOM     11  O   UNL     1     173.571 170.506 149.328  1.00  0.00    -0.452 OA
ENDROOT
BRANCH   1  12
ATOM     12  C   UNL     1     173.795 172.897 149.532  1.00  0.00     0.029 A 
ATOM     13  C   UNL     1     173.162 173.960 148.863  1.00  0.00     0.062 A 
ATOM     14  C   UNL     1     173.847 175.155 148.617  1.00  0.00     0.162 A 
ATOM     15  C   UNL     1     175.113 173.062 149.980  1.00  0.00     0.062 A 
ATOM     16  C   UNL     1     175.175 175.305 149.049  1.00  0.00     0.200 A 
ATOM     17  C   UNL     1     175.808 174.255 149.737  1.00  0.00     0.162 A 
BRANCH  14  18
ATOM     18  O   UNL     1     173.186 176.184 147.946  1.00  0.00    -0.504 OA
ATOM     19  H   UNL     1     173.058 177.101 148.358  1.00  0.00     0.293 HD
ENDBRANCH  14  18
BRANCH  16  20
ATOM     20  O   UNL     1     175.852 176.499 148.795  1.00  0.00    -0.502 OA
ATOM     21  H   UNL     1     175.897 176.909 147.870  1.00  0.00     0.293 HD
ENDBRANCH  16  20
BRANCH  17  22
ATOM     22  O   UNL     1     177.122 174.400 150.176  1.00  0.00    -0.504 OA
ATOM     23  H   UNL     1     177.856 173.772 149.872  1.00  0.00     0.293 HD
ENDBRANCH  17  22
ENDBRANCH   1  12
BRANCH   2  24
ATOM     24  O   UNL     1     171.312 172.797 151.023  1.00  0.00    -0.502 OA
ATOM     25  H   UNL     1     171.782 173.691 150.948  1.00  0.00     0.293 HD
ENDBRANCH   2  24
BRANCH   6  26
ATOM     26  O   UNL     1     170.290 167.587 151.446  1.00  0.00    -0.507 OA
ATOM     27  H   UNL     1     169.525 168.216 151.637  1.00  0.00     0.293 HD
ENDBRANCH   6  26
BRANCH   8  28
ATOM     28  O   UNL     1     173.646 165.808 148.535  1.00  0.00    -0.508 OA
ATOM     29  H   UNL     1     173.173 165.304 147.794  1.00  0.00     0.293 HD
ENDBRANCH   8  28
TORSDOF 7
ENDMDL
MODEL 6
REMARK VINA RESULT:    -4.245      4.237      7.373
REMARK INTER + INTRA:          -5.445
REMARK INTER:                  -5.468
REMARK INTRA:                   0.023
REMARK UNBOUND:                -0.207
REMARK SMILES O=c1c(O)c(-c2cc(O)c(O)c(O)c2)oc2cc(O)cc(O)c12
REMARK SMILES IDX 5 1 3 2 2 3 1 4 23 5 21 6 20 7 18 8 17 9 16 10 15 11 6 12
REMARK SMILES IDX 7 13 8 14 14 15 10 16 12 17 9 18 11 20 13 22 4 24 22 26
REMARK SMILES IDX 19 28
REMARK H PARENT 9 19 11 21 13 23 4 25 22 27 19 29
REMARK Flexibility Score: inf
ROOT
ATOM      1  C   UNL     1     176.755 173.029 149.734  1.00  0.00     0.180 A 
ATOM      2  C   UNL     1     176.779 171.837 150.479  1.00  0.00     0.208 A 
ATOM      3  C   UNL     1     178.015 171.231 150.755  1.00  0.00     0.238 A 
ATOM      4  O   UNL     1     178.027 170.136 151.374  1.00  0.00    -0.285 OA
ATOM      5  C   UNL     1     179.212 171.833 150.297  1.00  0.00     0.111 A 
ATOM      6  C   UNL     1     180.523 171.328 150.553  1.00  0.00     0.134 A 
ATOM      7  C   UNL     1     181.628 171.933 149.941  1.00  0.00     0.093 A 
ATOM      8  C   UNL     1     181.477 173.062 149.137  1.00  0.00     0.123 A 
ATOM      9  C   UNL     1     180.206 173.600 148.928  1.00  0.00     0.094 A 
ATOM     10  C   UNL     1     179.081 172.997 149.495  1.00  0.00     0.146 A 
ATOM     11  O   UNL     1     177.889 173.534 149.263  1.00  0.00    -0.452 OA
ENDROOT
BRANCH   1  12
ATOM     12  C   UNL     1     175.493 173.739 149.425  1.00  0.00     0.029 A 
ATOM     13  C   UNL     1     174.373 173.053 148.923  1.00  0.00     0.062 A 
ATOM     14  C   UNL     1     173.180 173.735 148.658  1.00  0.00     0.162 A 
ATOM     15  C   UNL     1     175.390 175.112 149.690  1.00  0.00     0.062 A 
ATOM     16  C   UNL     1     173.090 175.115 148.905  1.00  0.00     0.200 A 
ATOM     17  C   UNL     1     174.200 175.804 149.426  1.00  0.00     0.162 A 
BRANCH  14  18
ATOM     18  O   UNL     1     172.093 173.020 148.155  1.00  0.00    -0.504 OA
ATOM     19  H   UNL     1     172.210 172.210 147.558  1.00  0.00     0.293 HD
ENDBRANCH  14  18
BRANCH  16  20
ATOM     20  O   UNL     1     171.898 175.788 148.633  1.00  0.00    -0.502 OA
ATOM     21  H   UNL     1     171.336 176.208 149.364  1.00  0.00     0.293 HD
ENDBRANCH  16  20
BRANCH  17  22
ATOM     22  O   UNL     1     174.114 177.171 149.681  1.00  0.00    -0.504 OA
ATOM     23  H   UNL     1     174.711 177.838 149.206  1.00  0.00     0.293 HD
ENDBRANCH  17  22
ENDBRANCH   1  12
BRANCH   2  24
ATOM     24  O   UNL     1     175.585 171.248 150.903  1.00  0.00    -0.502 OA
ATOM     25  H   UNL     1     174.683 171.513 150.524  1.00  0.00     0.293 HD
ENDBRANCH   2  24
BRANCH   6  26
ATOM     26  O   UNL     1     180.794 170.262 151.415  1.00  0.00    -0.507 OA
ATOM     27  H   UNL     1     181.259 169.408 151.144  1.00  0.00     0.293 HD
ENDBRANCH   6  26
BRANCH   8  28
ATOM     28  O   UNL     1     182.600 173.648 148.557  1.00  0.00    -0.508 OA
ATOM     29  H   UNL     1     183.538 173.381 148.830  1.00  0.00     0.293 HD
ENDBRANCH   8  28
TORSDOF 7
ENDMDL
MODEL 7
REMARK VINA RESULT:    -4.234      1.319      6.980
REMARK INTER + INTRA:          -5.432
REMARK INTER:                  -5.567
REMARK INTRA:                   0.135
REMARK UNBOUND:                -0.207
REMARK SMILES O=c1c(O)c(-c2cc(O)c(O)c(O)c2)oc2cc(O)cc(O)c12
REMARK SMILES IDX 5 1 3 2 2 3 1 4 23 5 21 6 20 7 18 8 17 9 16 10 15 11 6 12
REMARK SMILES IDX 7 13 8 14 14 15 10 16 12 17 9 18 11 20 13 22 4 24 22 26
REMARK SMILES IDX 19 28
REMARK H PARENT 9 19 11 21 13 23 4 25 22 27 19 29
REMARK Flexibility Score: inf
ROOT
ATOM      1  C   UNL     1     171.252 175.811 149.910  1.00  0.00     0.180 A 
ATOM      2  C   UNL     1     171.016 176.692 150.979  1.00  0.00     0.208 A 
ATOM      3  C   UNL     1     169.696 176.911 151.405  1.00  0.00     0.238 A 
ATOM      4  O   UNL     1     169.488 177.741 152.326  1.00  0.00    -0.285 OA
ATOM      5  C   UNL     1     168.630 176.233 150.766  1.00  0.00     0.111 A 
ATOM      6  C   UNL     1     167.257 176.348 151.141  1.00  0.00     0.134 A 
ATOM      7  C   UNL     1     166.273 175.734 150.355  1.00  0.00     0.093 A 
ATOM      8  C   UNL     1     166.616 174.956 149.250  1.00  0.00     0.123 A 
ATOM      9  C   UNL     1     167.959 174.788 148.910  1.00  0.00     0.094 A 
ATOM     10  C   UNL     1     168.960 175.419 149.652  1.00  0.00     0.146 A 
ATOM     11  O   UNL     1     170.225 175.242 149.288  1.00  0.00    -0.452 OA
ENDROOT
BRANCH   1  12
ATOM     12  C   UNL     1     172.617 175.511 149.421  1.00  0.00     0.029 A 
ATOM     13  C   UNL     1     173.598 176.514 149.333  1.00  0.00     0.062 A 
ATOM     14  C   UNL     1     174.890 176.210 148.892  1.00  0.00     0.162 A 
ATOM     15  C   UNL     1     172.959 174.192 149.093  1.00  0.00     0.062 A 
ATOM     16  C   UNL     1     175.220 174.889 148.544  1.00  0.00     0.200 A 
ATOM     17  C   UNL     1     174.251 173.877 148.649  1.00  0.00     0.162 A 
BRANCH  14  18
ATOM     18  O   UNL     1     175.835 177.234 148.813  1.00  0.00    -0.504 OA
ATOM     19  H   UNL     1     175.686 178.061 148.247  1.00  0.00     0.293 HD
ENDBRANCH  14  18
BRANCH  16  20
ATOM     20  O   UNL     1     176.511 174.595 148.100  1.00  0.00    -0.502 OA
ATOM     21  H   UNL     1     176.808 173.650 147.891  1.00  0.00     0.293 HD
ENDBRANCH  16  20
BRANCH  17  22
ATOM     22  O   UNL     1     174.574 172.564 148.313  1.00  0.00    -0.504 OA
ATOM     23  H   UNL     1     174.450 172.211 147.371  1.00  0.00     0.293 HD
ENDBRANCH  17  22
ENDBRANCH   1  12
BRANCH   2  24
ATOM     24  O   UNL     1     172.082 177.367 151.581  1.00  0.00    -0.502 OA
ATOM     25  H   UNL     1     171.995 177.834 152.475  1.00  0.00     0.293 HD
ENDBRANCH   2  24
BRANCH   6  26
ATOM     26  O   UNL     1     166.813 177.025 152.280  1.00  0.00    -0.507 OA
ATOM     27  H   UNL     1     166.343 177.918 152.271  1.00  0.00     0.293 HD
ENDBRANCH   6  26
BRANCH   8  28
ATOM     28  O   UNL     1     165.612 174.346 148.501  1.00  0.00    -0.508 OA
ATOM     29  H   UNL     1     165.060 174.868 147.830  1.00  0.00     0.293 HD
ENDBRANCH   8  28
TORSDOF 7
ENDMDL
MODEL 8
REMARK VINA RESULT:    -4.230      2.224      3.213
REMARK INTER + INTRA:          -5.427
REMARK INTER:                  -5.062
REMARK INTRA:                  -0.365
REMARK UNBOUND:                -0.207
REMARK SMILES O=c1c(O)c(-c2cc(O)c(O)c(O)c2)oc2cc(O)cc(O)c12
REMARK SMILES IDX 5 1 3 2 2 3 1 4 23 5 21 6 20 7 18 8 17 9 16 10 15 11 6 12
REMARK SMILES IDX 7 13 8 14 14 15 10 16 12 17 9 18 11 20 13 22 4 24 22 26
REMARK SMILES IDX 19 28
REMARK H PARENT 9 19 11 21 13 23 4 25 22 27 19 29
REMARK Flexibility Score: inf
ROOT
ATOM      1  C   UNL     1     172.210 174.793 149.699  1.00  0.00     0.180 A 
ATOM      2  C   UNL     1     173.286 175.200 148.891  1.00  0.00     0.208 A 
ATOM      3  C   UNL     1     174.479 174.461 148.920  1.00  0.00     0.238 A 
ATOM      4  O   UNL     1     175.455 174.862 148.236  1.00  0.00    -0.285 OA
ATOM      5  C   UNL     1     174.576 173.314 149.745  1.00  0.00     0.111 A 
ATOM      6  C   UNL     1     175.723 172.467 149.823  1.00  0.00     0.134 A 
ATOM      7  C   UNL     1     175.756 171.436 150.770  1.00  0.00     0.093 A 
ATOM      8  C   UNL     1     174.662 171.180 151.594  1.00  0.00     0.123 A 
ATOM      9  C   UNL     1     173.513 171.964 151.485  1.00  0.00     0.094 A 
ATOM     10  C   UNL     1     173.463 173.023 150.576  1.00  0.00     0.146 A 
ATOM     11  O   UNL     1     172.355 173.752 150.511  1.00  0.00    -0.452 OA
ENDROOT
BRANCH   1  12
ATOM     12  C   UNL     1     170.913 175.507 149.704  1.00  0.00     0.029 A 
ATOM     13  C   UNL     1     169.875 175.141 148.829  1.00  0.00     0.062 A 
ATOM     14  C   UNL     1     168.647 175.811 148.863  1.00  0.00     0.162 A 
ATOM     15  C   UNL     1     170.691 176.530 150.637  1.00  0.00     0.062 A 
ATOM     16  C   UNL     1     168.439 176.851 149.784  1.00  0.00     0.200 A 
ATOM     17  C   UNL     1     169.465 177.208 150.676  1.00  0.00     0.162 A 
BRANCH  14  18
ATOM     18  O   UNL     1     167.643 175.423 147.975  1.00  0.00    -0.504 OA
ATOM     19  H   UNL     1     166.879 174.820 148.255  1.00  0.00     0.293 HD
ENDBRANCH  14  18
BRANCH  16  20
ATOM     20  O   UNL     1     167.212 177.517 149.808  1.00  0.00    -0.502 OA
ATOM     21  H   UNL     1     166.353 177.056 150.083  1.00  0.00     0.293 HD
ENDBRANCH  16  20
BRANCH  17  22
ATOM     22  O   UNL     1     169.262 178.233 151.599  1.00  0.00    -0.504 OA
ATOM     23  H   UNL     1     170.038 178.704 152.048  1.00  0.00     0.293 HD
ENDBRANCH  17  22
ENDBRANCH   1  12
BRANCH   2  24
ATOM     24  O   UNL     1     173.175 176.348 148.100  1.00  0.00    -0.502 OA
ATOM     25  H   UNL     1     172.779 177.212 148.448  1.00  0.00     0.293 HD
ENDBRANCH   2  24
BRANCH   6  26
ATOM     26  O   UNL     1     176.834 172.578 148.982  1.00  0.00    -0.507 OA
ATOM     27  H   UNL     1     177.704 173.021 149.235  1.00  0.00     0.293 HD
ENDBRANCH   6  26
BRANCH   8  28
ATOM     28  O   UNL     1     174.724 170.135 152.514  1.00  0.00    -0.508 OA
ATOM     29  H   UNL     1     174.907 170.304 153.497  1.00  0.00     0.293 HD
ENDBRANCH   8  28
TORSDOF 7
ENDMDL
MODEL 9
REMARK VINA RESULT:    -4.226      3.604      8.766
REMARK INTER + INTRA:          -5.421
REMARK INTER:                  -5.057
REMARK INTRA:                  -0.365
REMARK UNBOUND:                -0.207
REMARK SMILES O=c1c(O)c(-c2cc(O)c(O)c(O)c2)oc2cc(O)cc(O)c12
REMARK SMILES IDX 5 1 3 2 2 3 1 4 23 5 21 6 20 7 18 8 17 9 16 10 15 11 6 12
REMARK SMILES IDX 7 13 8 14 14 15 10 16 12 17 9 18 11 20 13 22 4 24 22 26
REMARK SMILES IDX 19 28
REMARK H PARENT 9 19 11 21 13 23 4 25 22 27 19 29
REMARK Flexibility Score: inf
ROOT
ATOM      1  C   UNL     1     175.778 173.381 149.733  1.00  0.00     0.180 A 
ATOM      2  C   UNL     1     174.707 172.962 148.924  1.00  0.00     0.208 A 
ATOM      3  C   UNL     1     173.507 173.690 148.950  1.00  0.00     0.238 A 
ATOM      4  O   UNL     1     172.535 173.278 148.266  1.00  0.00    -0.285 OA
ATOM      5  C   UNL     1     173.397 174.837 149.774  1.00  0.00     0.111 A 
ATOM      6  C   UNL     1     172.243 175.673 149.849  1.00  0.00     0.134 A 
ATOM      7  C   UNL     1     172.198 176.705 150.794  1.00  0.00     0.093 A 
ATOM      8  C   UNL     1     173.289 176.973 151.619  1.00  0.00     0.123 A 
ATOM      9  C   UNL     1     174.446 176.200 151.513  1.00  0.00     0.094 A 
ATOM     10  C   UNL     1     174.507 175.140 150.605  1.00  0.00     0.146 A 
ATOM     11  O   UNL     1     175.622 174.422 150.543  1.00  0.00    -0.452 OA
ENDROOT
BRANCH   1  12
ATOM     12  C   UNL     1     177.082 172.680 149.740  1.00  0.00     0.029 A 
ATOM     13  C   UNL     1     178.119 173.056 148.869  1.00  0.00     0.062 A 
ATOM     14  C   UNL     1     179.353 172.399 148.905  1.00  0.00     0.162 A 
ATOM     15  C   UNL     1     177.311 171.657 150.672  1.00  0.00     0.062 A 
ATOM     16  C   UNL     1     179.569 171.360 149.825  1.00  0.00     0.200 A 
ATOM     17  C   UNL     1     178.544 170.992 150.714  1.00  0.00     0.162 A 
BRANCH  14  18
ATOM     18  O   UNL     1     180.355 172.798 148.020  1.00  0.00    -0.504 OA
ATOM     19  H   UNL     1     180.551 173.774 147.832  1.00  0.00     0.293 HD
ENDBRANCH  14  18
BRANCH  16  20
ATOM     20  O   UNL     1     180.802 170.706 149.851  1.00  0.00    -0.502 OA
ATOM     21  H   UNL     1     181.216 170.301 149.020  1.00  0.00     0.293 HD
ENDBRANCH  16  20
BRANCH  17  22
ATOM     22  O   UNL     1     178.754 169.967 151.636  1.00  0.00    -0.504 OA
ATOM     23  H   UNL     1     178.672 168.992 151.374  1.00  0.00     0.293 HD
ENDBRANCH  17  22
ENDBRANCH   1  12
BRANCH   2  24
ATOM     24  O   UNL     1     174.830 171.815 148.135  1.00  0.00    -0.502 OA
ATOM     25  H   UNL     1     174.095 171.501 147.513  1.00  0.00     0.293 HD
ENDBRANCH   2  24
BRANCH   6  26
ATOM     26  O   UNL     1     171.134 175.550 149.007  1.00  0.00    -0.507 OA
ATOM     27  H   UNL     1     171.002 176.067 148.151  1.00  0.00     0.293 HD
ENDBRANCH   6  26
BRANCH   8  28
ATOM     28  O   UNL     1     173.216 178.019 152.538  1.00  0.00    -0.508 OA
ATOM     29  H   UNL     1     173.394 177.871 153.525  1.00  0.00     0.293 HD
ENDBRANCH   8  28
TORSDOF 7
ENDMDL
