MODEL 1
REMARK VINA RESULT:    -7.307      0.000      0.000
REMARK INTER + INTRA:         -10.858
REMARK INTER:                  -9.229
REMARK INTRA:                  -1.629
REMARK UNBOUND:                -1.629
REMARK SMILES O[C@H]1OC[C@H](Cc2ccc3c(c2)OCO3)[C@H]1Cc1ccc2c(c1)OCO2
REMARK SMILES IDX 4 1 5 2 16 3 2 4 3 5 6 6 7 7 12 8 8 9 11 10 9 11 10 12 13 13
REMARK SMILES IDX 15 14 14 15 17 16 18 17 23 18 19 19 22 20 20 21 21 22 24 23
REMARK SMILES IDX 26 24 25 25 1 26
REMARK H PARENT 1 27
REMARK Flexibility Score: inf
ROOT
ATOM      1  C   UNL     1     181.462 -26.872  37.711  1.00  0.00     0.168 C 
ATOM      2  C   UNL     1     182.485 -25.735  37.833  1.00  0.00     0.028 C 
ATOM      3  C   UNL     1     182.749 -25.673  39.332  1.00  0.00     0.055 C 
ATOM      4  C   UNL     1     182.403 -27.102  39.761  1.00  0.00     0.250 C 
ATOM      5  O   UNL     1     181.359 -27.563  38.939  1.00  0.00    -0.352 OA
ENDROOT
BRANCH   2   6
ATOM      6  C   UNL     1     183.756 -25.935  36.960  1.00  0.00     0.042 C 
BRANCH   6   7
ATOM      7  C   UNL     1     184.090 -24.799  36.018  1.00  0.00    -0.044 A 
ATOM      8  C   UNL     1     183.879 -24.936  34.626  1.00  0.00     0.054 A 
ATOM      9  C   UNL     1     184.596 -23.572  36.527  1.00  0.00     0.008 A 
ATOM     10  C   UNL     1     184.217 -23.866  33.803  1.00  0.00     0.166 A 
ATOM     11  C   UNL     1     184.923 -22.515  35.658  1.00  0.00     0.051 A 
ATOM     12  C   UNL     1     184.720 -22.708  34.296  1.00  0.00     0.165 A 
ATOM     13  O   UNL     1     184.110 -23.772  32.428  1.00  0.00    -0.454 OA
ATOM     14  O   UNL     1     184.958 -21.828  33.258  1.00  0.00    -0.454 OA
ATOM     15  C   UNL     1     184.580 -22.475  32.035  1.00  0.00     0.468 C 
ENDBRANCH   6   7
ENDBRANCH   2   6
BRANCH   3  16
ATOM     16  C   UNL     1     181.936 -24.557  40.057  1.00  0.00     0.044 C 
BRANCH  16  17
ATOM     17  C   UNL     1     182.275 -23.134  39.661  1.00  0.00    -0.044 A 
ATOM     18  C   UNL     1     181.362 -22.375  38.888  1.00  0.00     0.054 A 
ATOM     19  C   UNL     1     183.519 -22.556  40.026  1.00  0.00     0.008 A 
ATOM     20  C   UNL     1     181.707 -21.068  38.558  1.00  0.00     0.166 A 
ATOM     21  C   UNL     1     183.828 -21.230  39.671  1.00  0.00     0.051 A 
ATOM     22  C   UNL     1     182.887 -20.519  38.936  1.00  0.00     0.165 A 
ATOM     23  O   UNL     1     180.980 -20.144  37.833  1.00  0.00    -0.454 OA
ATOM     24  O   UNL     1     182.961 -19.220  38.471  1.00  0.00    -0.454 OA
ATOM     25  C   UNL     1     181.750 -18.938  37.755  1.00  0.00     0.468 C 
ENDBRANCH  16  17
ENDBRANCH   3  16
BRANCH   4  26
ATOM     26  O   UNL     1     182.029 -27.188  41.109  1.00  0.00    -0.368 OA
ATOM     27  H   UNL     1     181.064 -27.424  41.121  1.00  0.00     0.213 HD
ENDBRANCH   4  26
TORSDOF 5
ENDMDL
MODEL 2
REMARK VINA RESULT:    -7.292      0.789      4.941
REMARK INTER + INTRA:         -10.840
REMARK INTER:                  -9.070
REMARK INTRA:                  -1.770
REMARK UNBOUND:                -1.629
REMARK SMILES O[C@H]1OC[C@H](Cc2ccc3c(c2)OCO3)[C@H]1Cc1ccc2c(c1)OCO2
REMARK SMILES IDX 4 1 5 2 16 3 2 4 3 5 6 6 7 7 12 8 8 9 11 10 9 11 10 12 13 13
REMARK SMILES IDX 15 14 14 15 17 16 18 17 23 18 19 19 22 20 20 21 21 22 24 23
REMARK SMILES IDX 26 24 25 25 1 26
REMARK H PARENT 1 27
REMARK Flexibility Score: inf
ROOT
ATOM      1  C   UNL     1     182.379 -27.006  40.705  1.00  0.00     0.168 C 
ATOM      2  C   UNL     1     182.639 -25.705  39.933  1.00  0.00     0.028 C 
ATOM      3  C   UNL     1     182.144 -26.035  38.531  1.00  0.00     0.055 C 
ATOM      4  C   UNL     1     181.124 -27.140  38.821  1.00  0.00     0.250 C 
ATOM      5  O   UNL     1     181.582 -27.876  39.927  1.00  0.00    -0.352 OA
ENDROOT
BRANCH   2   6
ATOM      6  C   UNL     1     181.981 -24.451  40.574  1.00  0.00     0.042 C 
BRANCH   6   7
ATOM      7  C   UNL     1     182.323 -23.126  39.926  1.00  0.00    -0.044 A 
ATOM      8  C   UNL     1     181.399 -22.488  39.066  1.00  0.00     0.054 A 
ATOM      9  C   UNL     1     183.570 -22.498  40.197  1.00  0.00     0.008 A 
ATOM     10  C   UNL     1     181.770 -21.279  38.486  1.00  0.00     0.166 A 
ATOM     11  C   UNL     1     183.904 -21.275  39.589  1.00  0.00     0.051 A 
ATOM     12  C   UNL     1     182.971 -20.699  38.733  1.00  0.00     0.165 A 
ATOM     13  O   UNL     1     181.047 -20.485  37.617  1.00  0.00    -0.454 OA
ATOM     14  O   UNL     1     183.064 -19.514  38.030  1.00  0.00    -0.454 OA
ATOM     15  C   UNL     1     181.846 -19.338  37.295  1.00  0.00     0.468 C 
ENDBRANCH   6   7
ENDBRANCH   2   6
BRANCH   3  16
ATOM     16  C   UNL     1     183.287 -26.440  37.551  1.00  0.00     0.044 C 
BRANCH  16  17
ATOM     17  C   UNL     1     183.676 -25.394  36.525  1.00  0.00    -0.044 A 
ATOM     18  C   UNL     1     183.770 -25.741  35.155  1.00  0.00     0.054 A 
ATOM     19  C   UNL     1     183.984 -24.066  36.924  1.00  0.00     0.008 A 
ATOM     20  C   UNL     1     184.116 -24.747  34.246  1.00  0.00     0.166 A 
ATOM     21  C   UNL     1     184.331 -23.091  35.971  1.00  0.00     0.051 A 
ATOM     22  C   UNL     1     184.381 -23.476  34.637  1.00  0.00     0.165 A 
ATOM     23  O   UNL     1     184.253 -24.846  32.875  1.00  0.00    -0.454 OA
ATOM     24  O   UNL     1     184.696 -22.710  33.531  1.00  0.00    -0.454 OA
ATOM     25  C   UNL     1     184.625 -23.555  32.373  1.00  0.00     0.468 C 
ENDBRANCH  16  17
ENDBRANCH   3  16
BRANCH   4  26
ATOM     26  O   UNL     1     180.921 -27.991  37.726  1.00  0.00    -0.368 OA
ATOM     27  H   UNL     1     180.125 -28.545  37.941  1.00  0.00     0.213 HD
ENDBRANCH   4  26
TORSDOF 5
ENDMDL
MODEL 3
REMARK VINA RESULT:    -7.208     11.917     13.893
REMARK INTER + INTRA:         -10.733
REMARK INTER:                  -8.688
REMARK INTRA:                  -2.045
REMARK UNBOUND:                -1.629
REMARK SMILES O[C@H]1OC[C@H](Cc2ccc3c(c2)OCO3)[C@H]1Cc1ccc2c(c1)OCO2
REMARK SMILES IDX 4 1 5 2 16 3 2 4 3 5 6 6 7 7 12 8 8 9 11 10 9 11 10 12 13 13
REMARK SMILES IDX 15 14 14 15 17 16 18 17 23 18 19 19 22 20 20 21 21 22 24 23
REMARK SMILES IDX 26 24 25 25 1 26
REMARK H PARENT 1 27
REMARK Flexibility Score: inf
ROOT
ATOM      1  C   UNL     1     180.684 -16.042  28.590  1.00  0.00     0.168 C 
ATOM      2  C   UNL     1     181.285 -17.095  27.649  1.00  0.00     0.028 C 
ATOM      3  C   UNL     1     180.542 -16.849  26.342  1.00  0.00     0.055 C 
ATOM      4  C   UNL     1     180.148 -15.376  26.490  1.00  0.00     0.250 C 
ATOM      5  O   UNL     1     179.902 -15.125  27.851  1.00  0.00    -0.352 OA
ENDROOT
BRANCH   2   6
ATOM      6  C   UNL     1     182.834 -17.027  27.536  1.00  0.00     0.042 C 
BRANCH   6   7
ATOM      7  C   UNL     1     183.447 -17.845  26.419  1.00  0.00    -0.044 A 
ATOM      8  C   UNL     1     183.572 -19.248  26.543  1.00  0.00     0.054 A 
ATOM      9  C   UNL     1     183.880 -17.210  25.223  1.00  0.00     0.008 A 
ATOM     10  C   UNL     1     184.156 -19.949  25.492  1.00  0.00     0.166 A 
ATOM     11  C   UNL     1     184.464 -17.958  24.185  1.00  0.00     0.051 A 
ATOM     12  C   UNL     1     184.587 -19.332  24.364  1.00  0.00     0.165 A 
ATOM     13  O   UNL     1     184.390 -21.307  25.390  1.00  0.00    -0.454 OA
ATOM     14  O   UNL     1     185.115 -20.269  23.498  1.00  0.00    -0.454 OA
ATOM     15  C   UNL     1     185.011 -21.556  24.121  1.00  0.00     0.468 C 
ENDBRANCH   6   7
ENDBRANCH   2   6
BRANCH   3  16
ATOM     16  C   UNL     1     179.349 -17.826  26.115  1.00  0.00     0.044 C 
BRANCH  16  17
ATOM     17  C   UNL     1     179.708 -19.177  25.528  1.00  0.00    -0.044 A 
ATOM     18  C   UNL     1     180.587 -19.260  24.421  1.00  0.00     0.054 A 
ATOM     19  C   UNL     1     179.144 -20.370  26.054  1.00  0.00     0.008 A 
ATOM     20  C   UNL     1     180.900 -20.520  23.922  1.00  0.00     0.166 A 
ATOM     21  C   UNL     1     179.488 -21.625  25.520  1.00  0.00     0.051 A 
ATOM     22  C   UNL     1     180.377 -21.653  24.452  1.00  0.00     0.165 A 
ATOM     23  O   UNL     1     181.736 -20.845  22.872  1.00  0.00    -0.454 OA
ATOM     24  O   UNL     1     180.858 -22.749  23.761  1.00  0.00    -0.454 OA
ATOM     25  C   UNL     1     181.739 -22.273  22.734  1.00  0.00     0.468 C 
ENDBRANCH  16  17
ENDBRANCH   3  16
BRANCH   4  26
ATOM     26  O   UNL     1     179.022 -15.037  25.727  1.00  0.00    -0.368 OA
ATOM     27  H   UNL     1     179.084 -15.557  24.883  1.00  0.00     0.213 HD
ENDBRANCH   4  26
TORSDOF 5
ENDMDL
MODEL 4
REMARK VINA RESULT:    -7.094      2.267      4.369
REMARK INTER + INTRA:         -10.589
REMARK INTER:                  -8.901
REMARK INTRA:                  -1.687
REMARK UNBOUND:                -1.629
REMARK SMILES O[C@H]1OC[C@H](Cc2ccc3c(c2)OCO3)[C@H]1Cc1ccc2c(c1)OCO2
REMARK SMILES IDX 4 1 5 2 16 3 2 4 3 5 6 6 7 7 12 8 8 9 11 10 9 11 10 12 13 13
REMARK SMILES IDX 15 14 14 15 17 16 18 17 23 18 19 19 22 20 20 21 21 22 24 23
REMARK SMILES IDX 26 24 25 25 1 26
REMARK H PARENT 1 27
REMARK Flexibility Score: inf
ROOT
ATOM      1  C   UNL     1     181.765 -23.598  39.653  1.00  0.00     0.168 C 
ATOM      2  C   UNL     1     182.563 -23.790  38.357  1.00  0.00     0.028 C 
ATOM      3  C   UNL     1     183.631 -22.708  38.449  1.00  0.00     0.055 C 
ATOM      4  C   UNL     1     183.727 -22.505  39.964  1.00  0.00     0.250 C 
ATOM      5  O   UNL     1     182.449 -22.710  40.513  1.00  0.00    -0.352 OA
ENDROOT
BRANCH   2   6
ATOM      6  C   UNL     1     183.116 -25.231  38.166  1.00  0.00     0.042 C 
BRANCH   6   7
ATOM      7  C   UNL     1     183.499 -25.605  36.750  1.00  0.00    -0.044 A 
ATOM      8  C   UNL     1     182.640 -25.299  35.670  1.00  0.00     0.054 A 
ATOM      9  C   UNL     1     184.741 -26.246  36.491  1.00  0.00     0.008 A 
ATOM     10  C   UNL     1     183.034 -25.677  34.390  1.00  0.00     0.166 A 
ATOM     11  C   UNL     1     185.101 -26.610  35.181  1.00  0.00     0.051 A 
ATOM     12  C   UNL     1     184.211 -26.308  34.155  1.00  0.00     0.165 A 
ATOM     13  O   UNL     1     182.365 -25.495  33.195  1.00  0.00    -0.454 OA
ATOM     14  O   UNL     1     184.340 -26.558  32.803  1.00  0.00    -0.454 OA
ATOM     15  C   UNL     1     183.170 -26.052  32.146  1.00  0.00     0.468 C 
ENDBRANCH   6   7
ENDBRANCH   2   6
BRANCH   3  16
ATOM     16  C   UNL     1     183.281 -21.423  37.637  1.00  0.00     0.044 C 
BRANCH  16  17
ATOM     17  C   UNL     1     183.951 -21.299  36.283  1.00  0.00    -0.044 A 
ATOM     18  C   UNL     1     183.579 -20.256  35.399  1.00  0.00     0.054 A 
ATOM     19  C   UNL     1     184.930 -22.240  35.868  1.00  0.00     0.008 A 
ATOM     20  C   UNL     1     184.229 -20.170  34.172  1.00  0.00     0.166 A 
ATOM     21  C   UNL     1     185.562 -22.117  34.618  1.00  0.00     0.051 A 
ATOM     22  C   UNL     1     185.182 -21.059  33.800  1.00  0.00     0.165 A 
ATOM     23  O   UNL     1     184.047 -19.241  33.167  1.00  0.00    -0.454 OA
ATOM     24  O   UNL     1     185.649 -20.734  32.541  1.00  0.00    -0.454 OA
ATOM     25  C   UNL     1     184.944 -19.566  32.096  1.00  0.00     0.468 C 
ENDBRANCH  16  17
ENDBRANCH   3  16
BRANCH   4  26
ATOM     26  O   UNL     1     184.203 -21.233  40.311  1.00  0.00    -0.368 OA
ATOM     27  H   UNL     1     183.512 -20.583  40.018  1.00  0.00     0.213 HD
ENDBRANCH   4  26
TORSDOF 5
ENDMDL
MODEL 5
REMARK VINA RESULT:    -7.061     11.845     13.788
REMARK INTER + INTRA:         -10.548
REMARK INTER:                  -8.491
REMARK INTRA:                  -2.057
REMARK UNBOUND:                -1.629
REMARK SMILES O[C@H]1OC[C@H](Cc2ccc3c(c2)OCO3)[C@H]1Cc1ccc2c(c1)OCO2
REMARK SMILES IDX 4 1 5 2 16 3 2 4 3 5 6 6 7 7 12 8 8 9 11 10 9 11 10 12 13 13
REMARK SMILES IDX 15 14 14 15 17 16 18 17 23 18 19 19 22 20 20 21 21 22 24 23
REMARK SMILES IDX 26 24 25 25 1 26
REMARK H PARENT 1 27
REMARK Flexibility Score: inf
ROOT
ATOM      1  C   UNL     1     179.683 -15.801  26.126  1.00  0.00     0.168 C 
ATOM      2  C   UNL     1     180.224 -17.237  26.121  1.00  0.00     0.028 C 
ATOM      3  C   UNL     1     180.893 -17.354  27.484  1.00  0.00     0.055 C 
ATOM      4  C   UNL     1     180.123 -16.305  28.293  1.00  0.00     0.250 C 
ATOM      5  O   UNL     1     179.780 -15.253  27.425  1.00  0.00    -0.352 OA
ENDROOT
BRANCH   2   6
ATOM      6  C   UNL     1     179.142 -18.316  25.836  1.00  0.00     0.042 C 
BRANCH   6   7
ATOM      7  C   UNL     1     179.646 -19.604  25.221  1.00  0.00    -0.044 A 
ATOM      8  C   UNL     1     180.574 -19.575  24.155  1.00  0.00     0.054 A 
ATOM      9  C   UNL     1     179.208 -20.858  25.729  1.00  0.00     0.008 A 
ATOM     10  C   UNL     1     180.994 -20.788  23.617  1.00  0.00     0.166 A 
ATOM     11  C   UNL     1     179.658 -22.061  25.155  1.00  0.00     0.051 A 
ATOM     12  C   UNL     1     180.553 -21.979  24.093  1.00  0.00     0.165 A 
ATOM     13  O   UNL     1     181.877 -21.008  22.578  1.00  0.00    -0.454 OA
ATOM     14  O   UNL     1     181.134 -23.006  23.376  1.00  0.00    -0.454 OA
ATOM     15  C   UNL     1     181.994 -22.425  22.388  1.00  0.00     0.468 C 
ENDBRANCH   6   7
ENDBRANCH   2   6
BRANCH   3  16
ATOM     16  C   UNL     1     182.437 -17.139  27.436  1.00  0.00     0.044 C 
BRANCH  16  17
ATOM     17  C   UNL     1     183.177 -17.918  26.367  1.00  0.00    -0.044 A 
ATOM     18  C   UNL     1     183.347 -19.318  26.497  1.00  0.00     0.054 A 
ATOM     19  C   UNL     1     183.737 -17.255  25.243  1.00  0.00     0.008 A 
ATOM     20  C   UNL     1     184.019 -19.996  25.486  1.00  0.00     0.166 A 
ATOM     21  C   UNL     1     184.411 -17.980  24.243  1.00  0.00     0.051 A 
ATOM     22  C   UNL     1     184.526 -19.355  24.404  1.00  0.00     0.165 A 
ATOM     23  O   UNL     1     184.289 -21.347  25.389  1.00  0.00    -0.454 OA
ATOM     24  O   UNL     1     185.139 -20.272  23.571  1.00  0.00    -0.454 OA
ATOM     25  C   UNL     1     185.008 -21.569  24.169  1.00  0.00     0.468 C 
ENDBRANCH  16  17
ENDBRANCH   3  16
BRANCH   4  26
ATOM     26  O   UNL     1     180.857 -15.813  29.381  1.00  0.00    -0.368 OA
ATOM     27  H   UNL     1     180.234 -15.249  29.910  1.00  0.00     0.213 HD
ENDBRANCH   4  26
TORSDOF 5
ENDMDL
MODEL 6
REMARK VINA RESULT:    -7.005      2.912      5.930
REMARK INTER + INTRA:         -10.477
REMARK INTER:                  -8.799
REMARK INTRA:                  -1.677
REMARK UNBOUND:                -1.629
REMARK SMILES O[C@H]1OC[C@H](Cc2ccc3c(c2)OCO3)[C@H]1Cc1ccc2c(c1)OCO2
REMARK SMILES IDX 4 1 5 2 16 3 2 4 3 5 6 6 7 7 12 8 8 9 11 10 9 11 10 12 13 13
REMARK SMILES IDX 15 14 14 15 17 16 18 17 23 18 19 19 22 20 20 21 21 22 24 23
REMARK SMILES IDX 26 24 25 25 1 26
REMARK H PARENT 1 27
REMARK Flexibility Score: inf
ROOT
ATOM      1  C   UNL     1     181.153 -24.642  39.044  1.00  0.00     0.168 C 
ATOM      2  C   UNL     1     181.190 -25.061  37.569  1.00  0.00     0.028 C 
ATOM      3  C   UNL     1     181.996 -26.353  37.600  1.00  0.00     0.055 C 
ATOM      4  C   UNL     1     181.751 -26.830  39.035  1.00  0.00     0.250 C 
ATOM      5  O   UNL     1     181.632 -25.695  39.856  1.00  0.00    -0.352 OA
ENDROOT
BRANCH   2   6
ATOM      6  C   UNL     1     179.785 -25.191  36.916  1.00  0.00     0.042 C 
BRANCH   6   7
ATOM      7  C   UNL     1     179.670 -26.210  35.802  1.00  0.00    -0.044 A 
ATOM      8  C   UNL     1     179.015 -27.443  36.023  1.00  0.00     0.054 A 
ATOM      9  C   UNL     1     180.199 -25.923  34.514  1.00  0.00     0.008 A 
ATOM     10  C   UNL     1     178.950 -28.349  34.968  1.00  0.00     0.166 A 
ATOM     11  C   UNL     1     180.111 -26.868  33.476  1.00  0.00     0.051 A 
ATOM     12  C   UNL     1     179.478 -28.076  33.749  1.00  0.00     0.165 A 
ATOM     13  O   UNL     1     178.376 -29.606  34.949  1.00  0.00    -0.454 OA
ATOM     14  O   UNL     1     179.265 -29.147  32.904  1.00  0.00    -0.454 OA
ATOM     15  C   UNL     1     178.559 -30.157  33.637  1.00  0.00     0.468 C 
ENDBRANCH   6   7
ENDBRANCH   2   6
BRANCH   3  16
ATOM     16  C   UNL     1     183.497 -26.154  37.225  1.00  0.00     0.044 C 
BRANCH  16  17
ATOM     17  C   UNL     1     183.760 -25.589  35.843  1.00  0.00    -0.044 A 
ATOM     18  C   UNL     1     183.957 -24.197  35.670  1.00  0.00     0.054 A 
ATOM     19  C   UNL     1     183.777 -26.437  34.704  1.00  0.00     0.008 A 
ATOM     20  C   UNL     1     184.208 -23.723  34.386  1.00  0.00     0.166 A 
ATOM     21  C   UNL     1     184.035 -25.915  33.423  1.00  0.00     0.051 A 
ATOM     22  C   UNL     1     184.250 -24.547  33.311  1.00  0.00     0.165 A 
ATOM     23  O   UNL     1     184.443 -22.424  33.981  1.00  0.00    -0.454 OA
ATOM     24  O   UNL     1     184.515 -23.807  32.174  1.00  0.00    -0.454 OA
ATOM     25  C   UNL     1     184.648 -22.432  32.562  1.00  0.00     0.468 C 
ENDBRANCH  16  17
ENDBRANCH   3  16
BRANCH   4  26
ATOM     26  O   UNL     1     182.771 -27.665  39.511  1.00  0.00    -0.368 OA
ATOM     27  H   UNL     1     183.057 -27.292  40.386  1.00  0.00     0.213 HD
ENDBRANCH   4  26
TORSDOF 5
ENDMDL
MODEL 7
REMARK VINA RESULT:    -6.997      1.711      6.519
REMARK INTER + INTRA:         -10.467
REMARK INTER:                  -8.488
REMARK INTRA:                  -1.979
REMARK UNBOUND:                -1.629
REMARK SMILES O[C@H]1OC[C@H](Cc2ccc3c(c2)OCO3)[C@H]1Cc1ccc2c(c1)OCO2
REMARK SMILES IDX 4 1 5 2 16 3 2 4 3 5 6 6 7 7 12 8 8 9 11 10 9 11 10 12 13 13
REMARK SMILES IDX 15 14 14 15 17 16 18 17 23 18 19 19 22 20 20 21 21 22 24 23
REMARK SMILES IDX 26 24 25 25 1 26
REMARK H PARENT 1 27
REMARK Flexibility Score: inf
ROOT
ATOM      1  C   UNL     1     181.997 -20.257  38.386  1.00  0.00     0.168 C 
ATOM      2  C   UNL     1     181.851 -21.686  37.846  1.00  0.00     0.028 C 
ATOM      3  C   UNL     1     183.091 -22.384  38.389  1.00  0.00     0.055 C 
ATOM      4  C   UNL     1     183.402 -21.534  39.625  1.00  0.00     0.250 C 
ATOM      5  O   UNL     1     183.034 -20.207  39.344  1.00  0.00    -0.352 OA
ENDROOT
BRANCH   2   6
ATOM      6  C   UNL     1     180.506 -22.367  38.226  1.00  0.00     0.042 C 
BRANCH   6   7
ATOM      7  C   UNL     1     180.460 -23.870  38.053  1.00  0.00    -0.044 A 
ATOM      8  C   UNL     1     180.426 -24.721  39.182  1.00  0.00     0.054 A 
ATOM      9  C   UNL     1     180.426 -24.440  36.751  1.00  0.00     0.008 A 
ATOM     10  C   UNL     1     180.399 -26.096  38.967  1.00  0.00     0.166 A 
ATOM     11  C   UNL     1     180.398 -25.836  36.579  1.00  0.00     0.051 A 
ATOM     12  C   UNL     1     180.389 -26.630  37.721  1.00  0.00     0.165 A 
ATOM     13  O   UNL     1     180.372 -27.112  39.903  1.00  0.00    -0.454 OA
ATOM     14  O   UNL     1     180.358 -28.008  37.810  1.00  0.00    -0.454 OA
ATOM     15  C   UNL     1     180.348 -28.362  39.200  1.00  0.00     0.468 C 
ENDBRANCH   6   7
ENDBRANCH   2   6
BRANCH   3  16
ATOM     16  C   UNL     1     184.251 -22.479  37.351  1.00  0.00     0.044 C 
BRANCH  16  17
ATOM     17  C   UNL     1     184.217 -23.687  36.436  1.00  0.00    -0.044 A 
ATOM     18  C   UNL     1     184.290 -23.518  35.032  1.00  0.00     0.054 A 
ATOM     19  C   UNL     1     184.077 -24.996  36.968  1.00  0.00     0.008 A 
ATOM     20  C   UNL     1     184.270 -24.654  34.230  1.00  0.00     0.166 A 
ATOM     21  C   UNL     1     184.061 -26.119  36.121  1.00  0.00     0.051 A 
ATOM     22  C   UNL     1     184.164 -25.900  34.752  1.00  0.00     0.165 A 
ATOM     23  O   UNL     1     184.343 -24.736  32.853  1.00  0.00    -0.454 OA
ATOM     24  O   UNL     1     184.167 -26.830  33.730  1.00  0.00    -0.454 OA
ATOM     25  C   UNL     1     184.282 -26.121  32.488  1.00  0.00     0.468 C 
ENDBRANCH  16  17
ENDBRANCH   3  16
BRANCH   4  26
ATOM     26  O   UNL     1     184.752 -21.592  39.997  1.00  0.00    -0.368 OA
ATOM     27  H   UNL     1     184.918 -20.809  40.584  1.00  0.00     0.213 HD
ENDBRANCH   4  26
TORSDOF 5
ENDMDL
MODEL 8
REMARK VINA RESULT:    -6.981      2.441      3.986
REMARK INTER + INTRA:         -10.446
REMARK INTER:                  -8.361
REMARK INTRA:                  -2.085
REMARK UNBOUND:                -1.629
REMARK SMILES O[C@H]1OC[C@H](Cc2ccc3c(c2)OCO3)[C@H]1Cc1ccc2c(c1)OCO2
REMARK SMILES IDX 4 1 5 2 16 3 2 4 3 5 6 6 7 7 12 8 8 9 11 10 9 11 10 12 13 13
REMARK SMILES IDX 15 14 14 15 17 16 18 17 23 18 19 19 22 20 20 21 21 22 24 23
REMARK SMILES IDX 26 24 25 25 1 26
REMARK H PARENT 1 27
REMARK Flexibility Score: inf
ROOT
ATOM      1  C   UNL     1     179.092 -26.357  38.882  1.00  0.00     0.168 C 
ATOM      2  C   UNL     1     180.050 -26.313  37.685  1.00  0.00     0.028 C 
ATOM      3  C   UNL     1     181.155 -27.278  38.094  1.00  0.00     0.055 C 
ATOM      4  C   UNL     1     180.412 -28.191  39.075  1.00  0.00     0.250 C 
ATOM      5  O   UNL     1     179.449 -27.417  39.746  1.00  0.00    -0.352 OA
ENDROOT
BRANCH   2   6
ATOM      6  C   UNL     1     179.373 -26.643  36.325  1.00  0.00     0.042 C 
BRANCH   6   7
ATOM      7  C   UNL     1     180.182 -26.306  35.090  1.00  0.00    -0.044 A 
ATOM      8  C   UNL     1     180.843 -25.061  34.983  1.00  0.00     0.054 A 
ATOM      9  C   UNL     1     180.304 -27.251  34.035  1.00  0.00     0.008 A 
ATOM     10  C   UNL     1     181.561 -24.796  33.821  1.00  0.00     0.166 A 
ATOM     11  C   UNL     1     181.041 -26.943  32.877  1.00  0.00     0.051 A 
ATOM     12  C   UNL     1     181.653 -25.696  32.810  1.00  0.00     0.165 A 
ATOM     13  O   UNL     1     182.272 -23.659  33.490  1.00  0.00    -0.454 OA
ATOM     14  O   UNL     1     182.424 -25.169  31.793  1.00  0.00    -0.454 OA
ATOM     15  C   UNL     1     182.843 -23.856  32.189  1.00  0.00     0.468 C 
ENDBRANCH   6   7
ENDBRANCH   2   6
BRANCH   3  16
ATOM     16  C   UNL     1     182.410 -26.566  38.686  1.00  0.00     0.044 C 
BRANCH  16  17
ATOM     17  C   UNL     1     183.195 -25.704  37.716  1.00  0.00    -0.044 A 
ATOM     18  C   UNL     1     183.182 -24.294  37.847  1.00  0.00     0.054 A 
ATOM     19  C   UNL     1     183.922 -26.293  36.648  1.00  0.00     0.008 A 
ATOM     20  C   UNL     1     183.927 -23.543  36.945  1.00  0.00     0.166 A 
ATOM     21  C   UNL     1     184.662 -25.495  35.756  1.00  0.00     0.051 A 
ATOM     22  C   UNL     1     184.640 -24.119  35.945  1.00  0.00     0.165 A 
ATOM     23  O   UNL     1     184.077 -22.171  36.886  1.00  0.00    -0.454 OA
ATOM     24  O   UNL     1     185.275 -23.138  35.208  1.00  0.00    -0.454 OA
ATOM     25  C   UNL     1     184.939 -21.866  35.782  1.00  0.00     0.468 C 
ENDBRANCH  16  17
ENDBRANCH   3  16
BRANCH   4  26
ATOM     26  O   UNL     1     181.269 -28.804  40.000  1.00  0.00    -0.368 OA
ATOM     27  H   UNL     1     181.167 -29.783  39.875  1.00  0.00     0.213 HD
ENDBRANCH   4  26
TORSDOF 5
ENDMDL
MODEL 9
REMARK VINA RESULT:    -6.908      2.420      7.336
REMARK INTER + INTRA:         -10.354
REMARK INTER:                  -8.753
REMARK INTRA:                  -1.601
REMARK UNBOUND:                -1.629
REMARK SMILES O[C@H]1OC[C@H](Cc2ccc3c(c2)OCO3)[C@H]1Cc1ccc2c(c1)OCO2
REMARK SMILES IDX 4 1 5 2 16 3 2 4 3 5 6 6 7 7 12 8 8 9 11 10 9 11 10 12 13 13
REMARK SMILES IDX 15 14 14 15 17 16 18 17 23 18 19 19 22 20 20 21 21 22 24 23
REMARK SMILES IDX 26 24 25 25 1 26
REMARK H PARENT 1 27
REMARK Flexibility Score: inf
ROOT
ATOM      1  C   UNL     1     183.732 -20.460  34.993  1.00  0.00     0.168 C 
ATOM      2  C   UNL     1     184.186 -21.926  34.986  1.00  0.00     0.028 C 
ATOM      3  C   UNL     1     185.186 -21.969  33.838  1.00  0.00     0.055 C 
ATOM      4  C   UNL     1     185.651 -20.511  33.786  1.00  0.00     0.250 C 
ATOM      5  O   UNL     1     184.565 -19.694  34.147  1.00  0.00    -0.352 OA
ENDROOT
BRANCH   2   6
ATOM      6  C   UNL     1     184.745 -22.418  36.351  1.00  0.00     0.042 C 
BRANCH   6   7
ATOM      7  C   UNL     1     184.151 -23.707  36.877  1.00  0.00    -0.044 A 
ATOM      8  C   UNL     1     183.471 -23.730  38.117  1.00  0.00     0.054 A 
ATOM      9  C   UNL     1     184.250 -24.904  36.116  1.00  0.00     0.008 A 
ATOM     10  C   UNL     1     182.956 -24.944  38.561  1.00  0.00     0.166 A 
ATOM     11  C   UNL     1     183.715 -26.110  36.602  1.00  0.00     0.051 A 
ATOM     12  C   UNL     1     183.076 -26.085  37.837  1.00  0.00     0.165 A 
ATOM     13  O   UNL     1     182.270 -25.211  39.729  1.00  0.00    -0.454 OA
ATOM     14  O   UNL     1     182.474 -27.127  38.515  1.00  0.00    -0.454 OA
ATOM     15  C   UNL     1     181.942 -26.608  39.742  1.00  0.00     0.468 C 
ENDBRANCH   6   7
ENDBRANCH   2   6
BRANCH   3  16
ATOM     16  C   UNL     1     184.577 -22.510  32.508  1.00  0.00     0.044 C 
BRANCH  16  17
ATOM     17  C   UNL     1     183.808 -23.811  32.618  1.00  0.00    -0.044 A 
ATOM     18  C   UNL     1     182.430 -23.798  32.942  1.00  0.00     0.054 A 
ATOM     19  C   UNL     1     184.463 -25.058  32.434  1.00  0.00     0.008 A 
ATOM     20  C   UNL     1     181.760 -25.014  33.019  1.00  0.00     0.166 A 
ATOM     21  C   UNL     1     183.747 -26.266  32.522  1.00  0.00     0.051 A 
ATOM     22  C   UNL     1     182.390 -26.196  32.814  1.00  0.00     0.165 A 
ATOM     23  O   UNL     1     180.427 -25.245  33.302  1.00  0.00    -0.454 OA
ATOM     24  O   UNL     1     181.486 -27.232  32.956  1.00  0.00    -0.454 OA
ATOM     25  C   UNL     1     180.207 -26.661  33.269  1.00  0.00     0.468 C 
ENDBRANCH  16  17
ENDBRANCH   3  16
BRANCH   4  26
ATOM     26  O   UNL     1     186.134 -20.141  32.523  1.00  0.00    -0.368 OA
ATOM     27  H   UNL     1     186.796 -19.416  32.674  1.00  0.00     0.213 HD
ENDBRANCH   4  26
TORSDOF 5
ENDMDL
