MODEL 1
REMARK VINA RESULT:    -4.667      0.000      0.000
REMARK INTER + INTRA:          -5.690
REMARK INTER:                  -5.349
REMARK INTRA:                  -0.341
REMARK UNBOUND:                -0.341
REMARK SMILES COc1ccc(C(C)=O)c(O)c1
REMARK SMILES IDX 6 1 10 2 12 3 3 4 4 5 5 6 7 7 8 8 9 9 11 10 2 12 1 13
REMARK H PARENT 11 11
REMARK Flexibility Score: inf
ROOT
ATOM      1  C   UNL     1      -8.082   5.140   1.591  1.00  0.00     0.059 A 
ATOM      2  C   UNL     1      -6.885   5.876   1.406  1.00  0.00     0.130 A 
ATOM      3  C   UNL     1      -6.229   6.427   2.514  1.00  0.00     0.093 A 
ATOM      4  C   UNL     1      -6.759   6.287   3.808  1.00  0.00     0.122 A 
ATOM      5  C   UNL     1      -7.955   5.588   3.981  1.00  0.00     0.047 A 
ATOM      6  C   UNL     1      -8.611   5.019   2.889  1.00  0.00     0.019 A 
ENDROOT
BRANCH   1   7
ATOM      7  C   UNL     1      -8.772   4.466   0.466  1.00  0.00     0.163 C 
ATOM      8  C   UNL     1      -8.973   2.982   0.459  1.00  0.00     0.093 C 
ATOM      9  O   UNL     1      -9.125   5.131  -0.544  1.00  0.00    -0.294 OA
ENDBRANCH   1   7
BRANCH   2  10
ATOM     10  O   UNL     1      -6.338   6.107   0.142  1.00  0.00    -0.507 OA
ATOM     11  H   UNL     1      -5.631   6.807  -0.040  1.00  0.00     0.293 HD
ENDBRANCH   2  10
BRANCH   4  12
ATOM     12  O   UNL     1      -6.134   6.830   4.941  1.00  0.00    -0.497 OA
ATOM     13  C   UNL     1      -6.037   6.173   6.200  1.00  0.00     0.278 C 
ENDBRANCH   4  12
TORSDOF 3
ENDMDL
MODEL 2
REMARK VINA RESULT:    -4.344      1.486      4.576
REMARK INTER + INTRA:          -5.319
REMARK INTER:                  -4.975
REMARK INTRA:                  -0.344
REMARK UNBOUND:                -0.341
REMARK SMILES COc1ccc(C(C)=O)c(O)c1
REMARK SMILES IDX 6 1 10 2 12 3 3 4 4 5 5 6 7 7 8 8 9 9 11 10 2 12 1 13
REMARK H PARENT 11 11
REMARK Flexibility Score: inf
ROOT
ATOM      1  C   UNL     1      -7.421   5.971   3.245  1.00  0.00     0.059 A 
ATOM      2  C   UNL     1      -6.775   6.814   2.306  1.00  0.00     0.130 A 
ATOM      3  C   UNL     1      -7.008   6.636   0.937  1.00  0.00     0.093 A 
ATOM      4  C   UNL     1      -7.850   5.609   0.476  1.00  0.00     0.122 A 
ATOM      5  C   UNL     1      -8.460   4.762   1.404  1.00  0.00     0.047 A 
ATOM      6  C   UNL     1      -8.250   4.938   2.772  1.00  0.00     0.019 A 
ENDROOT
BRANCH   1   7
ATOM      7  C   UNL     1      -7.276   6.168   4.707  1.00  0.00     0.163 C 
ATOM      8  C   UNL     1      -8.476   6.331   5.587  1.00  0.00     0.093 C 
ATOM      9  O   UNL     1      -6.129   6.285   5.215  1.00  0.00    -0.294 OA
ENDBRANCH   1   7
BRANCH   2  10
ATOM     10  O   UNL     1      -5.878   7.812   2.691  1.00  0.00    -0.507 OA
ATOM     11  H   UNL     1      -6.070   8.481   3.424  1.00  0.00     0.293 HD
ENDBRANCH   2  10
BRANCH   4  12
ATOM     12  O   UNL     1      -8.102   5.395  -0.887  1.00  0.00    -0.497 OA
ATOM     13  C   UNL     1      -7.399   6.037  -1.946  1.00  0.00     0.278 C 
ENDBRANCH   4  12
TORSDOF 3
ENDMDL
MODEL 3
REMARK VINA RESULT:    -4.317      1.326      2.361
REMARK INTER + INTRA:          -5.289
REMARK INTER:                  -4.980
REMARK INTRA:                  -0.309
REMARK UNBOUND:                -0.341
REMARK SMILES COc1ccc(C(C)=O)c(O)c1
REMARK SMILES IDX 6 1 10 2 12 3 3 4 4 5 5 6 7 7 8 8 9 9 11 10 2 12 1 13
REMARK H PARENT 11 11
REMARK Flexibility Score: inf
ROOT
ATOM      1  C   UNL     1      -7.344   5.597   0.928  1.00  0.00     0.059 A 
ATOM      2  C   UNL     1      -8.398   4.978   1.648  1.00  0.00     0.130 A 
ATOM      3  C   UNL     1      -8.430   5.065   3.045  1.00  0.00     0.093 A 
ATOM      4  C   UNL     1      -7.411   5.730   3.749  1.00  0.00     0.122 A 
ATOM      5  C   UNL     1      -6.360   6.311   3.038  1.00  0.00     0.047 A 
ATOM      6  C   UNL     1      -6.324   6.247   1.645  1.00  0.00     0.019 A 
ENDROOT
BRANCH   1   7
ATOM      7  C   UNL     1      -7.307   5.609  -0.553  1.00  0.00     0.163 C 
ATOM      8  C   UNL     1      -6.064   5.997  -1.292  1.00  0.00     0.093 C 
ATOM      9  O   UNL     1      -8.355   5.370  -1.210  1.00  0.00    -0.294 OA
ENDBRANCH   1   7
BRANCH   2  10
ATOM     10  O   UNL     1      -9.406   4.248   1.016  1.00  0.00    -0.507 OA
ATOM     11  H   UNL     1      -9.952   3.535   1.480  1.00  0.00     0.293 HD
ENDBRANCH   2  10
BRANCH   4  12
ATOM     12  O   UNL     1      -7.405   5.831   5.149  1.00  0.00    -0.497 OA
ATOM     13  C   UNL     1      -6.246   6.095   5.933  1.00  0.00     0.278 C 
ENDBRANCH   4  12
TORSDOF 3
ENDMDL
MODEL 4
REMARK VINA RESULT:    -4.253      2.007      5.003
REMARK INTER + INTRA:          -5.215
REMARK INTER:                  -4.894
REMARK INTRA:                  -0.321
REMARK UNBOUND:                -0.341
REMARK SMILES COc1ccc(C(C)=O)c(O)c1
REMARK SMILES IDX 6 1 10 2 12 3 3 4 4 5 5 6 7 7 8 8 9 9 11 10 2 12 1 13
REMARK H PARENT 11 11
REMARK Flexibility Score: inf
ROOT
ATOM      1  C   UNL     1      -7.690   5.918   1.448  1.00  0.00     0.059 A 
ATOM      2  C   UNL     1      -7.599   6.971   0.503  1.00  0.00     0.130 A 
ATOM      3  C   UNL     1      -8.061   6.776  -0.804  1.00  0.00     0.093 A 
ATOM      4  C   UNL     1      -8.586   5.534  -1.204  1.00  0.00     0.122 A 
ATOM      5  C   UNL     1      -8.646   4.491  -0.278  1.00  0.00     0.047 A 
ATOM      6  C   UNL     1      -8.205   4.677   1.032  1.00  0.00     0.019 A 
ENDROOT
BRANCH   1   7
ATOM      7  C   UNL     1      -7.295   6.097   2.865  1.00  0.00     0.163 C 
ATOM      8  C   UNL     1      -8.035   5.408   3.968  1.00  0.00     0.093 C 
ATOM      9  O   UNL     1      -6.374   6.905   3.163  1.00  0.00    -0.294 OA
ENDBRANCH   1   7
BRANCH   2  10
ATOM     10  O   UNL     1      -7.030   8.208   0.816  1.00  0.00    -0.507 OA
ATOM     11  H   UNL     1      -6.761   8.889   0.119  1.00  0.00     0.293 HD
ENDBRANCH   2  10
BRANCH   4  12
ATOM     12  O   UNL     1      -9.052   5.298  -2.506  1.00  0.00    -0.497 OA
ATOM     13  C   UNL     1      -9.195   6.303  -3.505  1.00  0.00     0.278 C 
ENDBRANCH   4  12
TORSDOF 3
ENDMDL
MODEL 5
REMARK VINA RESULT:    -4.077      3.537      6.008
REMARK INTER + INTRA:          -5.013
REMARK INTER:                  -4.677
REMARK INTRA:                  -0.336
REMARK UNBOUND:                -0.341
REMARK SMILES COc1ccc(C(C)=O)c(O)c1
REMARK SMILES IDX 6 1 10 2 12 3 3 4 4 5 5 6 7 7 8 8 9 9 11 10 2 12 1 13
REMARK H PARENT 11 11
REMARK Flexibility Score: inf
ROOT
ATOM      1  C   UNL     1      -8.283   5.561  -0.952  1.00  0.00     0.059 A 
ATOM      2  C   UNL     1      -7.133   6.029  -1.634  1.00  0.00     0.130 A 
ATOM      3  C   UNL     1      -7.274   6.715  -2.847  1.00  0.00     0.093 A 
ATOM      4  C   UNL     1      -8.544   6.918  -3.416  1.00  0.00     0.122 A 
ATOM      5  C   UNL     1      -9.672   6.429  -2.755  1.00  0.00     0.047 A 
ATOM      6  C   UNL     1      -9.546   5.759  -1.537  1.00  0.00     0.019 A 
ENDROOT
BRANCH   1   7
ATOM      7  C   UNL     1      -8.197   4.905   0.374  1.00  0.00     0.163 C 
ATOM      8  C   UNL     1      -9.064   3.733   0.715  1.00  0.00     0.093 C 
ATOM      9  O   UNL     1      -7.445   5.384   1.265  1.00  0.00    -0.294 OA
ENDBRANCH   1   7
BRANCH   2  10
ATOM     10  O   UNL     1      -5.839   5.806  -1.158  1.00  0.00    -0.507 OA
ATOM     11  H   UNL     1      -5.454   6.276  -0.350  1.00  0.00     0.293 HD
ENDBRANCH   2  10
BRANCH   4  12
ATOM     12  O   UNL     1      -8.725   7.594  -4.632  1.00  0.00    -0.497 OA
ATOM     13  C   UNL     1      -8.414   7.049  -5.910  1.00  0.00     0.278 C 
ENDBRANCH   4  12
TORSDOF 3
ENDMDL
MODEL 6
REMARK VINA RESULT:    -4.048      1.480      1.811
REMARK INTER + INTRA:          -4.980
REMARK INTER:                  -4.636
REMARK INTRA:                  -0.344
REMARK UNBOUND:                -0.341
REMARK SMILES COc1ccc(C(C)=O)c(O)c1
REMARK SMILES IDX 6 1 10 2 12 3 3 4 4 5 5 6 7 7 8 8 9 9 11 10 2 12 1 13
REMARK H PARENT 11 11
REMARK Flexibility Score: inf
ROOT
ATOM      1  C   UNL     1      -8.279   5.710   0.125  1.00  0.00     0.059 A 
ATOM      2  C   UNL     1      -6.891   5.998   0.098  1.00  0.00     0.130 A 
ATOM      3  C   UNL     1      -6.173   6.071   1.298  1.00  0.00     0.093 A 
ATOM      4  C   UNL     1      -6.816   5.894   2.535  1.00  0.00     0.122 A 
ATOM      5  C   UNL     1      -8.189   5.640   2.558  1.00  0.00     0.047 A 
ATOM      6  C   UNL     1      -8.914   5.547   1.369  1.00  0.00     0.019 A 
ENDROOT
BRANCH   1   7
ATOM      7  C   UNL     1      -9.069   5.538  -1.117  1.00  0.00     0.163 C 
ATOM      8  C   UNL     1     -10.445   6.114  -1.244  1.00  0.00     0.093 C 
ATOM      9  O   UNL     1      -8.619   4.827  -2.055  1.00  0.00    -0.294 OA
ENDBRANCH   1   7
BRANCH   2  10
ATOM     10  O   UNL     1      -6.203   6.248  -1.091  1.00  0.00    -0.507 OA
ATOM     11  H   UNL     1      -6.122   5.574  -1.840  1.00  0.00     0.293 HD
ENDBRANCH   2  10
BRANCH   4  12
ATOM     12  O   UNL     1      -6.132   5.966   3.758  1.00  0.00    -0.497 OA
ATOM     13  C   UNL     1      -6.693   6.467   4.967  1.00  0.00     0.278 C 
ENDBRANCH   4  12
TORSDOF 3
ENDMDL
MODEL 7
REMARK VINA RESULT:    -4.033      2.486      5.319
REMARK INTER + INTRA:          -4.963
REMARK INTER:                  -4.664
REMARK INTRA:                  -0.298
REMARK UNBOUND:                -0.341
REMARK SMILES COc1ccc(C(C)=O)c(O)c1
REMARK SMILES IDX 6 1 10 2 12 3 3 4 4 5 5 6 7 7 8 8 9 9 11 10 2 12 1 13
REMARK H PARENT 11 11
REMARK Flexibility Score: inf
ROOT
ATOM      1  C   UNL     1      -7.678   5.762   0.975  1.00  0.00     0.059 A 
ATOM      2  C   UNL     1      -8.415   4.869   0.158  1.00  0.00     0.130 A 
ATOM      3  C   UNL     1      -8.459   5.067  -1.227  1.00  0.00     0.093 A 
ATOM      4  C   UNL     1      -7.807   6.163  -1.819  1.00  0.00     0.122 A 
ATOM      5  C   UNL     1      -7.107   7.058  -1.007  1.00  0.00     0.047 A 
ATOM      6  C   UNL     1      -7.041   6.862   0.373  1.00  0.00     0.019 A 
ENDROOT
BRANCH   1   7
ATOM      7  C   UNL     1      -7.528   5.552   2.434  1.00  0.00     0.163 C 
ATOM      8  C   UNL     1      -6.341   6.084   3.175  1.00  0.00     0.093 C 
ATOM      9  O   UNL     1      -8.365   4.844   3.056  1.00  0.00    -0.294 OA
ENDBRANCH   1   7
BRANCH   2  10
ATOM     10  O   UNL     1      -9.139   3.798   0.687  1.00  0.00    -0.507 OA
ATOM     11  H   UNL     1      -9.067   3.499   1.650  1.00  0.00     0.293 HD
ENDBRANCH   2  10
BRANCH   4  12
ATOM     12  O   UNL     1      -7.834   6.399  -3.202  1.00  0.00    -0.497 OA
ATOM     13  C   UNL     1      -8.992   6.261  -4.020  1.00  0.00     0.278 C 
ENDBRANCH   4  12
TORSDOF 3
ENDMDL
MODEL 8
REMARK VINA RESULT:    -4.024      3.784      6.614
REMARK INTER + INTRA:          -4.952
REMARK INTER:                  -4.612
REMARK INTRA:                  -0.340
REMARK UNBOUND:                -0.341
REMARK SMILES COc1ccc(C(C)=O)c(O)c1
REMARK SMILES IDX 6 1 10 2 12 3 3 4 4 5 5 6 7 7 8 8 9 9 11 10 2 12 1 13
REMARK H PARENT 11 11
REMARK Flexibility Score: inf
ROOT
ATOM      1  C   UNL     1      -6.922   5.991  -1.341  1.00  0.00     0.059 A 
ATOM      2  C   UNL     1      -8.185   5.384  -1.554  1.00  0.00     0.130 A 
ATOM      3  C   UNL     1      -8.878   5.621  -2.748  1.00  0.00     0.093 A 
ATOM      4  C   UNL     1      -8.351   6.481  -3.728  1.00  0.00     0.122 A 
ATOM      5  C   UNL     1      -7.121   7.101  -3.499  1.00  0.00     0.047 A 
ATOM      6  C   UNL     1      -6.412   6.860  -2.322  1.00  0.00     0.019 A 
ENDROOT
BRANCH   1   7
ATOM      7  C   UNL     1      -6.109   5.709  -0.134  1.00  0.00     0.163 C 
ATOM      8  C   UNL     1      -4.762   5.065  -0.243  1.00  0.00     0.093 C 
ATOM      9  O   UNL     1      -6.584   5.934   1.011  1.00  0.00    -0.294 OA
ENDBRANCH   1   7
BRANCH   2  10
ATOM     10  O   UNL     1      -8.794   4.571  -0.597  1.00  0.00    -0.507 OA
ATOM     11  H   UNL     1      -9.785   4.368  -0.587  1.00  0.00     0.293 HD
ENDBRANCH   2  10
BRANCH   4  12
ATOM     12  O   UNL     1      -9.019   6.748  -4.932  1.00  0.00    -0.497 OA
ATOM     13  C   UNL     1      -8.375   7.144  -6.139  1.00  0.00     0.278 C 
ENDBRANCH   4  12
TORSDOF 3
ENDMDL
MODEL 9
REMARK VINA RESULT:    -3.870      4.259      5.666
REMARK INTER + INTRA:          -4.776
REMARK INTER:                  -4.431
REMARK INTRA:                  -0.345
REMARK UNBOUND:                -0.341
REMARK SMILES COc1ccc(C(C)=O)c(O)c1
REMARK SMILES IDX 6 1 10 2 12 3 3 4 4 5 5 6 7 7 8 8 9 9 11 10 2 12 1 13
REMARK H PARENT 11 11
REMARK Flexibility Score: inf
ROOT
ATOM      1  C   UNL     1      -8.039   7.046  -3.523  1.00  0.00     0.059 A 
ATOM      2  C   UNL     1      -6.963   7.280  -2.631  1.00  0.00     0.130 A 
ATOM      3  C   UNL     1      -6.848   6.517  -1.463  1.00  0.00     0.093 A 
ATOM      4  C   UNL     1      -7.807   5.539  -1.144  1.00  0.00     0.122 A 
ATOM      5  C   UNL     1      -8.882   5.333  -2.011  1.00  0.00     0.047 A 
ATOM      6  C   UNL     1      -8.999   6.074  -3.187  1.00  0.00     0.019 A 
ENDROOT
BRANCH   1   7
ATOM      7  C   UNL     1      -8.162   7.765  -4.812  1.00  0.00     0.163 C 
ATOM      8  C   UNL     1      -8.203   7.023  -6.112  1.00  0.00     0.093 C 
ATOM      9  O   UNL     1      -8.149   9.025  -4.832  1.00  0.00    -0.294 OA
ENDBRANCH   1   7
BRANCH   2  10
ATOM     10  O   UNL     1      -6.012   8.278  -2.854  1.00  0.00    -0.507 OA
ATOM     11  H   UNL     1      -6.021   8.887  -3.661  1.00  0.00     0.293 HD
ENDBRANCH   2  10
BRANCH   4  12
ATOM     12  O   UNL     1      -7.730   4.760   0.020  1.00  0.00    -0.497 OA
ATOM     13  C   UNL     1      -8.858   4.286   0.749  1.00  0.00     0.278 C 
ENDBRANCH   4  12
TORSDOF 3
ENDMDL
