MODEL 1
REMARK VINA RESULT:    -0.454      0.000      0.000
REMARK INTER + INTRA:          -0.925
REMARK INTER:                  -0.666
REMARK INTRA:                  -0.259
REMARK UNBOUND:                -0.259
REMARK SMILES O=C([O-])CCCCCCCC(=O)[O-]
REMARK SMILES IDX 7 1 6 2 5 3 4 4 2 5 1 6 3 7 8 8 9 9 10 10 11 11 12 12 13 13
REMARK H PARENT
REMARK Flexibility Score: inf
ROOT
ATOM      1  C   UNL     1      -7.858  -6.252  19.582  1.00  0.00     0.000 C 
ENDROOT
BRANCH   1   2
ATOM      2  C   UNL     1      -9.124  -6.485  20.419  1.00  0.00     0.000 C 
BRANCH   2   3
ATOM      3  C   UNL     1      -8.821  -6.691  21.914  1.00  0.00     0.006 C 
BRANCH   3   4
ATOM      4  C   UNL     1      -9.032  -8.131  22.409  1.00  0.00     0.053 C 
BRANCH   4   5
ATOM      5  C   UNL     1      -8.822  -8.251  23.888  1.00  0.00     0.041 C 
ATOM      6  O   UNL     1      -8.656  -9.382  24.415  1.00  0.00    -0.550 OA
ATOM      7  O   UNL     1      -8.780  -7.110  24.678  1.00  0.00    -0.550 OA
ENDBRANCH   4   5
ENDBRANCH   3   4
ENDBRANCH   2   3
ENDBRANCH   1   2
BRANCH   1   8
ATOM      8  C   UNL     1      -7.632  -4.756  19.332  1.00  0.00     0.000 C 
BRANCH   8   9
ATOM      9  C   UNL     1      -6.710  -4.152  20.399  1.00  0.00     0.006 C 
BRANCH   9  10
ATOM     10  C   UNL     1      -6.423  -2.676  20.106  1.00  0.00     0.053 C 
BRANCH  10  11
ATOM     11  C   UNL     1      -6.437  -1.879  21.370  1.00  0.00     0.041 C 
ATOM     12  O   UNL     1      -6.766  -0.663  21.350  1.00  0.00    -0.550 OA
ATOM     13  O   UNL     1      -6.040  -2.464  22.567  1.00  0.00    -0.550 OA
ENDBRANCH  10  11
ENDBRANCH   9  10
ENDBRANCH   8   9
ENDBRANCH   1   8
TORSDOF 8
ENDMDL
MODEL 2
REMARK VINA RESULT:     1.446      0.874      1.389
REMARK INTER + INTRA:           1.863
REMARK INTER:                   2.194
REMARK INTRA:                  -0.331
REMARK UNBOUND:                -0.259
REMARK SMILES O=C([O-])CCCCCCCC(=O)[O-]
REMARK SMILES IDX 7 1 6 2 5 3 4 4 2 5 1 6 3 7 8 8 9 9 10 10 11 11 12 12 13 13
REMARK H PARENT
REMARK Flexibility Score: inf
ROOT
ATOM      1  C   UNL     1      -7.514  -5.318  19.316  1.00  0.00     0.000 C 
ENDROOT
BRANCH   1   2
ATOM      2  C   UNL     1      -8.918  -5.890  19.559  1.00  0.00     0.000 C 
BRANCH   2   3
ATOM      3  C   UNL     1      -9.125  -6.368  21.008  1.00  0.00     0.006 C 
BRANCH   3   4
ATOM      4  C   UNL     1      -8.961  -7.884  21.203  1.00  0.00     0.053 C 
BRANCH   4   5
ATOM      5  C   UNL     1      -8.794  -8.248  22.647  1.00  0.00     0.041 C 
ATOM      6  O   UNL     1      -8.328  -9.373  22.968  1.00  0.00    -0.550 OA
ATOM      7  O   UNL     1      -9.125  -7.332  23.637  1.00  0.00    -0.550 OA
ENDBRANCH   4   5
ENDBRANCH   3   4
ENDBRANCH   2   3
ENDBRANCH   1   2
BRANCH   1   8
ATOM      8  C   UNL     1      -6.996  -4.588  20.561  1.00  0.00     0.000 C 
BRANCH   8   9
ATOM      9  C   UNL     1      -6.226  -3.318  20.174  1.00  0.00     0.006 C 
BRANCH   9  10
ATOM     10  C   UNL     1      -7.069  -2.065  20.433  1.00  0.00     0.053 C 
BRANCH  10  11
ATOM     11  C   UNL     1      -6.575  -1.345  21.647  1.00  0.00     0.041 C 
ATOM     12  O   UNL     1      -6.188  -1.992  22.656  1.00  0.00    -0.550 OA
ATOM     13  O   UNL     1      -6.587   0.044  21.685  1.00  0.00    -0.550 OA
ENDBRANCH  10  11
ENDBRANCH   9  10
ENDBRANCH   8   9
ENDBRANCH   1   8
TORSDOF 8
ENDMDL
