MODEL 1
REMARK VINA RESULT:    -6.526      0.000      0.000
REMARK INTER + INTRA:          -8.924
REMARK INTER:                  -8.243
REMARK INTRA:                  -0.682
REMARK UNBOUND:                -0.682
REMARK SMILES O=C(C=Cc1ccc(O)cc1)c1ccc(O)cc1O
REMARK SMILES IDX 4 1 3 2 5 3 6 4 7 5 8 6 11 7 10 8 9 9 2 11 1 12 12 13 18 14
REMARK SMILES IDX 13 15 17 16 14 17 15 18 19 19 16 21
REMARK H PARENT 9 10 19 20 16 22
REMARK Flexibility Score: inf
ROOT
ATOM      1  C   UNL     1      22.865   5.896  31.659  1.00  0.00     0.012 C 
ATOM      2  C   UNL     1      22.866   6.020  30.323  1.00  0.00     0.053 C 
ENDROOT
BRANCH   1   3
ATOM      3  C   UNL     1      22.792   4.594  32.366  1.00  0.00    -0.025 A 
ATOM      4  C   UNL     1      22.146   3.520  31.731  1.00  0.00     0.012 A 
ATOM      5  C   UNL     1      22.060   2.271  32.355  1.00  0.00     0.047 A 
ATOM      6  C   UNL     1      22.629   2.074  33.615  1.00  0.00     0.115 A 
ATOM      7  C   UNL     1      23.378   4.383  33.630  1.00  0.00     0.012 A 
ATOM      8  C   UNL     1      23.291   3.132  34.251  1.00  0.00     0.047 A 
BRANCH   6   9
ATOM      9  O   UNL     1      22.535   0.826  34.226  1.00  0.00    -0.508 OA
ATOM     10  H   UNL     1      21.671   0.296  34.216  1.00  0.00     0.293 HD
ENDBRANCH   6   9
ENDBRANCH   1   3
BRANCH   2  11
ATOM     11  C   UNL     1      22.948   7.336  29.654  1.00  0.00     0.189 C 
ATOM     12  O   UNL     1      24.049   7.949  29.594  1.00  0.00    -0.289 OA
BRANCH  11  13
ATOM     13  C   UNL     1      21.748   7.933  29.028  1.00  0.00     0.064 A 
ATOM     14  C   UNL     1      21.731   8.327  27.667  1.00  0.00     0.130 A 
ATOM     15  C   UNL     1      20.577   8.078  29.794  1.00  0.00     0.020 A 
ATOM     16  C   UNL     1      20.549   8.819  27.102  1.00  0.00     0.093 A 
ATOM     17  C   UNL     1      19.408   8.583  29.221  1.00  0.00     0.047 A 
ATOM     18  C   UNL     1      19.391   8.951  27.872  1.00  0.00     0.119 A 
BRANCH  14  19
ATOM     19  O   UNL     1      22.870   8.272  26.861  1.00  0.00    -0.507 OA
ATOM     20  H   UNL     1      22.975   8.809  26.010  1.00  0.00     0.293 HD
ENDBRANCH  14  19
BRANCH  18  21
ATOM     21  O   UNL     1      18.229   9.450  27.287  1.00  0.00    -0.508 OA
ATOM     22  H   UNL     1      17.634   8.867  26.709  1.00  0.00     0.293 HD
ENDBRANCH  18  21
ENDBRANCH  11  13
ENDBRANCH   2  11
TORSDOF 6
ENDMDL
MODEL 2
REMARK VINA RESULT:    -6.413      1.755      1.922
REMARK INTER + INTRA:          -8.782
REMARK INTER:                  -8.150
REMARK INTRA:                  -0.633
REMARK UNBOUND:                -0.682
REMARK SMILES O=C(C=Cc1ccc(O)cc1)c1ccc(O)cc1O
REMARK SMILES IDX 4 1 3 2 5 3 6 4 7 5 8 6 11 7 10 8 9 9 2 11 1 12 12 13 18 14
REMARK SMILES IDX 13 15 17 16 14 17 15 18 19 19 16 21
REMARK H PARENT 9 10 19 20 16 22
REMARK Flexibility Score: inf
ROOT
ATOM      1  C   UNL     1      22.343   5.888  33.154  1.00  0.00     0.012 C 
ATOM      2  C   UNL     1      21.680   6.359  32.088  1.00  0.00     0.053 C 
ENDROOT
BRANCH   1   3
ATOM      3  C   UNL     1      22.685   4.457  33.345  1.00  0.00    -0.025 A 
ATOM      4  C   UNL     1      22.077   3.504  32.511  1.00  0.00     0.012 A 
ATOM      5  C   UNL     1      22.376   2.144  32.648  1.00  0.00     0.047 A 
ATOM      6  C   UNL     1      23.294   1.719  33.612  1.00  0.00     0.115 A 
ATOM      7  C   UNL     1      23.623   4.022  34.304  1.00  0.00     0.012 A 
ATOM      8  C   UNL     1      23.919   2.661  34.437  1.00  0.00     0.047 A 
BRANCH   6   9
ATOM      9  O   UNL     1      23.580   0.362  33.738  1.00  0.00    -0.508 OA
ATOM     10  H   UNL     1      24.329   0.033  34.337  1.00  0.00     0.293 HD
ENDBRANCH   6   9
ENDBRANCH   1   3
BRANCH   2  11
ATOM     11  C   UNL     1      21.364   7.795  31.928  1.00  0.00     0.189 C 
ATOM     12  O   UNL     1      21.763   8.631  32.786  1.00  0.00    -0.289 OA
BRANCH  11  13
ATOM     13  C   UNL     1      20.603   8.267  30.751  1.00  0.00     0.064 A 
ATOM     14  C   UNL     1      21.041   9.361  29.966  1.00  0.00     0.130 A 
ATOM     15  C   UNL     1      19.430   7.586  30.378  1.00  0.00     0.020 A 
ATOM     16  C   UNL     1      20.324   9.723  28.819  1.00  0.00     0.093 A 
ATOM     17  C   UNL     1      18.716   7.967  29.239  1.00  0.00     0.047 A 
ATOM     18  C   UNL     1      19.165   9.034  28.455  1.00  0.00     0.119 A 
BRANCH  14  19
ATOM     19  O   UNL     1      22.159  10.125  30.308  1.00  0.00    -0.507 OA
ATOM     20  H   UNL     1      23.057  10.030  29.852  1.00  0.00     0.293 HD
ENDBRANCH  14  19
BRANCH  18  21
ATOM     21  O   UNL     1      18.465   9.419  27.313  1.00  0.00    -0.508 OA
ATOM     22  H   UNL     1      17.460   9.305  27.245  1.00  0.00     0.293 HD
ENDBRANCH  18  21
ENDBRANCH  11  13
ENDBRANCH   2  11
TORSDOF 6
ENDMDL
MODEL 3
REMARK VINA RESULT:    -6.087     10.696     12.836
REMARK INTER + INTRA:          -8.371
REMARK INTER:                  -7.724
REMARK INTRA:                  -0.647
REMARK UNBOUND:                -0.682
REMARK SMILES O=C(C=Cc1ccc(O)cc1)c1ccc(O)cc1O
REMARK SMILES IDX 4 1 3 2 5 3 6 4 7 5 8 6 11 7 10 8 9 9 2 11 1 12 12 13 18 14
REMARK SMILES IDX 13 15 17 16 14 17 15 18 19 19 16 21
REMARK H PARENT 9 10 19 20 16 22
REMARK Flexibility Score: inf
ROOT
ATOM      1  C   UNL     1      28.162   2.260  23.051  1.00  0.00     0.012 C 
ATOM      2  C   UNL     1      27.825   0.982  22.826  1.00  0.00     0.053 C 
ENDROOT
BRANCH   1   3
ATOM      3  C   UNL     1      27.347   3.195  23.866  1.00  0.00    -0.025 A 
ATOM      4  C   UNL     1      27.892   4.447  24.198  1.00  0.00     0.012 A 
ATOM      5  C   UNL     1      27.158   5.364  24.957  1.00  0.00     0.047 A 
ATOM      6  C   UNL     1      25.865   5.048  25.384  1.00  0.00     0.115 A 
ATOM      7  C   UNL     1      26.037   2.890  24.286  1.00  0.00     0.012 A 
ATOM      8  C   UNL     1      25.305   3.810  25.045  1.00  0.00     0.047 A 
BRANCH   6   9
ATOM      9  O   UNL     1      25.146   5.970  26.141  1.00  0.00    -0.508 OA
ATOM     10  H   UNL     1      25.425   6.943  26.194  1.00  0.00     0.293 HD
ENDBRANCH   6   9
ENDBRANCH   1   3
BRANCH   2  11
ATOM     11  C   UNL     1      28.668   0.077  22.014  1.00  0.00     0.189 C 
ATOM     12  O   UNL     1      28.906   0.346  20.805  1.00  0.00    -0.289 OA
BRANCH  11  13
ATOM     13  C   UNL     1      29.261  -1.136  22.619  1.00  0.00     0.064 A 
ATOM     14  C   UNL     1      29.562  -2.287  21.850  1.00  0.00     0.130 A 
ATOM     15  C   UNL     1      29.570  -1.134  23.992  1.00  0.00     0.020 A 
ATOM     16  C   UNL     1      30.189  -3.382  22.455  1.00  0.00     0.093 A 
ATOM     17  C   UNL     1      30.182  -2.240  24.586  1.00  0.00     0.047 A 
ATOM     18  C   UNL     1      30.497  -3.365  23.817  1.00  0.00     0.119 A 
BRANCH  14  19
ATOM     19  O   UNL     1      29.228  -2.387  20.497  1.00  0.00    -0.507 OA
ATOM     20  H   UNL     1      29.864  -2.145  19.749  1.00  0.00     0.293 HD
ENDBRANCH  14  19
BRANCH  18  21
ATOM     21  O   UNL     1      31.114  -4.470  24.397  1.00  0.00    -0.508 OA
ATOM     22  H   UNL     1      30.826  -4.824  25.302  1.00  0.00     0.293 HD
ENDBRANCH  18  21
ENDBRANCH  11  13
ENDBRANCH   2  11
TORSDOF 6
ENDMDL
MODEL 4
REMARK VINA RESULT:    -6.012     10.763     12.230
REMARK INTER + INTRA:          -8.275
REMARK INTER:                  -7.632
REMARK INTRA:                  -0.643
REMARK UNBOUND:                -0.682
REMARK SMILES O=C(C=Cc1ccc(O)cc1)c1ccc(O)cc1O
REMARK SMILES IDX 4 1 3 2 5 3 6 4 7 5 8 6 11 7 10 8 9 9 2 11 1 12 12 13 18 14
REMARK SMILES IDX 13 15 17 16 14 17 15 18 19 19 16 21
REMARK H PARENT 9 10 19 20 16 22
REMARK Flexibility Score: inf
ROOT
ATOM      1  C   UNL     1      26.997   1.356  24.005  1.00  0.00     0.012 C 
ATOM      2  C   UNL     1      27.968   1.204  23.092  1.00  0.00     0.053 C 
ENDROOT
BRANCH   1   3
ATOM      3  C   UNL     1      26.537   2.674  24.507  1.00  0.00    -0.025 A 
ATOM      4  C   UNL     1      25.228   2.784  25.005  1.00  0.00     0.012 A 
ATOM      5  C   UNL     1      24.754   4.005  25.496  1.00  0.00     0.047 A 
ATOM      6  C   UNL     1      25.584   5.129  25.508  1.00  0.00     0.115 A 
ATOM      7  C   UNL     1      27.374   3.808  24.537  1.00  0.00     0.012 A 
ATOM      8  C   UNL     1      26.896   5.027  25.030  1.00  0.00     0.047 A 
BRANCH   6   9
ATOM      9  O   UNL     1      25.098   6.338  25.999  1.00  0.00    -0.508 OA
ATOM     10  H   UNL     1      25.712   7.019  26.432  1.00  0.00     0.293 HD
ENDBRANCH   6   9
ENDBRANCH   1   3
BRANCH   2  11
ATOM     11  C   UNL     1      28.394  -0.127  22.609  1.00  0.00     0.189 C 
ATOM     12  O   UNL     1      29.001  -0.918  23.383  1.00  0.00    -0.289 OA
BRANCH  11  13
ATOM     13  C   UNL     1      28.089  -0.554  21.226  1.00  0.00     0.064 A 
ATOM     14  C   UNL     1      28.869  -1.525  20.553  1.00  0.00     0.130 A 
ATOM     15  C   UNL     1      26.969  -0.007  20.573  1.00  0.00     0.020 A 
ATOM     16  C   UNL     1      28.497  -1.948  19.271  1.00  0.00     0.093 A 
ATOM     17  C   UNL     1      26.617  -0.428  19.289  1.00  0.00     0.047 A 
ATOM     18  C   UNL     1      27.378  -1.403  18.637  1.00  0.00     0.119 A 
BRANCH  14  19
ATOM     19  O   UNL     1      30.030  -2.066  21.110  1.00  0.00    -0.507 OA
ATOM     20  H   UNL     1      30.765  -1.504  21.517  1.00  0.00     0.293 HD
ENDBRANCH  14  19
BRANCH  18  21
ATOM     21  O   UNL     1      27.033  -1.836  17.359  1.00  0.00    -0.508 OA
ATOM     22  H   UNL     1      27.456  -1.433  16.531  1.00  0.00     0.293 HD
ENDBRANCH  18  21
ENDBRANCH  11  13
ENDBRANCH   2  11
TORSDOF 6
ENDMDL
MODEL 5
REMARK VINA RESULT:    -5.962      2.218      7.634
REMARK INTER + INTRA:          -8.212
REMARK INTER:                  -7.526
REMARK INTRA:                  -0.686
REMARK UNBOUND:                -0.682
REMARK SMILES O=C(C=Cc1ccc(O)cc1)c1ccc(O)cc1O
REMARK SMILES IDX 4 1 3 2 5 3 6 4 7 5 8 6 11 7 10 8 9 9 2 11 1 12 12 13 18 14
REMARK SMILES IDX 13 15 17 16 14 17 15 18 19 19 16 21
REMARK H PARENT 9 10 19 20 16 22
REMARK Flexibility Score: inf
ROOT
ATOM      1  C   UNL     1      21.361   7.497  31.640  1.00  0.00     0.012 C 
ATOM      2  C   UNL     1      20.777   6.693  32.541  1.00  0.00     0.053 C 
ENDROOT
BRANCH   1   3
ATOM      3  C   UNL     1      20.641   8.114  30.499  1.00  0.00    -0.025 A 
ATOM      4  C   UNL     1      19.447   7.520  30.056  1.00  0.00     0.012 A 
ATOM      5  C   UNL     1      18.730   8.071  28.990  1.00  0.00     0.047 A 
ATOM      6  C   UNL     1      19.188   9.230  28.358  1.00  0.00     0.115 A 
ATOM      7  C   UNL     1      21.089   9.292  29.867  1.00  0.00     0.012 A 
ATOM      8  C   UNL     1      20.368   9.841  28.801  1.00  0.00     0.047 A 
BRANCH   6   9
ATOM      9  O   UNL     1      18.465   9.767  27.296  1.00  0.00    -0.508 OA
ATOM     10  H   UNL     1      18.041   9.175  26.591  1.00  0.00     0.293 HD
ENDBRANCH   6   9
ENDBRANCH   1   3
BRANCH   2  11
ATOM     11  C   UNL     1      21.526   6.102  33.671  1.00  0.00     0.189 C 
ATOM     12  O   UNL     1      21.657   6.744  34.750  1.00  0.00    -0.289 OA
BRANCH  11  13
ATOM     13  C   UNL     1      22.104   4.746  33.557  1.00  0.00     0.064 A 
ATOM     14  C   UNL     1      23.307   4.386  34.215  1.00  0.00     0.130 A 
ATOM     15  C   UNL     1      21.422   3.772  32.805  1.00  0.00     0.020 A 
ATOM     16  C   UNL     1      23.774   3.069  34.135  1.00  0.00     0.093 A 
ATOM     17  C   UNL     1      21.907   2.466  32.722  1.00  0.00     0.047 A 
ATOM     18  C   UNL     1      23.083   2.110  33.391  1.00  0.00     0.119 A 
BRANCH  14  19
ATOM     19  O   UNL     1      24.072   5.312  34.927  1.00  0.00    -0.507 OA
ATOM     20  H   UNL     1      24.246   6.255  34.605  1.00  0.00     0.293 HD
ENDBRANCH  14  19
BRANCH  18  21
ATOM     21  O   UNL     1      23.573   0.808  33.322  1.00  0.00    -0.508 OA
ATOM     22  H   UNL     1      24.243   0.531  32.612  1.00  0.00     0.293 HD
ENDBRANCH  18  21
ENDBRANCH  11  13
ENDBRANCH   2  11
TORSDOF 6
ENDMDL
MODEL 6
REMARK VINA RESULT:    -5.862      1.964      7.499
REMARK INTER + INTRA:          -8.085
REMARK INTER:                  -7.419
REMARK INTRA:                  -0.666
REMARK UNBOUND:                -0.682
REMARK SMILES O=C(C=Cc1ccc(O)cc1)c1ccc(O)cc1O
REMARK SMILES IDX 4 1 3 2 5 3 6 4 7 5 8 6 11 7 10 8 9 9 2 11 1 12 12 13 18 14
REMARK SMILES IDX 13 15 17 16 14 17 15 18 19 19 16 21
REMARK H PARENT 9 10 19 20 16 22
REMARK Flexibility Score: inf
ROOT
ATOM      1  C   UNL     1      21.505   6.069  31.025  1.00  0.00     0.012 C 
ATOM      2  C   UNL     1      21.524   6.572  32.268  1.00  0.00     0.053 C 
ENDROOT
BRANCH   1   3
ATOM      3  C   UNL     1      21.749   6.879  29.806  1.00  0.00    -0.025 A 
ATOM      4  C   UNL     1      22.860   6.569  29.004  1.00  0.00     0.012 A 
ATOM      5  C   UNL     1      23.125   7.299  27.841  1.00  0.00     0.047 A 
ATOM      6  C   UNL     1      22.277   8.341  27.456  1.00  0.00     0.115 A 
ATOM      7  C   UNL     1      20.888   7.921  29.402  1.00  0.00     0.012 A 
ATOM      8  C   UNL     1      21.156   8.648  28.237  1.00  0.00     0.047 A 
BRANCH   6   9
ATOM      9  O   UNL     1      22.554   9.061  26.296  1.00  0.00    -0.508 OA
ATOM     10  H   UNL     1      21.825   9.553  25.793  1.00  0.00     0.293 HD
ENDBRANCH   6   9
ENDBRANCH   1   3
BRANCH   2  11
ATOM     11  C   UNL     1      21.284   5.731  33.461  1.00  0.00     0.189 C 
ATOM     12  O   UNL     1      20.541   6.148  34.392  1.00  0.00    -0.289 OA
BRANCH  11  13
ATOM     13  C   UNL     1      21.890   4.385  33.561  1.00  0.00     0.064 A 
ATOM     14  C   UNL     1      21.158   3.210  33.260  1.00  0.00     0.130 A 
ATOM     15  C   UNL     1      23.243   4.270  33.928  1.00  0.00     0.020 A 
ATOM     16  C   UNL     1      21.798   1.966  33.299  1.00  0.00     0.093 A 
ATOM     17  C   UNL     1      23.865   3.021  33.977  1.00  0.00     0.047 A 
ATOM     18  C   UNL     1      23.144   1.865  33.658  1.00  0.00     0.119 A 
BRANCH  14  19
ATOM     19  O   UNL     1      19.797   3.238  32.950  1.00  0.00    -0.507 OA
ATOM     20  H   UNL     1      19.068   3.264  33.650  1.00  0.00     0.293 HD
ENDBRANCH  14  19
BRANCH  18  21
ATOM     21  O   UNL     1      23.755   0.614  33.697  1.00  0.00    -0.508 OA
ATOM     22  H   UNL     1      23.410  -0.126  34.298  1.00  0.00     0.293 HD
ENDBRANCH  18  21
ENDBRANCH  11  13
ENDBRANCH   2  11
TORSDOF 6
ENDMDL
MODEL 7
REMARK VINA RESULT:    -5.699     10.504     11.255
REMARK INTER + INTRA:          -7.880
REMARK INTER:                  -7.285
REMARK INTRA:                  -0.595
REMARK UNBOUND:                -0.682
REMARK SMILES O=C(C=Cc1ccc(O)cc1)c1ccc(O)cc1O
REMARK SMILES IDX 4 1 3 2 5 3 6 4 7 5 8 6 11 7 10 8 9 9 2 11 1 12 12 13 18 14
REMARK SMILES IDX 13 15 17 16 14 17 15 18 19 19 16 21
REMARK H PARENT 9 10 19 20 16 22
REMARK Flexibility Score: inf
ROOT
ATOM      1  C   UNL     1      29.176   0.241  22.234  1.00  0.00     0.012 C 
ATOM      2  C   UNL     1      28.734   1.201  23.060  1.00  0.00     0.053 C 
ENDROOT
BRANCH   1   3
ATOM      3  C   UNL     1      29.665  -1.081  22.696  1.00  0.00    -0.025 A 
ATOM      4  C   UNL     1      30.050  -2.029  21.733  1.00  0.00     0.012 A 
ATOM      5  C   UNL     1      30.525  -3.286  22.121  1.00  0.00     0.047 A 
ATOM      6  C   UNL     1      30.634  -3.609  23.476  1.00  0.00     0.115 A 
ATOM      7  C   UNL     1      29.793  -1.408  24.061  1.00  0.00     0.012 A 
ATOM      8  C   UNL     1      30.270  -2.666  24.446  1.00  0.00     0.047 A 
BRANCH   6   9
ATOM      9  O   UNL     1      31.108  -4.865  23.849  1.00  0.00    -0.508 OA
ATOM     10  H   UNL     1      32.043  -5.170  23.607  1.00  0.00     0.293 HD
ENDBRANCH   6   9
ENDBRANCH   1   3
BRANCH   2  11
ATOM     11  C   UNL     1      28.246   2.506  22.562  1.00  0.00     0.189 C 
ATOM     12  O   UNL     1      28.340   2.792  21.337  1.00  0.00    -0.289 OA
BRANCH  11  13
ATOM     13  C   UNL     1      27.620   3.473  23.489  1.00  0.00     0.064 A 
ATOM     14  C   UNL     1      28.105   4.797  23.630  1.00  0.00     0.130 A 
ATOM     15  C   UNL     1      26.486   3.081  24.224  1.00  0.00     0.020 A 
ATOM     16  C   UNL     1      27.434   5.696  24.466  1.00  0.00     0.093 A 
ATOM     17  C   UNL     1      25.835   3.985  25.066  1.00  0.00     0.047 A 
ATOM     18  C   UNL     1      26.305   5.297  25.185  1.00  0.00     0.119 A 
BRANCH  14  19
ATOM     19  O   UNL     1      29.260   5.240  22.983  1.00  0.00    -0.507 OA
ATOM     20  H   UNL     1      29.297   5.449  21.994  1.00  0.00     0.293 HD
ENDBRANCH  14  19
BRANCH  18  21
ATOM     21  O   UNL     1      25.659   6.209  26.016  1.00  0.00    -0.508 OA
ATOM     22  H   UNL     1      24.651   6.207  26.123  1.00  0.00     0.293 HD
ENDBRANCH  18  21
ENDBRANCH  11  13
ENDBRANCH   2  11
TORSDOF 6
ENDMDL
MODEL 8
REMARK VINA RESULT:    -5.583     10.253     11.600
REMARK INTER + INTRA:          -7.734
REMARK INTER:                  -7.111
REMARK INTRA:                  -0.623
REMARK UNBOUND:                -0.682
REMARK SMILES O=C(C=Cc1ccc(O)cc1)c1ccc(O)cc1O
REMARK SMILES IDX 4 1 3 2 5 3 6 4 7 5 8 6 11 7 10 8 9 9 2 11 1 12 12 13 18 14
REMARK SMILES IDX 13 15 17 16 14 17 15 18 19 19 16 21
REMARK H PARENT 9 10 19 20 16 22
REMARK Flexibility Score: inf
ROOT
ATOM      1  C   UNL     1      27.362   0.550  22.914  1.00  0.00     0.012 C 
ATOM      2  C   UNL     1      26.727   1.725  22.784  1.00  0.00     0.053 C 
ENDROOT
BRANCH   1   3
ATOM      3  C   UNL     1      27.739  -0.313  21.768  1.00  0.00    -0.025 A 
ATOM      4  C   UNL     1      28.761  -1.260  21.948  1.00  0.00     0.012 A 
ATOM      5  C   UNL     1      29.145  -2.102  20.898  1.00  0.00     0.047 A 
ATOM      6  C   UNL     1      28.505  -2.017  19.659  1.00  0.00     0.115 A 
ATOM      7  C   UNL     1      27.087  -0.244  20.520  1.00  0.00     0.012 A 
ATOM      8  C   UNL     1      27.473  -1.089  19.473  1.00  0.00     0.047 A 
BRANCH   6   9
ATOM      9  O   UNL     1      28.898  -2.860  18.622  1.00  0.00    -0.508 OA
ATOM     10  H   UNL     1      28.235  -3.466  18.153  1.00  0.00     0.293 HD
ENDBRANCH   6   9
ENDBRANCH   1   3
BRANCH   2  11
ATOM     11  C   UNL     1      26.374   2.562  23.951  1.00  0.00     0.189 C 
ATOM     12  O   UNL     1      25.405   2.242  24.692  1.00  0.00    -0.289 OA
BRANCH  11  13
ATOM     13  C   UNL     1      27.170   3.767  24.274  1.00  0.00     0.064 A 
ATOM     14  C   UNL     1      26.628   4.847  25.013  1.00  0.00     0.130 A 
ATOM     15  C   UNL     1      28.516   3.826  23.868  1.00  0.00     0.020 A 
ATOM     16  C   UNL     1      27.443   5.932  25.356  1.00  0.00     0.093 A 
ATOM     17  C   UNL     1      29.314   4.922  24.205  1.00  0.00     0.047 A 
ATOM     18  C   UNL     1      28.780   5.975  24.954  1.00  0.00     0.119 A 
BRANCH  14  19
ATOM     19  O   UNL     1      25.285   4.888  25.397  1.00  0.00    -0.507 OA
ATOM     20  H   UNL     1      24.642   4.122  25.250  1.00  0.00     0.293 HD
ENDBRANCH  14  19
BRANCH  18  21
ATOM     21  O   UNL     1      29.568   7.070  25.302  1.00  0.00    -0.508 OA
ATOM     22  H   UNL     1      29.953   7.690  24.598  1.00  0.00     0.293 HD
ENDBRANCH  18  21
ENDBRANCH  11  13
ENDBRANCH   2  11
TORSDOF 6
ENDMDL
