MODEL 1
REMARK VINA RESULT:    -5.197      0.000      0.000
REMARK INTER + INTRA:          -9.862
REMARK INTER:                  -9.147
REMARK INTRA:                  -0.715
REMARK UNBOUND:                -0.715
REMARK SMILES CCCCCCCCCCCCCCC(=O)[O-]
REMARK SMILES IDX 9 1 10 2 11 3 12 4 13 5 14 6 15 7 16 8 17 9 8 10 7 11 6 12
REMARK SMILES IDX 5 13 4 14 3 15 2 16 1 17
REMARK H PARENT
REMARK Flexibility Score: inf
ROOT
ATOM      1  C   UNL     1      57.187 143.743 -30.212  1.00  0.00     0.000 C 
ENDROOT
BRANCH   1   2
ATOM      2  C   UNL     1      56.898 144.000 -28.722  1.00  0.00     0.000 C 
BRANCH   2   3
ATOM      3  C   UNL     1      55.405 143.992 -28.341  1.00  0.00     0.000 C 
BRANCH   3   4
ATOM      4  C   UNL     1      55.136 144.405 -26.878  1.00  0.00     0.000 C 
BRANCH   4   5
ATOM      5  C   UNL     1      56.189 143.845 -25.906  1.00  0.00     0.006 C 
BRANCH   5   6
ATOM      6  C   UNL     1      55.663 143.761 -24.467  1.00  0.00     0.053 C 
BRANCH   6   7
ATOM      7  C   UNL     1      54.939 142.473 -24.216  1.00  0.00     0.041 C 
ATOM      8  O   UNL     1      55.473 141.375 -24.524  1.00  0.00    -0.550 OA
ATOM      9  O   UNL     1      53.660 142.488 -23.674  1.00  0.00    -0.550 OA
ENDBRANCH   6   7
ENDBRANCH   5   6
ENDBRANCH   4   5
ENDBRANCH   3   4
ENDBRANCH   2   3
ENDBRANCH   1   2
BRANCH   1  10
ATOM     10  C   UNL     1      58.644 144.002 -30.647  1.00  0.00     0.000 C 
BRANCH  10  11
ATOM     11  C   UNL     1      58.823 144.449 -32.112  1.00  0.00    -0.000 C 
BRANCH  11  12
ATOM     12  C   UNL     1      59.880 143.659 -32.906  1.00  0.00    -0.000 C 
BRANCH  12  13
ATOM     13  C   UNL     1      60.882 144.572 -33.632  1.00  0.00    -0.000 C 
BRANCH  13  14
ATOM     14  C   UNL     1      60.359 145.057 -34.993  1.00  0.00    -0.000 C 
BRANCH  14  15
ATOM     15  C   UNL     1      60.369 146.589 -35.117  1.00  0.00    -0.000 C 
BRANCH  15  16
ATOM     16  C   UNL     1      60.894 147.239 -33.832  1.00  0.00    -0.003 C 
ATOM     17  C   UNL     1      59.785 147.992 -33.102  1.00  0.00     0.004 C 
ENDBRANCH  15  16
ENDBRANCH  14  15
ENDBRANCH  13  14
ENDBRANCH  12  13
ENDBRANCH  11  12
ENDBRANCH  10  11
ENDBRANCH   1  10
TORSDOF 13
ENDMDL
MODEL 2
REMARK VINA RESULT:    -4.471      4.644      9.608
REMARK INTER + INTRA:          -8.584
REMARK INTER:                  -8.093
REMARK INTRA:                  -0.491
REMARK UNBOUND:                -0.715
REMARK SMILES CCCCCCCCCCCCCCC(=O)[O-]
REMARK SMILES IDX 9 1 10 2 11 3 12 4 13 5 14 6 15 7 16 8 17 9 8 10 7 11 6 12
REMARK SMILES IDX 5 13 4 14 3 15 2 16 1 17
REMARK H PARENT
REMARK Flexibility Score: inf
ROOT
ATOM      1  C   UNL     1      57.439 143.748 -30.489  1.00  0.00     0.000 C 
ENDROOT
BRANCH   1   2
ATOM      2  C   UNL     1      58.903 144.145 -30.759  1.00  0.00     0.000 C 
BRANCH   2   3
ATOM      3  C   UNL     1      59.605 143.318 -31.853  1.00  0.00     0.000 C 
BRANCH   3   4
ATOM      4  C   UNL     1      59.952 144.134 -33.118  1.00  0.00     0.000 C 
BRANCH   4   5
ATOM      5  C   UNL     1      59.289 145.521 -33.122  1.00  0.00     0.006 C 
BRANCH   5   6
ATOM      6  C   UNL     1      59.396 146.211 -34.489  1.00  0.00     0.053 C 
BRANCH   6   7
ATOM      7  C   UNL     1      60.462 147.264 -34.497  1.00  0.00     0.041 C 
ATOM      8  O   UNL     1      61.537 147.072 -35.124  1.00  0.00    -0.550 OA
ATOM      9  O   UNL     1      60.283 148.442 -33.784  1.00  0.00    -0.550 OA
ENDBRANCH   6   7
ENDBRANCH   5   6
ENDBRANCH   4   5
ENDBRANCH   3   4
ENDBRANCH   2   3
ENDBRANCH   1   2
BRANCH   1  10
ATOM     10  C   UNL     1      57.003 143.837 -29.012  1.00  0.00     0.000 C 
BRANCH  10  11
ATOM     11  C   UNL     1      55.506 144.130 -28.785  1.00  0.00    -0.000 C 
BRANCH  11  12
ATOM     12  C   UNL     1      55.066 144.152 -27.310  1.00  0.00    -0.000 C 
BRANCH  12  13
ATOM     13  C   UNL     1      56.222 143.856 -26.341  1.00  0.00    -0.000 C 
BRANCH  13  14
ATOM     14  C   UNL     1      55.893 142.720 -25.359  1.00  0.00    -0.000 C 
BRANCH  14  15
ATOM     15  C   UNL     1      56.498 142.951 -23.966  1.00  0.00    -0.000 C 
BRANCH  15  16
ATOM     16  C   UNL     1      56.361 141.698 -23.094  1.00  0.00    -0.003 C 
ATOM     17  C   UNL     1      57.557 141.544 -22.158  1.00  0.00     0.004 C 
ENDBRANCH  15  16
ENDBRANCH  14  15
ENDBRANCH  13  14
ENDBRANCH  12  13
ENDBRANCH  11  12
ENDBRANCH  10  11
ENDBRANCH   1  10
TORSDOF 13
ENDMDL
MODEL 3
REMARK VINA RESULT:    -4.340     11.053     12.382
REMARK INTER + INTRA:          -8.354
REMARK INTER:                  -7.325
REMARK INTRA:                  -1.029
REMARK UNBOUND:                -0.715
REMARK SMILES CCCCCCCCCCCCCCC(=O)[O-]
REMARK SMILES IDX 9 1 10 2 11 3 12 4 13 5 14 6 15 7 16 8 17 9 8 10 7 11 6 12
REMARK SMILES IDX 5 13 4 14 3 15 2 16 1 17
REMARK H PARENT
REMARK Flexibility Score: inf
ROOT
ATOM      1  C   UNL     1      49.579 153.693 -29.521  1.00  0.00     0.000 C 
ENDROOT
BRANCH   1   2
ATOM      2  C   UNL     1      49.087 155.118 -29.202  1.00  0.00     0.000 C 
BRANCH   2   3
ATOM      3  C   UNL     1      49.745 155.768 -27.970  1.00  0.00     0.000 C 
BRANCH   3   4
ATOM      4  C   UNL     1      50.298 154.747 -26.951  1.00  0.00     0.000 C 
BRANCH   4   5
ATOM      5  C   UNL     1      51.660 155.170 -26.376  1.00  0.00     0.006 C 
BRANCH   5   6
ATOM      6  C   UNL     1      51.999 154.422 -25.080  1.00  0.00     0.053 C 
BRANCH   6   7
ATOM      7  C   UNL     1      52.048 152.939 -25.291  1.00  0.00     0.041 C 
ATOM      8  O   UNL     1      52.870 152.443 -26.105  1.00  0.00    -0.550 OA
ATOM      9  O   UNL     1      51.163 152.110 -24.615  1.00  0.00    -0.550 OA
ENDBRANCH   6   7
ENDBRANCH   5   6
ENDBRANCH   4   5
ENDBRANCH   3   4
ENDBRANCH   2   3
ENDBRANCH   1   2
BRANCH   1  10
ATOM     10  C   UNL     1      48.846 152.998 -30.687  1.00  0.00     0.000 C 
BRANCH  10  11
ATOM     11  C   UNL     1      47.901 153.903 -31.502  1.00  0.00    -0.000 C 
BRANCH  11  12
ATOM     12  C   UNL     1      48.169 153.921 -33.018  1.00  0.00    -0.000 C 
BRANCH  12  13
ATOM     13  C   UNL     1      49.596 153.472 -33.375  1.00  0.00    -0.000 C 
BRANCH  13  14
ATOM     14  C   UNL     1      50.601 154.635 -33.361  1.00  0.00    -0.000 C 
BRANCH  14  15
ATOM     15  C   UNL     1      51.900 154.282 -32.621  1.00  0.00    -0.000 C 
BRANCH  15  16
ATOM     16  C   UNL     1      53.084 154.222 -33.592  1.00  0.00    -0.003 C 
ATOM     17  C   UNL     1      54.383 153.897 -32.859  1.00  0.00     0.004 C 
ENDBRANCH  15  16
ENDBRANCH  14  15
ENDBRANCH  13  14
ENDBRANCH  12  13
ENDBRANCH  11  12
ENDBRANCH  10  11
ENDBRANCH   1  10
TORSDOF 13
ENDMDL
MODEL 4
REMARK VINA RESULT:    -4.150     11.800     13.031
REMARK INTER + INTRA:          -8.018
REMARK INTER:                  -7.104
REMARK INTRA:                  -0.914
REMARK UNBOUND:                -0.715
REMARK SMILES CCCCCCCCCCCCCCC(=O)[O-]
REMARK SMILES IDX 9 1 10 2 11 3 12 4 13 5 14 6 15 7 16 8 17 9 8 10 7 11 6 12
REMARK SMILES IDX 5 13 4 14 3 15 2 16 1 17
REMARK H PARENT
REMARK Flexibility Score: inf
ROOT
ATOM      1  C   UNL     1      49.293 156.021 -28.253  1.00  0.00     0.000 C 
ENDROOT
BRANCH   1   2
ATOM      2  C   UNL     1      50.258 156.552 -27.177  1.00  0.00     0.000 C 
BRANCH   2   3
ATOM      3  C   UNL     1      50.526 155.580 -26.012  1.00  0.00     0.000 C 
BRANCH   3   4
ATOM      4  C   UNL     1      51.930 154.939 -26.050  1.00  0.00     0.000 C 
BRANCH   4   5
ATOM      5  C   UNL     1      52.002 153.633 -25.239  1.00  0.00     0.006 C 
BRANCH   5   6
ATOM      6  C   UNL     1      51.670 153.853 -23.757  1.00  0.00     0.053 C 
BRANCH   6   7
ATOM      7  C   UNL     1      50.551 152.966 -23.303  1.00  0.00     0.041 C 
ATOM      8  O   UNL     1      49.518 152.836 -24.010  1.00  0.00    -0.550 OA
ATOM      9  O   UNL     1      50.635 152.309 -22.082  1.00  0.00    -0.550 OA
ENDBRANCH   6   7
ENDBRANCH   5   6
ENDBRANCH   4   5
ENDBRANCH   3   4
ENDBRANCH   2   3
ENDBRANCH   1   2
BRANCH   1  10
ATOM     10  C   UNL     1      49.422 154.514 -28.557  1.00  0.00     0.000 C 
BRANCH  10  11
ATOM     11  C   UNL     1      49.532 154.151 -30.051  1.00  0.00    -0.000 C 
BRANCH  11  12
ATOM     12  C   UNL     1      48.582 153.034 -30.519  1.00  0.00    -0.000 C 
BRANCH  12  13
ATOM     13  C   UNL     1      47.629 153.494 -31.635  1.00  0.00    -0.000 C 
BRANCH  13  14
ATOM     14  C   UNL     1      48.358 154.229 -32.770  1.00  0.00    -0.000 C 
BRANCH  14  15
ATOM     15  C   UNL     1      49.015 153.265 -33.770  1.00  0.00    -0.000 C 
BRANCH  15  16
ATOM     16  C   UNL     1      50.271 153.890 -34.388  1.00  0.00    -0.003 C 
ATOM     17  C   UNL     1      51.280 154.281 -33.311  1.00  0.00     0.004 C 
ENDBRANCH  15  16
ENDBRANCH  14  15
ENDBRANCH  13  14
ENDBRANCH  12  13
ENDBRANCH  11  12
ENDBRANCH  10  11
ENDBRANCH   1  10
TORSDOF 13
ENDMDL
MODEL 5
REMARK VINA RESULT:    -4.147      9.939     12.847
REMARK INTER + INTRA:          -8.013
REMARK INTER:                  -6.436
REMARK INTRA:                  -1.577
REMARK UNBOUND:                -0.715
REMARK SMILES CCCCCCCCCCCCCCC(=O)[O-]
REMARK SMILES IDX 9 1 10 2 11 3 12 4 13 5 14 6 15 7 16 8 17 9 8 10 7 11 6 12
REMARK SMILES IDX 5 13 4 14 3 15 2 16 1 17
REMARK H PARENT
REMARK Flexibility Score: inf
ROOT
ATOM      1  C   UNL     1      59.048 144.164 -20.971  1.00  0.00     0.000 C 
ENDROOT
BRANCH   1   2
ATOM      2  C   UNL     1      60.367 144.458 -21.709  1.00  0.00     0.000 C 
BRANCH   2   3
ATOM      3  C   UNL     1      61.632 144.361 -20.835  1.00  0.00     0.000 C 
BRANCH   3   4
ATOM      4  C   UNL     1      62.641 145.505 -21.076  1.00  0.00     0.000 C 
BRANCH   4   5
ATOM      5  C   UNL     1      61.969 146.774 -21.629  1.00  0.00     0.006 C 
BRANCH   5   6
ATOM      6  C   UNL     1      62.224 147.999 -20.741  1.00  0.00     0.053 C 
BRANCH   6   7
ATOM      7  C   UNL     1      62.297 149.261 -21.545  1.00  0.00     0.041 C 
ATOM      8  O   UNL     1      63.374 149.909 -21.610  1.00  0.00    -0.550 OA
ATOM      9  O   UNL     1      61.167 149.739 -22.196  1.00  0.00    -0.550 OA
ENDBRANCH   6   7
ENDBRANCH   5   6
ENDBRANCH   4   5
ENDBRANCH   3   4
ENDBRANCH   2   3
ENDBRANCH   1   2
BRANCH   1  10
ATOM     10  C   UNL     1      59.092 142.953 -20.016  1.00  0.00     0.000 C 
BRANCH  10  11
ATOM     11  C   UNL     1      59.036 143.300 -18.514  1.00  0.00    -0.000 C 
BRANCH  11  12
ATOM     12  C   UNL     1      59.181 144.797 -18.189  1.00  0.00    -0.000 C 
BRANCH  12  13
ATOM     13  C   UNL     1      60.427 145.103 -17.340  1.00  0.00    -0.000 C 
BRANCH  13  14
ATOM     14  C   UNL     1      60.987 146.511 -17.599  1.00  0.00    -0.000 C 
BRANCH  14  15
ATOM     15  C   UNL     1      59.881 147.565 -17.759  1.00  0.00    -0.000 C 
BRANCH  15  16
ATOM     16  C   UNL     1      59.687 148.358 -16.462  1.00  0.00    -0.003 C 
ATOM     17  C   UNL     1      58.643 149.458 -16.639  1.00  0.00     0.004 C 
ENDBRANCH  15  16
ENDBRANCH  14  15
ENDBRANCH  13  14
ENDBRANCH  12  13
ENDBRANCH  11  12
ENDBRANCH  10  11
ENDBRANCH   1  10
TORSDOF 13
ENDMDL
MODEL 6
REMARK VINA RESULT:    -4.116     11.165     14.453
REMARK INTER + INTRA:          -7.960
REMARK INTER:                  -6.158
REMARK INTRA:                  -1.802
REMARK UNBOUND:                -0.715
REMARK SMILES CCCCCCCCCCCCCCC(=O)[O-]
REMARK SMILES IDX 9 1 10 2 11 3 12 4 13 5 14 6 15 7 16 8 17 9 8 10 7 11 6 12
REMARK SMILES IDX 5 13 4 14 3 15 2 16 1 17
REMARK H PARENT
REMARK Flexibility Score: inf
ROOT
ATOM      1  C   UNL     1      60.398 148.852 -15.616  1.00  0.00     0.000 C 
ENDROOT
BRANCH   1   2
ATOM      2  C   UNL     1      59.584 148.230 -16.765  1.00  0.00     0.000 C 
BRANCH   2   3
ATOM      3  C   UNL     1      60.130 148.521 -18.176  1.00  0.00     0.000 C 
BRANCH   3   4
ATOM      4  C   UNL     1      60.868 147.324 -18.814  1.00  0.00     0.000 C 
BRANCH   4   5
ATOM      5  C   UNL     1      62.231 147.722 -19.406  1.00  0.00     0.006 C 
BRANCH   5   6
ATOM      6  C   UNL     1      62.227 147.697 -20.940  1.00  0.00     0.053 C 
BRANCH   6   7
ATOM      7  C   UNL     1      62.164 149.078 -21.517  1.00  0.00     0.041 C 
ATOM      8  O   UNL     1      61.082 149.521 -21.984  1.00  0.00    -0.550 OA
ATOM      9  O   UNL     1      63.308 149.863 -21.570  1.00  0.00    -0.550 OA
ENDBRANCH   6   7
ENDBRANCH   5   6
ENDBRANCH   4   5
ENDBRANCH   3   4
ENDBRANCH   2   3
ENDBRANCH   1   2
BRANCH   1  10
ATOM     10  C   UNL     1      61.388 147.891 -14.926  1.00  0.00     0.000 C 
BRANCH  10  11
ATOM     11  C   UNL     1      62.723 147.678 -15.668  1.00  0.00    -0.000 C 
BRANCH  11  12
ATOM     12  C   UNL     1      63.076 146.208 -15.957  1.00  0.00    -0.000 C 
BRANCH  12  13
ATOM     13  C   UNL     1      62.041 145.224 -15.385  1.00  0.00    -0.000 C 
BRANCH  13  14
ATOM     14  C   UNL     1      60.953 144.853 -16.405  1.00  0.00    -0.000 C 
BRANCH  14  15
ATOM     15  C   UNL     1      61.483 143.949 -17.529  1.00  0.00    -0.000 C 
BRANCH  15  16
ATOM     16  C   UNL     1      60.358 143.558 -18.494  1.00  0.00    -0.003 C 
ATOM     17  C   UNL     1      59.037 144.213 -18.095  1.00  0.00     0.004 C 
ENDBRANCH  15  16
ENDBRANCH  14  15
ENDBRANCH  13  14
ENDBRANCH  12  13
ENDBRANCH  11  12
ENDBRANCH  10  11
ENDBRANCH   1  10
TORSDOF 13
ENDMDL
MODEL 7
REMARK VINA RESULT:    -4.092      6.191     12.311
REMARK INTER + INTRA:          -7.917
REMARK INTER:                  -6.989
REMARK INTRA:                  -0.928
REMARK UNBOUND:                -0.715
REMARK SMILES CCCCCCCCCCCCCCC(=O)[O-]
REMARK SMILES IDX 9 1 10 2 11 3 12 4 13 5 14 6 15 7 16 8 17 9 8 10 7 11 6 12
REMARK SMILES IDX 5 13 4 14 3 15 2 16 1 17
REMARK H PARENT
REMARK Flexibility Score: inf
ROOT
ATOM      1  C   UNL     1      52.659 142.038 -23.104  1.00  0.00     0.000 C 
ENDROOT
BRANCH   1   2
ATOM      2  C   UNL     1      53.011 140.606 -23.546  1.00  0.00     0.000 C 
BRANCH   2   3
ATOM      3  C   UNL     1      54.439 140.433 -24.098  1.00  0.00     0.000 C 
BRANCH   3   4
ATOM      4  C   UNL     1      55.451 141.452 -23.530  1.00  0.00     0.000 C 
BRANCH   4   5
ATOM      5  C   UNL     1      56.218 142.196 -24.637  1.00  0.00     0.006 C 
BRANCH   5   6
ATOM      6  C   UNL     1      55.358 142.421 -25.888  1.00  0.00     0.053 C 
BRANCH   6   7
ATOM      7  C   UNL     1      55.552 143.795 -26.455  1.00  0.00     0.041 C 
ATOM      8  O   UNL     1      54.575 144.582 -26.555  1.00  0.00    -0.550 OA
ATOM      9  O   UNL     1      56.804 144.192 -26.904  1.00  0.00    -0.550 OA
ENDBRANCH   6   7
ENDBRANCH   5   6
ENDBRANCH   4   5
ENDBRANCH   3   4
ENDBRANCH   2   3
ENDBRANCH   1   2
BRANCH   1  10
ATOM     10  C   UNL     1      51.183 142.253 -22.708  1.00  0.00     0.000 C 
BRANCH  10  11
ATOM     11  C   UNL     1      50.329 140.971 -22.638  1.00  0.00    -0.000 C 
BRANCH  11  12
ATOM     12  C   UNL     1      49.808 140.615 -21.233  1.00  0.00    -0.000 C 
BRANCH  12  13
ATOM     13  C   UNL     1      50.821 139.799 -20.414  1.00  0.00    -0.000 C 
BRANCH  13  14
ATOM     14  C   UNL     1      50.645 139.990 -18.899  1.00  0.00    -0.000 C 
BRANCH  14  15
ATOM     15  C   UNL     1      50.635 141.470 -18.488  1.00  0.00    -0.000 C 
BRANCH  15  16
ATOM     16  C   UNL     1      51.726 141.758 -17.450  1.00  0.00    -0.003 C 
ATOM     17  C   UNL     1      51.768 143.241 -17.092  1.00  0.00     0.004 C 
ENDBRANCH  15  16
ENDBRANCH  14  15
ENDBRANCH  13  14
ENDBRANCH  12  13
ENDBRANCH  11  12
ENDBRANCH  10  11
ENDBRANCH   1  10
TORSDOF 13
ENDMDL
MODEL 8
REMARK VINA RESULT:    -4.079      4.761      7.733
REMARK INTER + INTRA:          -7.893
REMARK INTER:                  -6.450
REMARK INTRA:                  -1.443
REMARK UNBOUND:                -0.715
REMARK SMILES CCCCCCCCCCCCCCC(=O)[O-]
REMARK SMILES IDX 9 1 10 2 11 3 12 4 13 5 14 6 15 7 16 8 17 9 8 10 7 11 6 12
REMARK SMILES IDX 5 13 4 14 3 15 2 16 1 17
REMARK H PARENT
REMARK Flexibility Score: inf
ROOT
ATOM      1  C   UNL     1      55.801 139.902 -24.407  1.00  0.00     0.000 C 
ENDROOT
BRANCH   1   2
ATOM      2  C   UNL     1      56.415 140.098 -23.009  1.00  0.00     0.000 C 
BRANCH   2   3
ATOM      3  C   UNL     1      57.776 140.820 -22.996  1.00  0.00     0.000 C 
BRANCH   3   4
ATOM      4  C   UNL     1      57.857 141.969 -21.967  1.00  0.00     0.000 C 
BRANCH   4   5
ATOM      5  C   UNL     1      58.394 143.273 -22.583  1.00  0.00     0.006 C 
BRANCH   5   6
ATOM      6  C   UNL     1      59.834 143.570 -22.146  1.00  0.00     0.053 C 
BRANCH   6   7
ATOM      7  C   UNL     1      59.917 144.817 -21.319  1.00  0.00     0.041 C 
ATOM      8  O   UNL     1      59.047 145.053 -20.441  1.00  0.00    -0.550 OA
ATOM      9  O   UNL     1      60.936 145.734 -21.541  1.00  0.00    -0.550 OA
ENDBRANCH   6   7
ENDBRANCH   5   6
ENDBRANCH   4   5
ENDBRANCH   3   4
ENDBRANCH   2   3
ENDBRANCH   1   2
BRANCH   1  10
ATOM     10  C   UNL     1      54.672 140.890 -24.767  1.00  0.00     0.000 C 
BRANCH  10  11
ATOM     11  C   UNL     1      54.396 141.983 -23.715  1.00  0.00    -0.000 C 
BRANCH  11  12
ATOM     12  C   UNL     1      55.022 143.355 -24.026  1.00  0.00    -0.000 C 
BRANCH  12  13
ATOM     13  C   UNL     1      55.186 143.605 -25.534  1.00  0.00    -0.000 C 
BRANCH  13  14
ATOM     14  C   UNL     1      56.634 143.943 -25.923  1.00  0.00    -0.000 C 
BRANCH  14  15
ATOM     15  C   UNL     1      56.776 144.305 -27.409  1.00  0.00    -0.000 C 
BRANCH  15  16
ATOM     16  C   UNL     1      55.699 143.609 -28.248  1.00  0.00    -0.003 C 
ATOM     17  C   UNL     1      55.988 143.746 -29.741  1.00  0.00     0.004 C 
ENDBRANCH  15  16
ENDBRANCH  14  15
ENDBRANCH  13  14
ENDBRANCH  12  13
ENDBRANCH  11  12
ENDBRANCH  10  11
ENDBRANCH   1  10
TORSDOF 13
ENDMDL
MODEL 9
REMARK VINA RESULT:    -3.980     11.904     13.594
REMARK INTER + INTRA:          -7.720
REMARK INTER:                  -6.213
REMARK INTRA:                  -1.507
REMARK UNBOUND:                -0.715
REMARK SMILES CCCCCCCCCCCCCCC(=O)[O-]
REMARK SMILES IDX 9 1 10 2 11 3 12 4 13 5 14 6 15 7 16 8 17 9 8 10 7 11 6 12
REMARK SMILES IDX 5 13 4 14 3 15 2 16 1 17
REMARK H PARENT
REMARK Flexibility Score: inf
ROOT
ATOM      1  C   UNL     1      47.107 154.988 -27.297  1.00  0.00     0.000 C 
ENDROOT
BRANCH   1   2
ATOM      2  C   UNL     1      47.955 156.050 -28.021  1.00  0.00     0.000 C 
BRANCH   2   3
ATOM      3  C   UNL     1      49.476 155.818 -27.956  1.00  0.00     0.000 C 
BRANCH   3   4
ATOM      4  C   UNL     1      49.926 155.002 -26.724  1.00  0.00     0.000 C 
BRANCH   4   5
ATOM      5  C   UNL     1      51.411 155.218 -26.386  1.00  0.00     0.006 C 
BRANCH   5   6
ATOM      6  C   UNL     1      52.183 153.896 -26.290  1.00  0.00     0.053 C 
BRANCH   6   7
ATOM      7  C   UNL     1      51.875 153.165 -25.018  1.00  0.00     0.041 C 
ATOM      8  O   UNL     1      51.728 151.915 -25.026  1.00  0.00    -0.550 OA
ATOM      9  O   UNL     1      51.719 153.869 -23.832  1.00  0.00    -0.550 OA
ENDBRANCH   6   7
ENDBRANCH   5   6
ENDBRANCH   4   5
ENDBRANCH   3   4
ENDBRANCH   2   3
ENDBRANCH   1   2
BRANCH   1  10
ATOM     10  C   UNL     1      46.604 153.836 -28.191  1.00  0.00     0.000 C 
BRANCH  10  11
ATOM     11  C   UNL     1      46.316 154.220 -29.657  1.00  0.00    -0.000 C 
BRANCH  11  12
ATOM     12  C   UNL     1      47.125 153.432 -30.703  1.00  0.00    -0.000 C 
BRANCH  12  13
ATOM     13  C   UNL     1      48.461 152.908 -30.150  1.00  0.00    -0.000 C 
BRANCH  13  14
ATOM     14  C   UNL     1      49.677 153.556 -30.831  1.00  0.00    -0.000 C 
BRANCH  14  15
ATOM     15  C   UNL     1      49.300 154.319 -32.110  1.00  0.00    -0.000 C 
BRANCH  15  16
ATOM     16  C   UNL     1      49.903 153.646 -33.348  1.00  0.00    -0.003 C 
ATOM     17  C   UNL     1      48.816 153.233 -34.336  1.00  0.00     0.004 C 
ENDBRANCH  15  16
ENDBRANCH  14  15
ENDBRANCH  13  14
ENDBRANCH  12  13
ENDBRANCH  11  12
ENDBRANCH  10  11
ENDBRANCH   1  10
TORSDOF 13
ENDMDL
