MODEL 1
REMARK VINA RESULT:    -4.775      0.000      0.000
REMARK INTER + INTRA:          -7.351
REMARK INTER:                  -6.450
REMARK INTRA:                  -0.901
REMARK UNBOUND:                -0.901
REMARK SMILES CC(=O)CCC=C(C)CCC=C(C)C
REMARK SMILES IDX 7 1 6 2 8 3 9 4 10 5 11 6 13 7 12 8 14 9 5 10 4 11 2 12 3 13
REMARK SMILES IDX 1 14
REMARK H PARENT
REMARK Flexibility Score: inf
ROOT
ATOM      1  C   UNL     1      -6.804  37.543  -2.754  1.00  0.00    -0.077 C 
ATOM      2  C   UNL     1      -7.549  37.522  -3.883  1.00  0.00    -0.028 C 
ATOM      3  C   UNL     1      -5.377  37.062  -2.834  1.00  0.00     0.039 C 
ENDROOT
BRANCH   1   4
ATOM      4  C   UNL     1      -7.349  37.993  -1.410  1.00  0.00     0.034 C 
BRANCH   4   5
ATOM      5  C   UNL     1      -7.288  36.871  -0.364  1.00  0.00     0.032 C 
BRANCH   5   6
ATOM      6  C   UNL     1      -8.133  35.684  -0.763  1.00  0.00    -0.028 C 
ATOM      7  C   UNL     1      -9.904  33.994  -0.559  1.00  0.00     0.039 C 
ATOM      8  C   UNL     1      -9.190  35.223  -0.059  1.00  0.00    -0.080 C 
ATOM      9  C   UNL     1      -9.682  35.913   1.192  1.00  0.00     0.039 C 
ENDBRANCH   5   6
ENDBRANCH   4   5
ENDBRANCH   1   4
BRANCH   2  10
ATOM     10  C   UNL     1      -8.966  38.034  -3.994  1.00  0.00     0.035 C 
BRANCH  10  11
ATOM     11  C   UNL     1      -9.983  36.884  -3.968  1.00  0.00     0.079 C 
BRANCH  11  12
ATOM     12  C   UNL     1     -11.210  37.210  -4.781  1.00  0.00     0.130 C 
ATOM     13  O   UNL     1     -12.181  36.471  -4.727  1.00  0.00    -0.300 OA
ATOM     14  C   UNL     1     -11.264  38.428  -5.654  1.00  0.00     0.087 C 
ENDBRANCH  11  12
ENDBRANCH  10  11
ENDBRANCH   2  10
TORSDOF 6
ENDMDL
MODEL 2
REMARK VINA RESULT:    -4.761      7.941     10.754
REMARK INTER + INTRA:          -7.332
REMARK INTER:                  -6.893
REMARK INTRA:                  -0.438
REMARK UNBOUND:                -0.901
REMARK SMILES CC(=O)CCC=C(C)CCC=C(C)C
REMARK SMILES IDX 7 1 6 2 8 3 9 4 10 5 11 6 13 7 12 8 14 9 5 10 4 11 2 12 3 13
REMARK SMILES IDX 1 14
REMARK H PARENT
REMARK Flexibility Score: inf
ROOT
ATOM      1  C   UNL     1      -4.786  32.578   4.942  1.00  0.00    -0.077 C 
ATOM      2  C   UNL     1      -4.109  32.685   6.108  1.00  0.00    -0.028 C 
ATOM      3  C   UNL     1      -5.326  31.224   4.554  1.00  0.00     0.039 C 
ENDROOT
BRANCH   1   4
ATOM      4  C   UNL     1      -4.994  33.746   3.994  1.00  0.00     0.034 C 
BRANCH   4   5
ATOM      5  C   UNL     1      -5.909  34.819   4.602  1.00  0.00     0.032 C 
BRANCH   5   6
ATOM      6  C   UNL     1      -7.153  34.217   5.213  1.00  0.00    -0.028 C 
ATOM      7  C   UNL     1      -9.557  33.896   5.600  1.00  0.00     0.039 C 
ATOM      8  C   UNL     1      -8.416  34.547   4.863  1.00  0.00    -0.080 C 
ATOM      9  C   UNL     1      -8.710  35.526   3.750  1.00  0.00     0.039 C 
ENDBRANCH   5   6
ENDBRANCH   4   5
ENDBRANCH   1   4
BRANCH   2  10
ATOM     10  C   UNL     1      -3.568  33.975   6.678  1.00  0.00     0.035 C 
BRANCH  10  11
ATOM     11  C   UNL     1      -4.442  34.490   7.830  1.00  0.00     0.079 C 
BRANCH  11  12
ATOM     12  C   UNL     1      -3.816  35.681   8.512  1.00  0.00     0.130 C 
ATOM     13  O   UNL     1      -3.774  36.753   7.931  1.00  0.00    -0.300 OA
ATOM     14  C   UNL     1      -3.245  35.574   9.895  1.00  0.00     0.087 C 
ENDBRANCH  11  12
ENDBRANCH  10  11
ENDBRANCH   2  10
TORSDOF 6
ENDMDL
MODEL 3
REMARK VINA RESULT:    -4.654      2.497      4.485
REMARK INTER + INTRA:          -7.188
REMARK INTER:                  -6.048
REMARK INTRA:                  -1.140
REMARK UNBOUND:                -0.901
REMARK SMILES CC(=O)CCC=C(C)CCC=C(C)C
REMARK SMILES IDX 7 1 6 2 8 3 9 4 10 5 11 6 13 7 12 8 14 9 5 10 4 11 2 12 3 13
REMARK SMILES IDX 1 14
REMARK H PARENT
REMARK Flexibility Score: inf
ROOT
ATOM      1  C   UNL     1     -10.526  37.397  -3.696  1.00  0.00    -0.077 C 
ATOM      2  C   UNL     1      -9.178  37.326  -3.781  1.00  0.00    -0.028 C 
ATOM      3  C   UNL     1     -11.334  37.101  -4.934  1.00  0.00     0.039 C 
ENDROOT
BRANCH   1   4
ATOM      4  C   UNL     1     -11.256  37.794  -2.425  1.00  0.00     0.034 C 
BRANCH   4   5
ATOM      5  C   UNL     1     -11.642  36.569  -1.582  1.00  0.00     0.032 C 
BRANCH   5   6
ATOM      6  C   UNL     1     -10.905  36.539  -0.263  1.00  0.00    -0.028 C 
ATOM      7  C   UNL     1      -9.475  35.622   1.511  1.00  0.00     0.039 C 
ATOM      8  C   UNL     1     -10.101  35.532   0.144  1.00  0.00    -0.080 C 
ATOM      9  C   UNL     1      -9.803  34.340  -0.735  1.00  0.00     0.039 C 
ENDBRANCH   5   6
ENDBRANCH   4   5
ENDBRANCH   1   4
BRANCH   2  10
ATOM     10  C   UNL     1      -8.226  37.519  -2.624  1.00  0.00     0.035 C 
BRANCH  10  11
ATOM     11  C   UNL     1      -6.763  37.458  -3.084  1.00  0.00     0.079 C 
BRANCH  11  12
ATOM     12  C   UNL     1      -5.883  36.800  -2.051  1.00  0.00     0.130 C 
ATOM     13  O   UNL     1      -4.673  36.791  -2.210  1.00  0.00    -0.300 OA
ATOM     14  C   UNL     1      -6.467  36.156  -0.829  1.00  0.00     0.087 C 
ENDBRANCH  11  12
ENDBRANCH  10  11
ENDBRANCH   2  10
TORSDOF 6
ENDMDL
MODEL 4
REMARK VINA RESULT:    -4.626      1.258      3.692
REMARK INTER + INTRA:          -7.149
REMARK INTER:                  -6.138
REMARK INTRA:                  -1.012
REMARK UNBOUND:                -0.901
REMARK SMILES CC(=O)CCC=C(C)CCC=C(C)C
REMARK SMILES IDX 7 1 6 2 8 3 9 4 10 5 11 6 13 7 12 8 14 9 5 10 4 11 2 12 3 13
REMARK SMILES IDX 1 14
REMARK H PARENT
REMARK Flexibility Score: inf
ROOT
ATOM      1  C   UNL     1      -9.093  35.629  -0.908  1.00  0.00    -0.077 C 
ATOM      2  C   UNL     1      -9.626  36.196  -2.014  1.00  0.00    -0.028 C 
ATOM      3  C   UNL     1      -9.644  34.302  -0.452  1.00  0.00     0.039 C 
ENDROOT
BRANCH   1   4
ATOM      4  C   UNL     1      -7.994  36.284  -0.089  1.00  0.00     0.034 C 
BRANCH   4   5
ATOM      5  C   UNL     1      -6.596  35.885  -0.586  1.00  0.00     0.032 C 
BRANCH   5   6
ATOM      6  C   UNL     1      -5.735  37.094  -0.871  1.00  0.00    -0.028 C 
ATOM      7  C   UNL     1      -4.374  38.638  -2.210  1.00  0.00     0.039 C 
ATOM      8  C   UNL     1      -5.266  37.430  -2.093  1.00  0.00    -0.080 C 
ATOM      9  C   UNL     1      -5.625  36.646  -3.333  1.00  0.00     0.039 C 
ENDBRANCH   5   6
ENDBRANCH   4   5
ENDBRANCH   1   4
BRANCH   2  10
ATOM     10  C   UNL     1      -9.143  37.481  -2.646  1.00  0.00     0.035 C 
BRANCH  10  11
ATOM     11  C   UNL     1      -9.345  37.470  -4.167  1.00  0.00     0.079 C 
BRANCH  11  12
ATOM     12  C   UNL     1     -10.808  37.456  -4.533  1.00  0.00     0.130 C 
ATOM     13  O   UNL     1     -11.284  36.468  -5.071  1.00  0.00    -0.300 OA
ATOM     14  C   UNL     1     -11.693  38.633  -4.249  1.00  0.00     0.087 C 
ENDBRANCH  11  12
ENDBRANCH  10  11
ENDBRANCH   2  10
TORSDOF 6
ENDMDL
MODEL 5
REMARK VINA RESULT:    -4.599      1.381      1.795
REMARK INTER + INTRA:          -7.113
REMARK INTER:                  -6.286
REMARK INTRA:                  -0.826
REMARK UNBOUND:                -0.901
REMARK SMILES CC(=O)CCC=C(C)CCC=C(C)C
REMARK SMILES IDX 7 1 6 2 8 3 9 4 10 5 11 6 13 7 12 8 14 9 5 10 4 11 2 12 3 13
REMARK SMILES IDX 1 14
REMARK H PARENT
REMARK Flexibility Score: inf
ROOT
ATOM      1  C   UNL     1      -8.493  37.600  -3.167  1.00  0.00    -0.077 C 
ATOM      2  C   UNL     1      -9.532  37.119  -3.887  1.00  0.00    -0.028 C 
ATOM      3  C   UNL     1      -7.125  37.597  -3.802  1.00  0.00     0.039 C 
ENDROOT
BRANCH   1   4
ATOM      4  C   UNL     1      -8.636  38.107  -1.743  1.00  0.00     0.034 C 
BRANCH   4   5
ATOM      5  C   UNL     1      -7.962  37.169  -0.731  1.00  0.00     0.032 C 
BRANCH   5   6
ATOM      6  C   UNL     1      -8.428  35.741  -0.892  1.00  0.00    -0.028 C 
ATOM      7  C   UNL     1      -9.849  33.770  -0.535  1.00  0.00     0.039 C 
ATOM      8  C   UNL     1      -9.543  35.229  -0.324  1.00  0.00    -0.080 C 
ATOM      9  C   UNL     1     -10.490  36.080   0.489  1.00  0.00     0.039 C 
ENDBRANCH   5   6
ENDBRANCH   4   5
ENDBRANCH   1   4
BRANCH   2  10
ATOM     10  C   UNL     1     -10.973  37.117  -3.432  1.00  0.00     0.035 C 
BRANCH  10  11
ATOM     11  C   UNL     1     -11.929  37.432  -4.591  1.00  0.00     0.079 C 
BRANCH  11  12
ATOM     12  C   UNL     1     -13.345  37.029  -4.267  1.00  0.00     0.130 C 
ATOM     13  O   UNL     1     -13.596  35.860  -4.019  1.00  0.00    -0.300 OA
ATOM     14  C   UNL     1     -14.455  38.038  -4.241  1.00  0.00     0.087 C 
ENDBRANCH  11  12
ENDBRANCH  10  11
ENDBRANCH   2  10
TORSDOF 6
ENDMDL
MODEL 6
REMARK VINA RESULT:    -4.592      1.746      3.123
REMARK INTER + INTRA:          -7.104
REMARK INTER:                  -5.843
REMARK INTRA:                  -1.261
REMARK UNBOUND:                -0.901
REMARK SMILES CC(=O)CCC=C(C)CCC=C(C)C
REMARK SMILES IDX 7 1 6 2 8 3 9 4 10 5 11 6 13 7 12 8 14 9 5 10 4 11 2 12 3 13
REMARK SMILES IDX 1 14
REMARK H PARENT
REMARK Flexibility Score: inf
ROOT
ATOM      1  C   UNL     1     -11.090  37.504  -1.356  1.00  0.00    -0.077 C 
ATOM      2  C   UNL     1     -10.272  37.982  -2.321  1.00  0.00    -0.028 C 
ATOM      3  C   UNL     1     -11.875  38.495  -0.534  1.00  0.00     0.039 C 
ENDROOT
BRANCH   1   4
ATOM      4  C   UNL     1     -11.225  36.024  -1.043  1.00  0.00     0.034 C 
BRANCH   4   5
ATOM      5  C   UNL     1     -10.452  35.636   0.226  1.00  0.00     0.032 C 
BRANCH   5   6
ATOM      6  C   UNL     1      -9.022  35.257  -0.080  1.00  0.00    -0.028 C 
ATOM      7  C   UNL     1      -6.589  35.550  -0.250  1.00  0.00     0.039 C 
ATOM      8  C   UNL     1      -7.952  36.047   0.158  1.00  0.00    -0.080 C 
ATOM      9  C   UNL     1      -8.082  37.392   0.834  1.00  0.00     0.039 C 
ENDBRANCH   5   6
ENDBRANCH   4   5
ENDBRANCH   1   4
BRANCH   2  10
ATOM     10  C   UNL     1      -9.474  37.130  -3.279  1.00  0.00     0.035 C 
BRANCH  10  11
ATOM     11  C   UNL     1      -9.716  37.546  -4.737  1.00  0.00     0.079 C 
BRANCH  11  12
ATOM     12  C   UNL     1     -11.181  37.497  -5.092  1.00  0.00     0.130 C 
ATOM     13  O   UNL     1     -11.789  36.443  -4.993  1.00  0.00    -0.300 OA
ATOM     14  C   UNL     1     -11.909  38.721  -5.563  1.00  0.00     0.087 C 
ENDBRANCH  11  12
ENDBRANCH  10  11
ENDBRANCH   2  10
TORSDOF 6
ENDMDL
MODEL 7
REMARK VINA RESULT:    -4.539      9.150     11.201
REMARK INTER + INTRA:          -7.032
REMARK INTER:                  -6.057
REMARK INTRA:                  -0.975
REMARK UNBOUND:                -0.901
REMARK SMILES CC(=O)CCC=C(C)CCC=C(C)C
REMARK SMILES IDX 7 1 6 2 8 3 9 4 10 5 11 6 13 7 12 8 14 9 5 10 4 11 2 12 3 13
REMARK SMILES IDX 1 14
REMARK H PARENT
REMARK Flexibility Score: inf
ROOT
ATOM      1  C   UNL     1      -3.499  35.763   5.317  1.00  0.00    -0.077 C 
ATOM      2  C   UNL     1      -4.631  35.300   4.740  1.00  0.00    -0.028 C 
ATOM      3  C   UNL     1      -3.492  37.179   5.835  1.00  0.00     0.039 C 
ENDROOT
BRANCH   1   4
ATOM      4  C   UNL     1      -2.230  34.936   5.432  1.00  0.00     0.034 C 
BRANCH   4   5
ATOM      5  C   UNL     1      -2.179  34.150   6.750  1.00  0.00     0.032 C 
BRANCH   5   6
ATOM      6  C   UNL     1      -1.437  34.905   7.827  1.00  0.00    -0.028 C 
ATOM      7  C   UNL     1      -1.148  36.210   9.888  1.00  0.00     0.039 C 
ATOM      8  C   UNL     1      -2.014  35.438   8.927  1.00  0.00    -0.080 C 
ATOM      9  C   UNL     1      -3.485  35.263   9.224  1.00  0.00     0.039 C 
ENDBRANCH   5   6
ENDBRANCH   4   5
ENDBRANCH   1   4
BRANCH   2  10
ATOM     10  C   UNL     1      -4.831  33.889   4.236  1.00  0.00     0.035 C 
BRANCH  10  11
ATOM     11  C   UNL     1      -5.327  32.959   5.352  1.00  0.00     0.079 C 
BRANCH  11  12
ATOM     12  C   UNL     1      -4.807  31.554   5.175  1.00  0.00     0.130 C 
ATOM     13  O   UNL     1      -3.905  31.152   5.894  1.00  0.00    -0.300 OA
ATOM     14  C   UNL     1      -5.377  30.639   4.133  1.00  0.00     0.087 C 
ENDBRANCH  11  12
ENDBRANCH  10  11
ENDBRANCH   2  10
TORSDOF 6
ENDMDL
MODEL 8
REMARK VINA RESULT:    -4.517      8.038     10.004
REMARK INTER + INTRA:          -7.002
REMARK INTER:                  -5.375
REMARK INTRA:                  -1.627
REMARK UNBOUND:                -0.901
REMARK SMILES CC(=O)CCC=C(C)CCC=C(C)C
REMARK SMILES IDX 7 1 6 2 8 3 9 4 10 5 11 6 13 7 12 8 14 9 5 10 4 11 2 12 3 13
REMARK SMILES IDX 1 14
REMARK H PARENT
REMARK Flexibility Score: inf
ROOT
ATOM      1  C   UNL     1      -6.137  34.195   4.670  1.00  0.00    -0.077 C 
ATOM      2  C   UNL     1      -5.757  35.338   4.054  1.00  0.00    -0.028 C 
ATOM      3  C   UNL     1      -7.437  34.197   5.434  1.00  0.00     0.039 C 
ENDROOT
BRANCH   1   4
ATOM      4  C   UNL     1      -5.300  32.928   4.654  1.00  0.00     0.034 C 
BRANCH   4   5
ATOM      5  C   UNL     1      -4.621  32.676   6.008  1.00  0.00     0.032 C 
BRANCH   5   6
ATOM      6  C   UNL     1      -3.397  33.542   6.194  1.00  0.00    -0.028 C 
ATOM      7  C   UNL     1      -2.038  35.376   7.103  1.00  0.00     0.039 C 
ATOM      8  C   UNL     1      -3.310  34.569   7.068  1.00  0.00    -0.080 C 
ATOM      9  C   UNL     1      -4.436  34.912   8.016  1.00  0.00     0.039 C 
ENDBRANCH   5   6
ENDBRANCH   4   5
ENDBRANCH   1   4
BRANCH   2  10
ATOM     10  C   UNL     1      -4.527  35.488   3.189  1.00  0.00     0.035 C 
BRANCH  10  11
ATOM     11  C   UNL     1      -3.545  36.509   3.781  1.00  0.00     0.079 C 
BRANCH  11  12
ATOM     12  C   UNL     1      -2.131  36.243   3.333  1.00  0.00     0.130 C 
ATOM     13  O   UNL     1      -1.453  37.163   2.902  1.00  0.00    -0.300 OA
ATOM     14  C   UNL     1      -1.536  34.868   3.407  1.00  0.00     0.087 C 
ENDBRANCH  11  12
ENDBRANCH  10  11
ENDBRANCH   2  10
TORSDOF 6
ENDMDL
MODEL 9
REMARK VINA RESULT:    -4.453      2.589      5.156
REMARK INTER + INTRA:          -6.916
REMARK INTER:                  -5.362
REMARK INTRA:                  -1.554
REMARK UNBOUND:                -0.901
REMARK SMILES CC(=O)CCC=C(C)CCC=C(C)C
REMARK SMILES IDX 7 1 6 2 8 3 9 4 10 5 11 6 13 7 12 8 14 9 5 10 4 11 2 12 3 13
REMARK SMILES IDX 1 14
REMARK H PARENT
REMARK Flexibility Score: inf
ROOT
ATOM      1  C   UNL     1      -9.390  35.135  -0.165  1.00  0.00    -0.077 C 
ATOM      2  C   UNL     1      -8.064  35.397  -0.190  1.00  0.00    -0.028 C 
ATOM      3  C   UNL     1      -9.860  33.793  -0.664  1.00  0.00     0.039 C 
ENDROOT
BRANCH   1   4
ATOM      4  C   UNL     1     -10.424  36.143   0.308  1.00  0.00     0.034 C 
BRANCH   4   5
ATOM      5  C   UNL     1     -11.316  36.629  -0.844  1.00  0.00     0.032 C 
BRANCH   5   6
ATOM      6  C   UNL     1     -10.834  37.944  -1.411  1.00  0.00    -0.028 C 
ATOM      7  C   UNL     1      -9.669  39.448  -2.965  1.00  0.00     0.039 C 
ATOM      8  C   UNL     1     -10.124  38.072  -2.554  1.00  0.00    -0.080 C 
ATOM      9  C   UNL     1      -9.795  36.886  -3.430  1.00  0.00     0.039 C 
ENDBRANCH   5   6
ENDBRANCH   4   5
ENDBRANCH   1   4
BRANCH   2  10
ATOM     10  C   UNL     1      -7.420  36.658   0.338  1.00  0.00     0.035 C 
BRANCH  10  11
ATOM     11  C   UNL     1      -7.104  37.645  -0.794  1.00  0.00     0.079 C 
BRANCH  11  12
ATOM     12  C   UNL     1      -5.948  37.170  -1.637  1.00  0.00     0.130 C 
ATOM     13  O   UNL     1      -4.938  36.752  -1.093  1.00  0.00    -0.300 OA
ATOM     14  C   UNL     1      -6.013  37.199  -3.136  1.00  0.00     0.087 C 
ENDBRANCH  11  12
ENDBRANCH  10  11
ENDBRANCH   2  10
TORSDOF 6
ENDMDL
