MODEL 1
REMARK VINA RESULT:    -3.864      0.000      0.000
REMARK INTER + INTRA:          -5.299
REMARK INTER:                  -5.106
REMARK INTRA:                  -0.193
REMARK UNBOUND:                -0.193
REMARK SMILES CCCCCCCO
REMARK SMILES IDX 5 1 4 2 3 3 2 4 1 5 6 6 7 7 8 8
REMARK H PARENT 8 9
REMARK Flexibility Score: inf
ROOT
ATOM      1  C   UNL     1      20.892 -11.526 -48.251  1.00  0.00     0.002 C 
ENDROOT
BRANCH   1   2
ATOM      2  C   UNL     1      21.351 -11.860 -49.676  1.00  0.00     0.000 C 
BRANCH   2   3
ATOM      3  C   UNL     1      22.278 -13.081 -49.683  1.00  0.00    -0.000 C 
BRANCH   3   4
ATOM      4  C   UNL     1      22.148 -13.878 -48.380  1.00  0.00    -0.003 C 
ATOM      5  C   UNL     1      23.231 -14.949 -48.277  1.00  0.00     0.004 C 
ENDBRANCH   3   4
ENDBRANCH   2   3
ENDBRANCH   1   2
BRANCH   1   6
ATOM      6  C   UNL     1      20.612 -10.024 -48.103  1.00  0.00     0.028 C 
BRANCH   6   7
ATOM      7  C   UNL     1      20.742  -9.282 -49.436  1.00  0.00     0.156 C 
BRANCH   7   8
ATOM      8  O   UNL     1      21.370  -8.041 -49.256  1.00  0.00    -0.396 OA
ATOM      9  H   UNL     1      20.905  -7.589 -48.504  1.00  0.00     0.210 HD
ENDBRANCH   7   8
ENDBRANCH   6   7
ENDBRANCH   1   6
TORSDOF 6
ENDMDL
MODEL 2
REMARK VINA RESULT:    -3.743     10.829     13.000
REMARK INTER + INTRA:          -5.139
REMARK INTER:                  -4.976
REMARK INTRA:                  -0.163
REMARK UNBOUND:                -0.193
REMARK SMILES CCCCCCCO
REMARK SMILES IDX 5 1 4 2 3 3 2 4 1 5 6 6 7 7 8 8
REMARK H PARENT 8 9
REMARK Flexibility Score: inf
ROOT
ATOM      1  C   UNL     1      16.500   0.563 -47.901  1.00  0.00     0.002 C 
ENDROOT
BRANCH   1   2
ATOM      2  C   UNL     1      15.127   0.527 -48.582  1.00  0.00     0.000 C 
BRANCH   2   3
ATOM      3  C   UNL     1      14.946  -0.765 -49.388  1.00  0.00    -0.000 C 
BRANCH   3   4
ATOM      4  C   UNL     1      16.232  -1.601 -49.382  1.00  0.00    -0.003 C 
ATOM      5  C   UNL     1      15.947  -3.054 -49.753  1.00  0.00     0.004 C 
ENDBRANCH   3   4
ENDBRANCH   2   3
ENDBRANCH   1   2
BRANCH   1   6
ATOM      6  C   UNL     1      16.700   1.880 -47.137  1.00  0.00     0.028 C 
BRANCH   6   7
ATOM      7  C   UNL     1      17.571   1.693 -45.891  1.00  0.00     0.156 C 
BRANCH   7   8
ATOM      8  O   UNL     1      17.369   0.424 -45.329  1.00  0.00    -0.396 OA
ATOM      9  H   UNL     1      16.738  -0.058 -45.924  1.00  0.00     0.210 HD
ENDBRANCH   7   8
ENDBRANCH   6   7
ENDBRANCH   1   6
TORSDOF 6
ENDMDL
MODEL 3
REMARK VINA RESULT:    -3.683     17.023     18.447
REMARK INTER + INTRA:          -5.059
REMARK INTER:                  -4.888
REMARK INTRA:                  -0.172
REMARK UNBOUND:                -0.193
REMARK SMILES CCCCCCCO
REMARK SMILES IDX 5 1 4 2 3 3 2 4 1 5 6 6 7 7 8 8
REMARK H PARENT 8 9
REMARK Flexibility Score: inf
ROOT
ATOM      1  C   UNL     1      17.384  -4.133 -32.763  1.00  0.00     0.002 C 
ENDROOT
BRANCH   1   2
ATOM      2  C   UNL     1      16.147  -4.748 -33.428  1.00  0.00     0.000 C 
BRANCH   2   3
ATOM      3  C   UNL     1      15.671  -5.989 -32.663  1.00  0.00    -0.000 C 
BRANCH   3   4
ATOM      4  C   UNL     1      14.813  -6.891 -33.558  1.00  0.00    -0.003 C 
ATOM      5  C   UNL     1      15.642  -7.498 -34.686  1.00  0.00     0.004 C 
ENDBRANCH   3   4
ENDBRANCH   2   3
ENDBRANCH   1   2
BRANCH   1   6
ATOM      6  C   UNL     1      17.447  -4.502 -31.274  1.00  0.00     0.028 C 
BRANCH   6   7
ATOM      7  C   UNL     1      18.803  -4.152 -30.654  1.00  0.00     0.156 C 
BRANCH   7   8
ATOM      8  O   UNL     1      19.207  -2.864 -31.036  1.00  0.00    -0.396 OA
ATOM      9  H   UNL     1      18.819  -2.694 -31.933  1.00  0.00     0.210 HD
ENDBRANCH   7   8
ENDBRANCH   6   7
ENDBRANCH   1   6
TORSDOF 6
ENDMDL
MODEL 4
REMARK VINA RESULT:    -3.635     13.678     14.987
REMARK INTER + INTRA:          -4.996
REMARK INTER:                  -4.739
REMARK INTRA:                  -0.258
REMARK UNBOUND:                -0.193
REMARK SMILES CCCCCCCO
REMARK SMILES IDX 5 1 4 2 3 3 2 4 1 5 6 6 7 7 8 8
REMARK H PARENT 8 9
REMARK Flexibility Score: inf
ROOT
ATOM      1  C   UNL     1      16.732   1.998 -47.957  1.00  0.00     0.002 C 
ENDROOT
BRANCH   1   2
ATOM      2  C   UNL     1      16.054   0.659 -48.271  1.00  0.00     0.000 C 
BRANCH   2   3
ATOM      3  C   UNL     1      14.606   0.871 -48.730  1.00  0.00    -0.000 C 
BRANCH   3   4
ATOM      4  C   UNL     1      14.055   2.206 -48.216  1.00  0.00    -0.003 C 
ATOM      5  C   UNL     1      13.425   3.014 -49.347  1.00  0.00     0.004 C 
ENDBRANCH   3   4
ENDBRANCH   2   3
ENDBRANCH   1   2
BRANCH   1   6
ATOM      6  C   UNL     1      17.597   1.892 -46.694  1.00  0.00     0.028 C 
BRANCH   6   7
ATOM      7  C   UNL     1      16.757   1.603 -45.446  1.00  0.00     0.156 C 
BRANCH   7   8
ATOM      8  O   UNL     1      17.084   0.351 -44.906  1.00  0.00    -0.396 OA
ATOM      9  H   UNL     1      18.017   0.415 -44.572  1.00  0.00     0.210 HD
ENDBRANCH   7   8
ENDBRANCH   6   7
ENDBRANCH   1   6
TORSDOF 6
ENDMDL
MODEL 5
REMARK VINA RESULT:    -3.618     10.606     11.402
REMARK INTER + INTRA:          -4.975
REMARK INTER:                  -4.682
REMARK INTRA:                  -0.292
REMARK UNBOUND:                -0.193
REMARK SMILES CCCCCCCO
REMARK SMILES IDX 5 1 4 2 3 3 2 4 1 5 6 6 7 7 8 8
REMARK H PARENT 8 9
REMARK Flexibility Score: inf
ROOT
ATOM      1  C   UNL     1      26.335  -2.255 -50.033  1.00  0.00     0.002 C 
ENDROOT
BRANCH   1   2
ATOM      2  C   UNL     1      27.215  -1.000 -50.042  1.00  0.00     0.000 C 
BRANCH   2   3
ATOM      3  C   UNL     1      28.573  -1.276 -49.386  1.00  0.00    -0.000 C 
BRANCH   3   4
ATOM      4  C   UNL     1      28.645  -2.711 -48.853  1.00  0.00    -0.003 C 
ATOM      5  C   UNL     1      28.888  -2.728 -47.346  1.00  0.00     0.004 C 
ENDBRANCH   3   4
ENDBRANCH   2   3
ENDBRANCH   1   2
BRANCH   1   6
ATOM      6  C   UNL     1      24.982  -1.972 -49.365  1.00  0.00     0.028 C 
BRANCH   6   7
ATOM      7  C   UNL     1      25.143  -1.206 -48.048  1.00  0.00     0.156 C 
BRANCH   7   8
ATOM      8  O   UNL     1      24.051  -0.351 -47.833  1.00  0.00    -0.396 OA
ATOM      9  H   UNL     1      23.244  -0.825 -48.165  1.00  0.00     0.210 HD
ENDBRANCH   7   8
ENDBRANCH   6   7
ENDBRANCH   1   6
TORSDOF 6
ENDMDL
MODEL 6
REMARK VINA RESULT:    -3.590      2.562      4.508
REMARK INTER + INTRA:          -4.937
REMARK INTER:                  -4.799
REMARK INTRA:                  -0.138
REMARK UNBOUND:                -0.193
REMARK SMILES CCCCCCCO
REMARK SMILES IDX 5 1 4 2 3 3 2 4 1 5 6 6 7 7 8 8
REMARK H PARENT 8 9
REMARK Flexibility Score: inf
ROOT
ATOM      1  C   UNL     1      21.366 -12.759 -48.765  1.00  0.00     0.002 C 
ENDROOT
BRANCH   1   2
ATOM      2  C   UNL     1      21.379 -11.632 -49.805  1.00  0.00     0.000 C 
BRANCH   2   3
ATOM      3  C   UNL     1      20.780 -10.344 -49.228  1.00  0.00    -0.000 C 
BRANCH   3   4
ATOM      4  C   UNL     1      20.082 -10.614 -47.890  1.00  0.00    -0.003 C 
ATOM      5  C   UNL     1      20.746  -9.838 -46.755  1.00  0.00     0.004 C 
ENDBRANCH   3   4
ENDBRANCH   2   3
ENDBRANCH   1   2
BRANCH   1   6
ATOM      6  C   UNL     1      22.410 -13.832 -49.105  1.00  0.00     0.028 C 
BRANCH   6   7
ATOM      7  C   UNL     1      22.704 -14.745 -47.911  1.00  0.00     0.156 C 
BRANCH   7   8
ATOM      8  O   UNL     1      21.989 -14.328 -46.778  1.00  0.00    -0.396 OA
ATOM      9  H   UNL     1      22.224 -13.376 -46.622  1.00  0.00     0.210 HD
ENDBRANCH   7   8
ENDBRANCH   6   7
ENDBRANCH   1   6
TORSDOF 6
ENDMDL
MODEL 7
REMARK VINA RESULT:    -3.564     13.708     15.437
REMARK INTER + INTRA:          -4.903
REMARK INTER:                  -4.663
REMARK INTRA:                  -0.240
REMARK UNBOUND:                -0.193
REMARK SMILES CCCCCCCO
REMARK SMILES IDX 5 1 4 2 3 3 2 4 1 5 6 6 7 7 8 8
REMARK H PARENT 8 9
REMARK Flexibility Score: inf
ROOT
ATOM      1  C   UNL     1      16.004   0.639 -47.853  1.00  0.00     0.002 C 
ENDROOT
BRANCH   1   2
ATOM      2  C   UNL     1      14.641   1.083 -48.399  1.00  0.00     0.000 C 
BRANCH   2   3
ATOM      3  C   UNL     1      13.931   2.017 -47.411  1.00  0.00    -0.000 C 
BRANCH   3   4
ATOM      4  C   UNL     1      13.095   3.067 -48.152  1.00  0.00    -0.003 C 
ATOM      5  C   UNL     1      13.897   3.720 -49.274  1.00  0.00     0.004 C 
ENDBRANCH   3   4
ENDBRANCH   2   3
ENDBRANCH   1   2
BRANCH   1   6
ATOM      6  C   UNL     1      16.879   1.853 -47.510  1.00  0.00     0.028 C 
BRANCH   6   7
ATOM      7  C   UNL     1      17.337   1.835 -46.049  1.00  0.00     0.156 C 
BRANCH   7   8
ATOM      8  O   UNL     1      18.703   1.530 -45.958  1.00  0.00    -0.396 OA
ATOM      9  H   UNL     1      18.886   0.823 -46.632  1.00  0.00     0.210 HD
ENDBRANCH   7   8
ENDBRANCH   6   7
ENDBRANCH   1   6
TORSDOF 6
ENDMDL
MODEL 8
REMARK VINA RESULT:    -3.474     11.721     14.340
REMARK INTER + INTRA:          -4.783
REMARK INTER:                  -4.554
REMARK INTRA:                  -0.229
REMARK UNBOUND:                -0.193
REMARK SMILES CCCCCCCO
REMARK SMILES IDX 5 1 4 2 3 3 2 4 1 5 6 6 7 7 8 8
REMARK H PARENT 8 9
REMARK Flexibility Score: inf
ROOT
ATOM      1  C   UNL     1      16.195   0.512 -48.280  1.00  0.00     0.002 C 
ENDROOT
BRANCH   1   2
ATOM      2  C   UNL     1      15.545   1.797 -47.755  1.00  0.00     0.000 C 
BRANCH   2   3
ATOM      3  C   UNL     1      15.280   1.705 -46.248  1.00  0.00    -0.000 C 
BRANCH   3   4
ATOM      4  C   UNL     1      13.808   1.383 -45.966  1.00  0.00    -0.003 C 
ATOM      5  C   UNL     1      12.883   2.207 -46.856  1.00  0.00     0.004 C 
ENDBRANCH   3   4
ENDBRANCH   2   3
ENDBRANCH   1   2
BRANCH   1   6
ATOM      6  C   UNL     1      15.161  -0.382 -48.977  1.00  0.00     0.028 C 
BRANCH   6   7
ATOM      7  C   UNL     1      15.809  -1.604 -49.634  1.00  0.00     0.156 C 
BRANCH   7   8
ATOM      8  O   UNL     1      17.021  -1.923 -49.004  1.00  0.00    -0.396 OA
ATOM      9  H   UNL     1      17.250  -1.159 -48.413  1.00  0.00     0.210 HD
ENDBRANCH   7   8
ENDBRANCH   6   7
ENDBRANCH   1   6
TORSDOF 6
ENDMDL
MODEL 9
REMARK VINA RESULT:    -3.444     11.660     13.711
REMARK INTER + INTRA:          -4.743
REMARK INTER:                  -4.615
REMARK INTRA:                  -0.129
REMARK UNBOUND:                -0.193
REMARK SMILES CCCCCCCO
REMARK SMILES IDX 5 1 4 2 3 3 2 4 1 5 6 6 7 7 8 8
REMARK H PARENT 8 9
REMARK Flexibility Score: inf
ROOT
ATOM      1  C   UNL     1      16.319   0.536 -48.408  1.00  0.00     0.002 C 
ENDROOT
BRANCH   1   2
ATOM      2  C   UNL     1      15.936   1.888 -47.794  1.00  0.00     0.000 C 
BRANCH   2   3
ATOM      3  C   UNL     1      15.590   1.739 -46.307  1.00  0.00    -0.000 C 
BRANCH   3   4
ATOM      4  C   UNL     1      16.709   1.010 -45.553  1.00  0.00    -0.003 C 
ATOM      5  C   UNL     1      17.998   1.827 -45.554  1.00  0.00     0.004 C 
ENDBRANCH   3   4
ENDBRANCH   2   3
ENDBRANCH   1   2
BRANCH   1   6
ATOM      6  C   UNL     1      15.096  -0.386 -48.511  1.00  0.00     0.028 C 
BRANCH   6   7
ATOM      7  C   UNL     1      15.496  -1.840 -48.777  1.00  0.00     0.156 C 
BRANCH   7   8
ATOM      8  O   UNL     1      16.870  -1.938 -49.040  1.00  0.00    -0.396 OA
ATOM      9  H   UNL     1      16.963  -2.251 -49.977  1.00  0.00     0.210 HD
ENDBRANCH   7   8
ENDBRANCH   6   7
ENDBRANCH   1   6
TORSDOF 6
ENDMDL
