MODEL 1
REMARK VINA RESULT:    -4.200      0.000      0.000
REMARK INTER + INTRA:          -9.923
REMARK INTER:                  -7.638
REMARK INTRA:                  -2.285
REMARK UNBOUND:                -2.285
REMARK SMILES CCCCCCCCCCCCCC[C@H](C)C(=O)[O-]
REMARK SMILES IDX 9 1 10 2 11 3 12 4 13 5 14 6 15 7 16 8 17 9 18 10 19 11 8 12
REMARK SMILES IDX 7 13 6 14 5 15 4 16 3 17 2 18 1 19
REMARK H PARENT
REMARK Flexibility Score: inf
ROOT
ATOM      1  C   UNL     1     164.585 177.323 181.127  1.00  0.00     0.000 C 
ENDROOT
BRANCH   1   2
ATOM      2  C   UNL     1     163.891 176.001 181.475  1.00  0.00     0.000 C 
BRANCH   2   3
ATOM      3  C   UNL     1     162.729 175.721 180.511  1.00  0.00     0.000 C 
BRANCH   3   4
ATOM      4  C   UNL     1     161.380 176.227 181.048  1.00  0.00     0.000 C 
BRANCH   4   5
ATOM      5  C   UNL     1     160.355 175.094 181.234  1.00  0.00     0.001 C 
BRANCH   5   6
ATOM      6  C   UNL     1     160.841 173.758 180.626  1.00  0.00     0.009 C 
BRANCH   6   7
ATOM      7  C   UNL     1     160.866 172.562 181.605  1.00  0.00     0.032 C 
ATOM      8  C   UNL     1     161.982 172.670 182.653  1.00  0.00     0.014 C 
BRANCH   7   9
ATOM      9  C   UNL     1     160.904 171.246 180.870  1.00  0.00     0.044 C 
ATOM     10  O   UNL     1     159.876 170.522 180.778  1.00  0.00    -0.550 OA
ATOM     11  O   UNL     1     162.099 170.803 180.316  1.00  0.00    -0.550 OA
ENDBRANCH   7   9
ENDBRANCH   6   7
ENDBRANCH   5   6
ENDBRANCH   4   5
ENDBRANCH   3   4
ENDBRANCH   2   3
ENDBRANCH   1   2
BRANCH   1  12
ATOM     12  C   UNL     1     164.011 178.482 181.950  1.00  0.00     0.000 C 
BRANCH  12  13
ATOM     13  C   UNL     1     163.524 179.617 181.037  1.00  0.00    -0.000 C 
BRANCH  13  14
ATOM     14  C   UNL     1     162.011 179.864 181.154  1.00  0.00    -0.000 C 
BRANCH  14  15
ATOM     15  C   UNL     1     161.349 180.116 179.788  1.00  0.00    -0.000 C 
BRANCH  15  16
ATOM     16  C   UNL     1     162.211 179.623 178.614  1.00  0.00    -0.000 C 
BRANCH  16  17
ATOM     17  C   UNL     1     161.681 178.319 177.993  1.00  0.00    -0.000 C 
BRANCH  17  18
ATOM     18  C   UNL     1     162.792 177.487 177.332  1.00  0.00    -0.003 C 
ATOM     19  C   UNL     1     164.180 178.100 177.522  1.00  0.00     0.004 C 
ENDBRANCH  17  18
ENDBRANCH  16  17
ENDBRANCH  15  16
ENDBRANCH  14  15
ENDBRANCH  13  14
ENDBRANCH  12  13
ENDBRANCH   1  12
TORSDOF 14
ENDMDL
MODEL 2
REMARK VINA RESULT:    -4.153      1.084      1.883
REMARK INTER + INTRA:          -9.837
REMARK INTER:                  -7.435
REMARK INTRA:                  -2.402
REMARK UNBOUND:                -2.285
REMARK SMILES CCCCCCCCCCCCCC[C@H](C)C(=O)[O-]
REMARK SMILES IDX 9 1 10 2 11 3 12 4 13 5 14 6 15 7 16 8 17 9 18 10 19 11 8 12
REMARK SMILES IDX 7 13 6 14 5 15 4 16 3 17 2 18 1 19
REMARK H PARENT
REMARK Flexibility Score: inf
ROOT
ATOM      1  C   UNL     1     162.525 178.794 181.732  1.00  0.00     0.000 C 
ENDROOT
BRANCH   1   2
ATOM      2  C   UNL     1     163.375 177.648 181.170  1.00  0.00     0.000 C 
BRANCH   2   3
ATOM      3  C   UNL     1     162.581 176.334 181.151  1.00  0.00     0.000 C 
BRANCH   3   4
ATOM      4  C   UNL     1     161.067 176.555 181.306  1.00  0.00     0.000 C 
BRANCH   4   5
ATOM      5  C   UNL     1     160.277 175.234 181.339  1.00  0.00     0.001 C 
BRANCH   5   6
ATOM      6  C   UNL     1     161.107 174.042 180.808  1.00  0.00     0.009 C 
BRANCH   6   7
ATOM      7  C   UNL     1     160.978 172.737 181.626  1.00  0.00     0.032 C 
ATOM      8  C   UNL     1     161.987 172.653 182.781  1.00  0.00     0.014 C 
BRANCH   7   9
ATOM      9  C   UNL     1     161.031 171.520 180.738  1.00  0.00     0.044 C 
ATOM     10  O   UNL     1     162.113 170.903 180.543  1.00  0.00    -0.550 OA
ATOM     11  O   UNL     1     159.878 171.091 180.092  1.00  0.00    -0.550 OA
ENDBRANCH   7   9
ENDBRANCH   6   7
ENDBRANCH   5   6
ENDBRANCH   4   5
ENDBRANCH   3   4
ENDBRANCH   2   3
ENDBRANCH   1   2
BRANCH   1  12
ATOM     12  C   UNL     1     162.428 179.953 180.733  1.00  0.00     0.000 C 
BRANCH  12  13
ATOM     13  C   UNL     1     163.219 179.644 179.453  1.00  0.00    -0.000 C 
BRANCH  13  14
ATOM     14  C   UNL     1     162.331 179.624 178.198  1.00  0.00    -0.000 C 
BRANCH  14  15
ATOM     15  C   UNL     1     161.367 178.426 178.178  1.00  0.00    -0.000 C 
BRANCH  15  16
ATOM     16  C   UNL     1     161.772 177.360 177.145  1.00  0.00    -0.000 C 
BRANCH  16  17
ATOM     17  C   UNL     1     161.690 175.929 177.704  1.00  0.00    -0.000 C 
BRANCH  17  18
ATOM     18  C   UNL     1     163.042 175.198 177.650  1.00  0.00    -0.003 C 
ATOM     19  C   UNL     1     164.228 176.135 177.882  1.00  0.00     0.004 C 
ENDBRANCH  17  18
ENDBRANCH  16  17
ENDBRANCH  15  16
ENDBRANCH  14  15
ENDBRANCH  13  14
ENDBRANCH  12  13
ENDBRANCH   1  12
TORSDOF 14
ENDMDL
MODEL 3
REMARK VINA RESULT:    -4.066     10.240     12.547
REMARK INTER + INTRA:          -9.680
REMARK INTER:                  -7.600
REMARK INTRA:                  -2.079
REMARK UNBOUND:                -2.285
REMARK SMILES CCCCCCCCCCCCCC[C@H](C)C(=O)[O-]
REMARK SMILES IDX 9 1 10 2 11 3 12 4 13 5 14 6 15 7 16 8 17 9 18 10 19 11 8 12
REMARK SMILES IDX 7 13 6 14 5 15 4 16 3 17 2 18 1 19
REMARK H PARENT
REMARK Flexibility Score: inf
ROOT
ATOM      1  C   UNL     1     175.119 179.728 178.810  1.00  0.00     0.000 C 
ENDROOT
BRANCH   1   2
ATOM      2  C   UNL     1     174.396 178.500 178.243  1.00  0.00     0.000 C 
BRANCH   2   3
ATOM      3  C   UNL     1     173.175 178.137 179.101  1.00  0.00     0.000 C 
BRANCH   3   4
ATOM      4  C   UNL     1     173.337 178.561 180.570  1.00  0.00     0.000 C 
BRANCH   4   5
ATOM      5  C   UNL     1     172.178 179.447 181.062  1.00  0.00     0.001 C 
BRANCH   5   6
ATOM      6  C   UNL     1     170.814 178.994 180.493  1.00  0.00     0.009 C 
BRANCH   6   7
ATOM      7  C   UNL     1     169.711 178.751 181.549  1.00  0.00     0.032 C 
ATOM      8  C   UNL     1     170.123 177.731 182.620  1.00  0.00     0.014 C 
BRANCH   7   9
ATOM      9  C   UNL     1     168.396 178.395 180.903  1.00  0.00     0.044 C 
ATOM     10  O   UNL     1     167.567 179.288 180.579  1.00  0.00    -0.550 OA
ATOM     11  O   UNL     1     168.071 177.059 180.696  1.00  0.00    -0.550 OA
ENDBRANCH   7   9
ENDBRANCH   6   7
ENDBRANCH   5   6
ENDBRANCH   4   5
ENDBRANCH   3   4
ENDBRANCH   2   3
ENDBRANCH   1   2
BRANCH   1  12
ATOM     12  C   UNL     1     176.616 179.689 178.479  1.00  0.00     0.000 C 
BRANCH  12  13
ATOM     13  C   UNL     1     177.464 179.800 179.755  1.00  0.00    -0.000 C 
BRANCH  13  14
ATOM     14  C   UNL     1     176.609 179.926 181.026  1.00  0.00    -0.000 C 
BRANCH  14  15
ATOM     15  C   UNL     1     176.669 178.664 181.904  1.00  0.00    -0.000 C 
BRANCH  15  16
ATOM     16  C   UNL     1     177.336 177.479 181.188  1.00  0.00    -0.000 C 
BRANCH  16  17
ATOM     17  C   UNL     1     176.328 176.398 180.760  1.00  0.00    -0.000 C 
BRANCH  17  18
ATOM     18  C   UNL     1     176.942 175.368 179.797  1.00  0.00    -0.003 C 
ATOM     19  C   UNL     1     176.776 175.761 178.328  1.00  0.00     0.004 C 
ENDBRANCH  17  18
ENDBRANCH  16  17
ENDBRANCH  15  16
ENDBRANCH  14  15
ENDBRANCH  13  14
ENDBRANCH  12  13
ENDBRANCH   1  12
TORSDOF 14
ENDMDL
MODEL 4
REMARK VINA RESULT:    -4.032      1.901      3.365
REMARK INTER + INTRA:          -9.617
REMARK INTER:                  -7.688
REMARK INTRA:                  -1.928
REMARK UNBOUND:                -2.285
REMARK SMILES CCCCCCCCCCCCCC[C@H](C)C(=O)[O-]
REMARK SMILES IDX 9 1 10 2 11 3 12 4 13 5 14 6 15 7 16 8 17 9 18 10 19 11 8 12
REMARK SMILES IDX 7 13 6 14 5 15 4 16 3 17 2 18 1 19
REMARK H PARENT
REMARK Flexibility Score: inf
ROOT
ATOM      1  C   UNL     1     161.386 179.079 178.849  1.00  0.00     0.000 C 
ENDROOT
BRANCH   1   2
ATOM      2  C   UNL     1     162.270 178.099 178.068  1.00  0.00     0.000 C 
BRANCH   2   3
ATOM      3  C   UNL     1     161.998 176.651 178.498  1.00  0.00     0.000 C 
BRANCH   3   4
ATOM      4  C   UNL     1     161.438 176.553 179.926  1.00  0.00     0.000 C 
BRANCH   4   5
ATOM      5  C   UNL     1     161.196 175.098 180.368  1.00  0.00     0.001 C 
BRANCH   5   6
ATOM      6  C   UNL     1     162.211 174.634 181.438  1.00  0.00     0.009 C 
BRANCH   6   7
ATOM      7  C   UNL     1     162.080 173.156 181.869  1.00  0.00     0.032 C 
ATOM      8  C   UNL     1     160.773 172.865 182.622  1.00  0.00     0.014 C 
BRANCH   7   9
ATOM      9  C   UNL     1     163.292 172.694 182.638  1.00  0.00     0.044 C 
ATOM     10  O   UNL     1     163.660 171.489 182.610  1.00  0.00    -0.550 OA
ATOM     11  O   UNL     1     163.994 173.601 183.423  1.00  0.00    -0.550 OA
ENDBRANCH   7   9
ENDBRANCH   6   7
ENDBRANCH   5   6
ENDBRANCH   4   5
ENDBRANCH   3   4
ENDBRANCH   2   3
ENDBRANCH   1   2
BRANCH   1  12
ATOM     12  C   UNL     1     162.234 180.118 179.592  1.00  0.00     0.000 C 
BRANCH  12  13
ATOM     13  C   UNL     1     161.906 180.125 181.092  1.00  0.00    -0.000 C 
BRANCH  13  14
ATOM     14  C   UNL     1     162.820 179.191 181.902  1.00  0.00    -0.000 C 
BRANCH  14  15
ATOM     15  C   UNL     1     164.236 179.091 181.308  1.00  0.00    -0.000 C 
BRANCH  15  16
ATOM     16  C   UNL     1     164.677 177.636 181.077  1.00  0.00    -0.000 C 
BRANCH  16  17
ATOM     17  C   UNL     1     165.711 177.501 179.946  1.00  0.00    -0.000 C 
BRANCH  17  18
ATOM     18  C   UNL     1     166.692 178.684 179.900  1.00  0.00    -0.003 C 
ATOM     19  C   UNL     1     167.947 178.443 180.740  1.00  0.00     0.004 C 
ENDBRANCH  17  18
ENDBRANCH  16  17
ENDBRANCH  15  16
ENDBRANCH  14  15
ENDBRANCH  13  14
ENDBRANCH  12  13
ENDBRANCH   1  12
TORSDOF 14
ENDMDL
MODEL 5
REMARK VINA RESULT:    -4.015      1.612      2.799
REMARK INTER + INTRA:          -9.586
REMARK INTER:                  -7.420
REMARK INTRA:                  -2.166
REMARK UNBOUND:                -2.285
REMARK SMILES CCCCCCCCCCCCCC[C@H](C)C(=O)[O-]
REMARK SMILES IDX 9 1 10 2 11 3 12 4 13 5 14 6 15 7 16 8 17 9 18 10 19 11 8 12
REMARK SMILES IDX 7 13 6 14 5 15 4 16 3 17 2 18 1 19
REMARK H PARENT
REMARK Flexibility Score: inf
ROOT
ATOM      1  C   UNL     1     162.856 178.997 181.782  1.00  0.00     0.000 C 
ENDROOT
BRANCH   1   2
ATOM      2  C   UNL     1     164.293 178.822 181.275  1.00  0.00     0.000 C 
BRANCH   2   3
ATOM      3  C   UNL     1     164.683 177.337 181.232  1.00  0.00     0.000 C 
BRANCH   3   4
ATOM      4  C   UNL     1     163.506 176.427 180.844  1.00  0.00     0.000 C 
BRANCH   4   5
ATOM      5  C   UNL     1     163.610 175.025 181.471  1.00  0.00     0.001 C 
BRANCH   5   6
ATOM      6  C   UNL     1     162.305 174.212 181.307  1.00  0.00     0.009 C 
BRANCH   6   7
ATOM      7  C   UNL     1     161.153 174.958 180.597  1.00  0.00     0.032 C 
ATOM      8  C   UNL     1     160.152 175.586 181.578  1.00  0.00     0.014 C 
BRANCH   7   9
ATOM      9  C   UNL     1     160.471 174.082 179.576  1.00  0.00     0.044 C 
ATOM     10  O   UNL     1     160.378 172.836 179.747  1.00  0.00    -0.550 OA
ATOM     11  O   UNL     1     159.973 174.647 178.409  1.00  0.00    -0.550 OA
ENDBRANCH   7   9
ENDBRANCH   6   7
ENDBRANCH   5   6
ENDBRANCH   4   5
ENDBRANCH   3   4
ENDBRANCH   2   3
ENDBRANCH   1   2
BRANCH   1  12
ATOM     12  C   UNL     1     162.079 179.990 180.909  1.00  0.00     0.000 C 
BRANCH  12  13
ATOM     13  C   UNL     1     162.469 179.845 179.430  1.00  0.00    -0.000 C 
BRANCH  13  14
ATOM     14  C   UNL     1     161.398 179.114 178.604  1.00  0.00    -0.000 C 
BRANCH  14  15
ATOM     15  C   UNL     1     161.866 177.727 178.130  1.00  0.00    -0.000 C 
BRANCH  15  16
ATOM     16  C   UNL     1     162.202 177.699 176.629  1.00  0.00    -0.000 C 
BRANCH  16  17
ATOM     17  C   UNL     1     163.696 177.936 176.350  1.00  0.00    -0.000 C 
BRANCH  17  18
ATOM     18  C   UNL     1     164.597 177.417 177.483  1.00  0.00    -0.003 C 
ATOM     19  C   UNL     1     164.871 175.916 177.377  1.00  0.00     0.004 C 
ENDBRANCH  17  18
ENDBRANCH  16  17
ENDBRANCH  15  16
ENDBRANCH  14  15
ENDBRANCH  13  14
ENDBRANCH  12  13
ENDBRANCH   1  12
TORSDOF 14
ENDMDL
MODEL 6
REMARK VINA RESULT:    -4.015      1.575      2.416
REMARK INTER + INTRA:          -9.585
REMARK INTER:                  -6.913
REMARK INTRA:                  -2.673
REMARK UNBOUND:                -2.285
REMARK SMILES CCCCCCCCCCCCCC[C@H](C)C(=O)[O-]
REMARK SMILES IDX 9 1 10 2 11 3 12 4 13 5 14 6 15 7 16 8 17 9 18 10 19 11 8 12
REMARK SMILES IDX 7 13 6 14 5 15 4 16 3 17 2 18 1 19
REMARK H PARENT
REMARK Flexibility Score: inf
ROOT
ATOM      1  C   UNL     1     165.735 178.213 178.933  1.00  0.00     0.000 C 
ENDROOT
BRANCH   1   2
ATOM      2  C   UNL     1     166.093 176.740 179.165  1.00  0.00     0.000 C 
BRANCH   2   3
ATOM      3  C   UNL     1     164.845 175.924 179.532  1.00  0.00     0.000 C 
BRANCH   3   4
ATOM      4  C   UNL     1     164.821 175.515 181.014  1.00  0.00     0.000 C 
BRANCH   4   5
ATOM      5  C   UNL     1     163.402 175.187 181.514  1.00  0.00     0.001 C 
BRANCH   5   6
ATOM      6  C   UNL     1     162.485 174.676 180.378  1.00  0.00     0.009 C 
BRANCH   6   7
ATOM      7  C   UNL     1     161.078 174.219 180.827  1.00  0.00     0.032 C 
ATOM      8  C   UNL     1     160.241 175.359 181.427  1.00  0.00     0.014 C 
BRANCH   7   9
ATOM      9  C   UNL     1     161.151 173.026 181.746  1.00  0.00     0.044 C 
ATOM     10  O   UNL     1     160.514 173.002 182.834  1.00  0.00    -0.550 OA
ATOM     11  O   UNL     1     161.962 171.949 181.410  1.00  0.00    -0.550 OA
ENDBRANCH   7   9
ENDBRANCH   6   7
ENDBRANCH   5   6
ENDBRANCH   4   5
ENDBRANCH   3   4
ENDBRANCH   2   3
ENDBRANCH   1   2
BRANCH   1  12
ATOM     12  C   UNL     1     166.112 179.071 180.147  1.00  0.00     0.000 C 
BRANCH  12  13
ATOM     13  C   UNL     1     164.896 179.856 180.663  1.00  0.00    -0.000 C 
BRANCH  13  14
ATOM     14  C   UNL     1     163.978 179.006 181.557  1.00  0.00    -0.000 C 
BRANCH  14  15
ATOM     15  C   UNL     1     162.516 179.485 181.523  1.00  0.00    -0.000 C 
BRANCH  15  16
ATOM     16  C   UNL     1     161.943 179.528 180.096  1.00  0.00    -0.000 C 
BRANCH  16  17
ATOM     17  C   UNL     1     161.761 178.128 179.486  1.00  0.00    -0.000 C 
BRANCH  17  18
ATOM     18  C   UNL     1     162.154 178.077 178.000  1.00  0.00    -0.003 C 
ATOM     19  C   UNL     1     162.521 179.452 177.440  1.00  0.00     0.004 C 
ENDBRANCH  17  18
ENDBRANCH  16  17
ENDBRANCH  15  16
ENDBRANCH  14  15
ENDBRANCH  13  14
ENDBRANCH  12  13
ENDBRANCH   1  12
TORSDOF 14
ENDMDL
MODEL 7
REMARK VINA RESULT:    -4.004     11.934     14.082
REMARK INTER + INTRA:          -9.567
REMARK INTER:                  -7.173
REMARK INTRA:                  -2.393
REMARK UNBOUND:                -2.285
REMARK SMILES CCCCCCCCCCCCCC[C@H](C)C(=O)[O-]
REMARK SMILES IDX 9 1 10 2 11 3 12 4 13 5 14 6 15 7 16 8 17 9 18 10 19 11 8 12
REMARK SMILES IDX 7 13 6 14 5 15 4 16 3 17 2 18 1 19
REMARK H PARENT
REMARK Flexibility Score: inf
ROOT
ATOM      1  C   UNL     1     177.158 179.916 180.653  1.00  0.00     0.000 C 
ENDROOT
BRANCH   1   2
ATOM      2  C   UNL     1     176.076 179.336 181.572  1.00  0.00     0.000 C 
BRANCH   2   3
ATOM      3  C   UNL     1     176.355 177.859 181.884  1.00  0.00     0.000 C 
BRANCH   3   4
ATOM      4  C   UNL     1     175.163 176.947 181.549  1.00  0.00     0.000 C 
BRANCH   4   5
ATOM      5  C   UNL     1     175.561 175.756 180.658  1.00  0.00     0.001 C 
BRANCH   5   6
ATOM      6  C   UNL     1     177.095 175.604 180.535  1.00  0.00     0.009 C 
BRANCH   6   7
ATOM      7  C   UNL     1     177.571 174.649 179.416  1.00  0.00     0.032 C 
ATOM      8  C   UNL     1     176.549 174.501 178.280  1.00  0.00     0.014 C 
BRANCH   7   9
ATOM      9  C   UNL     1     177.997 173.314 179.973  1.00  0.00     0.044 C 
ATOM     10  O   UNL     1     177.642 172.946 181.125  1.00  0.00    -0.550 OA
ATOM     11  O   UNL     1     178.826 172.490 179.222  1.00  0.00    -0.550 OA
ENDBRANCH   7   9
ENDBRANCH   6   7
ENDBRANCH   5   6
ENDBRANCH   4   5
ENDBRANCH   3   4
ENDBRANCH   2   3
ENDBRANCH   1   2
BRANCH   1  12
ATOM     12  C   UNL     1     177.494 178.947 179.513  1.00  0.00     0.000 C 
BRANCH  12  13
ATOM     13  C   UNL     1     176.714 179.305 178.239  1.00  0.00    -0.000 C 
BRANCH  13  14
ATOM     14  C   UNL     1     175.425 178.481 178.083  1.00  0.00    -0.000 C 
BRANCH  14  15
ATOM     15  C   UNL     1     174.157 179.329 178.284  1.00  0.00    -0.000 C 
BRANCH  15  16
ATOM     16  C   UNL     1     173.082 178.596 179.104  1.00  0.00    -0.000 C 
BRANCH  16  17
ATOM     17  C   UNL     1     172.703 179.347 180.393  1.00  0.00    -0.000 C 
BRANCH  17  18
ATOM     18  C   UNL     1     171.373 178.859 180.990  1.00  0.00    -0.003 C 
ATOM     19  C   UNL     1     171.483 177.469 181.617  1.00  0.00     0.004 C 
ENDBRANCH  17  18
ENDBRANCH  16  17
ENDBRANCH  15  16
ENDBRANCH  14  15
ENDBRANCH  13  14
ENDBRANCH  12  13
ENDBRANCH   1  12
TORSDOF 14
ENDMDL
MODEL 8
REMARK VINA RESULT:    -4.002      1.423      3.166
REMARK INTER + INTRA:          -9.563
REMARK INTER:                  -7.104
REMARK INTRA:                  -2.459
REMARK UNBOUND:                -2.285
REMARK SMILES CCCCCCCCCCCCCC[C@H](C)C(=O)[O-]
REMARK SMILES IDX 9 1 10 2 11 3 12 4 13 5 14 6 15 7 16 8 17 9 18 10 19 11 8 12
REMARK SMILES IDX 7 13 6 14 5 15 4 16 3 17 2 18 1 19
REMARK H PARENT
REMARK Flexibility Score: inf
ROOT
ATOM      1  C   UNL     1     162.696 180.106 180.410  1.00  0.00     0.000 C 
ENDROOT
BRANCH   1   2
ATOM      2  C   UNL     1     162.487 179.149 181.590  1.00  0.00     0.000 C 
BRANCH   2   3
ATOM      3  C   UNL     1     163.539 178.031 181.583  1.00  0.00     0.000 C 
BRANCH   3   4
ATOM      4  C   UNL     1     162.942 176.659 181.229  1.00  0.00     0.000 C 
BRANCH   4   5
ATOM      5  C   UNL     1     161.416 176.709 181.036  1.00  0.00     0.001 C 
BRANCH   5   6
ATOM      6  C   UNL     1     160.762 175.315 181.174  1.00  0.00     0.009 C 
BRANCH   6   7
ATOM      7  C   UNL     1     161.282 174.246 180.186  1.00  0.00     0.032 C 
ATOM      8  C   UNL     1     161.006 174.602 178.718  1.00  0.00     0.014 C 
BRANCH   7   9
ATOM      9  C   UNL     1     160.775 172.871 180.541  1.00  0.00     0.044 C 
ATOM     10  O   UNL     1     160.938 172.395 181.697  1.00  0.00    -0.550 OA
ATOM     11  O   UNL     1     160.151 172.097 179.570  1.00  0.00    -0.550 OA
ENDBRANCH   7   9
ENDBRANCH   6   7
ENDBRANCH   5   6
ENDBRANCH   4   5
ENDBRANCH   3   4
ENDBRANCH   2   3
ENDBRANCH   1   2
BRANCH   1  12
ATOM     12  C   UNL     1     161.546 179.999 179.401  1.00  0.00     0.000 C 
BRANCH  12  13
ATOM     13  C   UNL     1     162.080 179.729 177.986  1.00  0.00    -0.000 C 
BRANCH  13  14
ATOM     14  C   UNL     1     162.150 178.229 177.655  1.00  0.00    -0.000 C 
BRANCH  14  15
ATOM     15  C   UNL     1     163.563 177.650 177.843  1.00  0.00    -0.000 C 
BRANCH  15  16
ATOM     16  C   UNL     1     164.662 178.712 177.674  1.00  0.00    -0.000 C 
BRANCH  16  17
ATOM     17  C   UNL     1     165.927 178.393 178.491  1.00  0.00    -0.000 C 
BRANCH  17  18
ATOM     18  C   UNL     1     165.991 176.920 178.927  1.00  0.00    -0.003 C 
ATOM     19  C   UNL     1     166.741 176.728 180.246  1.00  0.00     0.004 C 
ENDBRANCH  17  18
ENDBRANCH  16  17
ENDBRANCH  15  16
ENDBRANCH  14  15
ENDBRANCH  13  14
ENDBRANCH  12  13
ENDBRANCH   1  12
TORSDOF 14
ENDMDL
MODEL 9
REMARK VINA RESULT:    -3.988      2.444      5.698
REMARK INTER + INTRA:          -9.536
REMARK INTER:                  -7.271
REMARK INTRA:                  -2.265
REMARK UNBOUND:                -2.285
REMARK SMILES CCCCCCCCCCCCCC[C@H](C)C(=O)[O-]
REMARK SMILES IDX 9 1 10 2 11 3 12 4 13 5 14 6 15 7 16 8 17 9 18 10 19 11 8 12
REMARK SMILES IDX 7 13 6 14 5 15 4 16 3 17 2 18 1 19
REMARK H PARENT
REMARK Flexibility Score: inf
ROOT
ATOM      1  C   UNL     1     164.794 177.747 179.928  1.00  0.00     0.000 C 
ENDROOT
BRANCH   1   2
ATOM      2  C   UNL     1     164.708 179.264 180.129  1.00  0.00     0.000 C 
BRANCH   2   3
ATOM      3  C   UNL     1     163.701 179.616 181.233  1.00  0.00     0.000 C 
BRANCH   3   4
ATOM      4  C   UNL     1     162.247 179.600 180.734  1.00  0.00     0.000 C 
BRANCH   4   5
ATOM      5  C   UNL     1     162.109 180.125 179.294  1.00  0.00     0.001 C 
BRANCH   5   6
ATOM      6  C   UNL     1     161.468 179.081 178.350  1.00  0.00     0.009 C 
BRANCH   6   7
ATOM      7  C   UNL     1     162.452 178.368 177.396  1.00  0.00     0.032 C 
ATOM      8  C   UNL     1     163.007 179.294 176.304  1.00  0.00     0.014 C 
BRANCH   7   9
ATOM      9  C   UNL     1     161.852 177.110 176.820  1.00  0.00     0.044 C 
ATOM     10  O   UNL     1     160.616 176.878 176.912  1.00  0.00    -0.550 OA
ATOM     11  O   UNL     1     162.676 176.171 176.213  1.00  0.00    -0.550 OA
ENDBRANCH   7   9
ENDBRANCH   6   7
ENDBRANCH   5   6
ENDBRANCH   4   5
ENDBRANCH   3   4
ENDBRANCH   2   3
ENDBRANCH   1   2
BRANCH   1  12
ATOM     12  C   UNL     1     164.868 177.014 181.273  1.00  0.00     0.000 C 
BRANCH  12  13
ATOM     13  C   UNL     1     163.679 176.056 181.443  1.00  0.00    -0.000 C 
BRANCH  13  14
ATOM     14  C   UNL     1     162.830 175.932 180.168  1.00  0.00    -0.000 C 
BRANCH  14  15
ATOM     15  C   UNL     1     161.323 176.051 180.450  1.00  0.00    -0.000 C 
BRANCH  15  16
ATOM     16  C   UNL     1     160.754 174.806 181.150  1.00  0.00    -0.000 C 
BRANCH  16  17
ATOM     17  C   UNL     1     160.840 173.541 180.278  1.00  0.00    -0.000 C 
BRANCH  17  18
ATOM     18  C   UNL     1     161.238 172.295 181.086  1.00  0.00    -0.003 C 
ATOM     19  C   UNL     1     161.771 172.639 182.478  1.00  0.00     0.004 C 
ENDBRANCH  17  18
ENDBRANCH  16  17
ENDBRANCH  15  16
ENDBRANCH  14  15
ENDBRANCH  13  14
ENDBRANCH  12  13
ENDBRANCH   1  12
TORSDOF 14
ENDMDL
