MODEL 1
REMARK VINA RESULT:    -4.102      0.000      0.000
REMARK INTER + INTRA:          -5.919
REMARK INTER:                  -6.261
REMARK INTRA:                   0.342
REMARK UNBOUND:                 0.342
REMARK SMILES CC1=CCC[C@H](C)C(=O)C[C@H](C(C)C)C(=O)C1
REMARK SMILES IDX 8 1 9 2 6 3 7 4 5 5 4 6 3 7 2 8 1 9 10 11 11 12 15 13 16 14
REMARK SMILES IDX 17 15 12 17 13 18 14 19
REMARK H PARENT
REMARK Flexibility Score: 70.00
ROOT
ATOM      1  C   UNL     1     108.067  50.194  64.254  1.00  0.00     0.136 C 
ATOM      2  O   UNL     1     107.014  49.662  64.578  1.00  0.00    -0.299 OA
ENDROOT
BRANCH   1   3
ATOM      3  C   UNL     1     108.013  51.632  63.751  1.00  0.00     0.053 C 
ATOM      4  C   UNL     1     109.365  52.360  63.716  1.00  0.00     0.016 C 
BRANCH   3   5
ATOM      5  C   UNL     1     107.259  51.741  62.399  1.00  0.00     0.015 C 
BRANCH   5   6
ATOM      6  C   UNL     1     108.091  51.410  61.146  1.00  0.00     0.028 C 
BRANCH   6   7
ATOM      7  C   UNL     1     107.764  50.046  60.589  1.00  0.00    -0.028 C 
ATOM      8  C   UNL     1     108.500  48.925  60.770  1.00  0.00    -0.070 CG0
ATOM      9  C   UNL     1     107.999  47.643  60.155  1.00  0.00     0.039 C 
ATOM     10  G   UNL     1     109.827  48.910  61.506  1.00  0.00     0.000 G0
ENDBRANCH   6   7
ENDBRANCH   5   6
ENDBRANCH   3   5
ENDBRANCH   1   3
BRANCH   1  11
ATOM     11  C   UNL     1     109.336  49.382  64.410  1.00  0.00     0.087 C 
BRANCH  11  12
ATOM     12  C   UNL     1     109.171  47.934  63.874  1.00  0.00     0.066 C 
BRANCH  12  13
ATOM     13  C   UNL     1     109.831  47.782  62.513  1.00  0.00     0.140 C 
ATOM     14  O   UNL     1     110.360  46.721  62.210  1.00  0.00    -0.299 OA
BRANCH  13  15
ATOM     15  C   UNL     1     109.820  48.896  61.498  1.00  0.00     0.106 CG0
ATOM     16  G   UNL     1     108.492  48.939  60.765  1.00  0.00     0.000 G0
ENDBRANCH  13  15
ENDBRANCH  12  13
BRANCH  12  17
ATOM     17  C   UNL     1     109.690  46.838  64.859  1.00  0.00    -0.006 C 
ATOM     18  C   UNL     1     109.061  45.467  64.561  1.00  0.00     0.008 C 
ATOM     19  C   UNL     1     109.503  47.190  66.347  1.00  0.00     0.008 C 
ENDBRANCH  12  17
ENDBRANCH  11  12
ENDBRANCH   1  11
TORSDOF 1
ENDMDL
MODEL 2
REMARK VINA RESULT:    -3.722      1.943      5.139
REMARK INTER + INTRA:          -5.338
REMARK INTER:                  -6.624
REMARK INTRA:                   1.286
REMARK UNBOUND:                 0.342
REMARK SMILES CC1=CCC[C@H](C)C(=O)C[C@H](C(C)C)C(=O)C1
REMARK SMILES IDX 8 1 9 2 6 3 7 4 5 5 4 6 3 7 2 8 1 9 10 11 11 12 15 13 16 14
REMARK SMILES IDX 17 15 12 17 13 18 14 19
REMARK H PARENT
REMARK Flexibility Score: 70.00
ROOT
ATOM      1  C   UNL     1     108.054  48.866  61.358  1.00  0.00     0.136 C 
ATOM      2  O   UNL     1     106.837  48.866  61.488  1.00  0.00    -0.299 OA
ENDROOT
BRANCH   1   3
ATOM      3  C   UNL     1     108.770  47.521  61.355  1.00  0.00     0.053 C 
ATOM      4  C   UNL     1     109.254  47.045  59.977  1.00  0.00     0.016 C 
BRANCH   3   5
ATOM      5  C   UNL     1     109.900  47.469  62.419  1.00  0.00     0.015 C 
BRANCH   5   6
ATOM      6  C   UNL     1     109.496  46.892  63.788  1.00  0.00     0.028 C 
BRANCH   6   7
ATOM      7  C   UNL     1     108.432  47.722  64.464  1.00  0.00    -0.028 C 
ATOM      8  C   UNL     1     108.426  49.073  64.553  1.00  0.00    -0.070 CG0
ATOM      9  C   UNL     1     107.260  49.730  65.248  1.00  0.00     0.039 C 
ATOM     10  G   UNL     1     109.557  49.946  64.043  1.00  0.00     0.000 G0
ENDBRANCH   6   7
ENDBRANCH   5   6
ENDBRANCH   3   5
ENDBRANCH   1   3
BRANCH   1  11
ATOM     11  C   UNL     1     108.736  50.208  61.183  1.00  0.00     0.087 C 
BRANCH  11  12
ATOM     12  C   UNL     1     108.187  51.274  62.171  1.00  0.00     0.066 C 
BRANCH  12  13
ATOM     13  C   UNL     1     108.961  51.249  63.479  1.00  0.00     0.140 C 
ATOM     14  O   UNL     1     109.110  52.283  64.116  1.00  0.00    -0.299 OA
BRANCH  13  15
ATOM     15  C   UNL     1     109.526  49.970  64.042  1.00  0.00     0.106 CG0
ATOM     16  G   UNL     1     108.414  49.078  64.560  1.00  0.00     0.000 G0
ENDBRANCH  13  15
ENDBRANCH  12  13
BRANCH  12  17
ATOM     17  C   UNL     1     108.158  52.719  61.579  1.00  0.00    -0.006 C 
ATOM     18  C   UNL     1     106.881  52.968  60.759  1.00  0.00     0.008 C 
ATOM     19  C   UNL     1     109.399  53.083  60.744  1.00  0.00     0.008 C 
ENDBRANCH  12  17
ENDBRANCH  11  12
ENDBRANCH   1  11
TORSDOF 1
ENDMDL
MODEL 3
REMARK VINA RESULT:    -3.583      1.415      4.194
REMARK INTER + INTRA:          -5.126
REMARK INTER:                  -6.097
REMARK INTRA:                   0.971
REMARK UNBOUND:                 0.342
REMARK SMILES CC1=CCC[C@H](C)C(=O)C[C@H](C(C)C)C(=O)C1
REMARK SMILES IDX 8 1 9 2 6 3 7 4 5 5 4 6 3 7 2 8 1 9 10 11 11 12 15 13 16 14
REMARK SMILES IDX 17 15 12 17 13 18 14 19
REMARK H PARENT
REMARK Flexibility Score: 70.00
ROOT
ATOM      1  C   UNL     1     107.854  48.608  64.747  1.00  0.00     0.136 C 
ATOM      2  O   UNL     1     106.877  47.872  64.739  1.00  0.00    -0.299 OA
ENDROOT
BRANCH   1   3
ATOM      3  C   UNL     1     109.225  47.970  64.945  1.00  0.00     0.053 C 
ATOM      4  C   UNL     1     109.735  47.961  66.393  1.00  0.00     0.016 C 
BRANCH   3   5
ATOM      5  C   UNL     1     109.305  46.565  64.290  1.00  0.00     0.015 C 
BRANCH   5   6
ATOM      6  C   UNL     1     109.520  46.554  62.766  1.00  0.00     0.028 C 
BRANCH   6   7
ATOM      7  C   UNL     1     110.246  47.785  62.284  1.00  0.00    -0.028 C 
ATOM      8  C   UNL     1     109.693  48.802  61.583  1.00  0.00    -0.070 CG0
ATOM      9  C   UNL     1     110.575  49.966  61.209  1.00  0.00     0.039 C 
ATOM     10  G   UNL     1     108.252  48.798  61.107  1.00  0.00     0.000 G0
ENDBRANCH   6   7
ENDBRANCH   5   6
ENDBRANCH   3   5
ENDBRANCH   1   3
BRANCH   1  11
ATOM     11  C   UNL     1     107.616  50.089  64.530  1.00  0.00     0.087 C 
BRANCH  11  12
ATOM     12  C   UNL     1     108.044  50.545  63.108  1.00  0.00     0.066 C 
BRANCH  12  13
ATOM     13  C   UNL     1     107.413  49.662  62.044  1.00  0.00     0.140 C 
ATOM     14  O   UNL     1     106.198  49.654  61.903  1.00  0.00    -0.299 OA
BRANCH  13  15
ATOM     15  C   UNL     1     108.249  48.813  61.121  1.00  0.00     0.106 CG0
ATOM     16  G   UNL     1     109.697  48.796  61.575  1.00  0.00     0.000 G0
ENDBRANCH  13  15
ENDBRANCH  12  13
BRANCH  12  17
ATOM     17  C   UNL     1     107.745  52.051  62.818  1.00  0.00    -0.006 C 
ATOM     18  C   UNL     1     107.602  52.317  61.309  1.00  0.00     0.008 C 
ATOM     19  C   UNL     1     108.767  53.025  63.430  1.00  0.00     0.008 C 
ENDBRANCH  12  17
ENDBRANCH  11  12
ENDBRANCH   1  11
TORSDOF 1
ENDMDL
MODEL 4
REMARK VINA RESULT:    -3.249      1.734      3.890
REMARK INTER + INTRA:          -4.617
REMARK INTER:                  -7.026
REMARK INTRA:                   2.409
REMARK UNBOUND:                 0.342
REMARK SMILES CC1=CCC[C@H](C)C(=O)C[C@H](C(C)C)C(=O)C1
REMARK SMILES IDX 8 1 9 2 6 3 7 4 5 5 4 6 3 7 2 8 1 9 10 11 11 12 15 13 16 14
REMARK SMILES IDX 17 15 12 17 13 18 14 19
REMARK H PARENT
REMARK Flexibility Score: 70.00
ROOT
ATOM      1  C   UNL     1     107.249  51.022  61.661  1.00  0.00     0.136 C 
ATOM      2  O   UNL     1     106.834  52.105  61.273  1.00  0.00    -0.299 OA
ENDROOT
BRANCH   1   3
ATOM      3  C   UNL     1     108.256  50.288  60.782  1.00  0.00     0.053 C 
ATOM      4  C   UNL     1     109.713  50.744  60.943  1.00  0.00     0.016 C 
BRANCH   3   5
ATOM      5  C   UNL     1     108.111  48.747  60.904  1.00  0.00     0.015 C 
BRANCH   5   6
ATOM      6  C   UNL     1     109.427  47.970  61.092  1.00  0.00     0.028 C 
BRANCH   6   7
ATOM      7  C   UNL     1     109.332  46.946  62.196  1.00  0.00    -0.028 C 
ATOM      8  C   UNL     1     109.358  47.214  63.522  1.00  0.00    -0.070 CG0
ATOM      9  C   UNL     1     109.224  46.058  64.480  1.00  0.00     0.039 C 
ATOM     10  G   UNL     1     109.574  48.606  64.086  1.00  0.00     0.000 G0
ENDBRANCH   6   7
ENDBRANCH   5   6
ENDBRANCH   3   5
ENDBRANCH   1   3
BRANCH   1  11
ATOM     11  C   UNL     1     106.745  50.519  62.998  1.00  0.00     0.087 C 
BRANCH  11  12
ATOM     12  C   UNL     1     107.836  50.604  64.101  1.00  0.00     0.066 C 
BRANCH  12  13
ATOM     13  C   UNL     1     108.260  49.216  64.552  1.00  0.00     0.140 C 
ATOM     14  O   UNL     1     107.513  48.554  65.260  1.00  0.00    -0.299 OA
BRANCH  13  15
ATOM     15  C   UNL     1     109.568  48.606  64.119  1.00  0.00     0.106 CG0
ATOM     16  G   UNL     1     109.345  47.228  63.525  1.00  0.00     0.000 G0
ENDBRANCH  13  15
ENDBRANCH  12  13
BRANCH  12  17
ATOM     17  C   UNL     1     109.083  51.448  63.685  1.00  0.00    -0.006 C 
ATOM     18  C   UNL     1     110.370  50.913  64.335  1.00  0.00     0.008 C 
ATOM     19  C   UNL     1     108.943  52.957  63.959  1.00  0.00     0.008 C 
ENDBRANCH  12  17
ENDBRANCH  11  12
ENDBRANCH   1  11
TORSDOF 1
ENDMDL
MODEL 5
REMARK VINA RESULT:    -3.106      1.725      4.305
REMARK INTER + INTRA:          -4.399
REMARK INTER:                  -8.553
REMARK INTRA:                   4.154
REMARK UNBOUND:                 0.342
REMARK SMILES CC1=CCC[C@H](C)C(=O)C[C@H](C(C)C)C(=O)C1
REMARK SMILES IDX 8 1 9 2 6 3 7 4 5 5 4 6 3 7 2 8 1 9 10 11 11 12 15 13 16 14
REMARK SMILES IDX 17 15 12 17 13 18 14 19
REMARK H PARENT
REMARK Flexibility Score: 70.00
ROOT
ATOM      1  C   UNL     1     109.854  47.316  62.743  1.00  0.00     0.136 C 
ATOM      2  O   UNL     1     109.941  46.358  61.986  1.00  0.00    -0.299 OA
ENDROOT
BRANCH   1   3
ATOM      3  C   UNL     1     109.075  47.130  64.040  1.00  0.00     0.053 C 
ATOM      4  C   UNL     1     109.447  45.878  64.849  1.00  0.00     0.016 C 
BRANCH   3   5
ATOM      5  C   UNL     1     109.096  48.414  64.913  1.00  0.00     0.015 C 
BRANCH   5   6
ATOM      6  C   UNL     1     107.716  48.979  65.294  1.00  0.00     0.028 C 
BRANCH   6   7
ATOM      7  C   UNL     1     107.290  50.106  64.386  1.00  0.00    -0.028 C 
ATOM      8  C   UNL     1     107.035  49.996  63.061  1.00  0.00    -0.070 CG0
ATOM      9  C   UNL     1     106.594  51.233  62.321  1.00  0.00     0.039 C 
ATOM     10  G   UNL     1     107.228  48.709  62.281  1.00  0.00     0.000 G0
ENDBRANCH   6   7
ENDBRANCH   5   6
ENDBRANCH   3   5
ENDBRANCH   1   3
BRANCH   1  11
ATOM     11  C   UNL     1     110.556  48.595  62.335  1.00  0.00     0.087 C 
BRANCH  11  12
ATOM     12  C   UNL     1     109.628  49.532  61.514  1.00  0.00     0.066 C 
BRANCH  12  13
ATOM     13  C   UNL     1     108.296  48.858  61.227  1.00  0.00     0.140 C 
ATOM     14  O   UNL     1     108.080  48.387  60.119  1.00  0.00    -0.299 OA
BRANCH  13  15
ATOM     15  C   UNL     1     107.235  48.716  62.288  1.00  0.00     0.106 CG0
ATOM     16  G   UNL     1     107.077  50.011  63.062  1.00  0.00     0.000 G0
ENDBRANCH  13  15
ENDBRANCH  12  13
BRANCH  12  17
ATOM     17  C   UNL     1     109.403  50.928  62.177  1.00  0.00    -0.006 C 
ATOM     18  C   UNL     1     109.512  52.066  61.147  1.00  0.00     0.008 C 
ATOM     19  C   UNL     1     110.327  51.212  63.375  1.00  0.00     0.008 C 
ENDBRANCH  12  17
ENDBRANCH  11  12
ENDBRANCH   1  11
TORSDOF 1
ENDMDL
MODEL 6
REMARK VINA RESULT:    -3.056      1.824      4.120
REMARK INTER + INTRA:          -4.323
REMARK INTER:                  -5.780
REMARK INTRA:                   1.457
REMARK UNBOUND:                 0.342
REMARK SMILES CC1=CCC[C@H](C)C(=O)C[C@H](C(C)C)C(=O)C1
REMARK SMILES IDX 8 1 9 2 6 3 7 4 5 5 4 6 3 7 2 8 1 9 10 11 11 12 15 13 16 14
REMARK SMILES IDX 17 15 12 17 13 18 14 19
REMARK H PARENT
REMARK Flexibility Score: 70.00
ROOT
ATOM      1  C   UNL     1     109.700  50.144  64.052  1.00  0.00     0.136 C 
ATOM      2  O   UNL     1     109.875  51.290  64.444  1.00  0.00    -0.299 OA
ENDROOT
BRANCH   1   3
ATOM      3  C   UNL     1     109.119  49.136  65.036  1.00  0.00     0.053 C 
ATOM      4  C   UNL     1     107.593  48.968  64.971  1.00  0.00     0.016 C 
BRANCH   3   5
ATOM      5  C   UNL     1     109.857  47.772  64.965  1.00  0.00     0.015 C 
BRANCH   5   6
ATOM      6  C   UNL     1     109.088  46.636  64.266  1.00  0.00     0.028 C 
BRANCH   6   7
ATOM      7  C   UNL     1     109.512  46.461  62.828  1.00  0.00    -0.028 C 
ATOM      8  C   UNL     1     108.996  47.127  61.769  1.00  0.00    -0.070 CG0
ATOM      9  C   UNL     1     109.567  46.836  60.404  1.00  0.00     0.039 C 
ATOM     10  G   UNL     1     107.838  48.102  61.882  1.00  0.00     0.000 G0
ENDBRANCH   6   7
ENDBRANCH   5   6
ENDBRANCH   3   5
ENDBRANCH   1   3
BRANCH   1  11
ATOM     11  C   UNL     1     110.052  49.838  62.610  1.00  0.00     0.087 C 
BRANCH  11  12
ATOM     12  C   UNL     1     109.016  50.437  61.619  1.00  0.00     0.066 C 
BRANCH  12  13
ATOM     13  C   UNL     1     108.073  49.361  61.107  1.00  0.00     0.140 C 
ATOM     14  O   UNL     1     107.527  49.498  60.021  1.00  0.00    -0.299 OA
BRANCH  13  15
ATOM     15  C   UNL     1     107.814  48.097  61.887  1.00  0.00     0.106 CG0
ATOM     16  G   UNL     1     108.995  47.151  61.778  1.00  0.00     0.000 G0
ENDBRANCH  13  15
ENDBRANCH  12  13
BRANCH  12  17
ATOM     17  C   UNL     1     108.209  51.639  62.206  1.00  0.00    -0.006 C 
ATOM     18  C   UNL     1     106.739  51.263  62.458  1.00  0.00     0.008 C 
ATOM     19  C   UNL     1     108.286  52.923  61.359  1.00  0.00     0.008 C 
ENDBRANCH  12  17
ENDBRANCH  11  12
ENDBRANCH   1  11
TORSDOF 1
ENDMDL
MODEL 7
REMARK VINA RESULT:    -3.003      1.898      3.795
REMARK INTER + INTRA:          -4.242
REMARK INTER:                  -6.337
REMARK INTRA:                   2.095
REMARK UNBOUND:                 0.342
REMARK SMILES CC1=CCC[C@H](C)C(=O)C[C@H](C(C)C)C(=O)C1
REMARK SMILES IDX 8 1 9 2 6 3 7 4 5 5 4 6 3 7 2 8 1 9 10 11 11 12 15 13 16 14
REMARK SMILES IDX 17 15 12 17 13 18 14 19
REMARK H PARENT
REMARK Flexibility Score: 70.00
ROOT
ATOM      1  C   UNL     1     109.839  50.756  61.892  1.00  0.00     0.136 C 
ATOM      2  O   UNL     1     110.431  50.866  60.827  1.00  0.00    -0.299 OA
ENDROOT
BRANCH   1   3
ATOM      3  C   UNL     1     108.748  51.772  62.209  1.00  0.00     0.053 C 
ATOM      4  C   UNL     1     107.536  51.740  61.267  1.00  0.00     0.016 C 
BRANCH   3   5
ATOM      5  C   UNL     1     108.325  51.715  63.702  1.00  0.00     0.015 C 
BRANCH   5   6
ATOM      6  C   UNL     1     107.507  50.478  64.114  1.00  0.00     0.028 C 
BRANCH   6   7
ATOM      7  C   UNL     1     108.203  49.662  65.176  1.00  0.00    -0.028 C 
ATOM      8  C   UNL     1     108.559  48.361  65.062  1.00  0.00    -0.070 CG0
ATOM      9  C   UNL     1     109.272  47.719  66.225  1.00  0.00     0.039 C 
ATOM     10  G   UNL     1     108.223  47.509  63.852  1.00  0.00     0.000 G0
ENDBRANCH   6   7
ENDBRANCH   5   6
ENDBRANCH   3   5
ENDBRANCH   1   3
BRANCH   1  11
ATOM     11  C   UNL     1     110.227  49.599  62.790  1.00  0.00     0.087 C 
BRANCH  11  12
ATOM     12  C   UNL     1     110.035  48.227  62.086  1.00  0.00     0.066 C 
BRANCH  12  13
ATOM     13  C   UNL     1     109.451  47.204  63.047  1.00  0.00     0.140 C 
ATOM     14  O   UNL     1     110.000  46.120  63.187  1.00  0.00    -0.299 OA
BRANCH  13  15
ATOM     15  C   UNL     1     108.224  47.500  63.870  1.00  0.00     0.106 CG0
ATOM     16  G   UNL     1     108.579  48.364  65.066  1.00  0.00     0.000 G0
ENDBRANCH  13  15
ENDBRANCH  12  13
BRANCH  12  17
ATOM     17  C   UNL     1     109.178  48.306  60.783  1.00  0.00    -0.006 C 
ATOM     18  C   UNL     1     107.679  48.443  61.100  1.00  0.00     0.008 C 
ATOM     19  C   UNL     1     109.405  47.136  59.808  1.00  0.00     0.008 C 
ENDBRANCH  12  17
ENDBRANCH  11  12
ENDBRANCH   1  11
TORSDOF 1
ENDMDL
MODEL 8
REMARK VINA RESULT:    -2.932      1.750      3.783
REMARK INTER + INTRA:          -4.133
REMARK INTER:                  -5.762
REMARK INTRA:                   1.629
REMARK UNBOUND:                 0.342
REMARK SMILES CC1=CCC[C@H](C)C(=O)C[C@H](C(C)C)C(=O)C1
REMARK SMILES IDX 8 1 9 2 6 3 7 4 5 5 4 6 3 7 2 8 1 9 10 11 11 12 15 13 16 14
REMARK SMILES IDX 17 15 12 17 13 18 14 19
REMARK H PARENT
REMARK Flexibility Score: 70.00
ROOT
ATOM      1  C   UNL     1     109.930  48.266  62.085  1.00  0.00     0.136 C 
ATOM      2  O   UNL     1     110.296  47.160  62.460  1.00  0.00    -0.299 OA
ENDROOT
BRANCH   1   3
ATOM      3  C   UNL     1     108.801  48.334  61.064  1.00  0.00     0.053 C 
ATOM      4  C   UNL     1     108.802  47.211  60.017  1.00  0.00     0.016 C 
BRANCH   3   5
ATOM      5  C   UNL     1     107.416  48.491  61.748  1.00  0.00     0.015 C 
BRANCH   5   6
ATOM      6  C   UNL     1     106.708  49.838  61.510  1.00  0.00     0.028 C 
BRANCH   6   7
ATOM      7  C   UNL     1     107.655  50.899  61.007  1.00  0.00    -0.028 C 
ATOM      8  C   UNL     1     108.369  51.748  61.783  1.00  0.00    -0.070 CG0
ATOM      9  C   UNL     1     109.287  52.729  61.098  1.00  0.00     0.039 C 
ATOM     10  G   UNL     1     108.244  51.800  63.294  1.00  0.00     0.000 G0
ENDBRANCH   6   7
ENDBRANCH   5   6
ENDBRANCH   3   5
ENDBRANCH   1   3
BRANCH   1  11
ATOM     11  C   UNL     1     110.617  49.471  62.694  1.00  0.00     0.087 C 
BRANCH  11  12
ATOM     12  C   UNL     1     109.946  49.913  64.024  1.00  0.00     0.066 C 
BRANCH  12  13
ATOM     13  C   UNL     1     109.519  51.371  63.956  1.00  0.00     0.140 C 
ATOM     14  O   UNL     1     110.246  52.238  64.419  1.00  0.00    -0.299 OA
BRANCH  13  15
ATOM     15  C   UNL     1     108.231  51.790  63.295  1.00  0.00     0.106 CG0
ATOM     16  G   UNL     1     108.368  51.748  61.784  1.00  0.00     0.000 G0
ENDBRANCH  13  15
ENDBRANCH  12  13
BRANCH  12  17
ATOM     17  C   UNL     1     108.744  49.010  64.449  1.00  0.00    -0.006 C 
ATOM     18  C   UNL     1     107.588  49.844  65.027  1.00  0.00     0.008 C 
ATOM     19  C   UNL     1     109.119  47.882  65.428  1.00  0.00     0.008 C 
ENDBRANCH  12  17
ENDBRANCH  11  12
ENDBRANCH   1  11
TORSDOF 1
ENDMDL
MODEL 9
REMARK VINA RESULT:    -2.797      1.689      2.474
REMARK INTER + INTRA:          -3.928
REMARK INTER:                  -6.268
REMARK INTRA:                   2.340
REMARK UNBOUND:                 0.342
REMARK SMILES CC1=CCC[C@H](C)C(=O)C[C@H](C(C)C)C(=O)C1
REMARK SMILES IDX 8 1 9 2 6 3 7 4 5 5 4 6 3 7 2 8 1 9 10 11 11 12 15 13 16 14
REMARK SMILES IDX 17 15 12 17 13 18 14 19
REMARK H PARENT
REMARK Flexibility Score: 70.00
ROOT
ATOM      1  C   UNL     1     109.998  50.951  63.344  1.00  0.00     0.136 C 
ATOM      2  O   UNL     1     110.142  51.411  64.468  1.00  0.00    -0.299 OA
ENDROOT
BRANCH   1   3
ATOM      3  C   UNL     1     109.779  51.930  62.196  1.00  0.00     0.053 C 
ATOM      4  C   UNL     1     110.090  51.375  60.799  1.00  0.00     0.016 C 
BRANCH   3   5
ATOM      5  C   UNL     1     108.374  52.588  62.262  1.00  0.00     0.015 C 
BRANCH   5   6
ATOM      6  C   UNL     1     107.200  51.691  61.830  1.00  0.00     0.028 C 
BRANCH   6   7
ATOM      7  C   UNL     1     107.659  50.500  61.024  1.00  0.00    -0.028 C 
ATOM      8  C   UNL     1     107.464  49.203  61.356  1.00  0.00    -0.070 CG0
ATOM      9  C   UNL     1     107.975  48.147  60.409  1.00  0.00     0.039 C 
ATOM     10  G   UNL     1     106.815  48.765  62.655  1.00  0.00     0.000 G0
ENDBRANCH   6   7
ENDBRANCH   5   6
ENDBRANCH   3   5
ENDBRANCH   1   3
BRANCH   1  11
ATOM     11  C   UNL     1     110.079  49.446  63.189  1.00  0.00     0.087 C 
BRANCH  11  12
ATOM     12  C   UNL     1     109.048  48.711  64.090  1.00  0.00     0.066 C 
BRANCH  12  13
ATOM     13  C   UNL     1     107.642  49.231  63.837  1.00  0.00     0.140 C 
ATOM     14  O   UNL     1     107.162  50.072  64.586  1.00  0.00    -0.299 OA
BRANCH  13  15
ATOM     15  C   UNL     1     106.825  48.768  62.659  1.00  0.00     0.106 CG0
ATOM     16  G   UNL     1     107.468  49.209  61.357  1.00  0.00     0.000 G0
ENDBRANCH  13  15
ENDBRANCH  12  13
BRANCH  12  17
ATOM     17  C   UNL     1     109.090  47.156  63.950  1.00  0.00    -0.006 C 
ATOM     18  C   UNL     1     109.586  46.486  65.242  1.00  0.00     0.008 C 
ATOM     19  C   UNL     1     109.910  46.654  62.747  1.00  0.00     0.008 C 
ENDBRANCH  12  17
ENDBRANCH  11  12
ENDBRANCH   1  11
TORSDOF 1
ENDMDL
