MODEL 1
REMARK VINA RESULT:    -3.228      0.000      0.000
REMARK INTER + INTRA:          -3.582
REMARK INTER:                  -3.416
REMARK INTRA:                  -0.165
REMARK UNBOUND:                -0.165
REMARK SMILES C=C(C)[C@@H]1CC=C(C)CC1
REMARK SMILES IDX 8 1 7 2 6 3 5 4 4 5 10 6 9 7 2 8 1 9 3 10
REMARK H PARENT
REMARK Flexibility Score: inf
ROOT
ATOM      1  C   UNL     1      10.165   8.252  13.905  1.00  0.00     0.039 C 
ATOM      2  C   UNL     1       8.755   7.932  13.495  1.00  0.00    -0.077 C 
ATOM      3  C   UNL     1       7.734   8.187  14.330  1.00  0.00    -0.027 C 
ATOM      4  C   UNL     1       6.335   7.815  13.922  1.00  0.00     0.035 C 
ATOM      5  C   UNL     1       6.308   6.384  13.333  1.00  0.00     0.018 C 
ATOM      6  C   UNL     1       7.495   6.087  12.359  1.00  0.00     0.013 C 
ATOM      7  C   UNL     1       8.454   7.276  12.168  1.00  0.00     0.031 C 
ENDROOT
BRANCH   5   8
ATOM      8  C   UNL     1       4.963   6.107  12.679  1.00  0.00    -0.077 C 
ATOM      9  C   UNL     1       4.431   4.875  12.713  1.00  0.00     0.008 C 
ATOM     10  C   UNL     1       4.191   7.213  12.004  1.00  0.00     0.039 C 
ENDBRANCH   5   8
TORSDOF 1
ENDMDL
MODEL 2
REMARK VINA RESULT:    -3.212      0.392      1.144
REMARK INTER + INTRA:          -3.565
REMARK INTER:                  -3.393
REMARK INTRA:                  -0.172
REMARK UNBOUND:                -0.165
REMARK SMILES C=C(C)[C@@H]1CC=C(C)CC1
REMARK SMILES IDX 8 1 7 2 6 3 5 4 4 5 10 6 9 7 2 8 1 9 3 10
REMARK H PARENT
REMARK Flexibility Score: inf
ROOT
ATOM      1  C   UNL     1      10.021   8.250  13.830  1.00  0.00     0.039 C 
ATOM      2  C   UNL     1       8.575   7.978  13.521  1.00  0.00    -0.077 C 
ATOM      3  C   UNL     1       7.679   7.881  14.517  1.00  0.00    -0.027 C 
ATOM      4  C   UNL     1       6.245   7.560  14.192  1.00  0.00     0.035 C 
ATOM      5  C   UNL     1       6.171   6.392  13.179  1.00  0.00     0.018 C 
ATOM      6  C   UNL     1       7.214   6.505  12.018  1.00  0.00     0.013 C 
ATOM      7  C   UNL     1       8.103   7.758  12.103  1.00  0.00     0.031 C 
ENDROOT
BRANCH   5   8
ATOM      8  C   UNL     1       4.754   6.243  12.647  1.00  0.00    -0.077 C 
ATOM      9  C   UNL     1       4.009   7.327  12.381  1.00  0.00     0.008 C 
ATOM     10  C   UNL     1       4.169   4.877  12.385  1.00  0.00     0.039 C 
ENDBRANCH   5   8
TORSDOF 1
ENDMDL
MODEL 3
REMARK VINA RESULT:    -2.214      0.864      1.800
REMARK INTER + INTRA:          -2.509
REMARK INTER:                  -2.346
REMARK INTRA:                  -0.163
REMARK UNBOUND:                -0.165
REMARK SMILES C=C(C)[C@@H]1CC=C(C)CC1
REMARK SMILES IDX 8 1 7 2 6 3 5 4 4 5 10 6 9 7 2 8 1 9 3 10
REMARK H PARENT
REMARK Flexibility Score: inf
ROOT
ATOM      1  C   UNL     1       9.734   8.283  13.447  1.00  0.00     0.039 C 
ATOM      2  C   UNL     1       8.405   7.583  13.406  1.00  0.00    -0.077 C 
ATOM      3  C   UNL     1       8.163   6.646  12.475  1.00  0.00    -0.027 C 
ATOM      4  C   UNL     1       6.810   5.992  12.419  1.00  0.00     0.035 C 
ATOM      5  C   UNL     1       5.692   7.057  12.528  1.00  0.00     0.018 C 
ATOM      6  C   UNL     1       5.972   8.147  13.614  1.00  0.00     0.013 C 
ATOM      7  C   UNL     1       7.298   7.945  14.369  1.00  0.00     0.031 C 
ENDROOT
BRANCH   5   8
ATOM      8  C   UNL     1       4.343   6.386  12.740  1.00  0.00    -0.077 C 
ATOM      9  C   UNL     1       4.143   5.119  12.347  1.00  0.00     0.008 C 
ATOM     10  C   UNL     1       3.214   7.122  13.420  1.00  0.00     0.039 C 
ENDBRANCH   5   8
TORSDOF 1
ENDMDL
MODEL 4
REMARK VINA RESULT:    -0.691      1.812      4.074
REMARK INTER + INTRA:          -0.897
REMARK INTER:                  -0.733
REMARK INTRA:                  -0.163
REMARK UNBOUND:                -0.165
REMARK SMILES C=C(C)[C@@H]1CC=C(C)CC1
REMARK SMILES IDX 8 1 7 2 6 3 5 4 4 5 10 6 9 7 2 8 1 9 3 10
REMARK H PARENT
REMARK Flexibility Score: inf
ROOT
ATOM      1  C   UNL     1       2.682   8.412  13.640  1.00  0.00     0.039 C 
ATOM      2  C   UNL     1       3.857   7.710  13.021  1.00  0.00    -0.077 C 
ATOM      3  C   UNL     1       4.152   6.448  13.373  1.00  0.00    -0.027 C 
ATOM      4  C   UNL     1       5.361   5.778  12.779  1.00  0.00     0.035 C 
ATOM      5  C   UNL     1       6.580   6.731  12.822  1.00  0.00     0.018 C 
ATOM      6  C   UNL     1       6.238   8.200  12.410  1.00  0.00     0.013 C 
ATOM      7  C   UNL     1       4.761   8.412  12.034  1.00  0.00     0.031 C 
ENDROOT
BRANCH   5   8
ATOM      8  C   UNL     1       7.721   6.166  11.990  1.00  0.00    -0.077 C 
ATOM      9  C   UNL     1       8.072   4.875  12.103  1.00  0.00     0.008 C 
ATOM     10  C   UNL     1       8.462   7.036  11.006  1.00  0.00     0.039 C 
ENDBRANCH   5   8
TORSDOF 1
ENDMDL
