MODEL 1
REMARK VINA RESULT:    -4.111      0.000      0.000
REMARK INTER + INTRA:          -4.111
REMARK INTER:                  -4.111
REMARK INTRA:                   0.000
REMARK UNBOUND:                 0.000
REMARK SMILES CC1=CC(=O)[C@@H]2C[C@H]1C2(C)C
REMARK SMILES IDX 1 1 2 2 3 3 4 4 5 5 6 6 7 7 8 8 9 9 10 10 11 11
REMARK H PARENT
REMARK Flexibility Score: inf
ROOT
ATOM      1  C   UNL     1       3.627  34.004  14.164  1.00  0.00     0.040 C 
ATOM      2  C   UNL     1       4.280  32.756  14.668  1.00  0.00    -0.066 C 
ATOM      3  C   UNL     1       3.622  31.564  14.727  1.00  0.00     0.047 C 
ATOM      4  C   UNL     1       4.405  30.400  15.253  1.00  0.00     0.159 C 
ATOM      5  O   UNL     1       3.924  29.239  15.316  1.00  0.00    -0.295 OA
ATOM      6  C   UNL     1       5.829  30.721  15.707  1.00  0.00     0.067 C 
ATOM      7  C   UNL     1       5.677  32.012  16.541  1.00  0.00     0.021 C 
ATOM      8  C   UNL     1       5.726  32.781  15.202  1.00  0.00     0.022 C 
ATOM      9  C   UNL     1       6.518  31.579  14.608  1.00  0.00    -0.019 C 
ATOM     10  C   UNL     1       8.046  31.711  14.832  1.00  0.00     0.012 C 
ATOM     11  C   UNL     1       6.275  31.204  13.118  1.00  0.00     0.012 C 
ENDROOT
TORSDOF 0
ENDMDL
MODEL 2
REMARK VINA RESULT:    -4.057      1.997      3.427
REMARK INTER + INTRA:          -4.057
REMARK INTER:                  -4.057
REMARK INTRA:                   0.000
REMARK UNBOUND:                 0.000
REMARK SMILES CC1=CC(=O)[C@@H]2C[C@H]1C2(C)C
REMARK SMILES IDX 1 1 2 2 3 3 4 4 5 5 6 6 7 7 8 8 9 9 10 10 11 11
REMARK H PARENT
REMARK Flexibility Score: inf
ROOT
ATOM      1  C   UNL     1       5.273  28.583  14.869  1.00  0.00     0.040 C 
ATOM      2  C   UNL     1       5.853  29.954  15.015  1.00  0.00    -0.066 C 
ATOM      3  C   UNL     1       7.192  30.190  14.928  1.00  0.00     0.047 C 
ATOM      4  C   UNL     1       7.626  31.615  15.092  1.00  0.00     0.159 C 
ATOM      5  O   UNL     1       8.830  31.967  14.991  1.00  0.00    -0.295 OA
ATOM      6  C   UNL     1       6.505  32.610  15.392  1.00  0.00     0.067 C 
ATOM      7  C   UNL     1       5.661  31.911  16.481  1.00  0.00     0.021 C 
ATOM      8  C   UNL     1       4.951  31.165  15.329  1.00  0.00     0.022 C 
ATOM      9  C   UNL     1       5.335  32.353  14.399  1.00  0.00    -0.019 C 
ATOM     10  C   UNL     1       4.279  33.486  14.423  1.00  0.00     0.012 C 
ATOM     11  C   UNL     1       5.682  32.041  12.915  1.00  0.00     0.012 C 
ENDROOT
TORSDOF 0
ENDMDL
MODEL 3
REMARK VINA RESULT:    -3.924     17.438     18.690
REMARK INTER + INTRA:          -3.924
REMARK INTER:                  -3.924
REMARK INTRA:                   0.000
REMARK UNBOUND:                 0.000
REMARK SMILES CC1=CC(=O)[C@@H]2C[C@H]1C2(C)C
REMARK SMILES IDX 1 1 2 2 3 3 4 4 5 5 6 6 7 7 8 8 9 9 10 10 11 11
REMARK H PARENT
REMARK Flexibility Score: inf
ROOT
ATOM      1  C   UNL     1      15.906  18.699  16.373  1.00  0.00     0.040 C 
ATOM      2  C   UNL     1      15.327  17.319  16.348  1.00  0.00    -0.066 C 
ATOM      3  C   UNL     1      13.992  17.093  16.196  1.00  0.00     0.047 C 
ATOM      4  C   UNL     1      13.559  15.658  16.189  1.00  0.00     0.159 C 
ATOM      5  O   UNL     1      12.360  15.319  16.014  1.00  0.00    -0.295 OA
ATOM      6  C   UNL     1      14.675  14.637  16.411  1.00  0.00     0.067 C 
ATOM      7  C   UNL     1      15.483  15.212  17.595  1.00  0.00     0.021 C 
ATOM      8  C   UNL     1      16.224  16.082  16.554  1.00  0.00     0.022 C 
ATOM      9  C   UNL     1      15.872  15.004  15.488  1.00  0.00    -0.019 C 
ATOM     10  C   UNL     1      16.932  13.875  15.419  1.00  0.00     0.012 C 
ATOM     11  C   UNL     1      15.569  15.477  14.038  1.00  0.00     0.012 C 
ENDROOT
TORSDOF 0
ENDMDL
MODEL 4
REMARK VINA RESULT:    -3.905     12.371     13.291
REMARK INTER + INTRA:          -3.905
REMARK INTER:                  -3.905
REMARK INTRA:                   0.000
REMARK UNBOUND:                 0.000
REMARK SMILES CC1=CC(=O)[C@@H]2C[C@H]1C2(C)C
REMARK SMILES IDX 1 1 2 2 3 3 4 4 5 5 6 6 7 7 8 8 9 9 10 10 11 11
REMARK H PARENT
REMARK Flexibility Score: inf
ROOT
ATOM      1  C   UNL     1       3.882  19.523  16.000  1.00  0.00     0.040 C 
ATOM      2  C   UNL     1       5.103  18.806  15.516  1.00  0.00    -0.066 C 
ATOM      3  C   UNL     1       5.050  17.548  14.996  1.00  0.00     0.047 C 
ATOM      4  C   UNL     1       6.355  16.959  14.551  1.00  0.00     0.159 C 
ATOM      5  O   UNL     1       6.431  15.823  14.016  1.00  0.00    -0.295 OA
ATOM      6  C   UNL     1       7.585  17.834  14.794  1.00  0.00     0.067 C 
ATOM      7  C   UNL     1       7.403  18.348  16.239  1.00  0.00     0.021 C 
ATOM      8  C   UNL     1       6.499  19.450  15.641  1.00  0.00     0.022 C 
ATOM      9  C   UNL     1       7.272  19.276  14.301  1.00  0.00    -0.019 C 
ATOM     10  C   UNL     1       8.539  20.164  14.230  1.00  0.00     0.012 C 
ATOM     11  C   UNL     1       6.483  19.446  12.971  1.00  0.00     0.012 C 
ENDROOT
TORSDOF 0
ENDMDL
MODEL 5
REMARK VINA RESULT:    -3.824     17.616     18.885
REMARK INTER + INTRA:          -3.824
REMARK INTER:                  -3.824
REMARK INTRA:                   0.000
REMARK UNBOUND:                 0.000
REMARK SMILES CC1=CC(=O)[C@@H]2C[C@H]1C2(C)C
REMARK SMILES IDX 1 1 2 2 3 3 4 4 5 5 6 6 7 7 8 8 9 9 10 10 11 11
REMARK H PARENT
REMARK Flexibility Score: inf
ROOT
ATOM      1  C   UNL     1      17.993  17.054  16.066  1.00  0.00     0.040 C 
ATOM      2  C   UNL     1      16.568  16.668  15.827  1.00  0.00    -0.066 C 
ATOM      3  C   UNL     1      15.942  16.896  14.637  1.00  0.00     0.047 C 
ATOM      4  C   UNL     1      14.514  16.452  14.544  1.00  0.00     0.159 C 
ATOM      5  O   UNL     1      13.842  16.568  13.486  1.00  0.00    -0.295 OA
ATOM      6  C   UNL     1      13.930  15.852  15.823  1.00  0.00     0.067 C 
ATOM      7  C   UNL     1      14.385  16.820  16.936  1.00  0.00     0.021 C 
ATOM      8  C   UNL     1      15.719  16.040  16.951  1.00  0.00     0.022 C 
ATOM      9  C   UNL     1      14.941  14.814  16.389  1.00  0.00    -0.019 C 
ATOM     10  C   UNL     1      14.325  13.941  17.511  1.00  0.00     0.012 C 
ATOM     11  C   UNL     1      15.674  13.875  15.388  1.00  0.00     0.012 C 
ENDROOT
TORSDOF 0
ENDMDL
MODEL 6
REMARK VINA RESULT:    -3.822     17.028     18.418
REMARK INTER + INTRA:          -3.822
REMARK INTER:                  -3.822
REMARK INTRA:                   0.000
REMARK UNBOUND:                 0.000
REMARK SMILES CC1=CC(=O)[C@@H]2C[C@H]1C2(C)C
REMARK SMILES IDX 1 1 2 2 3 3 4 4 5 5 6 6 7 7 8 8 9 9 10 10 11 11
REMARK H PARENT
REMARK Flexibility Score: inf
ROOT
ATOM      1  C   UNL     1      14.368  13.945  17.501  1.00  0.00     0.040 C 
ATOM      2  C   UNL     1      14.866  15.231  16.922  1.00  0.00    -0.066 C 
ATOM      3  C   UNL     1      16.195  15.508  16.801  1.00  0.00     0.047 C 
ATOM      4  C   UNL     1      16.544  16.836  16.200  1.00  0.00     0.159 C 
ATOM      5  O   UNL     1      17.734  17.190  15.997  1.00  0.00    -0.295 OA
ATOM      6  C   UNL     1      15.352  17.730  15.852  1.00  0.00     0.067 C 
ATOM      7  C   UNL     1      14.439  17.640  17.094  1.00  0.00     0.021 C 
ATOM      8  C   UNL     1      13.882  16.334  16.483  1.00  0.00     0.022 C 
ATOM      9  C   UNL     1      14.301  16.877  15.086  1.00  0.00    -0.019 C 
ATOM     10  C   UNL     1      13.196  17.747  14.436  1.00  0.00     0.012 C 
ATOM     11  C   UNL     1      14.808  15.859  14.024  1.00  0.00     0.012 C 
ENDROOT
TORSDOF 0
ENDMDL
MODEL 7
REMARK VINA RESULT:    -3.814      9.608     11.032
REMARK INTER + INTRA:          -3.814
REMARK INTER:                  -3.814
REMARK INTRA:                   0.000
REMARK UNBOUND:                 0.000
REMARK SMILES CC1=CC(=O)[C@@H]2C[C@H]1C2(C)C
REMARK SMILES IDX 1 1 2 2 3 3 4 4 5 5 6 6 7 7 8 8 9 9 10 10 11 11
REMARK H PARENT
REMARK Flexibility Score: inf
ROOT
ATOM      1  C   UNL     1      16.878  31.023  12.968  1.00  0.00     0.040 C 
ATOM      2  C   UNL     1      16.166  29.873  13.608  1.00  0.00    -0.066 C 
ATOM      3  C   UNL     1      14.912  29.992  14.128  1.00  0.00     0.047 C 
ATOM      4  C   UNL     1      14.325  28.754  14.735  1.00  0.00     0.159 C 
ATOM      5  O   UNL     1      13.161  28.725  15.210  1.00  0.00    -0.295 OA
ATOM      6  C   UNL     1      15.242  27.529  14.738  1.00  0.00     0.067 C 
ATOM      7  C   UNL     1      16.602  28.077  15.221  1.00  0.00     0.021 C 
ATOM      8  C   UNL     1      16.854  28.501  13.756  1.00  0.00     0.022 C 
ATOM      9  C   UNL     1      15.868  27.377  13.322  1.00  0.00    -0.019 C 
ATOM     10  C   UNL     1      16.576  26.012  13.134  1.00  0.00     0.012 C 
ATOM     11  C   UNL     1      14.964  27.632  12.083  1.00  0.00     0.012 C 
ENDROOT
TORSDOF 0
ENDMDL
MODEL 8
REMARK VINA RESULT:    -3.752     11.506     12.787
REMARK INTER + INTRA:          -3.752
REMARK INTER:                  -3.752
REMARK INTRA:                   0.000
REMARK UNBOUND:                 0.000
REMARK SMILES CC1=CC(=O)[C@@H]2C[C@H]1C2(C)C
REMARK SMILES IDX 1 1 2 2 3 3 4 4 5 5 6 6 7 7 8 8 9 9 10 10 11 11
REMARK H PARENT
REMARK Flexibility Score: inf
ROOT
ATOM      1  C   UNL     1       9.472  20.800  16.425  1.00  0.00     0.040 C 
ATOM      2  C   UNL     1       8.320  20.264  15.635  1.00  0.00    -0.066 C 
ATOM      3  C   UNL     1       7.756  20.960  14.607  1.00  0.00     0.047 C 
ATOM      4  C   UNL     1       6.611  20.295  13.906  1.00  0.00     0.159 C 
ATOM      5  O   UNL     1       6.035  20.817  12.916  1.00  0.00    -0.295 OA
ATOM      6  C   UNL     1       6.191  18.941  14.478  1.00  0.00     0.067 C 
ATOM      7  C   UNL     1       6.156  19.171  16.004  1.00  0.00     0.021 C 
ATOM      8  C   UNL     1       7.679  18.908  15.992  1.00  0.00     0.022 C 
ATOM      9  C   UNL     1       7.467  18.077  14.693  1.00  0.00    -0.019 C 
ATOM     10  C   UNL     1       7.132  16.594  14.990  1.00  0.00     0.012 C 
ATOM     11  C   UNL     1       8.578  18.118  13.605  1.00  0.00     0.012 C 
ENDROOT
TORSDOF 0
ENDMDL
