MODEL 1
REMARK VINA RESULT:    -5.892      0.000      0.000
REMARK INTER + INTRA:          -9.084
REMARK INTER:                  -7.959
REMARK INTRA:                  -1.125
REMARK UNBOUND:                -1.125
REMARK SMILES CC(=O)CCC=C(C)CCC=C(C)C
REMARK SMILES IDX 7 1 6 2 8 3 9 4 10 5 11 6 13 7 12 8 14 9 5 10 4 11 2 12 3 13
REMARK SMILES IDX 1 14
REMARK H PARENT
REMARK Flexibility Score: inf
ROOT
ATOM      1  C   UNL     1     -11.734 -38.634  37.511  1.00  0.00    -0.077 C 
ATOM      2  C   UNL     1     -12.762 -39.472  37.245  1.00  0.00    -0.028 C 
ATOM      3  C   UNL     1     -11.302 -38.326  38.926  1.00  0.00     0.039 C 
ENDROOT
BRANCH   1   4
ATOM      4  C   UNL     1     -10.990 -37.995  36.359  1.00  0.00     0.034 C 
BRANCH   4   5
ATOM      5  C   UNL     1     -11.849 -36.920  35.682  1.00  0.00     0.032 C 
BRANCH   5   6
ATOM      6  C   UNL     1     -11.838 -35.633  36.470  1.00  0.00    -0.028 C 
ATOM      7  C   UNL     1     -14.206 -35.951  37.194  1.00  0.00     0.039 C 
ATOM      8  C   UNL     1     -12.906 -35.183  37.161  1.00  0.00    -0.080 C 
ATOM      9  C   UNL     1     -12.786 -33.884  37.914  1.00  0.00     0.039 C 
ENDBRANCH   5   6
ENDBRANCH   4   5
ENDBRANCH   1   4
BRANCH   2  10
ATOM     10  C   UNL     1     -13.610 -40.143  38.297  1.00  0.00     0.035 C 
BRANCH  10  11
ATOM     11  C   UNL     1     -13.120 -41.569  38.561  1.00  0.00     0.079 C 
BRANCH  11  12
ATOM     12  C   UNL     1     -12.572 -41.693  39.959  1.00  0.00     0.130 C 
ATOM     13  O   UNL     1     -11.567 -42.362  40.153  1.00  0.00    -0.300 OA
ATOM     14  C   UNL     1     -13.238 -41.020  41.122  1.00  0.00     0.087 C 
ENDBRANCH  11  12
ENDBRANCH  10  11
ENDBRANCH   2  10
TORSDOF 6
ENDMDL
MODEL 2
REMARK VINA RESULT:    -5.865      3.024      6.413
REMARK INTER + INTRA:          -9.048
REMARK INTER:                  -7.961
REMARK INTRA:                  -1.087
REMARK UNBOUND:                -1.125
REMARK SMILES CC(=O)CCC=C(C)CCC=C(C)C
REMARK SMILES IDX 7 1 6 2 8 3 9 4 10 5 11 6 13 7 12 8 14 9 5 10 4 11 2 12 3 13
REMARK SMILES IDX 1 14
REMARK H PARENT
REMARK Flexibility Score: inf
ROOT
ATOM      1  C   UNL     1     -12.869 -37.517  40.665  1.00  0.00    -0.077 C 
ATOM      2  C   UNL     1     -14.118 -37.066  40.409  1.00  0.00    -0.028 C 
ATOM      3  C   UNL     1     -11.818 -37.611  39.583  1.00  0.00     0.039 C 
ENDROOT
BRANCH   1   4
ATOM      4  C   UNL     1     -12.511 -37.928  42.077  1.00  0.00     0.034 C 
BRANCH   4   5
ATOM      5  C   UNL     1     -13.088 -39.310  42.408  1.00  0.00     0.032 C 
BRANCH   5   6
ATOM      6  C   UNL     1     -12.134 -40.410  42.012  1.00  0.00    -0.028 C 
ATOM      7  C   UNL     1     -13.599 -41.122  40.120  1.00  0.00     0.039 C 
ATOM      8  C   UNL     1     -12.358 -41.241  40.972  1.00  0.00    -0.080 C 
ATOM      9  C   UNL     1     -11.339 -42.307  40.664  1.00  0.00     0.039 C 
ENDBRANCH   5   6
ENDBRANCH   4   5
ENDBRANCH   1   4
BRANCH   2  10
ATOM     10  C   UNL     1     -14.617 -36.663  39.044  1.00  0.00     0.035 C 
BRANCH  10  11
ATOM     11  C   UNL     1     -14.480 -35.151  38.840  1.00  0.00     0.079 C 
BRANCH  11  12
ATOM     12  C   UNL     1     -13.414 -34.846  37.821  1.00  0.00     0.130 C 
ATOM     13  O   UNL     1     -12.677 -33.886  37.990  1.00  0.00    -0.300 OA
ATOM     14  C   UNL     1     -13.241 -35.692  36.594  1.00  0.00     0.087 C 
ENDBRANCH  11  12
ENDBRANCH  10  11
ENDBRANCH   2  10
TORSDOF 6
ENDMDL
MODEL 3
REMARK VINA RESULT:    -5.834      2.177      4.048
REMARK INTER + INTRA:          -9.006
REMARK INTER:                  -7.601
REMARK INTRA:                  -1.405
REMARK UNBOUND:                -1.125
REMARK SMILES CC(=O)CCC=C(C)CCC=C(C)C
REMARK SMILES IDX 7 1 6 2 8 3 9 4 10 5 11 6 13 7 12 8 14 9 5 10 4 11 2 12 3 13
REMARK SMILES IDX 1 14
REMARK H PARENT
REMARK Flexibility Score: inf
ROOT
ATOM      1  C   UNL     1     -12.663 -41.676  39.675  1.00  0.00    -0.077 C 
ATOM      2  C   UNL     1     -13.424 -40.816  40.391  1.00  0.00    -0.028 C 
ATOM      3  C   UNL     1     -11.413 -42.303  40.249  1.00  0.00     0.039 C 
ENDROOT
BRANCH   1   4
ATOM      4  C   UNL     1     -13.082 -42.027  38.263  1.00  0.00     0.034 C 
BRANCH   4   5
ATOM      5  C   UNL     1     -13.749 -40.830  37.576  1.00  0.00     0.032 C 
BRANCH   5   6
ATOM      6  C   UNL     1     -12.736 -39.982  36.848  1.00  0.00    -0.028 C 
ATOM      7  C   UNL     1     -13.393 -37.940  38.126  1.00  0.00     0.039 C 
ATOM      8  C   UNL     1     -12.566 -38.665  37.090  1.00  0.00    -0.080 C 
ATOM      9  C   UNL     1     -11.525 -37.912  36.304  1.00  0.00     0.039 C 
ENDBRANCH   5   6
ENDBRANCH   4   5
ENDBRANCH   1   4
BRANCH   2  10
ATOM     10  C   UNL     1     -13.101 -40.352  41.789  1.00  0.00     0.035 C 
BRANCH  10  11
ATOM     11  C   UNL     1     -12.736 -38.865  41.797  1.00  0.00     0.079 C 
BRANCH  11  12
ATOM     12  C   UNL     1     -11.242 -38.684  41.740  1.00  0.00     0.130 C 
ATOM     13  O   UNL     1     -10.606 -38.611  42.781  1.00  0.00    -0.300 OA
ATOM     14  C   UNL     1     -10.517 -38.582  40.431  1.00  0.00     0.087 C 
ENDBRANCH  11  12
ENDBRANCH  10  11
ENDBRANCH   2  10
TORSDOF 6
ENDMDL
MODEL 4
REMARK VINA RESULT:    -5.785      2.753      5.180
REMARK INTER + INTRA:          -8.940
REMARK INTER:                  -7.642
REMARK INTRA:                  -1.298
REMARK UNBOUND:                -1.125
REMARK SMILES CC(=O)CCC=C(C)CCC=C(C)C
REMARK SMILES IDX 7 1 6 2 8 3 9 4 10 5 11 6 13 7 12 8 14 9 5 10 4 11 2 12 3 13
REMARK SMILES IDX 1 14
REMARK H PARENT
REMARK Flexibility Score: inf
ROOT
ATOM      1  C   UNL     1     -13.724 -34.987  38.055  1.00  0.00    -0.077 C 
ATOM      2  C   UNL     1     -13.617 -36.010  37.176  1.00  0.00    -0.028 C 
ATOM      3  C   UNL     1     -12.770 -33.816  38.034  1.00  0.00     0.039 C 
ENDROOT
BRANCH   1   4
ATOM      4  C   UNL     1     -14.837 -35.013  39.080  1.00  0.00     0.034 C 
BRANCH   4   5
ATOM      5  C   UNL     1     -15.132 -36.448  39.532  1.00  0.00     0.032 C 
BRANCH   5   6
ATOM      6  C   UNL     1     -14.342 -36.806  40.767  1.00  0.00    -0.028 C 
ATOM      7  C   UNL     1     -13.167 -38.665  39.585  1.00  0.00     0.039 C 
ATOM      8  C   UNL     1     -13.445 -37.815  40.801  1.00  0.00    -0.080 C 
ATOM      9  C   UNL     1     -12.710 -38.087  42.088  1.00  0.00     0.039 C 
ENDBRANCH   5   6
ENDBRANCH   4   5
ENDBRANCH   1   4
BRANCH   2  10
ATOM     10  C   UNL     1     -12.535 -36.129  36.132  1.00  0.00     0.035 C 
BRANCH  10  11
ATOM     11  C   UNL     1     -11.666 -37.363  36.388  1.00  0.00     0.079 C 
BRANCH  11  12
ATOM     12  C   UNL     1     -10.323 -36.963  36.941  1.00  0.00     0.130 C 
ATOM     13  O   UNL     1      -9.333 -37.043  36.230  1.00  0.00    -0.300 OA
ATOM     14  C   UNL     1     -10.174 -36.475  38.352  1.00  0.00     0.087 C 
ENDBRANCH  11  12
ENDBRANCH  10  11
ENDBRANCH   2  10
TORSDOF 6
ENDMDL
MODEL 5
REMARK VINA RESULT:    -5.756      2.549      5.792
REMARK INTER + INTRA:          -8.901
REMARK INTER:                  -8.020
REMARK INTRA:                  -0.881
REMARK UNBOUND:                -1.125
REMARK SMILES CC(=O)CCC=C(C)CCC=C(C)C
REMARK SMILES IDX 7 1 6 2 8 3 9 4 10 5 11 6 13 7 12 8 14 9 5 10 4 11 2 12 3 13
REMARK SMILES IDX 1 14
REMARK H PARENT
REMARK Flexibility Score: inf
ROOT
ATOM      1  C   UNL     1     -14.329 -35.919  38.971  1.00  0.00    -0.077 C 
ATOM      2  C   UNL     1     -13.887 -36.515  37.840  1.00  0.00    -0.028 C 
ATOM      3  C   UNL     1     -14.791 -34.480  38.986  1.00  0.00     0.039 C 
ENDROOT
BRANCH   1   4
ATOM      4  C   UNL     1     -14.371 -36.720  40.255  1.00  0.00     0.034 C 
BRANCH   4   5
ATOM      5  C   UNL     1     -13.044 -37.450  40.488  1.00  0.00     0.032 C 
BRANCH   5   6
ATOM      6  C   UNL     1     -13.264 -38.794  41.139  1.00  0.00    -0.028 C 
ATOM      7  C   UNL     1     -13.003 -39.991  38.963  1.00  0.00     0.039 C 
ATOM      8  C   UNL     1     -13.248 -39.956  40.453  1.00  0.00    -0.080 C 
ATOM      9  C   UNL     1     -13.480 -41.242  41.203  1.00  0.00     0.039 C 
ENDBRANCH   5   6
ENDBRANCH   4   5
ENDBRANCH   1   4
BRANCH   2  10
ATOM     10  C   UNL     1     -13.757 -35.823  36.505  1.00  0.00     0.035 C 
BRANCH  10  11
ATOM     11  C   UNL     1     -12.345 -35.260  36.321  1.00  0.00     0.079 C 
BRANCH  11  12
ATOM     12  C   UNL     1     -11.351 -36.374  36.120  1.00  0.00     0.130 C 
ATOM     13  O   UNL     1     -11.449 -37.098  35.141  1.00  0.00    -0.300 OA
ATOM     14  C   UNL     1     -10.244 -36.618  37.103  1.00  0.00     0.087 C 
ENDBRANCH  11  12
ENDBRANCH  10  11
ENDBRANCH   2  10
TORSDOF 6
ENDMDL
MODEL 6
REMARK VINA RESULT:    -5.660      2.441      5.878
REMARK INTER + INTRA:          -8.771
REMARK INTER:                  -7.726
REMARK INTRA:                  -1.045
REMARK UNBOUND:                -1.125
REMARK SMILES CC(=O)CCC=C(C)CCC=C(C)C
REMARK SMILES IDX 7 1 6 2 8 3 9 4 10 5 11 6 13 7 12 8 14 9 5 10 4 11 2 12 3 13
REMARK SMILES IDX 1 14
REMARK H PARENT
REMARK Flexibility Score: inf
ROOT
ATOM      1  C   UNL     1     -12.669 -38.929  37.493  1.00  0.00    -0.077 C 
ATOM      2  C   UNL     1     -13.507 -38.409  38.420  1.00  0.00    -0.028 C 
ATOM      3  C   UNL     1     -11.386 -38.234  37.100  1.00  0.00     0.039 C 
ENDROOT
BRANCH   1   4
ATOM      4  C   UNL     1     -13.021 -40.249  36.843  1.00  0.00     0.034 C 
BRANCH   4   5
ATOM      5  C   UNL     1     -13.602 -41.228  37.870  1.00  0.00     0.032 C 
BRANCH   5   6
ATOM      6  C   UNL     1     -12.509 -41.987  38.583  1.00  0.00    -0.028 C 
ATOM      7  C   UNL     1     -13.158 -41.022  40.793  1.00  0.00     0.039 C 
ATOM      8  C   UNL     1     -12.298 -41.900  39.913  1.00  0.00    -0.080 C 
ATOM      9  C   UNL     1     -11.178 -42.702  40.523  1.00  0.00     0.039 C 
ENDBRANCH   5   6
ENDBRANCH   4   5
ENDBRANCH   1   4
BRANCH   2  10
ATOM     10  C   UNL     1     -13.297 -37.087  39.114  1.00  0.00     0.035 C 
BRANCH  10  11
ATOM     11  C   UNL     1     -14.181 -36.001  38.495  1.00  0.00     0.079 C 
BRANCH  11  12
ATOM     12  C   UNL     1     -13.448 -35.281  37.394  1.00  0.00     0.130 C 
ATOM     13  O   UNL     1     -13.679 -35.571  36.229  1.00  0.00    -0.300 OA
ATOM     14  C   UNL     1     -12.432 -34.220  37.696  1.00  0.00     0.087 C 
ENDBRANCH  11  12
ENDBRANCH  10  11
ENDBRANCH   2  10
TORSDOF 6
ENDMDL
MODEL 7
REMARK VINA RESULT:    -5.637      2.291      5.191
REMARK INTER + INTRA:          -8.739
REMARK INTER:                  -7.368
REMARK INTRA:                  -1.371
REMARK UNBOUND:                -1.125
REMARK SMILES CC(=O)CCC=C(C)CCC=C(C)C
REMARK SMILES IDX 7 1 6 2 8 3 9 4 10 5 11 6 13 7 12 8 14 9 5 10 4 11 2 12 3 13
REMARK SMILES IDX 1 14
REMARK H PARENT
REMARK Flexibility Score: inf
ROOT
ATOM      1  C   UNL     1     -12.762 -39.178  36.954  1.00  0.00    -0.077 C 
ATOM      2  C   UNL     1     -13.389 -38.475  37.925  1.00  0.00    -0.028 C 
ATOM      3  C   UNL     1     -11.578 -38.616  36.200  1.00  0.00     0.039 C 
ENDROOT
BRANCH   1   4
ATOM      4  C   UNL     1     -13.253 -40.571  36.622  1.00  0.00     0.034 C 
BRANCH   4   5
ATOM      5  C   UNL     1     -13.760 -41.286  37.880  1.00  0.00     0.032 C 
BRANCH   5   6
ATOM      6  C   UNL     1     -12.634 -41.981  38.606  1.00  0.00    -0.028 C 
ATOM      7  C   UNL     1     -13.144 -40.778  40.734  1.00  0.00     0.039 C 
ATOM      8  C   UNL     1     -12.345 -41.756  39.906  1.00  0.00    -0.080 C 
ATOM      9  C   UNL     1     -11.198 -42.505  40.532  1.00  0.00     0.039 C 
ENDBRANCH   5   6
ENDBRANCH   4   5
ENDBRANCH   1   4
BRANCH   2  10
ATOM     10  C   UNL     1     -13.028 -37.066  38.327  1.00  0.00     0.035 C 
BRANCH  10  11
ATOM     11  C   UNL     1     -12.335 -37.052  39.692  1.00  0.00     0.079 C 
BRANCH  11  12
ATOM     12  C   UNL     1     -10.853 -37.274  39.539  1.00  0.00     0.130 C 
ATOM     13  O   UNL     1     -10.205 -36.526  38.821  1.00  0.00    -0.300 OA
ATOM     14  C   UNL     1     -10.155 -38.399  40.243  1.00  0.00     0.087 C 
ENDBRANCH  11  12
ENDBRANCH  10  11
ENDBRANCH   2  10
TORSDOF 6
ENDMDL
MODEL 8
REMARK VINA RESULT:    -5.562      1.806      3.069
REMARK INTER + INTRA:          -8.638
REMARK INTER:                  -7.754
REMARK INTRA:                  -0.884
REMARK UNBOUND:                -1.125
REMARK SMILES CC(=O)CCC=C(C)CCC=C(C)C
REMARK SMILES IDX 7 1 6 2 8 3 9 4 10 5 11 6 13 7 12 8 14 9 5 10 4 11 2 12 3 13
REMARK SMILES IDX 1 14
REMARK H PARENT
REMARK Flexibility Score: inf
ROOT
ATOM      1  C   UNL     1     -13.166 -41.070  38.522  1.00  0.00    -0.077 C 
ATOM      2  C   UNL     1     -13.517 -40.520  39.707  1.00  0.00    -0.028 C 
ATOM      3  C   UNL     1     -12.919 -42.553  38.374  1.00  0.00     0.039 C 
ENDROOT
BRANCH   1   4
ATOM      4  C   UNL     1     -13.027 -40.175  37.309  1.00  0.00     0.034 C 
BRANCH   4   5
ATOM      5  C   UNL     1     -12.157 -38.954  37.627  1.00  0.00     0.032 C 
BRANCH   5   6
ATOM      6  C   UNL     1     -12.602 -37.744  36.842  1.00  0.00    -0.028 C 
ATOM      7  C   UNL     1     -13.983 -36.906  38.747  1.00  0.00     0.039 C 
ATOM      8  C   UNL     1     -13.434 -36.806  37.343  1.00  0.00    -0.080 C 
ATOM      9  C   UNL     1     -13.816 -35.637  36.473  1.00  0.00     0.039 C 
ENDBRANCH   5   6
ENDBRANCH   4   5
ENDBRANCH   1   4
BRANCH   2  10
ATOM     10  C   UNL     1     -13.652 -41.288  40.998  1.00  0.00     0.035 C 
BRANCH  10  11
ATOM     11  C   UNL     1     -12.374 -41.175  41.834  1.00  0.00     0.079 C 
BRANCH  11  12
ATOM     12  C   UNL     1     -12.117 -39.742  42.222  1.00  0.00     0.130 C 
ATOM     13  O   UNL     1     -12.905 -39.170  42.960  1.00  0.00    -0.300 OA
ATOM     14  C   UNL     1     -10.918 -38.999  41.714  1.00  0.00     0.087 C 
ENDBRANCH  11  12
ENDBRANCH  10  11
ENDBRANCH   2  10
TORSDOF 6
ENDMDL
MODEL 9
REMARK VINA RESULT:    -5.536      2.359      6.018
REMARK INTER + INTRA:          -8.604
REMARK INTER:                  -7.711
REMARK INTRA:                  -0.893
REMARK UNBOUND:                -1.125
REMARK SMILES CC(=O)CCC=C(C)CCC=C(C)C
REMARK SMILES IDX 7 1 6 2 8 3 9 4 10 5 11 6 13 7 12 8 14 9 5 10 4 11 2 12 3 13
REMARK SMILES IDX 1 14
REMARK H PARENT
REMARK Flexibility Score: inf
ROOT
ATOM      1  C   UNL     1     -11.602 -38.271  40.754  1.00  0.00    -0.077 C 
ATOM      2  C   UNL     1     -11.802 -37.489  39.668  1.00  0.00    -0.028 C 
ATOM      3  C   UNL     1     -10.228 -38.777  41.129  1.00  0.00     0.039 C 
ENDROOT
BRANCH   1   4
ATOM      4  C   UNL     1     -12.785 -38.641  41.622  1.00  0.00     0.034 C 
BRANCH   4   5
ATOM      5  C   UNL     1     -12.974 -40.162  41.671  1.00  0.00     0.032 C 
BRANCH   5   6
ATOM      6  C   UNL     1     -13.263 -40.723  40.300  1.00  0.00    -0.028 C 
ATOM      7  C   UNL     1     -11.370 -42.343  40.467  1.00  0.00     0.039 C 
ATOM      8  C   UNL     1     -12.538 -41.716  39.743  1.00  0.00    -0.080 C 
ATOM      9  C   UNL     1     -12.913 -42.201  38.367  1.00  0.00     0.039 C 
ENDBRANCH   5   6
ENDBRANCH   4   5
ENDBRANCH   1   4
BRANCH   2  10
ATOM     10  C   UNL     1     -10.721 -37.080  38.699  1.00  0.00     0.035 C 
BRANCH  10  11
ATOM     11  C   UNL     1     -11.201 -35.936  37.801  1.00  0.00     0.079 C 
BRANCH  11  12
ATOM     12  C   UNL     1     -12.264 -36.418  36.849  1.00  0.00     0.130 C 
ATOM     13  O   UNL     1     -11.993 -37.291  36.037  1.00  0.00    -0.300 OA
ATOM     14  C   UNL     1     -13.649 -35.843  36.869  1.00  0.00     0.087 C 
ENDBRANCH  11  12
ENDBRANCH  10  11
ENDBRANCH   2  10
TORSDOF 6
ENDMDL
