MODEL 1
REMARK VINA RESULT:    -5.735      0.000      0.000
REMARK INTER + INTRA:          -6.528
REMARK INTER:                  -6.405
REMARK INTRA:                  -0.123
REMARK UNBOUND:                -0.123
REMARK SMILES O=C([O-])c1ccccc1C(=O)[O-]
REMARK SMILES IDX 4 1 9 2 5 3 8 4 6 5 7 6 2 7 1 8 3 9 10 10 11 11 12 12
REMARK H PARENT
REMARK Flexibility Score: inf
ROOT
ATOM      1  C   UNL     1       0.760  -7.913   7.217  1.00  0.00     0.006 A 
ATOM      2  C   UNL     1       2.099  -8.196   7.605  1.00  0.00     0.006 A 
ATOM      3  C   UNL     1       0.352  -8.208   5.903  1.00  0.00     0.010 A 
ATOM      4  C   UNL     1       2.961  -8.822   6.684  1.00  0.00     0.010 A 
ATOM      5  C   UNL     1       1.230  -8.808   4.999  1.00  0.00     0.001 A 
ATOM      6  C   UNL     1       2.527  -9.125   5.393  1.00  0.00     0.001 A 
ENDROOT
BRANCH   1   7
ATOM      7  C   UNL     1      -0.251  -7.388   8.162  1.00  0.00     0.072 C 
ATOM      8  O   UNL     1      -0.467  -6.149   8.236  1.00  0.00    -0.545 OA
ATOM      9  O   UNL     1      -1.019  -8.253   8.932  1.00  0.00    -0.545 OA
ENDBRANCH   1   7
BRANCH   2  10
ATOM     10  C   UNL     1       2.652  -7.793   8.918  1.00  0.00     0.072 C 
ATOM     11  O   UNL     1       3.502  -6.867   8.991  1.00  0.00    -0.545 OA
ATOM     12  O   UNL     1       2.194  -8.383  10.091  1.00  0.00    -0.545 OA
ENDBRANCH   2  10
TORSDOF 2
ENDMDL
MODEL 2
REMARK VINA RESULT:    -5.645      0.168      2.869
REMARK INTER + INTRA:          -6.428
REMARK INTER:                  -6.217
REMARK INTRA:                  -0.212
REMARK UNBOUND:                -0.123
REMARK SMILES O=C([O-])c1ccccc1C(=O)[O-]
REMARK SMILES IDX 4 1 9 2 5 3 8 4 6 5 7 6 2 7 1 8 3 9 10 10 11 11 12 12
REMARK H PARENT
REMARK Flexibility Score: inf
ROOT
ATOM      1  C   UNL     1       2.134  -8.252   7.570  1.00  0.00     0.006 A 
ATOM      2  C   UNL     1       0.799  -7.983   7.161  1.00  0.00     0.006 A 
ATOM      3  C   UNL     1       3.025  -8.843   6.654  1.00  0.00     0.010 A 
ATOM      4  C   UNL     1       0.422  -8.256   5.832  1.00  0.00     0.010 A 
ATOM      5  C   UNL     1       2.623  -9.125   5.348  1.00  0.00     0.001 A 
ATOM      6  C   UNL     1       1.329  -8.821   4.935  1.00  0.00     0.001 A 
ENDROOT
BRANCH   1   7
ATOM      7  C   UNL     1       2.654  -7.868   8.902  1.00  0.00     0.072 C 
ATOM      8  O   UNL     1       3.264  -6.777   9.054  1.00  0.00    -0.545 OA
ATOM      9  O   UNL     1       2.422  -8.672  10.013  1.00  0.00    -0.545 OA
ENDBRANCH   1   7
BRANCH   2  10
ATOM     10  C   UNL     1      -0.240  -7.495   8.097  1.00  0.00     0.072 C 
ATOM     11  O   UNL     1      -0.450  -6.260   8.222  1.00  0.00    -0.545 OA
ATOM     12  O   UNL     1      -1.040  -8.390   8.798  1.00  0.00    -0.545 OA
ENDBRANCH   2  10
TORSDOF 2
ENDMDL
MODEL 3
REMARK VINA RESULT:    -4.426     14.529     15.959
REMARK INTER + INTRA:          -5.066
REMARK INTER:                  -4.848
REMARK INTRA:                  -0.218
REMARK UNBOUND:                -0.123
REMARK SMILES O=C([O-])c1ccccc1C(=O)[O-]
REMARK SMILES IDX 4 1 9 2 5 3 8 4 6 5 7 6 2 7 1 8 3 9 10 10 11 11 12 12
REMARK H PARENT
REMARK Flexibility Score: inf
ROOT
ATOM      1  C   UNL     1      -4.409  -0.653  -5.126  1.00  0.00     0.006 A 
ATOM      2  C   UNL     1      -5.264  -1.699  -4.681  1.00  0.00     0.006 A 
ATOM      3  C   UNL     1      -3.027  -0.897  -5.230  1.00  0.00     0.010 A 
ATOM      4  C   UNL     1      -4.713  -2.968  -4.418  1.00  0.00     0.010 A 
ATOM      5  C   UNL     1      -2.500  -2.156  -4.942  1.00  0.00     0.001 A 
ATOM      6  C   UNL     1      -3.343  -3.193  -4.550  1.00  0.00     0.001 A 
ENDROOT
BRANCH   1   7
ATOM      7  C   UNL     1      -4.921   0.667  -5.559  1.00  0.00     0.072 C 
ATOM      8  O   UNL     1      -5.279   0.848  -6.752  1.00  0.00    -0.545 OA
ATOM      9  O   UNL     1      -5.073   1.703  -4.644  1.00  0.00    -0.545 OA
ENDBRANCH   1   7
BRANCH   2  10
ATOM     10  C   UNL     1      -6.705  -1.492  -4.411  1.00  0.00     0.072 C 
ATOM     11  O   UNL     1      -7.572  -1.975  -5.186  1.00  0.00    -0.545 OA
ATOM     12  O   UNL     1      -7.122  -0.822  -3.266  1.00  0.00    -0.545 OA
ENDBRANCH   2  10
TORSDOF 2
ENDMDL
MODEL 4
REMARK VINA RESULT:    -4.416     14.853     16.264
REMARK INTER + INTRA:          -5.055
REMARK INTER:                  -4.835
REMARK INTRA:                  -0.220
REMARK UNBOUND:                -0.123
REMARK SMILES O=C([O-])c1ccccc1C(=O)[O-]
REMARK SMILES IDX 4 1 9 2 5 3 8 4 6 5 7 6 2 7 1 8 3 9 10 10 11 11 12 12
REMARK H PARENT
REMARK Flexibility Score: inf
ROOT
ATOM      1  C   UNL     1      -5.173   0.251  -5.205  1.00  0.00     0.006 A 
ATOM      2  C   UNL     1      -4.486  -0.989  -5.320  1.00  0.00     0.006 A 
ATOM      3  C   UNL     1      -4.660   1.382  -5.869  1.00  0.00     0.010 A 
ATOM      4  C   UNL     1      -3.348  -1.067  -6.145  1.00  0.00     0.010 A 
ATOM      5  C   UNL     1      -3.518   1.285  -6.665  1.00  0.00     0.001 A 
ATOM      6  C   UNL     1      -2.871   0.062  -6.812  1.00  0.00     0.001 A 
ENDROOT
BRANCH   1   7
ATOM      7  C   UNL     1      -6.453   0.390  -4.474  1.00  0.00     0.072 C 
ATOM      8  O   UNL     1      -6.485   0.969  -3.356  1.00  0.00    -0.545 OA
ATOM      9  O   UNL     1      -7.643  -0.056  -5.037  1.00  0.00    -0.545 OA
ENDBRANCH   1   7
BRANCH   2  10
ATOM     10  C   UNL     1      -4.874  -2.191  -4.547  1.00  0.00     0.072 C 
ATOM     11  O   UNL     1      -4.374  -2.402  -3.410  1.00  0.00    -0.545 OA
ATOM     12  O   UNL     1      -5.840  -3.065  -5.033  1.00  0.00    -0.545 OA
ENDBRANCH   2  10
TORSDOF 2
ENDMDL
MODEL 5
REMARK VINA RESULT:    -4.415     14.861     16.425
REMARK INTER + INTRA:          -5.054
REMARK INTER:                  -4.837
REMARK INTRA:                  -0.217
REMARK UNBOUND:                -0.123
REMARK SMILES O=C([O-])c1ccccc1C(=O)[O-]
REMARK SMILES IDX 4 1 9 2 5 3 8 4 6 5 7 6 2 7 1 8 3 9 10 10 11 11 12 12
REMARK H PARENT
REMARK Flexibility Score: inf
ROOT
ATOM      1  C   UNL     1      -4.502  -0.970  -5.299  1.00  0.00     0.006 A 
ATOM      2  C   UNL     1      -5.209   0.260  -5.194  1.00  0.00     0.006 A 
ATOM      3  C   UNL     1      -3.348  -1.029  -6.102  1.00  0.00     0.010 A 
ATOM      4  C   UNL     1      -4.699   1.400  -5.844  1.00  0.00     0.010 A 
ATOM      5  C   UNL     1      -2.873   0.109  -6.755  1.00  0.00     0.001 A 
ATOM      6  C   UNL     1      -3.540   1.322  -6.617  1.00  0.00     0.001 A 
ENDROOT
BRANCH   1   7
ATOM      7  C   UNL     1      -4.887  -2.180  -4.537  1.00  0.00     0.072 C 
ATOM      8  O   UNL     1      -4.407  -2.387  -3.391  1.00  0.00    -0.545 OA
ATOM      9  O   UNL     1      -5.828  -3.068  -5.045  1.00  0.00    -0.545 OA
ENDBRANCH   1   7
BRANCH   2  10
ATOM     10  C   UNL     1      -6.505   0.378  -4.487  1.00  0.00     0.072 C 
ATOM     11  O   UNL     1      -6.570   0.969  -3.377  1.00  0.00    -0.545 OA
ATOM     12  O   UNL     1      -7.675  -0.100  -5.067  1.00  0.00    -0.545 OA
ENDBRANCH   2  10
TORSDOF 2
ENDMDL
MODEL 6
REMARK VINA RESULT:    -4.397     14.589     15.921
REMARK INTER + INTRA:          -5.034
REMARK INTER:                  -4.817
REMARK INTRA:                  -0.217
REMARK UNBOUND:                -0.123
REMARK SMILES O=C([O-])c1ccccc1C(=O)[O-]
REMARK SMILES IDX 4 1 9 2 5 3 8 4 6 5 7 6 2 7 1 8 3 9 10 10 11 11 12 12
REMARK H PARENT
REMARK Flexibility Score: inf
ROOT
ATOM      1  C   UNL     1      -5.295  -1.714  -4.742  1.00  0.00     0.006 A 
ATOM      2  C   UNL     1      -4.448  -0.662  -5.186  1.00  0.00     0.006 A 
ATOM      3  C   UNL     1      -4.737  -2.981  -4.488  1.00  0.00     0.010 A 
ATOM      4  C   UNL     1      -3.065  -0.898  -5.299  1.00  0.00     0.010 A 
ATOM      5  C   UNL     1      -3.366  -3.198  -4.628  1.00  0.00     0.001 A 
ATOM      6  C   UNL     1      -2.530  -2.156  -5.020  1.00  0.00     0.001 A 
ENDROOT
BRANCH   1   7
ATOM      7  C   UNL     1      -6.735  -1.516  -4.461  1.00  0.00     0.072 C 
ATOM      8  O   UNL     1      -7.605  -2.002  -5.232  1.00  0.00    -0.545 OA
ATOM      9  O   UNL     1      -7.148  -0.848  -3.314  1.00  0.00    -0.545 OA
ENDBRANCH   1   7
BRANCH   2  10
ATOM     10  C   UNL     1      -4.969   0.659  -5.608  1.00  0.00     0.072 C 
ATOM     11  O   UNL     1      -5.375   0.832  -6.788  1.00  0.00    -0.545 OA
ATOM     12  O   UNL     1      -5.080   1.702  -4.696  1.00  0.00    -0.545 OA
ENDBRANCH   2  10
TORSDOF 2
ENDMDL
MODEL 7
REMARK VINA RESULT:    -4.374     14.821     15.810
REMARK INTER + INTRA:          -5.008
REMARK INTER:                  -4.809
REMARK INTRA:                  -0.199
REMARK UNBOUND:                -0.123
REMARK SMILES O=C([O-])c1ccccc1C(=O)[O-]
REMARK SMILES IDX 4 1 9 2 5 3 8 4 6 5 7 6 2 7 1 8 3 9 10 10 11 11 12 12
REMARK H PARENT
REMARK Flexibility Score: inf
ROOT
ATOM      1  C   UNL     1       7.940   1.687  -3.865  1.00  0.00     0.006 A 
ATOM      2  C   UNL     1       7.804   0.395  -3.287  1.00  0.00     0.006 A 
ATOM      3  C   UNL     1       8.283   1.795  -5.226  1.00  0.00     0.010 A 
ATOM      4  C   UNL     1       7.954  -0.741  -4.105  1.00  0.00     0.010 A 
ATOM      5  C   UNL     1       8.448   0.655  -6.013  1.00  0.00     0.001 A 
ATOM      6  C   UNL     1       8.272  -0.609  -5.457  1.00  0.00     0.001 A 
ENDROOT
BRANCH   1   7
ATOM      7  C   UNL     1       7.661   2.932  -3.113  1.00  0.00     0.072 C 
ATOM      8  O   UNL     1       6.540   3.497  -3.215  1.00  0.00    -0.545 OA
ATOM      9  O   UNL     1       8.605   3.458  -2.239  1.00  0.00    -0.545 OA
ENDBRANCH   1   7
BRANCH   2  10
ATOM     10  C   UNL     1       7.583   0.188  -1.837  1.00  0.00     0.072 C 
ATOM     11  O   UNL     1       6.447  -0.145  -1.410  1.00  0.00    -0.545 OA
ATOM     12  O   UNL     1       8.639   0.292  -0.938  1.00  0.00    -0.545 OA
ENDBRANCH   2  10
TORSDOF 2
ENDMDL
MODEL 8
REMARK VINA RESULT:    -4.360     14.865     15.900
REMARK INTER + INTRA:          -4.992
REMARK INTER:                  -4.790
REMARK INTRA:                  -0.202
REMARK UNBOUND:                -0.123
REMARK SMILES O=C([O-])c1ccccc1C(=O)[O-]
REMARK SMILES IDX 4 1 9 2 5 3 8 4 6 5 7 6 2 7 1 8 3 9 10 10 11 11 12 12
REMARK H PARENT
REMARK Flexibility Score: inf
ROOT
ATOM      1  C   UNL     1       7.840   0.438  -3.298  1.00  0.00     0.006 A 
ATOM      2  C   UNL     1       8.008   1.741  -3.844  1.00  0.00     0.006 A 
ATOM      3  C   UNL     1       8.018  -0.681  -4.133  1.00  0.00     0.010 A 
ATOM      4  C   UNL     1       8.410   1.874  -5.187  1.00  0.00     0.010 A 
ATOM      5  C   UNL     1       8.395  -0.525  -5.467  1.00  0.00     0.001 A 
ATOM      6  C   UNL     1       8.603   0.749  -5.989  1.00  0.00     0.001 A 
ENDROOT
BRANCH   1   7
ATOM      7  C   UNL     1       7.557   0.204  -1.864  1.00  0.00     0.072 C 
ATOM      8  O   UNL     1       6.418  -0.192  -1.499  1.00  0.00    -0.545 OA
ATOM      9  O   UNL     1       8.557   0.354  -0.910  1.00  0.00    -0.545 OA
ENDBRANCH   1   7
BRANCH   2  10
ATOM     10  C   UNL     1       7.706   2.972  -3.079  1.00  0.00     0.072 C 
ATOM     11  O   UNL     1       6.576   3.519  -3.178  1.00  0.00    -0.545 OA
ATOM     12  O   UNL     1       8.637   3.503  -2.194  1.00  0.00    -0.545 OA
ENDBRANCH   2  10
TORSDOF 2
ENDMDL
