MODEL 1
REMARK VINA RESULT:    -4.825      0.000      0.000
REMARK INTER + INTRA:          -7.876
REMARK INTER:                  -7.364
REMARK INTRA:                  -0.512
REMARK UNBOUND:                -0.512
REMARK SMILES CC1=CCC[C@@H](C)C(=O)C[C@H](C(C)C)C(=O)C1
REMARK SMILES IDX 8 1 9 2 6 3 7 4 5 5 4 6 3 7 2 8 1 9 10 11 11 12 15 13 16 14
REMARK SMILES IDX 17 15 12 17 13 18 14 19
REMARK H PARENT
REMARK Flexibility Score: 70.00
ROOT
ATOM      1  C   UNL     1     -13.249 -16.239  28.333  1.00  0.00     0.136 C 
ATOM      2  O   UNL     1     -14.181 -16.007  27.581  1.00  0.00    -0.299 OA
ENDROOT
BRANCH   1   3
ATOM      3  C   UNL     1     -12.309 -17.408  28.001  1.00  0.00     0.053 C 
ATOM      4  C   UNL     1     -11.709 -17.279  26.597  1.00  0.00     0.016 C 
BRANCH   3   5
ATOM      5  C   UNL     1     -13.178 -18.632  28.157  1.00  0.00     0.015 C 
BRANCH   5   6
ATOM      6  C   UNL     1     -13.265 -19.589  29.308  1.00  0.00     0.028 C 
BRANCH   6   7
ATOM      7  C   UNL     1     -12.009 -19.400  30.169  1.00  0.00    -0.028 C 
ATOM      8  C   UNL     1     -11.840 -18.683  31.341  1.00  0.00    -0.070 CG0
ATOM      9  C   UNL     1     -10.423 -18.591  31.855  1.00  0.00     0.039 C 
ATOM     10  G   UNL     1     -12.939 -18.007  32.208  1.00  0.00     0.000 G0
ENDBRANCH   6   7
ENDBRANCH   5   6
ENDBRANCH   3   5
ENDBRANCH   1   3
BRANCH   1  11
ATOM     11  C   UNL     1     -13.070 -15.380  29.599  1.00  0.00     0.087 C 
BRANCH  11  12
ATOM     12  C   UNL     1     -13.826 -15.772  30.941  1.00  0.00     0.066 C 
BRANCH  12  13
ATOM     13  C   UNL     1     -13.026 -16.467  32.067  1.00  0.00     0.140 C 
ATOM     14  O   UNL     1     -12.495 -15.786  32.934  1.00  0.00    -0.299 OA
BRANCH  13  15
ATOM     15  C   UNL     1     -12.950 -17.997  32.197  1.00  0.00     0.106 CG0
ATOM     16  G   UNL     1     -11.844 -18.689  31.353  1.00  0.00     0.000 G0
ENDBRANCH  13  15
ENDBRANCH  12  13
BRANCH  12  17
ATOM     17  C   UNL     1     -14.735 -14.632  31.512  1.00  0.00    -0.006 C 
ATOM     18  C   UNL     1     -15.709 -15.145  32.587  1.00  0.00     0.008 C 
ATOM     19  C   UNL     1     -15.505 -13.859  30.431  1.00  0.00     0.008 C 
ENDBRANCH  12  17
ENDBRANCH  11  12
ENDBRANCH   1  11
TORSDOF 1
ENDMDL
MODEL 2
REMARK VINA RESULT:    -4.784      2.102      4.796
REMARK INTER + INTRA:          -7.813
REMARK INTER:                  -7.931
REMARK INTRA:                   0.118
REMARK UNBOUND:                -0.512
REMARK SMILES CC1=CCC[C@@H](C)C(=O)C[C@H](C(C)C)C(=O)C1
REMARK SMILES IDX 8 1 9 2 6 3 7 4 5 5 4 6 3 7 2 8 1 9 10 11 11 12 15 13 16 14
REMARK SMILES IDX 17 15 12 17 13 18 14 19
REMARK H PARENT
REMARK Flexibility Score: 70.00
ROOT
ATOM      1  C   UNL     1     -13.876 -16.843  32.603  1.00  0.00     0.136 C 
ATOM      2  O   UNL     1     -14.758 -17.229  33.353  1.00  0.00    -0.299 OA
ENDROOT
BRANCH   1   3
ATOM      3  C   UNL     1     -14.050 -15.489  31.899  1.00  0.00     0.053 C 
ATOM      4  C   UNL     1     -15.368 -14.809  32.285  1.00  0.00     0.016 C 
BRANCH   3   5
ATOM      5  C   UNL     1     -13.972 -15.827  30.430  1.00  0.00     0.015 C 
BRANCH   5   6
ATOM      6  C   UNL     1     -13.527 -14.968  29.285  1.00  0.00     0.028 C 
BRANCH   6   7
ATOM      7  C   UNL     1     -12.945 -15.891  28.206  1.00  0.00    -0.028 C 
ATOM      8  C   UNL     1     -11.744 -16.580  28.186  1.00  0.00    -0.070 CG0
ATOM      9  C   UNL     1     -11.418 -17.291  26.894  1.00  0.00     0.039 C 
ATOM     10  G   UNL     1     -10.724 -16.744  29.346  1.00  0.00     0.000 G0
ENDBRANCH   6   7
ENDBRANCH   5   6
ENDBRANCH   3   5
ENDBRANCH   1   3
BRANCH   1  11
ATOM     11  C   UNL     1     -12.644 -17.736  32.365  1.00  0.00     0.087 C 
BRANCH  11  12
ATOM     12  C   UNL     1     -12.318 -18.271  30.905  1.00  0.00     0.066 C 
BRANCH  12  13
ATOM     13  C   UNL     1     -10.937 -17.950  30.288  1.00  0.00     0.140 C 
ATOM     14  O   UNL     1     -10.002 -18.715  30.478  1.00  0.00    -0.299 OA
BRANCH  13  15
ATOM     15  C   UNL     1     -10.713 -16.747  29.357  1.00  0.00     0.106 CG0
ATOM     16  G   UNL     1     -11.743 -16.588  28.204  1.00  0.00     0.000 G0
ENDBRANCH  13  15
ENDBRANCH  12  13
BRANCH  12  17
ATOM     17  C   UNL     1     -12.704 -19.772  30.679  1.00  0.00    -0.006 C 
ATOM     18  C   UNL     1     -13.951 -19.927  29.792  1.00  0.00     0.008 C 
ATOM     19  C   UNL     1     -12.885 -20.563  31.983  1.00  0.00     0.008 C 
ENDBRANCH  12  17
ENDBRANCH  11  12
ENDBRANCH   1  11
TORSDOF 1
ENDMDL
MODEL 3
REMARK VINA RESULT:    -4.569      1.873      3.731
REMARK INTER + INTRA:          -7.485
REMARK INTER:                  -7.460
REMARK INTRA:                  -0.025
REMARK UNBOUND:                -0.512
REMARK SMILES CC1=CCC[C@@H](C)C(=O)C[C@H](C(C)C)C(=O)C1
REMARK SMILES IDX 8 1 9 2 6 3 7 4 5 5 4 6 3 7 2 8 1 9 10 11 11 12 15 13 16 14
REMARK SMILES IDX 17 15 12 17 13 18 14 19
REMARK H PARENT
REMARK Flexibility Score: 70.00
ROOT
ATOM      1  C   UNL     1     -11.798 -18.445  31.318  1.00  0.00     0.136 C 
ATOM      2  O   UNL     1     -10.762 -18.802  30.780  1.00  0.00    -0.299 OA
ENDROOT
BRANCH   1   3
ATOM      3  C   UNL     1     -12.975 -19.430  31.370  1.00  0.00     0.053 C 
ATOM      4  C   UNL     1     -12.606 -20.726  32.099  1.00  0.00     0.016 C 
BRANCH   3   5
ATOM      5  C   UNL     1     -13.331 -19.653  29.920  1.00  0.00     0.015 C 
BRANCH   5   6
ATOM      6  C   UNL     1     -13.995 -18.716  28.956  1.00  0.00     0.028 C 
BRANCH   6   7
ATOM      7  C   UNL     1     -12.985 -18.393  27.847  1.00  0.00    -0.028 C 
ATOM      8  C   UNL     1     -12.104 -17.331  27.735  1.00  0.00    -0.070 CG0
ATOM      9  C   UNL     1     -11.346 -17.243  26.431  1.00  0.00     0.039 C 
ATOM     10  G   UNL     1     -11.773 -16.255  28.806  1.00  0.00     0.000 G0
ENDBRANCH   6   7
ENDBRANCH   5   6
ENDBRANCH   3   5
ENDBRANCH   1   3
BRANCH   1  11
ATOM     11  C   UNL     1     -11.898 -17.019  31.889  1.00  0.00     0.087 C 
BRANCH  11  12
ATOM     12  C   UNL     1     -12.913 -15.975  31.252  1.00  0.00     0.066 C 
BRANCH  12  13
ATOM     13  C   UNL     1     -12.940 -15.809  29.715  1.00  0.00     0.140 C 
ATOM     14  O   UNL     1     -13.887 -15.242  29.190  1.00  0.00    -0.299 OA
BRANCH  13  15
ATOM     15  C   UNL     1     -11.769 -16.248  28.821  1.00  0.00     0.106 CG0
ATOM     16  G   UNL     1     -12.107 -17.319  27.747  1.00  0.00     0.000 G0
ENDBRANCH  13  15
ENDBRANCH  12  13
BRANCH  12  17
ATOM     17  C   UNL     1     -14.363 -16.060  31.838  1.00  0.00    -0.006 C 
ATOM     18  C   UNL     1     -15.006 -14.673  32.010  1.00  0.00     0.008 C 
ATOM     19  C   UNL     1     -14.448 -16.846  33.155  1.00  0.00     0.008 C 
ENDBRANCH  12  17
ENDBRANCH  11  12
ENDBRANCH   1  11
TORSDOF 1
ENDMDL
MODEL 4
REMARK VINA RESULT:    -4.548      1.594      4.074
REMARK INTER + INTRA:          -7.453
REMARK INTER:                  -7.398
REMARK INTRA:                  -0.055
REMARK UNBOUND:                -0.512
REMARK SMILES CC1=CCC[C@@H](C)C(=O)C[C@H](C(C)C)C(=O)C1
REMARK SMILES IDX 8 1 9 2 6 3 7 4 5 5 4 6 3 7 2 8 1 9 10 11 11 12 15 13 16 14
REMARK SMILES IDX 17 15 12 17 13 18 14 19
REMARK H PARENT
REMARK Flexibility Score: 70.00
ROOT
ATOM      1  C   UNL     1     -13.549 -15.556  30.275  1.00  0.00     0.136 C 
ATOM      2  O   UNL     1     -14.440 -14.726  30.196  1.00  0.00    -0.299 OA
ENDROOT
BRANCH   1   3
ATOM      3  C   UNL     1     -13.454 -16.414  31.546  1.00  0.00     0.053 C 
ATOM      4  C   UNL     1     -14.532 -16.042  32.569  1.00  0.00     0.016 C 
BRANCH   3   5
ATOM      5  C   UNL     1     -12.054 -16.166  32.051  1.00  0.00     0.015 C 
BRANCH   5   6
ATOM      6  C   UNL     1     -11.001 -17.159  32.443  1.00  0.00     0.028 C 
BRANCH   6   7
ATOM      7  C   UNL     1     -11.659 -18.545  32.489  1.00  0.00    -0.028 C 
ATOM      8  C   UNL     1     -12.047 -19.374  31.450  1.00  0.00    -0.070 CG0
ATOM      9  C   UNL     1     -12.801 -20.620  31.853  1.00  0.00     0.039 C 
ATOM     10  G   UNL     1     -11.757 -19.196  29.934  1.00  0.00     0.000 G0
ENDBRANCH   6   7
ENDBRANCH   5   6
ENDBRANCH   3   5
ENDBRANCH   1   3
BRANCH   1  11
ATOM     11  C   UNL     1     -12.538 -15.688  29.121  1.00  0.00     0.087 C 
BRANCH  11  12
ATOM     12  C   UNL     1     -12.349 -17.082  28.383  1.00  0.00     0.066 C 
BRANCH  12  13
ATOM     13  C   UNL     1     -12.759 -18.376  29.124  1.00  0.00     0.140 C 
ATOM     14  O   UNL     1     -13.901 -18.798  29.008  1.00  0.00    -0.299 OA
BRANCH  13  15
ATOM     15  C   UNL     1     -11.754 -19.214  29.931  1.00  0.00     0.106 CG0
ATOM     16  G   UNL     1     -12.064 -19.359  31.447  1.00  0.00     0.000 G0
ENDBRANCH  13  15
ENDBRANCH  12  13
BRANCH  12  17
ATOM     17  C   UNL     1     -12.861 -17.091  26.903  1.00  0.00    -0.006 C 
ATOM     18  C   UNL     1     -11.724 -16.869  25.890  1.00  0.00     0.008 C 
ATOM     19  C   UNL     1     -14.001 -16.096  26.641  1.00  0.00     0.008 C 
ENDBRANCH  12  17
ENDBRANCH  11  12
ENDBRANCH   1  11
TORSDOF 1
ENDMDL
MODEL 5
REMARK VINA RESULT:    -4.436      1.793      3.645
REMARK INTER + INTRA:          -7.282
REMARK INTER:                  -7.262
REMARK INTRA:                  -0.020
REMARK UNBOUND:                -0.512
REMARK SMILES CC1=CCC[C@@H](C)C(=O)C[C@H](C(C)C)C(=O)C1
REMARK SMILES IDX 8 1 9 2 6 3 7 4 5 5 4 6 3 7 2 8 1 9 10 11 11 12 15 13 16 14
REMARK SMILES IDX 17 15 12 17 13 18 14 19
REMARK H PARENT
REMARK Flexibility Score: 70.00
ROOT
ATOM      1  C   UNL     1     -13.371 -17.770  32.393  1.00  0.00     0.136 C 
ATOM      2  O   UNL     1     -14.417 -17.501  32.962  1.00  0.00    -0.299 OA
ENDROOT
BRANCH   1   3
ATOM      3  C   UNL     1     -13.135 -19.217  31.934  1.00  0.00     0.053 C 
ATOM      4  C   UNL     1     -11.645 -19.569  31.896  1.00  0.00     0.016 C 
BRANCH   3   5
ATOM      5  C   UNL     1     -13.788 -19.280  30.574  1.00  0.00     0.015 C 
BRANCH   5   6
ATOM      6  C   UNL     1     -13.402 -20.098  29.378  1.00  0.00     0.028 C 
BRANCH   6   7
ATOM      7  C   UNL     1     -13.116 -19.130  28.222  1.00  0.00    -0.028 C 
ATOM      8  C   UNL     1     -12.235 -18.065  28.158  1.00  0.00    -0.070 CG0
ATOM      9  C   UNL     1     -12.310 -17.227  26.903  1.00  0.00     0.039 C 
ATOM     10  G   UNL     1     -11.154 -17.662  29.199  1.00  0.00     0.000 G0
ENDBRANCH   6   7
ENDBRANCH   5   6
ENDBRANCH   3   5
ENDBRANCH   1   3
BRANCH   1  11
ATOM     11  C   UNL     1     -12.320 -16.664  32.187  1.00  0.00     0.087 C 
BRANCH  11  12
ATOM     12  C   UNL     1     -12.285 -15.839  30.830  1.00  0.00     0.066 C 
BRANCH  12  13
ATOM     13  C   UNL     1     -11.249 -16.231  29.750  1.00  0.00     0.140 C 
ATOM     14  O   UNL     1     -10.426 -15.405  29.381  1.00  0.00    -0.299 OA
BRANCH  13  15
ATOM     15  C   UNL     1     -11.150 -17.658  29.186  1.00  0.00     0.106 CG0
ATOM     16  G   UNL     1     -12.246 -18.052  28.158  1.00  0.00     0.000 G0
ENDBRANCH  13  15
ENDBRANCH  12  13
BRANCH  12  17
ATOM     17  C   UNL     1     -13.697 -15.597  30.198  1.00  0.00    -0.006 C 
ATOM     18  C   UNL     1     -13.614 -14.891  28.834  1.00  0.00     0.008 C 
ATOM     19  C   UNL     1     -14.662 -14.840  31.123  1.00  0.00     0.008 C 
ENDBRANCH  12  17
ENDBRANCH  11  12
ENDBRANCH   1  11
TORSDOF 1
ENDMDL
MODEL 6
REMARK VINA RESULT:    -4.416      1.768      4.252
REMARK INTER + INTRA:          -7.252
REMARK INTER:                  -7.210
REMARK INTRA:                  -0.041
REMARK UNBOUND:                -0.512
REMARK SMILES CC1=CCC[C@@H](C)C(=O)C[C@H](C(C)C)C(=O)C1
REMARK SMILES IDX 8 1 9 2 6 3 7 4 5 5 4 6 3 7 2 8 1 9 10 11 11 12 15 13 16 14
REMARK SMILES IDX 17 15 12 17 13 18 14 19
REMARK H PARENT
REMARK Flexibility Score: 70.00
ROOT
ATOM      1  C   UNL     1     -13.936 -15.788  31.107  1.00  0.00     0.136 C 
ATOM      2  O   UNL     1     -14.370 -14.676  30.849  1.00  0.00    -0.299 OA
ENDROOT
BRANCH   1   3
ATOM      3  C   UNL     1     -13.677 -16.153  32.576  1.00  0.00     0.053 C 
ATOM      4  C   UNL     1     -14.652 -15.447  33.523  1.00  0.00     0.016 C 
BRANCH   3   5
ATOM      5  C   UNL     1     -12.240 -15.751  32.806  1.00  0.00     0.015 C 
BRANCH   5   6
ATOM      6  C   UNL     1     -11.027 -16.620  32.950  1.00  0.00     0.028 C 
BRANCH   6   7
ATOM      7  C   UNL     1     -11.374 -18.005  32.387  1.00  0.00    -0.028 C 
ATOM      8  C   UNL     1     -11.195 -18.512  31.112  1.00  0.00    -0.070 CG0
ATOM      9  C   UNL     1     -11.785 -19.880  30.861  1.00  0.00     0.039 C 
ATOM     10  G   UNL     1     -10.422 -17.861  29.931  1.00  0.00     0.000 G0
ENDBRANCH   6   7
ENDBRANCH   5   6
ENDBRANCH   3   5
ENDBRANCH   1   3
BRANCH   1  11
ATOM     11  C   UNL     1     -13.631 -16.763  29.955  1.00  0.00     0.087 C 
BRANCH  11  12
ATOM     12  C   UNL     1     -12.482 -16.429  28.910  1.00  0.00     0.066 C 
BRANCH  12  13
ATOM     13  C   UNL     1     -11.008 -16.548  29.365  1.00  0.00     0.140 C 
ATOM     14  O   UNL     1     -10.298 -15.552  29.363  1.00  0.00    -0.299 OA
BRANCH  13  15
ATOM     15  C   UNL     1     -10.422 -17.858  29.917  1.00  0.00     0.106 CG0
ATOM     16  G   UNL     1     -11.200 -18.498  31.099  1.00  0.00     0.000 G0
ENDBRANCH  13  15
ENDBRANCH  12  13
BRANCH  12  17
ATOM     17  C   UNL     1     -12.694 -17.081  27.502  1.00  0.00    -0.006 C 
ATOM     18  C   UNL     1     -11.437 -16.988  26.620  1.00  0.00     0.008 C 
ATOM     19  C   UNL     1     -13.910 -16.527  26.745  1.00  0.00     0.008 C 
ENDBRANCH  12  17
ENDBRANCH  11  12
ENDBRANCH   1  11
TORSDOF 1
ENDMDL
MODEL 7
REMARK VINA RESULT:    -4.244      1.920      3.959
REMARK INTER + INTRA:          -6.990
REMARK INTER:                  -7.653
REMARK INTRA:                   0.664
REMARK UNBOUND:                -0.512
REMARK SMILES CC1=CCC[C@@H](C)C(=O)C[C@H](C(C)C)C(=O)C1
REMARK SMILES IDX 8 1 9 2 6 3 7 4 5 5 4 6 3 7 2 8 1 9 10 11 11 12 15 13 16 14
REMARK SMILES IDX 17 15 12 17 13 18 14 19
REMARK H PARENT
REMARK Flexibility Score: 70.00
ROOT
ATOM      1  C   UNL     1     -12.721 -16.462  31.292  1.00  0.00     0.136 C 
ATOM      2  O   UNL     1     -13.939 -16.395  31.328  1.00  0.00    -0.299 OA
ENDROOT
BRANCH   1   3
ATOM      3  C   UNL     1     -11.990 -17.184  32.434  1.00  0.00     0.053 C 
ATOM      4  C   UNL     1     -10.682 -16.482  32.812  1.00  0.00     0.016 C 
BRANCH   3   5
ATOM      5  C   UNL     1     -11.774 -18.581  31.904  1.00  0.00     0.015 C 
BRANCH   5   6
ATOM      6  C   UNL     1     -12.672 -19.777  32.000  1.00  0.00     0.028 C 
BRANCH   6   7
ATOM      7  C   UNL     1     -13.484 -19.859  30.700  1.00  0.00    -0.028 C 
ATOM      8  C   UNL     1     -13.177 -19.387  29.435  1.00  0.00    -0.070 CG0
ATOM      9  C   UNL     1     -14.275 -19.513  28.405  1.00  0.00     0.039 C 
ATOM     10  G   UNL     1     -11.829 -18.790  28.945  1.00  0.00     0.000 G0
ENDBRANCH   6   7
ENDBRANCH   5   6
ENDBRANCH   3   5
ENDBRANCH   1   3
BRANCH   1  11
ATOM     11  C   UNL     1     -11.964 -15.793  30.130  1.00  0.00     0.087 C 
BRANCH  11  12
ATOM     12  C   UNL     1     -12.345 -16.139  28.627  1.00  0.00     0.066 C 
BRANCH  12  13
ATOM     13  C   UNL     1     -11.949 -17.523  28.061  1.00  0.00     0.140 C 
ATOM     14  O   UNL     1     -11.644 -17.623  26.881  1.00  0.00    -0.299 OA
BRANCH  13  15
ATOM     15  C   UNL     1     -11.829 -18.771  28.950  1.00  0.00     0.106 CG0
ATOM     16  G   UNL     1     -13.174 -19.390  29.425  1.00  0.00     0.000 G0
ENDBRANCH  13  15
ENDBRANCH  12  13
BRANCH  12  17
ATOM     17  C   UNL     1     -13.819 -15.772  28.245  1.00  0.00    -0.006 C 
ATOM     18  C   UNL     1     -14.118 -16.026  26.758  1.00  0.00     0.008 C 
ATOM     19  C   UNL     1     -14.212 -14.336  28.622  1.00  0.00     0.008 C 
ENDBRANCH  12  17
ENDBRANCH  11  12
ENDBRANCH   1  11
TORSDOF 1
ENDMDL
MODEL 8
REMARK VINA RESULT:    -4.065      1.520      2.022
REMARK INTER + INTRA:          -6.716
REMARK INTER:                  -6.867
REMARK INTRA:                   0.151
REMARK UNBOUND:                -0.512
REMARK SMILES CC1=CCC[C@@H](C)C(=O)C[C@H](C(C)C)C(=O)C1
REMARK SMILES IDX 8 1 9 2 6 3 7 4 5 5 4 6 3 7 2 8 1 9 10 11 11 12 15 13 16 14
REMARK SMILES IDX 17 15 12 17 13 18 14 19
REMARK H PARENT
REMARK Flexibility Score: 70.00
ROOT
ATOM      1  C   UNL     1     -13.296 -16.407  29.593  1.00  0.00     0.136 C 
ATOM      2  O   UNL     1     -13.974 -17.335  29.182  1.00  0.00    -0.299 OA
ENDROOT
BRANCH   1   3
ATOM      3  C   UNL     1     -12.070 -15.973  28.775  1.00  0.00     0.053 C 
ATOM      4  C   UNL     1     -12.046 -16.627  27.390  1.00  0.00     0.016 C 
BRANCH   3   5
ATOM      5  C   UNL     1     -10.896 -16.374  29.634  1.00  0.00     0.015 C 
BRANCH   5   6
ATOM      6  C   UNL     1     -10.169 -17.684  29.689  1.00  0.00     0.028 C 
BRANCH   6   7
ATOM      7  C   UNL     1     -11.161 -18.751  30.171  1.00  0.00    -0.028 C 
ATOM      8  C   UNL     1     -11.617 -19.021  31.449  1.00  0.00    -0.070 CG0
ATOM      9  C   UNL     1     -12.490 -20.245  31.589  1.00  0.00     0.039 C 
ATOM     10  G   UNL     1     -11.375 -18.189  32.740  1.00  0.00     0.000 G0
ENDBRANCH   6   7
ENDBRANCH   5   6
ENDBRANCH   3   5
ENDBRANCH   1   3
BRANCH   1  11
ATOM     11  C   UNL     1     -13.671 -15.733  30.926  1.00  0.00     0.087 C 
BRANCH  11  12
ATOM     12  C   UNL     1     -13.432 -16.496  32.299  1.00  0.00     0.066 C 
BRANCH  12  13
ATOM     13  C   UNL     1     -11.980 -16.770  32.753  1.00  0.00     0.140 C 
ATOM     14  O   UNL     1     -11.309 -15.852  33.203  1.00  0.00    -0.299 OA
BRANCH  13  15
ATOM     15  C   UNL     1     -11.371 -18.182  32.751  1.00  0.00     0.106 CG0
ATOM     16  G   UNL     1     -11.610 -19.015  31.461  1.00  0.00     0.000 G0
ENDBRANCH  13  15
ENDBRANCH  12  13
BRANCH  12  17
ATOM     17  C   UNL     1     -14.304 -15.957  33.484  1.00  0.00    -0.006 C 
ATOM     18  C   UNL     1     -15.723 -16.550  33.481  1.00  0.00     0.008 C 
ATOM     19  C   UNL     1     -14.374 -14.424  33.547  1.00  0.00     0.008 C 
ENDBRANCH  12  17
ENDBRANCH  11  12
ENDBRANCH   1  11
TORSDOF 1
ENDMDL
MODEL 9
REMARK VINA RESULT:    -4.030      2.253      4.639
REMARK INTER + INTRA:          -6.663
REMARK INTER:                  -7.106
REMARK INTRA:                   0.443
REMARK UNBOUND:                -0.512
REMARK SMILES CC1=CCC[C@@H](C)C(=O)C[C@H](C(C)C)C(=O)C1
REMARK SMILES IDX 8 1 9 2 6 3 7 4 5 5 4 6 3 7 2 8 1 9 10 11 11 12 15 13 16 14
REMARK SMILES IDX 17 15 12 17 13 18 14 19
REMARK H PARENT
REMARK Flexibility Score: 70.00
ROOT
ATOM      1  C   UNL     1     -13.895 -16.912  32.520  1.00  0.00     0.136 C 
ATOM      2  O   UNL     1     -14.674 -17.236  33.403  1.00  0.00    -0.299 OA
ENDROOT
BRANCH   1   3
ATOM      3  C   UNL     1     -14.002 -15.499  31.927  1.00  0.00     0.053 C 
ATOM      4  C   UNL     1     -15.127 -14.689  32.578  1.00  0.00     0.016 C 
BRANCH   3   5
ATOM      5  C   UNL     1     -14.226 -15.737  30.454  1.00  0.00     0.015 C 
BRANCH   5   6
ATOM      6  C   UNL     1     -13.619 -15.029  29.280  1.00  0.00     0.028 C 
BRANCH   6   7
ATOM      7  C   UNL     1     -13.041 -16.094  28.339  1.00  0.00    -0.028 C 
ATOM      8  C   UNL     1     -11.797 -16.700  28.348  1.00  0.00    -0.070 CG0
ATOM      9  C   UNL     1     -11.503 -17.612  27.179  1.00  0.00     0.039 C 
ATOM     10  G   UNL     1     -10.694 -16.589  29.437  1.00  0.00     0.000 G0
ENDBRANCH   6   7
ENDBRANCH   5   6
ENDBRANCH   3   5
ENDBRANCH   1   3
BRANCH   1  11
ATOM     11  C   UNL     1     -12.863 -17.937  32.013  1.00  0.00     0.087 C 
BRANCH  11  12
ATOM     12  C   UNL     1     -11.335 -17.526  31.871  1.00  0.00     0.066 C 
BRANCH  12  13
ATOM     13  C   UNL     1     -10.648 -17.687  30.495  1.00  0.00     0.140 C 
ATOM     14  O   UNL     1     -10.119 -18.752  30.210  1.00  0.00    -0.299 OA
BRANCH  13  15
ATOM     15  C   UNL     1     -10.687 -16.586  29.423  1.00  0.00     0.106 CG0
ATOM     16  G   UNL     1     -11.809 -16.725  28.356  1.00  0.00     0.000 G0
ENDBRANCH  13  15
ENDBRANCH  12  13
BRANCH  12  17
ATOM     17  C   UNL     1     -10.987 -16.143  32.520  1.00  0.00    -0.006 C 
ATOM     18  C   UNL     1      -9.876 -15.403  31.756  1.00  0.00     0.008 C 
ATOM     19  C   UNL     1     -10.628 -16.237  34.010  1.00  0.00     0.008 C 
ENDBRANCH  12  17
ENDBRANCH  11  12
ENDBRANCH   1  11
TORSDOF 1
ENDMDL
