MODEL 1
REMARK VINA RESULT:    -4.295      0.000      0.000
REMARK INTER + INTRA:          -7.374
REMARK INTER:                  -5.928
REMARK INTRA:                  -1.446
REMARK UNBOUND:                -1.446
REMARK SMILES CCCCc1cccc(O)c1CCCC
REMARK SMILES IDX 5 1 11 2 9 3 8 4 7 5 6 6 4 7 3 8 2 9 1 10 12 11 13 12 14 13
REMARK SMILES IDX 15 14 10 15
REMARK H PARENT 10 16
REMARK Flexibility Score: inf
ROOT
ATOM      1  C   UNL     1     174.609 173.903 182.335  1.00  0.00    -0.041 A 
ATOM      2  C   UNL     1     175.983 173.714 182.010  1.00  0.00    -0.003 A 
ATOM      3  C   UNL     1     176.389 172.493 181.426  1.00  0.00     0.119 A 
ATOM      4  C   UNL     1     175.457 171.473 181.201  1.00  0.00     0.046 A 
ATOM      5  C   UNL     1     174.119 171.657 181.534  1.00  0.00     0.004 A 
ATOM      6  C   UNL     1     173.696 172.861 182.094  1.00  0.00     0.004 A 
ENDROOT
BRANCH   1   7
ATOM      7  C   UNL     1     174.083 175.180 182.963  1.00  0.00     0.036 C 
BRANCH   7   8
ATOM      8  C   UNL     1     172.917 175.785 182.163  1.00  0.00     0.004 C 
BRANCH   8   9
ATOM      9  C   UNL     1     173.334 177.035 181.374  1.00  0.00    -0.003 C 
ATOM     10  C   UNL     1     173.629 176.693 179.917  1.00  0.00     0.004 C 
ENDBRANCH   8   9
ENDBRANCH   7   8
ENDBRANCH   1   7
BRANCH   2  11
ATOM     11  C   UNL     1     177.012 174.813 182.197  1.00  0.00     0.040 C 
BRANCH  11  12
ATOM     12  C   UNL     1     177.073 175.713 180.954  1.00  0.00     0.005 C 
BRANCH  12  13
ATOM     13  C   UNL     1     177.037 177.208 181.303  1.00  0.00    -0.003 C 
ATOM     14  C   UNL     1     177.036 177.462 182.810  1.00  0.00     0.004 C 
ENDBRANCH  12  13
ENDBRANCH  11  12
ENDBRANCH   2  11
BRANCH   3  15
ATOM     15  O   UNL     1     177.723 172.295 181.065  1.00  0.00    -0.508 OA
ATOM     16  H   UNL     1     178.209 171.432 181.275  1.00  0.00     0.293 HD
ENDBRANCH   3  15
TORSDOF 7
ENDMDL
MODEL 2
REMARK VINA RESULT:    -4.197      1.869      3.664
REMARK INTER + INTRA:          -7.237
REMARK INTER:                  -5.976
REMARK INTRA:                  -1.262
REMARK UNBOUND:                -1.446
REMARK SMILES CCCCc1cccc(O)c1CCCC
REMARK SMILES IDX 5 1 11 2 9 3 8 4 7 5 6 6 4 7 3 8 2 9 1 10 12 11 13 12 14 13
REMARK SMILES IDX 15 14 10 15
REMARK H PARENT 10 16
REMARK Flexibility Score: inf
ROOT
ATOM      1  C   UNL     1     174.344 176.613 179.872  1.00  0.00    -0.041 A 
ATOM      2  C   UNL     1     175.691 176.220 179.629  1.00  0.00    -0.003 A 
ATOM      3  C   UNL     1     176.080 175.872 178.314  1.00  0.00     0.119 A 
ATOM      4  C   UNL     1     175.143 175.885 177.275  1.00  0.00     0.046 A 
ATOM      5  C   UNL     1     173.824 176.256 177.521  1.00  0.00     0.004 A 
ATOM      6  C   UNL     1     173.427 176.619 178.805  1.00  0.00     0.004 A 
ENDROOT
BRANCH   1   7
ATOM      7  C   UNL     1     173.840 177.004 181.247  1.00  0.00     0.036 C 
BRANCH   7   8
ATOM      8  C   UNL     1     172.999 175.892 181.897  1.00  0.00     0.004 C 
BRANCH   8   9
ATOM      9  C   UNL     1     173.850 174.930 182.739  1.00  0.00    -0.003 C 
ATOM     10  C   UNL     1     174.048 173.599 182.021  1.00  0.00     0.004 C 
ENDBRANCH   8   9
ENDBRANCH   7   8
ENDBRANCH   1   7
BRANCH   2  11
ATOM     11  C   UNL     1     176.744 176.238 180.720  1.00  0.00     0.040 C 
BRANCH  11  12
ATOM     12  C   UNL     1     177.348 177.643 180.865  1.00  0.00     0.005 C 
BRANCH  12  13
ATOM     13  C   UNL     1     177.396 178.119 182.325  1.00  0.00    -0.003 C 
ATOM     14  C   UNL     1     176.833 177.087 183.301  1.00  0.00     0.004 C 
ENDBRANCH  12  13
ENDBRANCH  11  12
ENDBRANCH   2  11
BRANCH   3  15
ATOM     15  O   UNL     1     177.402 175.517 178.043  1.00  0.00    -0.508 OA
ATOM     16  H   UNL     1     177.753 174.586 178.233  1.00  0.00     0.293 HD
ENDBRANCH   3  15
TORSDOF 7
ENDMDL
MODEL 3
REMARK VINA RESULT:    -4.191      1.574      3.351
REMARK INTER + INTRA:          -7.229
REMARK INTER:                  -5.958
REMARK INTRA:                  -1.271
REMARK UNBOUND:                -1.446
REMARK SMILES CCCCc1cccc(O)c1CCCC
REMARK SMILES IDX 5 1 11 2 9 3 8 4 7 5 6 6 4 7 3 8 2 9 1 10 12 11 13 12 14 13
REMARK SMILES IDX 15 14 10 15
REMARK H PARENT 10 16
REMARK Flexibility Score: inf
ROOT
ATOM      1  C   UNL     1     176.143 174.734 182.615  1.00  0.00    -0.041 A 
ATOM      2  C   UNL     1     174.942 173.994 182.417  1.00  0.00    -0.003 A 
ATOM      3  C   UNL     1     175.013 172.715 181.818  1.00  0.00     0.119 A 
ATOM      4  C   UNL     1     176.245 172.200 181.398  1.00  0.00     0.046 A 
ATOM      5  C   UNL     1     177.413 172.933 181.581  1.00  0.00     0.004 A 
ATOM      6  C   UNL     1     177.365 174.187 182.185  1.00  0.00     0.004 A 
ENDROOT
BRANCH   1   7
ATOM      7  C   UNL     1     176.162 176.110 183.250  1.00  0.00     0.036 C 
BRANCH   7   8
ATOM      8  C   UNL     1     176.772 177.173 182.320  1.00  0.00     0.004 C 
BRANCH   8   9
ATOM      9  C   UNL     1     176.024 177.281 180.984  1.00  0.00    -0.003 C 
ATOM     10  C   UNL     1     176.996 177.302 179.809  1.00  0.00     0.004 C 
ENDBRANCH   8   9
ENDBRANCH   7   8
ENDBRANCH   1   7
BRANCH   2  11
ATOM     11  C   UNL     1     173.596 174.500 182.900  1.00  0.00     0.040 C 
BRANCH  11  12
ATOM     12  C   UNL     1     172.888 175.294 181.791  1.00  0.00     0.005 C 
BRANCH  12  13
ATOM     13  C   UNL     1     171.984 176.406 182.344  1.00  0.00    -0.003 C 
ATOM     14  C   UNL     1     172.757 177.677 182.691  1.00  0.00     0.004 C 
ENDBRANCH  12  13
ENDBRANCH  11  12
ENDBRANCH   2  11
BRANCH   3  15
ATOM     15  O   UNL     1     173.855 171.955 181.644  1.00  0.00    -0.508 OA
ATOM     16  H   UNL     1     172.953 172.387 181.484  1.00  0.00     0.293 HD
ENDBRANCH   3  15
TORSDOF 7
ENDMDL
MODEL 4
REMARK VINA RESULT:    -4.182      2.024      4.065
REMARK INTER + INTRA:          -7.217
REMARK INTER:                  -5.837
REMARK INTRA:                  -1.380
REMARK UNBOUND:                -1.446
REMARK SMILES CCCCc1cccc(O)c1CCCC
REMARK SMILES IDX 5 1 11 2 9 3 8 4 7 5 6 6 4 7 3 8 2 9 1 10 12 11 13 12 14 13
REMARK SMILES IDX 15 14 10 15
REMARK H PARENT 10 16
REMARK Flexibility Score: inf
ROOT
ATOM      1  C   UNL     1     174.658 176.245 182.740  1.00  0.00    -0.041 A 
ATOM      2  C   UNL     1     174.105 174.957 182.489  1.00  0.00    -0.003 A 
ATOM      3  C   UNL     1     172.728 174.847 182.186  1.00  0.00     0.119 A 
ATOM      4  C   UNL     1     171.917 175.987 182.165  1.00  0.00     0.046 A 
ATOM      5  C   UNL     1     172.459 177.242 182.426  1.00  0.00     0.004 A 
ATOM      6  C   UNL     1     173.817 177.372 182.709  1.00  0.00     0.004 A 
ENDROOT
BRANCH   1   7
ATOM      7  C   UNL     1     176.122 176.458 183.070  1.00  0.00     0.036 C 
BRANCH   7   8
ATOM      8  C   UNL     1     176.803 177.437 182.098  1.00  0.00     0.004 C 
BRANCH   8   9
ATOM      9  C   UNL     1     176.992 176.835 180.698  1.00  0.00    -0.003 C 
ATOM     10  C   UNL     1     176.090 177.523 179.677  1.00  0.00     0.004 C 
ENDBRANCH   8   9
ENDBRANCH   7   8
ENDBRANCH   1   7
BRANCH   2  11
ATOM     11  C   UNL     1     174.962 173.706 182.458  1.00  0.00     0.040 C 
BRANCH  11  12
ATOM     12  C   UNL     1     175.483 173.445 181.036  1.00  0.00     0.005 C 
BRANCH  12  13
ATOM     13  C   UNL     1     176.860 172.762 181.027  1.00  0.00    -0.003 C 
ATOM     14  C   UNL     1     177.875 173.471 181.921  1.00  0.00     0.004 C 
ENDBRANCH  12  13
ENDBRANCH  11  12
ENDBRANCH   2  11
BRANCH   3  15
ATOM     15  O   UNL     1     172.169 173.600 181.902  1.00  0.00    -0.508 OA
ATOM     16  H   UNL     1     172.470 173.050 181.106  1.00  0.00     0.293 HD
ENDBRANCH   3  15
TORSDOF 7
ENDMDL
MODEL 5
REMARK VINA RESULT:    -4.161      2.270      3.655
REMARK INTER + INTRA:          -7.188
REMARK INTER:                  -6.238
REMARK INTRA:                  -0.950
REMARK UNBOUND:                -1.446
REMARK SMILES CCCCc1cccc(O)c1CCCC
REMARK SMILES IDX 5 1 11 2 9 3 8 4 7 5 6 6 4 7 3 8 2 9 1 10 12 11 13 12 14 13
REMARK SMILES IDX 15 14 10 15
REMARK H PARENT 10 16
REMARK Flexibility Score: inf
ROOT
ATOM      1  C   UNL     1     175.390 176.151 181.995  1.00  0.00    -0.041 A 
ATOM      2  C   UNL     1     175.821 176.105 180.639  1.00  0.00    -0.003 A 
ATOM      3  C   UNL     1     176.783 175.142 180.255  1.00  0.00     0.119 A 
ATOM      4  C   UNL     1     177.325 174.269 181.206  1.00  0.00     0.046 A 
ATOM      5  C   UNL     1     176.911 174.328 182.533  1.00  0.00     0.004 A 
ATOM      6  C   UNL     1     175.952 175.258 182.926  1.00  0.00     0.004 A 
ENDROOT
BRANCH   1   7
ATOM      7  C   UNL     1     174.363 177.148 182.495  1.00  0.00     0.036 C 
BRANCH   7   8
ATOM      8  C   UNL     1     172.939 176.567 182.496  1.00  0.00     0.004 C 
BRANCH   8   9
ATOM      9  C   UNL     1     171.860 177.659 182.495  1.00  0.00    -0.003 C 
ATOM     10  C   UNL     1     170.508 177.098 182.924  1.00  0.00     0.004 C 
ENDBRANCH   8   9
ENDBRANCH   7   8
ENDBRANCH   1   7
BRANCH   2  11
ATOM     11  C   UNL     1     175.223 177.003 179.574  1.00  0.00     0.040 C 
BRANCH  11  12
ATOM     12  C   UNL     1     173.998 176.335 178.929  1.00  0.00     0.005 C 
BRANCH  12  13
ATOM     13  C   UNL     1     173.070 177.344 178.235  1.00  0.00    -0.003 C 
ATOM     14  C   UNL     1     171.638 177.288 178.764  1.00  0.00     0.004 C 
ENDBRANCH  12  13
ENDBRANCH  11  12
ENDBRANCH   2  11
BRANCH   3  15
ATOM     15  O   UNL     1     177.196 175.052 178.925  1.00  0.00    -0.508 OA
ATOM     16  H   UNL     1     177.522 175.863 178.413  1.00  0.00     0.293 HD
ENDBRANCH   3  15
TORSDOF 7
ENDMDL
MODEL 6
REMARK VINA RESULT:    -4.161      2.185      4.550
REMARK INTER + INTRA:          -7.188
REMARK INTER:                  -5.949
REMARK INTRA:                  -1.238
REMARK UNBOUND:                -1.446
REMARK SMILES CCCCc1cccc(O)c1CCCC
REMARK SMILES IDX 5 1 11 2 9 3 8 4 7 5 6 6 4 7 3 8 2 9 1 10 12 11 13 12 14 13
REMARK SMILES IDX 15 14 10 15
REMARK H PARENT 10 16
REMARK Flexibility Score: inf
ROOT
ATOM      1  C   UNL     1     175.153 176.730 180.552  1.00  0.00    -0.041 A 
ATOM      2  C   UNL     1     175.528 176.566 181.916  1.00  0.00    -0.003 A 
ATOM      3  C   UNL     1     176.700 177.200 182.388  1.00  0.00     0.119 A 
ATOM      4  C   UNL     1     177.495 177.953 181.517  1.00  0.00     0.046 A 
ATOM      5  C   UNL     1     177.132 178.099 180.181  1.00  0.00     0.004 A 
ATOM      6  C   UNL     1     175.971 177.496 179.702  1.00  0.00     0.004 A 
ENDROOT
BRANCH   1   7
ATOM      7  C   UNL     1     173.913 176.089 179.960  1.00  0.00     0.036 C 
BRANCH   7   8
ATOM      8  C   UNL     1     172.728 177.067 179.890  1.00  0.00     0.004 C 
BRANCH   8   9
ATOM      9  C   UNL     1     171.693 176.813 180.996  1.00  0.00    -0.003 C 
ATOM     10  C   UNL     1     171.791 177.869 182.094  1.00  0.00     0.004 C 
ENDBRANCH   8   9
ENDBRANCH   7   8
ENDBRANCH   1   7
BRANCH   2  11
ATOM     11  C   UNL     1     174.668 175.795 182.899  1.00  0.00     0.040 C 
BRANCH  11  12
ATOM     12  C   UNL     1     174.953 174.289 182.801  1.00  0.00     0.005 C 
BRANCH  12  13
ATOM     13  C   UNL     1     173.682 173.459 182.565  1.00  0.00    -0.003 C 
ATOM     14  C   UNL     1     172.480 173.986 183.349  1.00  0.00     0.004 C 
ENDBRANCH  12  13
ENDBRANCH  11  12
ENDBRANCH   2  11
BRANCH   3  15
ATOM     15  O   UNL     1     177.071 177.083 183.729  1.00  0.00    -0.508 OA
ATOM     16  H   UNL     1     177.993 176.763 184.000  1.00  0.00     0.293 HD
ENDBRANCH   3  15
TORSDOF 7
ENDMDL
MODEL 7
REMARK VINA RESULT:    -4.131      1.964      3.972
REMARK INTER + INTRA:          -7.147
REMARK INTER:                  -6.339
REMARK INTRA:                  -0.808
REMARK UNBOUND:                -1.446
REMARK SMILES CCCCc1cccc(O)c1CCCC
REMARK SMILES IDX 5 1 11 2 9 3 8 4 7 5 6 6 4 7 3 8 2 9 1 10 12 11 13 12 14 13
REMARK SMILES IDX 15 14 10 15
REMARK H PARENT 10 16
REMARK Flexibility Score: inf
ROOT
ATOM      1  C   UNL     1     173.967 176.958 181.279  1.00  0.00    -0.041 A 
ATOM      2  C   UNL     1     175.389 176.973 181.208  1.00  0.00    -0.003 A 
ATOM      3  C   UNL     1     176.014 177.020 179.940  1.00  0.00     0.119 A 
ATOM      4  C   UNL     1     175.242 177.021 178.773  1.00  0.00     0.046 A 
ATOM      5  C   UNL     1     173.853 176.991 178.847  1.00  0.00     0.004 A 
ATOM      6  C   UNL     1     173.219 176.962 180.088  1.00  0.00     0.004 A 
ENDROOT
BRANCH   1   7
ATOM      7  C   UNL     1     173.213 176.909 182.593  1.00  0.00     0.036 C 
BRANCH   7   8
ATOM      8  C   UNL     1     172.056 177.921 182.639  1.00  0.00     0.004 C 
BRANCH   8   9
ATOM      9  C   UNL     1     170.698 177.248 182.886  1.00  0.00    -0.003 C 
ATOM     10  C   UNL     1     170.829 175.728 182.887  1.00  0.00     0.004 C 
ENDBRANCH   8   9
ENDBRANCH   7   8
ENDBRANCH   1   7
BRANCH   2  11
ATOM     11  C   UNL     1     176.256 177.019 182.451  1.00  0.00     0.040 C 
BRANCH  11  12
ATOM     12  C   UNL     1     176.256 175.656 183.161  1.00  0.00     0.005 C 
BRANCH  12  13
ATOM     13  C   UNL     1     176.962 174.563 182.344  1.00  0.00    -0.003 C 
ATOM     14  C   UNL     1     176.019 173.436 181.928  1.00  0.00     0.004 C 
ENDBRANCH  12  13
ENDBRANCH  11  12
ENDBRANCH   2  11
BRANCH   3  15
ATOM     15  O   UNL     1     177.405 177.071 179.843  1.00  0.00    -0.508 OA
ATOM     16  H   UNL     1     177.907 177.951 179.842  1.00  0.00     0.293 HD
ENDBRANCH   3  15
TORSDOF 7
ENDMDL
MODEL 8
REMARK VINA RESULT:    -4.117      2.680      4.677
REMARK INTER + INTRA:          -7.128
REMARK INTER:                  -5.979
REMARK INTRA:                  -1.149
REMARK UNBOUND:                -1.446
REMARK SMILES CCCCc1cccc(O)c1CCCC
REMARK SMILES IDX 5 1 11 2 9 3 8 4 7 5 6 6 4 7 3 8 2 9 1 10 12 11 13 12 14 13
REMARK SMILES IDX 15 14 10 15
REMARK H PARENT 10 16
REMARK Flexibility Score: inf
ROOT
ATOM      1  C   UNL     1     173.772 176.998 182.046  1.00  0.00    -0.041 A 
ATOM      2  C   UNL     1     173.480 176.706 180.683  1.00  0.00    -0.003 A 
ATOM      3  C   UNL     1     172.180 176.957 180.189  1.00  0.00     0.119 A 
ATOM      4  C   UNL     1     171.186 177.456 181.039  1.00  0.00     0.046 A 
ATOM      5  C   UNL     1     171.472 177.725 182.374  1.00  0.00     0.004 A 
ATOM      6  C   UNL     1     172.752 177.501 182.875  1.00  0.00     0.004 A 
ENDROOT
BRANCH   1   7
ATOM      7  C   UNL     1     175.138 176.762 182.661  1.00  0.00     0.036 C 
BRANCH   7   8
ATOM      8  C   UNL     1     175.377 175.281 182.999  1.00  0.00     0.004 C 
BRANCH   8   9
ATOM      9  C   UNL     1     176.767 174.797 182.559  1.00  0.00    -0.003 C 
ATOM     10  C   UNL     1     176.673 173.896 181.332  1.00  0.00     0.004 C 
ENDBRANCH   8   9
ENDBRANCH   7   8
ENDBRANCH   1   7
BRANCH   2  11
ATOM     11  C   UNL     1     174.543 176.208 179.722  1.00  0.00     0.040 C 
BRANCH  11  12
ATOM     12  C   UNL     1     175.350 177.385 179.153  1.00  0.00     0.005 C 
BRANCH  12  13
ATOM     13  C   UNL     1     176.865 177.210 179.340  1.00  0.00    -0.003 C 
ATOM     14  C   UNL     1     177.435 178.125 180.423  1.00  0.00     0.004 C 
ENDBRANCH  12  13
ENDBRANCH  11  12
ENDBRANCH   2  11
BRANCH   3  15
ATOM     15  O   UNL     1     171.877 176.713 178.849  1.00  0.00    -0.508 OA
ATOM     16  H   UNL     1     171.998 177.424 178.138  1.00  0.00     0.293 HD
ENDBRANCH   3  15
TORSDOF 7
ENDMDL
MODEL 9
REMARK VINA RESULT:    -4.092      1.491      2.330
REMARK INTER + INTRA:          -7.093
REMARK INTER:                  -6.123
REMARK INTRA:                  -0.971
REMARK UNBOUND:                -1.446
REMARK SMILES CCCCc1cccc(O)c1CCCC
REMARK SMILES IDX 5 1 11 2 9 3 8 4 7 5 6 6 4 7 3 8 2 9 1 10 12 11 13 12 14 13
REMARK SMILES IDX 15 14 10 15
REMARK H PARENT 10 16
REMARK Flexibility Score: inf
ROOT
ATOM      1  C   UNL     1     174.711 175.632 182.397  1.00  0.00    -0.041 A 
ATOM      2  C   UNL     1     176.026 175.422 181.893  1.00  0.00    -0.003 A 
ATOM      3  C   UNL     1     176.439 174.108 181.574  1.00  0.00     0.119 A 
ATOM      4  C   UNL     1     175.575 173.027 181.783  1.00  0.00     0.046 A 
ATOM      5  C   UNL     1     174.296 173.236 182.290  1.00  0.00     0.004 A 
ATOM      6  C   UNL     1     173.865 174.526 182.593  1.00  0.00     0.004 A 
ENDROOT
BRANCH   1   7
ATOM      7  C   UNL     1     174.184 177.006 182.764  1.00  0.00     0.036 C 
BRANCH   7   8
ATOM      8  C   UNL     1     172.913 177.371 181.977  1.00  0.00     0.004 C 
BRANCH   8   9
ATOM      9  C   UNL     1     171.842 178.022 182.864  1.00  0.00    -0.003 C 
ATOM     10  C   UNL     1     170.595 177.147 182.952  1.00  0.00     0.004 C 
ENDBRANCH   8   9
ENDBRANCH   7   8
ENDBRANCH   1   7
BRANCH   2  11
ATOM     11  C   UNL     1     176.973 176.574 181.611  1.00  0.00     0.040 C 
BRANCH  11  12
ATOM     12  C   UNL     1     177.025 176.874 180.105  1.00  0.00     0.005 C 
BRANCH  12  13
ATOM     13  C   UNL     1     175.831 177.714 179.628  1.00  0.00    -0.003 C 
ATOM     14  C   UNL     1     174.861 176.917 178.756  1.00  0.00     0.004 C 
ENDBRANCH  12  13
ENDBRANCH  11  12
ENDBRANCH   2  11
BRANCH   3  15
ATOM     15  O   UNL     1     177.710 173.879 181.046  1.00  0.00    -0.508 OA
ATOM     16  H   UNL     1     178.364 174.636 180.884  1.00  0.00     0.293 HD
ENDBRANCH   3  15
TORSDOF 7
ENDMDL
