MODEL 1
REMARK VINA RESULT:    -2.887      0.000      0.000
REMARK INTER + INTRA:          -3.156
REMARK INTER:                  -3.140
REMARK INTRA:                  -0.016
REMARK UNBOUND:                -0.016
REMARK SMILES OCc1ccco1
REMARK SMILES IDX 2 1 3 2 5 3 6 4 4 5 7 6 1 7
REMARK H PARENT 1 8
REMARK Flexibility Score: inf
ROOT
ATOM      1  C   UNL     1     -97.971 150.117 239.831  1.00  0.00     0.231 C 
ENDROOT
BRANCH   1   2
ATOM      2  C   UNL     1     -96.804 149.286 239.407  1.00  0.00     0.129 A 
ATOM      3  C   UNL     1     -94.952 148.602 238.445  1.00  0.00     0.042 A 
ATOM      4  C   UNL     1     -95.532 147.590 239.182  1.00  0.00     0.195 A 
ATOM      5  C   UNL     1     -95.774 149.698 238.585  1.00  0.00     0.048 A 
ATOM      6  O   UNL     1     -96.637 148.027 239.742  1.00  0.00    -0.467 OA
ENDBRANCH   1   2
BRANCH   1   7
ATOM      7  O   UNL     1     -97.907 151.380 239.228  1.00  0.00    -0.388 OA
ATOM      8  H   UNL     1     -98.828 151.750 239.246  1.00  0.00     0.211 HD
ENDBRANCH   1   7
TORSDOF 2
ENDMDL
MODEL 2
REMARK VINA RESULT:    -2.717      1.582      1.949
REMARK INTER + INTRA:          -2.971
REMARK INTER:                  -2.956
REMARK INTRA:                  -0.015
REMARK UNBOUND:                -0.016
REMARK SMILES OCc1ccco1
REMARK SMILES IDX 2 1 3 2 5 3 6 4 4 5 7 6 1 7
REMARK H PARENT 1 8
REMARK Flexibility Score: inf
ROOT
ATOM      1  C   UNL     1     -97.101 149.626 239.365  1.00  0.00     0.231 C 
ENDROOT
BRANCH   1   2
ATOM      2  C   UNL     1     -96.141 149.292 238.270  1.00  0.00     0.129 A 
ATOM      3  C   UNL     1     -94.320 148.765 237.163  1.00  0.00     0.042 A 
ATOM      4  C   UNL     1     -95.375 148.997 236.303  1.00  0.00     0.195 A 
ATOM      5  C   UNL     1     -94.812 148.959 238.434  1.00  0.00     0.048 A 
ATOM      6  O   UNL     1     -96.447 149.312 236.993  1.00  0.00    -0.467 OA
ENDBRANCH   1   2
BRANCH   1   7
ATOM      7  O   UNL     1     -97.308 151.011 239.417  1.00  0.00    -0.388 OA
ATOM      8  H   UNL     1     -98.212 151.148 239.805  1.00  0.00     0.211 HD
ENDBRANCH   1   7
TORSDOF 2
ENDMDL
MODEL 3
REMARK VINA RESULT:    -2.678     13.745     14.319
REMARK INTER + INTRA:          -2.929
REMARK INTER:                  -2.916
REMARK INTRA:                  -0.013
REMARK UNBOUND:                -0.016
REMARK SMILES OCc1ccco1
REMARK SMILES IDX 2 1 3 2 5 3 6 4 4 5 7 6 1 7
REMARK H PARENT 1 8
REMARK Flexibility Score: inf
ROOT
ATOM      1  C   UNL     1     -91.244 161.894 232.913  1.00  0.00     0.231 C 
ENDROOT
BRANCH   1   2
ATOM      2  C   UNL     1     -92.242 161.043 232.196  1.00  0.00     0.129 A 
ATOM      3  C   UNL     1     -93.209 159.375 231.145  1.00  0.00     0.042 A 
ATOM      4  C   UNL     1     -94.040 160.476 231.203  1.00  0.00     0.195 A 
ATOM      5  C   UNL     1     -92.044 159.741 231.783  1.00  0.00     0.048 A 
ATOM      6  O   UNL     1     -93.434 161.456 231.833  1.00  0.00    -0.467 OA
ENDBRANCH   1   2
BRANCH   1   7
ATOM      7  O   UNL     1     -91.369 161.718 234.297  1.00  0.00    -0.388 OA
ATOM      8  H   UNL     1     -91.900 162.487 234.634  1.00  0.00     0.211 HD
ENDBRANCH   1   7
TORSDOF 2
ENDMDL
MODEL 4
REMARK VINA RESULT:    -2.647     13.178     14.202
REMARK INTER + INTRA:          -2.895
REMARK INTER:                  -2.881
REMARK INTRA:                  -0.014
REMARK UNBOUND:                -0.016
REMARK SMILES OCc1ccco1
REMARK SMILES IDX 2 1 3 2 5 3 6 4 4 5 7 6 1 7
REMARK H PARENT 1 8
REMARK Flexibility Score: inf
ROOT
ATOM      1  C   UNL     1     -94.708 159.530 231.509  1.00  0.00     0.231 C 
ENDROOT
BRANCH   1   2
ATOM      2  C   UNL     1     -93.342 159.990 231.114  1.00  0.00     0.129 A 
ATOM      3  C   UNL     1     -91.208 160.505 231.150  1.00  0.00     0.042 A 
ATOM      4  C   UNL     1     -91.779 160.839 229.939  1.00  0.00     0.195 A 
ATOM      5  C   UNL     1     -92.217 159.960 231.913  1.00  0.00     0.048 A 
ATOM      6  O   UNL     1     -93.054 160.522 229.948  1.00  0.00    -0.467 OA
ENDBRANCH   1   2
BRANCH   1   7
ATOM      7  O   UNL     1     -95.306 160.471 232.357  1.00  0.00    -0.388 OA
ATOM      8  H   UNL     1     -96.271 160.242 232.399  1.00  0.00     0.211 HD
ENDBRANCH   1   7
TORSDOF 2
ENDMDL
MODEL 5
REMARK VINA RESULT:    -2.623     14.566     15.703
REMARK INTER + INTRA:          -2.870
REMARK INTER:                  -2.854
REMARK INTRA:                  -0.016
REMARK UNBOUND:                -0.016
REMARK SMILES OCc1ccco1
REMARK SMILES IDX 2 1 3 2 5 3 6 4 4 5 7 6 1 7
REMARK H PARENT 1 8
REMARK Flexibility Score: inf
ROOT
ATOM      1  C   UNL     1     -91.206 163.269 235.837  1.00  0.00     0.231 C 
ENDROOT
BRANCH   1   2
ATOM      2  C   UNL     1     -92.100 163.907 236.850  1.00  0.00     0.129 A 
ATOM      3  C   UNL     1     -93.478 164.227 238.530  1.00  0.00     0.042 A 
ATOM      4  C   UNL     1     -93.231 165.407 237.858  1.00  0.00     0.195 A 
ATOM      5  C   UNL     1     -92.752 163.255 237.878  1.00  0.00     0.048 A 
ATOM      6  O   UNL     1     -92.408 165.184 236.860  1.00  0.00    -0.467 OA
ENDBRANCH   1   2
BRANCH   1   7
ATOM      7  O   UNL     1     -91.375 161.879 235.853  1.00  0.00    -0.388 OA
ATOM      8  H   UNL     1     -92.294 161.709 236.189  1.00  0.00     0.211 HD
ENDBRANCH   1   7
TORSDOF 2
ENDMDL
MODEL 6
REMARK VINA RESULT:    -2.622     13.684     14.755
REMARK INTER + INTRA:          -2.868
REMARK INTER:                  -2.853
REMARK INTRA:                  -0.014
REMARK UNBOUND:                -0.016
REMARK SMILES OCc1ccco1
REMARK SMILES IDX 2 1 3 2 5 3 6 4 4 5 7 6 1 7
REMARK H PARENT 1 8
REMARK Flexibility Score: inf
ROOT
ATOM      1  C   UNL     1     -91.268 160.759 230.387  1.00  0.00     0.231 C 
ENDROOT
BRANCH   1   2
ATOM      2  C   UNL     1     -92.650 160.526 230.904  1.00  0.00     0.129 A 
ATOM      3  C   UNL     1     -94.512 159.563 231.560  1.00  0.00     0.042 A 
ATOM      4  C   UNL     1     -94.627 160.939 231.587  1.00  0.00     0.195 A 
ATOM      5  C   UNL     1     -93.237 159.294 231.115  1.00  0.00     0.048 A 
ATOM      6  O   UNL     1     -93.501 161.485 231.188  1.00  0.00    -0.467 OA
ENDBRANCH   1   2
BRANCH   1   7
ATOM      7  O   UNL     1     -91.280 160.821 228.988  1.00  0.00    -0.388 OA
ATOM      8  H   UNL     1     -91.573 161.739 228.747  1.00  0.00     0.211 HD
ENDBRANCH   1   7
TORSDOF 2
ENDMDL
MODEL 7
REMARK VINA RESULT:    -2.616     14.936     15.645
REMARK INTER + INTRA:          -2.861
REMARK INTER:                  -2.848
REMARK INTRA:                  -0.013
REMARK UNBOUND:                -0.016
REMARK SMILES OCc1ccco1
REMARK SMILES IDX 2 1 3 2 5 3 6 4 4 5 7 6 1 7
REMARK H PARENT 1 8
REMARK Flexibility Score: inf
ROOT
ATOM      1  C   UNL     1     -91.993 161.012 229.799  1.00  0.00     0.231 C 
ENDROOT
BRANCH   1   2
ATOM      2  C   UNL     1     -91.721 161.511 231.181  1.00  0.00     0.129 A 
ATOM      3  C   UNL     1     -91.250 161.607 233.324  1.00  0.00     0.042 A 
ATOM      4  C   UNL     1     -91.543 162.859 232.823  1.00  0.00     0.195 A 
ATOM      5  C   UNL     1     -91.368 160.733 232.266  1.00  0.00     0.048 A 
ATOM      6  O   UNL     1     -91.823 162.769 231.543  1.00  0.00    -0.467 OA
ENDBRANCH   1   2
BRANCH   1   7
ATOM      7  O   UNL     1     -90.876 160.328 229.305  1.00  0.00    -0.388 OA
ATOM      8  H   UNL     1     -90.195 161.017 229.087  1.00  0.00     0.211 HD
ENDBRANCH   1   7
TORSDOF 2
ENDMDL
MODEL 8
REMARK VINA RESULT:    -2.567      1.493      3.133
REMARK INTER + INTRA:          -2.808
REMARK INTER:                  -2.787
REMARK INTRA:                  -0.021
REMARK UNBOUND:                -0.016
REMARK SMILES OCc1ccco1
REMARK SMILES IDX 2 1 3 2 5 3 6 4 4 5 7 6 1 7
REMARK H PARENT 1 8
REMARK Flexibility Score: inf
ROOT
ATOM      1  C   UNL     1     -95.456 148.104 238.626  1.00  0.00     0.231 C 
ENDROOT
BRANCH   1   2
ATOM      2  C   UNL     1     -96.572 148.791 239.343  1.00  0.00     0.129 A 
ATOM      3  C   UNL     1     -98.014 150.299 240.029  1.00  0.00     0.042 A 
ATOM      4  C   UNL     1     -98.153 149.121 240.735  1.00  0.00     0.195 A 
ATOM      5  C   UNL     1     -96.990 150.090 239.131  1.00  0.00     0.048 A 
ATOM      6  O   UNL     1     -97.277 148.242 240.305  1.00  0.00    -0.467 OA
ENDBRANCH   1   2
BRANCH   1   7
ATOM      7  O   UNL     1     -94.976 147.035 239.394  1.00  0.00    -0.388 OA
ATOM      8  H   UNL     1     -95.681 146.827 240.062  1.00  0.00     0.211 HD
ENDBRANCH   1   7
TORSDOF 2
ENDMDL
MODEL 9
REMARK VINA RESULT:    -2.564      7.463      8.123
REMARK INTER + INTRA:          -2.805
REMARK INTER:                  -2.791
REMARK INTRA:                  -0.014
REMARK UNBOUND:                -0.016
REMARK SMILES OCc1ccco1
REMARK SMILES IDX 2 1 3 2 5 3 6 4 4 5 7 6 1 7
REMARK H PARENT 1 8
REMARK Flexibility Score: inf
ROOT
ATOM      1  C   UNL     1     -98.045 154.252 233.356  1.00  0.00     0.231 C 
ENDROOT
BRANCH   1   2
ATOM      2  C   UNL     1     -97.216 153.376 232.474  1.00  0.00     0.129 A 
ATOM      3  C   UNL     1     -95.699 151.968 231.740  1.00  0.00     0.042 A 
ATOM      4  C   UNL     1     -96.452 152.474 230.700  1.00  0.00     0.195 A 
ATOM      5  C   UNL     1     -96.188 152.552 232.887  1.00  0.00     0.048 A 
ATOM      6  O   UNL     1     -97.347 153.312 231.168  1.00  0.00    -0.467 OA
ENDBRANCH   1   2
BRANCH   1   7
ATOM      7  O   UNL     1     -97.225 155.161 234.037  1.00  0.00    -0.388 OA
ATOM      8  H   UNL     1     -97.500 156.068 233.740  1.00  0.00     0.211 HD
ENDBRANCH   1   7
TORSDOF 2
ENDMDL
