MODEL 1
REMARK VINA RESULT:    -5.944      0.000      0.000
REMARK INTER + INTRA:          -7.391
REMARK INTER:                  -7.160
REMARK INTRA:                  -0.231
REMARK UNBOUND:                -0.231
REMARK SMILES O=c1c(O)c(-c2ccc(O)c(O)c2)oc2cc(O)cc(O)c12
REMARK SMILES IDX 5 1 3 2 2 3 1 4 22 5 20 6 19 7 17 8 16 9 15 10 14 11 6 12
REMARK SMILES IDX 7 13 8 14 9 15 13 16 11 17 10 18 12 20 4 22 21 24 18 26
REMARK H PARENT 10 19 12 21 4 23 21 25 18 27
REMARK Flexibility Score: inf
ROOT
ATOM      1  C   UNL     1      60.393 146.612 -17.319  1.00  0.00     0.180 A 
ATOM      2  C   UNL     1      60.916 146.526 -18.620  1.00  0.00     0.208 A 
ATOM      3  C   UNL     1      61.248 145.264 -19.138  1.00  0.00     0.238 A 
ATOM      4  O   UNL     1      61.766 145.198 -20.284  1.00  0.00    -0.285 OA
ATOM      5  C   UNL     1      61.040 144.103 -18.355  1.00  0.00     0.111 A 
ATOM      6  C   UNL     1      61.303 142.771 -18.794  1.00  0.00     0.134 A 
ATOM      7  C   UNL     1      61.182 141.709 -17.889  1.00  0.00     0.093 A 
ATOM      8  C   UNL     1      60.745 141.925 -16.580  1.00  0.00     0.123 A 
ATOM      9  C   UNL     1      60.428 143.214 -16.161  1.00  0.00     0.094 A 
ATOM     10  C   UNL     1      60.573 144.299 -17.029  1.00  0.00     0.146 A 
ATOM     11  O   UNL     1      60.271 145.512 -16.585  1.00  0.00    -0.452 OA
ENDROOT
BRANCH   1  12
ATOM     12  C   UNL     1      59.995 147.904 -16.713  1.00  0.00     0.025 A 
ATOM     13  C   UNL     1      60.707 148.397 -15.609  1.00  0.00     0.016 A 
ATOM     14  C   UNL     1      60.337 149.604 -15.009  1.00  0.00     0.051 A 
ATOM     15  C   UNL     1      59.242 150.326 -15.492  1.00  0.00     0.157 A 
ATOM     16  C   UNL     1      58.882 148.621 -17.185  1.00  0.00     0.062 A 
ATOM     17  C   UNL     1      58.507 149.832 -16.583  1.00  0.00     0.158 A 
BRANCH  15  18
ATOM     18  O   UNL     1      58.897 151.529 -14.875  1.00  0.00    -0.504 OA
ATOM     19  H   UNL     1      59.576 152.096 -14.383  1.00  0.00     0.293 HD
ENDBRANCH  15  18
BRANCH  17  20
ATOM     20  O   UNL     1      57.406 150.540 -17.060  1.00  0.00    -0.504 OA
ATOM     21  H   UNL     1      57.467 151.525 -17.293  1.00  0.00     0.293 HD
ENDBRANCH  17  20
ENDBRANCH   1  12
BRANCH   2  22
ATOM     22  O   UNL     1      61.134 147.687 -19.369  1.00  0.00    -0.502 OA
ATOM     23  H   UNL     1      61.302 148.588 -18.938  1.00  0.00     0.293 HD
ENDBRANCH   2  22
BRANCH   6  24
ATOM     24  O   UNL     1      61.657 142.437 -20.105  1.00  0.00    -0.507 OA
ATOM     25  H   UNL     1      61.437 141.560 -20.553  1.00  0.00     0.293 HD
ENDBRANCH   6  24
BRANCH   8  26
ATOM     26  O   UNL     1      60.612 140.860 -15.691  1.00  0.00    -0.508 OA
ATOM     27  H   UNL     1      59.952 140.889 -14.923  1.00  0.00     0.293 HD
ENDBRANCH   8  26
TORSDOF 6
ENDMDL
MODEL 2
REMARK VINA RESULT:    -5.929     12.158     15.140
REMARK INTER + INTRA:          -7.373
REMARK INTER:                  -7.052
REMARK INTRA:                  -0.321
REMARK UNBOUND:                -0.231
REMARK SMILES O=c1c(O)c(-c2ccc(O)c(O)c2)oc2cc(O)cc(O)c12
REMARK SMILES IDX 5 1 3 2 2 3 1 4 22 5 20 6 19 7 17 8 16 9 15 10 14 11 6 12
REMARK SMILES IDX 7 13 8 14 9 15 13 16 11 17 10 18 12 20 4 22 21 24 18 26
REMARK H PARENT 10 19 12 21 4 23 21 25 18 27
REMARK Flexibility Score: inf
ROOT
ATOM      1  C   UNL     1      60.151 155.723 -26.404  1.00  0.00     0.180 A 
ATOM      2  C   UNL     1      60.129 156.125 -25.057  1.00  0.00     0.208 A 
ATOM      3  C   UNL     1      59.111 156.989 -24.622  1.00  0.00     0.238 A 
ATOM      4  O   UNL     1      59.128 157.389 -23.428  1.00  0.00    -0.285 OA
ATOM      5  C   UNL     1      58.121 157.428 -25.532  1.00  0.00     0.111 A 
ATOM      6  C   UNL     1      57.022 158.272 -25.190  1.00  0.00     0.134 A 
ATOM      7  C   UNL     1      56.177 158.748 -26.201  1.00  0.00     0.093 A 
ATOM      8  C   UNL     1      56.353 158.358 -27.530  1.00  0.00     0.123 A 
ATOM      9  C   UNL     1      57.386 157.487 -27.864  1.00  0.00     0.094 A 
ATOM     10  C   UNL     1      58.268 157.024 -26.885  1.00  0.00     0.146 A 
ATOM     11  O   UNL     1      59.247 156.204 -27.249  1.00  0.00    -0.452 OA
ENDROOT
BRANCH   1  12
ATOM     12  C   UNL     1      61.177 154.794 -26.932  1.00  0.00     0.025 A 
ATOM     13  C   UNL     1      62.392 155.308 -27.412  1.00  0.00     0.016 A 
ATOM     14  C   UNL     1      63.365 154.452 -27.933  1.00  0.00     0.051 A 
ATOM     15  C   UNL     1      63.134 153.075 -27.998  1.00  0.00     0.157 A 
ATOM     16  C   UNL     1      60.937 153.411 -27.016  1.00  0.00     0.062 A 
ATOM     17  C   UNL     1      61.913 152.550 -27.542  1.00  0.00     0.158 A 
BRANCH  15  18
ATOM     18  O   UNL     1      64.125 152.244 -28.521  1.00  0.00    -0.504 OA
ATOM     19  H   UNL     1      64.182 151.260 -28.287  1.00  0.00     0.293 HD
ENDBRANCH  15  18
BRANCH  17  20
ATOM     20  O   UNL     1      61.670 151.180 -27.616  1.00  0.00    -0.504 OA
ATOM     21  H   UNL     1      60.766 150.815 -27.892  1.00  0.00     0.293 HD
ENDBRANCH  17  20
ENDBRANCH   1  12
BRANCH   2  22
ATOM     22  O   UNL     1      61.129 155.698 -24.179  1.00  0.00    -0.502 OA
ATOM     23  H   UNL     1      62.013 156.184 -24.083  1.00  0.00     0.293 HD
ENDBRANCH   2  22
BRANCH   6  24
ATOM     24  O   UNL     1      56.703 158.646 -23.881  1.00  0.00    -0.507 OA
ATOM     25  H   UNL     1      56.365 158.016 -23.169  1.00  0.00     0.293 HD
ENDBRANCH   6  24
BRANCH   8  26
ATOM     26  O   UNL     1      55.497 158.825 -28.526  1.00  0.00    -0.508 OA
ATOM     27  H   UNL     1      55.561 158.490 -29.481  1.00  0.00     0.293 HD
ENDBRANCH   8  26
TORSDOF 6
ENDMDL
MODEL 3
REMARK VINA RESULT:    -5.914      1.353      1.353
REMARK INTER + INTRA:          -7.356
REMARK INTER:                  -7.041
REMARK INTRA:                  -0.315
REMARK UNBOUND:                -0.231
REMARK SMILES O=c1c(O)c(-c2ccc(O)c(O)c2)oc2cc(O)cc(O)c12
REMARK SMILES IDX 5 1 3 2 2 3 1 4 22 5 20 6 19 7 17 8 16 9 15 10 14 11 6 12
REMARK SMILES IDX 7 13 8 14 9 15 13 16 11 17 10 18 12 20 4 22 21 24 18 26
REMARK H PARENT 10 19 12 21 4 23 21 25 18 27
REMARK Flexibility Score: inf
ROOT
ATOM      1  C   UNL     1      60.074 146.710 -17.874  1.00  0.00     0.180 A 
ATOM      2  C   UNL     1      61.108 146.656 -18.824  1.00  0.00     0.208 A 
ATOM      3  C   UNL     1      61.333 145.455 -19.517  1.00  0.00     0.238 A 
ATOM      4  O   UNL     1      62.295 145.396 -20.327  1.00  0.00    -0.285 OA
ATOM      5  C   UNL     1      60.514 144.330 -19.262  1.00  0.00     0.111 A 
ATOM      6  C   UNL     1      60.627 143.076 -19.934  1.00  0.00     0.134 A 
ATOM      7  C   UNL     1      59.848 141.992 -19.509  1.00  0.00     0.093 A 
ATOM      8  C   UNL     1      58.914 142.135 -18.481  1.00  0.00     0.123 A 
ATOM      9  C   UNL     1      58.754 143.371 -17.860  1.00  0.00     0.094 A 
ATOM     10  C   UNL     1      59.542 144.462 -18.236  1.00  0.00     0.146 A 
ATOM     11  O   UNL     1      59.365 145.619 -17.610  1.00  0.00    -0.452 OA
ENDROOT
BRANCH   1  12
ATOM     12  C   UNL     1      59.759 147.947 -17.122  1.00  0.00     0.025 A 
ATOM     13  C   UNL     1      60.453 148.229 -15.935  1.00  0.00     0.016 A 
ATOM     14  C   UNL     1      60.158 149.380 -15.199  1.00  0.00     0.051 A 
ATOM     15  C   UNL     1      59.156 150.256 -15.628  1.00  0.00     0.157 A 
ATOM     16  C   UNL     1      58.737 148.817 -17.541  1.00  0.00     0.062 A 
ATOM     17  C   UNL     1      58.438 149.972 -16.802  1.00  0.00     0.158 A 
BRANCH  15  18
ATOM     18  O   UNL     1      58.885 151.397 -14.875  1.00  0.00    -0.504 OA
ATOM     19  H   UNL     1      58.326 152.161 -15.236  1.00  0.00     0.293 HD
ENDBRANCH  15  18
BRANCH  17  20
ATOM     20  O   UNL     1      57.428 150.834 -17.228  1.00  0.00    -0.504 OA
ATOM     21  H   UNL     1      57.471 151.299 -18.127  1.00  0.00     0.293 HD
ENDBRANCH  17  20
ENDBRANCH   1  12
BRANCH   2  22
ATOM     22  O   UNL     1      61.920 147.772 -19.045  1.00  0.00    -0.502 OA
ATOM     23  H   UNL     1      62.007 148.210 -19.953  1.00  0.00     0.293 HD
ENDBRANCH   2  22
BRANCH   6  24
ATOM     24  O   UNL     1      61.462 142.851 -21.033  1.00  0.00    -0.507 OA
ATOM     25  H   UNL     1      62.030 143.558 -21.477  1.00  0.00     0.293 HD
ENDBRANCH   6  24
BRANCH   8  26
ATOM     26  O   UNL     1      58.132 141.055 -18.076  1.00  0.00    -0.508 OA
ATOM     27  H   UNL     1      58.222 140.653 -17.150  1.00  0.00     0.293 HD
ENDBRANCH   8  26
TORSDOF 6
ENDMDL
MODEL 4
REMARK VINA RESULT:    -5.613     12.178     14.812
REMARK INTER + INTRA:          -6.993
REMARK INTER:                  -6.679
REMARK INTRA:                  -0.314
REMARK UNBOUND:                -0.231
REMARK SMILES O=c1c(O)c(-c2ccc(O)c(O)c2)oc2cc(O)cc(O)c12
REMARK SMILES IDX 5 1 3 2 2 3 1 4 22 5 20 6 19 7 17 8 16 9 15 10 14 11 6 12
REMARK SMILES IDX 7 13 8 14 9 15 13 16 11 17 10 18 12 20 4 22 21 24 18 26
REMARK H PARENT 10 19 12 21 4 23 21 25 18 27
REMARK Flexibility Score: inf
ROOT
ATOM      1  C   UNL     1      59.437 156.344 -26.138  1.00  0.00     0.180 A 
ATOM      2  C   UNL     1      58.418 156.774 -27.006  1.00  0.00     0.208 A 
ATOM      3  C   UNL     1      57.306 157.444 -26.471  1.00  0.00     0.238 A 
ATOM      4  O   UNL     1      56.372 157.778 -27.246  1.00  0.00    -0.285 OA
ATOM      5  C   UNL     1      57.233 157.690 -25.080  1.00  0.00     0.111 A 
ATOM      6  C   UNL     1      56.172 158.394 -24.436  1.00  0.00     0.134 A 
ATOM      7  C   UNL     1      56.139 158.465 -23.037  1.00  0.00     0.093 A 
ATOM      8  C   UNL     1      57.163 157.913 -22.264  1.00  0.00     0.123 A 
ATOM      9  C   UNL     1      58.233 157.275 -22.887  1.00  0.00     0.094 A 
ATOM     10  C   UNL     1      58.276 157.157 -24.278  1.00  0.00     0.146 A 
ATOM     11  O   UNL     1      59.308 156.532 -24.830  1.00  0.00    -0.452 OA
ENDROOT
BRANCH   1  12
ATOM     12  C   UNL     1      60.652 155.655 -26.630  1.00  0.00     0.025 A 
ATOM     13  C   UNL     1      61.726 156.414 -27.119  1.00  0.00     0.016 A 
ATOM     14  C   UNL     1      62.874 155.784 -27.607  1.00  0.00     0.051 A 
ATOM     15  C   UNL     1      62.960 154.389 -27.629  1.00  0.00     0.157 A 
ATOM     16  C   UNL     1      60.731 154.252 -26.672  1.00  0.00     0.062 A 
ATOM     17  C   UNL     1      61.881 153.617 -27.163  1.00  0.00     0.158 A 
BRANCH  15  18
ATOM     18  O   UNL     1      64.118 153.787 -28.119  1.00  0.00    -0.504 OA
ATOM     19  H   UNL     1      65.013 154.261 -28.117  1.00  0.00     0.293 HD
ENDBRANCH  15  18
BRANCH  17  20
ATOM     20  O   UNL     1      61.954 152.226 -27.196  1.00  0.00    -0.504 OA
ATOM     21  H   UNL     1      62.841 151.738 -27.142  1.00  0.00     0.293 HD
ENDBRANCH  17  20
ENDBRANCH   1  12
BRANCH   2  22
ATOM     22  O   UNL     1      58.500 156.502 -28.375  1.00  0.00    -0.502 OA
ATOM     23  H   UNL     1      58.817 157.188 -29.048  1.00  0.00     0.293 HD
ENDBRANCH   2  22
BRANCH   6  24
ATOM     24  O   UNL     1      55.150 159.061 -25.118  1.00  0.00    -0.507 OA
ATOM     25  H   UNL     1      54.888 160.023 -24.963  1.00  0.00     0.293 HD
ENDBRANCH   6  24
BRANCH   8  26
ATOM     26  O   UNL     1      57.130 158.002 -20.873  1.00  0.00    -0.508 OA
ATOM     27  H   UNL     1      57.477 157.253 -20.285  1.00  0.00     0.293 HD
ENDBRANCH   8  26
TORSDOF 6
ENDMDL
MODEL 5
REMARK VINA RESULT:    -5.603      4.834      6.686
REMARK INTER + INTRA:          -6.981
REMARK INTER:                  -6.686
REMARK INTRA:                  -0.294
REMARK UNBOUND:                -0.231
REMARK SMILES O=c1c(O)c(-c2ccc(O)c(O)c2)oc2cc(O)cc(O)c12
REMARK SMILES IDX 5 1 3 2 2 3 1 4 22 5 20 6 19 7 17 8 16 9 15 10 14 11 6 12
REMARK SMILES IDX 7 13 8 14 9 15 13 16 11 17 10 18 12 20 4 22 21 24 18 26
REMARK H PARENT 10 19 12 21 4 23 21 25 18 27
REMARK Flexibility Score: inf
ROOT
ATOM      1  C   UNL     1      58.734 143.408 -20.946  1.00  0.00     0.180 A 
ATOM      2  C   UNL     1      58.684 142.083 -20.479  1.00  0.00     0.208 A 
ATOM      3  C   UNL     1      57.904 141.145 -21.174  1.00  0.00     0.238 A 
ATOM      4  O   UNL     1      57.820 139.973 -20.720  1.00  0.00    -0.285 OA
ATOM      5  C   UNL     1      57.196 141.538 -22.335  1.00  0.00     0.111 A 
ATOM      6  C   UNL     1      56.408 140.662 -23.140  1.00  0.00     0.134 A 
ATOM      7  C   UNL     1      55.647 141.188 -24.192  1.00  0.00     0.093 A 
ATOM      8  C   UNL     1      55.697 142.548 -24.507  1.00  0.00     0.123 A 
ATOM      9  C   UNL     1      56.511 143.400 -23.765  1.00  0.00     0.094 A 
ATOM     10  C   UNL     1      57.254 142.912 -22.688  1.00  0.00     0.146 A 
ATOM     11  O   UNL     1      58.007 143.761 -22.000  1.00  0.00    -0.452 OA
ENDROOT
BRANCH   1  12
ATOM     12  C   UNL     1      59.554 144.447 -20.282  1.00  0.00     0.025 A 
ATOM     13  C   UNL     1      60.832 144.742 -20.782  1.00  0.00     0.016 A 
ATOM     14  C   UNL     1      61.631 145.704 -20.159  1.00  0.00     0.051 A 
ATOM     15  C   UNL     1      61.174 146.373 -19.020  1.00  0.00     0.157 A 
ATOM     16  C   UNL     1      59.104 145.105 -19.124  1.00  0.00     0.062 A 
ATOM     17  C   UNL     1      59.905 146.070 -18.496  1.00  0.00     0.158 A 
BRANCH  15  18
ATOM     18  O   UNL     1      61.992 147.330 -18.421  1.00  0.00    -0.504 OA
ATOM     19  H   UNL     1      61.621 148.191 -18.037  1.00  0.00     0.293 HD
ENDBRANCH  15  18
BRANCH  17  20
ATOM     20  O   UNL     1      59.449 146.723 -17.352  1.00  0.00    -0.504 OA
ATOM     21  H   UNL     1      59.833 147.615 -17.060  1.00  0.00     0.293 HD
ENDBRANCH  17  20
ENDBRANCH   1  12
BRANCH   2  22
ATOM     22  O   UNL     1      59.373 141.720 -19.318  1.00  0.00    -0.502 OA
ATOM     23  H   UNL     1      58.899 141.492 -18.453  1.00  0.00     0.293 HD
ENDBRANCH   2  22
BRANCH   6  24
ATOM     24  O   UNL     1      56.360 139.275 -22.967  1.00  0.00    -0.507 OA
ATOM     25  H   UNL     1      56.929 138.613 -23.473  1.00  0.00     0.293 HD
ENDBRANCH   6  24
BRANCH   8  26
ATOM     26  O   UNL     1      54.949 143.059 -25.566  1.00  0.00    -0.508 OA
ATOM     27  H   UNL     1      54.841 142.549 -26.434  1.00  0.00     0.293 HD
ENDBRANCH   8  26
TORSDOF 6
ENDMDL
MODEL 6
REMARK VINA RESULT:    -5.599      2.107      3.646
REMARK INTER + INTRA:          -6.976
REMARK INTER:                  -6.660
REMARK INTRA:                  -0.316
REMARK UNBOUND:                -0.231
REMARK SMILES O=c1c(O)c(-c2ccc(O)c(O)c2)oc2cc(O)cc(O)c12
REMARK SMILES IDX 5 1 3 2 2 3 1 4 22 5 20 6 19 7 17 8 16 9 15 10 14 11 6 12
REMARK SMILES IDX 7 13 8 14 9 15 13 16 11 17 10 18 12 20 4 22 21 24 18 26
REMARK H PARENT 10 19 12 21 4 23 21 25 18 27
REMARK Flexibility Score: inf
ROOT
ATOM      1  C   UNL     1      60.285 145.795 -18.622  1.00  0.00     0.180 A 
ATOM      2  C   UNL     1      59.465 144.662 -18.490  1.00  0.00     0.208 A 
ATOM      3  C   UNL     1      59.599 143.612 -19.413  1.00  0.00     0.238 A 
ATOM      4  O   UNL     1      58.824 142.624 -19.322  1.00  0.00    -0.285 OA
ATOM      5  C   UNL     1      60.561 143.702 -20.448  1.00  0.00     0.111 A 
ATOM      6  C   UNL     1      60.810 142.681 -21.413  1.00  0.00     0.134 A 
ATOM      7  C   UNL     1      61.694 142.932 -22.471  1.00  0.00     0.093 A 
ATOM      8  C   UNL     1      62.387 144.141 -22.558  1.00  0.00     0.123 A 
ATOM      9  C   UNL     1      62.196 145.120 -21.586  1.00  0.00     0.094 A 
ATOM     10  C   UNL     1      61.293 144.914 -20.540  1.00  0.00     0.146 A 
ATOM     11  O   UNL     1      61.133 145.878 -19.642  1.00  0.00    -0.452 OA
ENDROOT
BRANCH   1  12
ATOM     12  C   UNL     1      60.221 146.930 -17.673  1.00  0.00     0.025 A 
ATOM     13  C   UNL     1      60.941 146.865 -16.470  1.00  0.00     0.016 A 
ATOM     14  C   UNL     1      60.879 147.916 -15.550  1.00  0.00     0.051 A 
ATOM     15  C   UNL     1      60.085 149.036 -15.810  1.00  0.00     0.157 A 
ATOM     16  C   UNL     1      59.406 148.048 -17.923  1.00  0.00     0.062 A 
ATOM     17  C   UNL     1      59.340 149.103 -17.000  1.00  0.00     0.158 A 
BRANCH  15  18
ATOM     18  O   UNL     1      60.043 150.070 -14.875  1.00  0.00    -0.504 OA
ATOM     19  H   UNL     1      60.187 151.038 -15.136  1.00  0.00     0.293 HD
ENDBRANCH  15  18
BRANCH  17  20
ATOM     20  O   UNL     1      58.535 150.210 -17.259  1.00  0.00    -0.504 OA
ATOM     21  H   UNL     1      58.930 151.135 -17.392  1.00  0.00     0.293 HD
ENDBRANCH  17  20
ENDBRANCH   1  12
BRANCH   2  22
ATOM     22  O   UNL     1      58.506 144.603 -17.474  1.00  0.00    -0.502 OA
ATOM     23  H   UNL     1      57.523 144.451 -17.663  1.00  0.00     0.293 HD
ENDBRANCH   2  22
BRANCH   6  24
ATOM     24  O   UNL     1      60.240 141.405 -21.366  1.00  0.00    -0.507 OA
ATOM     25  H   UNL     1      60.434 140.665 -22.024  1.00  0.00     0.293 HD
ENDBRANCH   6  24
BRANCH   8  26
ATOM     26  O   UNL     1      63.278 144.375 -23.604  1.00  0.00    -0.508 OA
ATOM     27  H   UNL     1      64.267 144.174 -23.514  1.00  0.00     0.293 HD
ENDBRANCH   8  26
TORSDOF 6
ENDMDL
MODEL 7
REMARK VINA RESULT:    -5.590     13.150     15.470
REMARK INTER + INTRA:          -6.965
REMARK INTER:                  -6.674
REMARK INTRA:                  -0.291
REMARK UNBOUND:                -0.231
REMARK SMILES O=c1c(O)c(-c2ccc(O)c(O)c2)oc2cc(O)cc(O)c12
REMARK SMILES IDX 5 1 3 2 2 3 1 4 22 5 20 6 19 7 17 8 16 9 15 10 14 11 6 12
REMARK SMILES IDX 7 13 8 14 9 15 13 16 11 17 10 18 12 20 4 22 21 24 18 26
REMARK H PARENT 10 19 12 21 4 23 21 25 18 27
REMARK Flexibility Score: inf
ROOT
ATOM      1  C   UNL     1      55.825 156.774 -26.026  1.00  0.00     0.180 A 
ATOM      2  C   UNL     1      55.358 157.908 -26.712  1.00  0.00     0.208 A 
ATOM      3  C   UNL     1      53.977 158.063 -26.909  1.00  0.00     0.238 A 
ATOM      4  O   UNL     1      53.568 159.053 -27.572  1.00  0.00    -0.285 OA
ATOM      5  C   UNL     1      53.079 157.092 -26.406  1.00  0.00     0.111 A 
ATOM      6  C   UNL     1      51.658 157.169 -26.513  1.00  0.00     0.134 A 
ATOM      7  C   UNL     1      50.874 156.086 -26.093  1.00  0.00     0.093 A 
ATOM      8  C   UNL     1      51.457 154.959 -25.510  1.00  0.00     0.123 A 
ATOM      9  C   UNL     1      52.839 154.901 -25.346  1.00  0.00     0.094 A 
ATOM     10  C   UNL     1      53.650 155.949 -25.788  1.00  0.00     0.146 A 
ATOM     11  O   UNL     1      54.963 155.848 -25.623  1.00  0.00    -0.452 OA
ENDROOT
BRANCH   1  12
ATOM     12  C   UNL     1      57.265 156.553 -25.757  1.00  0.00     0.025 A 
ATOM     13  C   UNL     1      57.793 156.897 -24.503  1.00  0.00     0.016 A 
ATOM     14  C   UNL     1      59.152 156.717 -24.233  1.00  0.00     0.051 A 
ATOM     15  C   UNL     1      60.006 156.207 -25.216  1.00  0.00     0.157 A 
ATOM     16  C   UNL     1      58.128 156.061 -26.751  1.00  0.00     0.062 A 
ATOM     17  C   UNL     1      59.494 155.881 -26.484  1.00  0.00     0.158 A 
BRANCH  15  18
ATOM     18  O   UNL     1      61.357 156.035 -24.919  1.00  0.00    -0.504 OA
ATOM     19  H   UNL     1      62.085 156.538 -25.411  1.00  0.00     0.293 HD
ENDBRANCH  15  18
BRANCH  17  20
ATOM     20  O   UNL     1      60.342 155.386 -27.472  1.00  0.00    -0.504 OA
ATOM     21  H   UNL     1      60.891 154.546 -27.330  1.00  0.00     0.293 HD
ENDBRANCH  17  20
ENDBRANCH   1  12
BRANCH   2  22
ATOM     22  O   UNL     1      56.263 158.844 -27.221  1.00  0.00    -0.502 OA
ATOM     23  H   UNL     1      56.063 159.406 -28.040  1.00  0.00     0.293 HD
ENDBRANCH   2  22
BRANCH   6  24
ATOM     24  O   UNL     1      50.970 158.287 -26.995  1.00  0.00    -0.507 OA
ATOM     25  H   UNL     1      50.000 158.491 -26.805  1.00  0.00     0.293 HD
ENDBRANCH   6  24
BRANCH   8  26
ATOM     26  O   UNL     1      50.668 153.893 -25.080  1.00  0.00    -0.508 OA
ATOM     27  H   UNL     1      50.641 153.016 -25.585  1.00  0.00     0.293 HD
ENDBRANCH   8  26
TORSDOF 6
ENDMDL
MODEL 8
REMARK VINA RESULT:    -5.577      6.279      8.543
REMARK INTER + INTRA:          -6.949
REMARK INTER:                  -6.714
REMARK INTRA:                  -0.235
REMARK UNBOUND:                -0.231
REMARK SMILES O=c1c(O)c(-c2ccc(O)c(O)c2)oc2cc(O)cc(O)c12
REMARK SMILES IDX 5 1 3 2 2 3 1 4 22 5 20 6 19 7 17 8 16 9 15 10 14 11 6 12
REMARK SMILES IDX 7 13 8 14 9 15 13 16 11 17 10 18 12 20 4 22 21 24 18 26
REMARK H PARENT 10 19 12 21 4 23 21 25 18 27
REMARK Flexibility Score: inf
ROOT
ATOM      1  C   UNL     1      57.061 142.830 -22.923  1.00  0.00     0.180 A 
ATOM      2  C   UNL     1      56.992 141.464 -22.599  1.00  0.00     0.208 A 
ATOM      3  C   UNL     1      57.697 140.993 -21.480  1.00  0.00     0.238 A 
ATOM      4  O   UNL     1      57.676 139.760 -21.226  1.00  0.00    -0.285 OA
ATOM      5  C   UNL     1      58.450 141.895 -20.690  1.00  0.00     0.111 A 
ATOM      6  C   UNL     1      59.169 141.535 -19.512  1.00  0.00     0.134 A 
ATOM      7  C   UNL     1      59.985 142.485 -18.883  1.00  0.00     0.093 A 
ATOM      8  C   UNL     1      60.054 143.798 -19.354  1.00  0.00     0.123 A 
ATOM      9  C   UNL     1      59.308 144.175 -20.467  1.00  0.00     0.094 A 
ATOM     10  C   UNL     1      58.514 143.241 -21.137  1.00  0.00     0.146 A 
ATOM     11  O   UNL     1      57.828 143.639 -22.201  1.00  0.00    -0.452 OA
ENDROOT
BRANCH   1  12
ATOM     12  C   UNL     1      56.325 143.405 -24.072  1.00  0.00     0.025 A 
ATOM     13  C   UNL     1      55.170 144.169 -23.840  1.00  0.00     0.016 A 
ATOM     14  C   UNL     1      54.448 144.704 -24.910  1.00  0.00     0.051 A 
ATOM     15  C   UNL     1      54.858 144.471 -26.226  1.00  0.00     0.157 A 
ATOM     16  C   UNL     1      56.724 143.154 -25.397  1.00  0.00     0.062 A 
ATOM     17  C   UNL     1      55.999 143.689 -26.473  1.00  0.00     0.158 A 
BRANCH  15  18
ATOM     18  O   UNL     1      54.120 145.020 -27.274  1.00  0.00    -0.504 OA
ATOM     19  H   UNL     1      54.531 145.654 -27.948  1.00  0.00     0.293 HD
ENDBRANCH  15  18
BRANCH  17  20
ATOM     20  O   UNL     1      56.405 143.441 -27.783  1.00  0.00    -0.504 OA
ATOM     21  H   UNL     1      56.629 144.196 -28.422  1.00  0.00     0.293 HD
ENDBRANCH  17  20
ENDBRANCH   1  12
BRANCH   2  22
ATOM     22  O   UNL     1      56.261 140.586 -23.405  1.00  0.00    -0.502 OA
ATOM     23  H   UNL     1      55.589 140.909 -24.091  1.00  0.00     0.293 HD
ENDBRANCH   2  22
BRANCH   6  24
ATOM     24  O   UNL     1      59.098 140.276 -18.907  1.00  0.00    -0.507 OA
ATOM     25  H   UNL     1      59.099 140.117 -17.910  1.00  0.00     0.293 HD
ENDBRANCH   6  24
BRANCH   8  26
ATOM     26  O   UNL     1      60.856 144.741 -18.712  1.00  0.00    -0.508 OA
ATOM     27  H   UNL     1      61.203 144.591 -17.772  1.00  0.00     0.293 HD
ENDBRANCH   8  26
TORSDOF 6
ENDMDL
MODEL 9
REMARK VINA RESULT:    -5.490     12.609     14.153
REMARK INTER + INTRA:          -6.845
REMARK INTER:                  -6.553
REMARK INTRA:                  -0.292
REMARK UNBOUND:                -0.231
REMARK SMILES O=c1c(O)c(-c2ccc(O)c(O)c2)oc2cc(O)cc(O)c12
REMARK SMILES IDX 5 1 3 2 2 3 1 4 22 5 20 6 19 7 17 8 16 9 15 10 14 11 6 12
REMARK SMILES IDX 7 13 8 14 9 15 13 16 11 17 10 18 12 20 4 22 21 24 18 26
REMARK H PARENT 10 19 12 21 4 23 21 25 18 27
REMARK Flexibility Score: inf
ROOT
ATOM      1  C   UNL     1      59.205 156.546 -26.332  1.00  0.00     0.180 A 
ATOM      2  C   UNL     1      60.031 157.682 -26.378  1.00  0.00     0.208 A 
ATOM      3  C   UNL     1      61.369 157.535 -26.775  1.00  0.00     0.238 A 
ATOM      4  O   UNL     1      62.118 158.548 -26.763  1.00  0.00    -0.285 OA
ATOM      5  C   UNL     1      61.863 156.258 -27.134  1.00  0.00     0.111 A 
ATOM      6  C   UNL     1      63.190 156.001 -27.590  1.00  0.00     0.134 A 
ATOM      7  C   UNL     1      63.606 154.678 -27.792  1.00  0.00     0.093 A 
ATOM      8  C   UNL     1      62.722 153.611 -27.620  1.00  0.00     0.123 A 
ATOM      9  C   UNL     1      61.407 153.857 -27.234  1.00  0.00     0.094 A 
ATOM     10  C   UNL     1      60.973 155.162 -26.989  1.00  0.00     0.146 A 
ATOM     11  O   UNL     1      59.714 155.351 -26.611  1.00  0.00    -0.452 OA
ENDROOT
BRANCH   1  12
ATOM     12  C   UNL     1      57.777 156.624 -25.948  1.00  0.00     0.025 A 
ATOM     13  C   UNL     1      56.834 157.070 -26.888  1.00  0.00     0.016 A 
ATOM     14  C   UNL     1      55.484 157.172 -26.542  1.00  0.00     0.051 A 
ATOM     15  C   UNL     1      55.058 156.847 -25.251  1.00  0.00     0.157 A 
ATOM     16  C   UNL     1      57.351 156.318 -24.644  1.00  0.00     0.062 A 
ATOM     17  C   UNL     1      55.996 156.422 -24.294  1.00  0.00     0.158 A 
BRANCH  15  18
ATOM     18  O   UNL     1      53.705 156.956 -24.934  1.00  0.00    -0.504 OA
ATOM     19  H   UNL     1      53.363 157.619 -24.250  1.00  0.00     0.293 HD
ENDBRANCH  15  18
BRANCH  17  20
ATOM     20  O   UNL     1      55.581 156.109 -23.001  1.00  0.00    -0.504 OA
ATOM     21  H   UNL     1      55.041 156.762 -22.444  1.00  0.00     0.293 HD
ENDBRANCH  17  20
ENDBRANCH   1  12
BRANCH   2  22
ATOM     22  O   UNL     1      59.530 158.931 -25.999  1.00  0.00    -0.502 OA
ATOM     23  H   UNL     1      60.131 159.725 -25.816  1.00  0.00     0.293 HD
ENDBRANCH   2  22
BRANCH   6  24
ATOM     24  O   UNL     1      64.124 157.000 -27.881  1.00  0.00    -0.507 OA
ATOM     25  H   UNL     1      65.101 156.835 -28.071  1.00  0.00     0.293 HD
ENDBRANCH   6  24
BRANCH   8  26
ATOM     26  O   UNL     1      63.141 152.300 -27.840  1.00  0.00    -0.508 OA
ATOM     27  H   UNL     1      63.945 151.912 -27.360  1.00  0.00     0.293 HD
ENDBRANCH   8  26
TORSDOF 6
ENDMDL
