MODEL 1
REMARK VINA RESULT:    -4.246      0.000      0.000
REMARK INTER + INTRA:          -4.660
REMARK INTER:                  -4.494
REMARK INTRA:                  -0.166
REMARK UNBOUND:                -0.166
REMARK SMILES CC1=CC=C(C(C)C)CC1
REMARK SMILES IDX 1 1 2 2 3 3 4 4 5 5 9 6 10 7 6 8 7 9 8 10
REMARK H PARENT
REMARK Flexibility Score: inf
ROOT
ATOM      1  C   UNL     1     140.698 137.870 136.230  1.00  0.00     0.039 C 
ATOM      2  C   UNL     1     140.146 136.505 135.936  1.00  0.00    -0.073 C 
ATOM      3  C   UNL     1     140.585 135.823 134.868  1.00  0.00    -0.001 C 
ATOM      4  C   UNL     1     140.057 134.478 134.563  1.00  0.00    -0.001 C 
ATOM      5  C   UNL     1     139.311 133.807 135.459  1.00  0.00    -0.067 C 
ATOM      6  C   UNL     1     139.113 134.402 136.841  1.00  0.00     0.035 C 
ATOM      7  C   UNL     1     139.031 135.935 136.783  1.00  0.00     0.035 C 
ENDROOT
BRANCH   5   8
ATOM      8  C   UNL     1     138.721 132.454 135.102  1.00  0.00     0.009 C 
ATOM      9  C   UNL     1     137.821 132.563 133.866  1.00  0.00     0.012 C 
ATOM     10  C   UNL     1     137.959 131.851 136.287  1.00  0.00     0.012 C 
ENDBRANCH   5   8
TORSDOF 1
ENDMDL
MODEL 2
REMARK VINA RESULT:    -4.244      4.133      5.770
REMARK INTER + INTRA:          -4.658
REMARK INTER:                  -4.491
REMARK INTRA:                  -0.166
REMARK UNBOUND:                -0.166
REMARK SMILES CC1=CC=C(C(C)C)CC1
REMARK SMILES IDX 1 1 2 2 3 3 4 4 5 5 9 6 10 7 6 8 7 9 8 10
REMARK H PARENT
REMARK Flexibility Score: inf
ROOT
ATOM      1  C   UNL     1     137.864 131.885 136.171  1.00  0.00     0.039 C 
ATOM      2  C   UNL     1     136.504 132.451 135.887  1.00  0.00    -0.073 C 
ATOM      3  C   UNL     1     135.822 132.040 134.808  1.00  0.00    -0.001 C 
ATOM      4  C   UNL     1     134.481 132.583 134.511  1.00  0.00    -0.001 C 
ATOM      5  C   UNL     1     133.812 133.313 135.422  1.00  0.00    -0.067 C 
ATOM      6  C   UNL     1     134.405 133.476 136.809  1.00  0.00     0.035 C 
ATOM      7  C   UNL     1     135.939 133.551 136.756  1.00  0.00     0.035 C 
ENDROOT
BRANCH   5   8
ATOM      8  C   UNL     1     132.464 133.918 135.074  1.00  0.00     0.009 C 
ATOM      9  C   UNL     1     132.575 134.822 133.841  1.00  0.00     0.012 C 
ATOM     10  C   UNL     1     131.875 134.683 136.266  1.00  0.00     0.012 C 
ENDBRANCH   5   8
TORSDOF 1
ENDMDL
MODEL 3
REMARK VINA RESULT:    -4.243      4.059      5.695
REMARK INTER + INTRA:          -4.657
REMARK INTER:                  -4.491
REMARK INTRA:                  -0.165
REMARK UNBOUND:                -0.166
REMARK SMILES CC1=CC=C(C(C)C)CC1
REMARK SMILES IDX 1 1 2 2 3 3 4 4 5 5 9 6 10 7 6 8 7 9 8 10
REMARK H PARENT
REMARK Flexibility Score: inf
ROOT
ATOM      1  C   UNL     1     134.856 140.723 136.222  1.00  0.00     0.039 C 
ATOM      2  C   UNL     1     136.211 140.140 135.940  1.00  0.00    -0.073 C 
ATOM      3  C   UNL     1     136.903 140.547 134.866  1.00  0.00    -0.001 C 
ATOM      4  C   UNL     1     138.237 139.989 134.572  1.00  0.00    -0.001 C 
ATOM      5  C   UNL     1     138.893 139.246 135.483  1.00  0.00    -0.067 C 
ATOM      6  C   UNL     1     138.293 139.085 136.866  1.00  0.00     0.035 C 
ATOM      7  C   UNL     1     136.759 139.030 136.808  1.00  0.00     0.035 C 
ENDROOT
BRANCH   5   8
ATOM      8  C   UNL     1     140.235 138.625 135.138  1.00  0.00     0.009 C 
ATOM      9  C   UNL     1     140.105 137.683 133.936  1.00  0.00     0.012 C 
ATOM     10  C   UNL     1     140.836 137.897 136.346  1.00  0.00     0.012 C 
ENDBRANCH   5   8
TORSDOF 1
ENDMDL
MODEL 4
REMARK VINA RESULT:    -4.198      6.629      8.186
REMARK INTER + INTRA:          -4.609
REMARK INTER:                  -4.442
REMARK INTRA:                  -0.167
REMARK UNBOUND:                -0.166
REMARK SMILES CC1=CC=C(C(C)C)CC1
REMARK SMILES IDX 1 1 2 2 3 3 4 4 5 5 9 6 10 7 6 8 7 9 8 10
REMARK H PARENT
REMARK Flexibility Score: inf
ROOT
ATOM      1  C   UNL     1     131.870 134.828 136.133  1.00  0.00     0.039 C 
ATOM      2  C   UNL     1     132.442 136.188 135.855  1.00  0.00    -0.073 C 
ATOM      3  C   UNL     1     132.013 136.889 134.796  1.00  0.00    -0.001 C 
ATOM      4  C   UNL     1     132.561 138.229 134.506  1.00  0.00    -0.001 C 
ATOM      5  C   UNL     1     133.316 138.879 135.411  1.00  0.00    -0.067 C 
ATOM      6  C   UNL     1     133.504 138.265 136.785  1.00  0.00     0.035 C 
ATOM      7  C   UNL     1     133.565 136.731 136.709  1.00  0.00     0.035 C 
ENDROOT
BRANCH   5   8
ATOM      8  C   UNL     1     133.925 140.227 135.070  1.00  0.00     0.009 C 
ATOM      9  C   UNL     1     134.782 140.132 133.802  1.00  0.00     0.012 C 
ATOM     10  C   UNL     1     134.740 140.781 136.245  1.00  0.00     0.012 C 
ENDBRANCH   5   8
TORSDOF 1
ENDMDL
MODEL 5
REMARK VINA RESULT:    -4.176      4.466      6.037
REMARK INTER + INTRA:          -4.586
REMARK INTER:                  -4.442
REMARK INTRA:                  -0.144
REMARK UNBOUND:                -0.166
REMARK SMILES CC1=CC=C(C(C)C)CC1
REMARK SMILES IDX 1 1 2 2 3 3 4 4 5 5 9 6 10 7 6 8 7 9 8 10
REMARK H PARENT
REMARK Flexibility Score: inf
ROOT
ATOM      1  C   UNL     1     140.914 137.978 136.360  1.00  0.00     0.039 C 
ATOM      2  C   UNL     1     139.610 138.688 136.141  1.00  0.00    -0.073 C 
ATOM      3  C   UNL     1     139.321 139.198 134.936  1.00  0.00    -0.001 C 
ATOM      4  C   UNL     1     138.042 139.898 134.699  1.00  0.00    -0.001 C 
ATOM      5  C   UNL     1     137.043 139.838 135.598  1.00  0.00    -0.067 C 
ATOM      6  C   UNL     1     137.203 138.943 136.812  1.00  0.00     0.035 C 
ATOM      7  C   UNL     1     138.661 138.912 137.297  1.00  0.00     0.035 C 
ENDROOT
BRANCH   5   8
ATOM      8  C   UNL     1     135.761 140.618 135.368  1.00  0.00     0.009 C 
ATOM      9  C   UNL     1     134.933 140.696 136.656  1.00  0.00     0.012 C 
ATOM     10  C   UNL     1     134.942 140.013 134.222  1.00  0.00     0.012 C 
ENDBRANCH   5   8
TORSDOF 1
ENDMDL
MODEL 6
REMARK VINA RESULT:    -4.145      0.943      4.317
REMARK INTER + INTRA:          -4.553
REMARK INTER:                  -4.409
REMARK INTRA:                  -0.144
REMARK UNBOUND:                -0.166
REMARK SMILES CC1=CC=C(C(C)C)CC1
REMARK SMILES IDX 1 1 2 2 3 3 4 4 5 5 9 6 10 7 6 8 7 9 8 10
REMARK H PARENT
REMARK Flexibility Score: inf
ROOT
ATOM      1  C   UNL     1     137.886 131.834 136.383  1.00  0.00     0.039 C 
ATOM      2  C   UNL     1     138.597 133.143 136.198  1.00  0.00    -0.073 C 
ATOM      3  C   UNL     1     139.277 133.379 135.066  1.00  0.00    -0.001 C 
ATOM      4  C   UNL     1     139.981 134.660 134.862  1.00  0.00    -0.001 C 
ATOM      5  C   UNL     1     139.770 135.705 135.684  1.00  0.00    -0.067 C 
ATOM      6  C   UNL     1     138.708 135.588 136.760  1.00  0.00     0.035 C 
ATOM      7  C   UNL     1     138.631 134.158 137.317  1.00  0.00     0.035 C 
ENDROOT
BRANCH   5   8
ATOM      8  C   UNL     1     140.553 136.992 135.499  1.00  0.00     0.009 C 
ATOM      9  C   UNL     1     140.552 137.821 136.788  1.00  0.00     0.012 C 
ATOM     10  C   UNL     1     140.009 137.808 134.319  1.00  0.00     0.012 C 
ENDBRANCH   5   8
TORSDOF 1
ENDMDL
MODEL 7
REMARK VINA RESULT:    -4.128      3.776      5.573
REMARK INTER + INTRA:          -4.535
REMARK INTER:                  -4.391
REMARK INTRA:                  -0.144
REMARK UNBOUND:                -0.166
REMARK SMILES CC1=CC=C(C(C)C)CC1
REMARK SMILES IDX 1 1 2 2 3 3 4 4 5 5 9 6 10 7 6 8 7 9 8 10
REMARK H PARENT
REMARK Flexibility Score: inf
ROOT
ATOM      1  C   UNL     1     131.816 134.584 136.310  1.00  0.00     0.039 C 
ATOM      2  C   UNL     1     133.123 133.878 136.092  1.00  0.00    -0.073 C 
ATOM      3  C   UNL     1     133.346 133.224 134.943  1.00  0.00    -0.001 C 
ATOM      4  C   UNL     1     134.625 132.525 134.708  1.00  0.00    -0.001 C 
ATOM      5  C   UNL     1     135.679 132.720 135.521  1.00  0.00    -0.067 C 
ATOM      6  C   UNL     1     135.576 133.759 136.621  1.00  0.00     0.035 C 
ATOM      7  C   UNL     1     134.153 133.823 137.198  1.00  0.00     0.035 C 
ENDROOT
BRANCH   5   8
ATOM      8  C   UNL     1     136.965 131.942 135.302  1.00  0.00     0.009 C 
ATOM      9  C   UNL     1     137.804 131.906 136.585  1.00  0.00     0.012 C 
ATOM     10  C   UNL     1     137.771 132.521 134.133  1.00  0.00     0.012 C 
ENDBRANCH   5   8
TORSDOF 1
ENDMDL
MODEL 8
REMARK VINA RESULT:    -4.051      6.659      7.005
REMARK INTER + INTRA:          -4.453
REMARK INTER:                  -4.309
REMARK INTRA:                  -0.144
REMARK UNBOUND:                -0.166
REMARK SMILES CC1=CC=C(C(C)C)CC1
REMARK SMILES IDX 1 1 2 2 3 3 4 4 5 5 9 6 10 7 6 8 7 9 8 10
REMARK H PARENT
REMARK Flexibility Score: inf
ROOT
ATOM      1  C   UNL     1     134.817 140.923 136.344  1.00  0.00     0.039 C 
ATOM      2  C   UNL     1     134.066 139.651 136.076  1.00  0.00    -0.073 C 
ATOM      3  C   UNL     1     133.733 139.325 134.819  1.00  0.00    -0.001 C 
ATOM      4  C   UNL     1     132.996 138.078 134.532  1.00  0.00    -0.001 C 
ATOM      5  C   UNL     1     132.850 137.129 135.475  1.00  0.00    -0.067 C 
ATOM      6  C   UNL     1     133.552 137.304 136.808  1.00  0.00     0.035 C 
ATOM      7  C   UNL     1     133.602 138.782 137.223  1.00  0.00     0.035 C 
ENDROOT
BRANCH   5   8
ATOM      8  C   UNL     1     132.032 135.883 135.183  1.00  0.00     0.009 C 
ATOM      9  C   UNL     1     131.977 134.968 136.411  1.00  0.00     0.012 C 
ATOM     10  C   UNL     1     132.581 135.134 133.962  1.00  0.00     0.012 C 
ENDBRANCH   5   8
TORSDOF 1
ENDMDL
MODEL 9
REMARK VINA RESULT:    -3.989      4.343      6.157
REMARK INTER + INTRA:          -4.388
REMARK INTER:                  -4.218
REMARK INTRA:                  -0.170
REMARK UNBOUND:                -0.166
REMARK SMILES CC1=CC=C(C(C)C)CC1
REMARK SMILES IDX 1 1 2 2 3 3 4 4 5 5 9 6 10 7 6 8 7 9 8 10
REMARK H PARENT
REMARK Flexibility Score: inf
ROOT
ATOM      1  C   UNL     1     140.857 137.873 136.268  1.00  0.00     0.039 C 
ATOM      2  C   UNL     1     139.516 138.503 136.028  1.00  0.00    -0.073 C 
ATOM      3  C   UNL     1     138.646 138.629 137.042  1.00  0.00    -0.001 C 
ATOM      4  C   UNL     1     137.323 139.248 136.829  1.00  0.00    -0.001 C 
ATOM      5  C   UNL     1     137.043 139.910 135.692  1.00  0.00    -0.067 C 
ATOM      6  C   UNL     1     138.147 140.114 134.672  1.00  0.00     0.035 C 
ATOM      7  C   UNL     1     139.102 138.911 134.633  1.00  0.00     0.035 C 
ENDROOT
BRANCH   5   8
ATOM      8  C   UNL     1     135.656 140.482 135.463  1.00  0.00     0.009 C 
ATOM      9  C   UNL     1     134.836 140.456 136.758  1.00  0.00     0.012 C 
ATOM     10  C   UNL     1     134.928 139.739 134.336  1.00  0.00     0.012 C 
ENDBRANCH   5   8
TORSDOF 1
ENDMDL
