MODEL 1
REMARK VINA RESULT:     9.545      0.000      0.000
REMARK INTER + INTRA:          11.363
REMARK INTER:                  10.940
REMARK INTRA:                   0.423
REMARK UNBOUND:                 0.423
REMARK SMILES C=C(C)[C@H]1CC[C@]2(C(=O)[O-])CC[C@]3(C)[C@@H](CC[C@H]4[C@@]5(C)CC[C@@H](O)C(C)(C)[C@H]5CC[C@@]43C)[C@@H]12
REMARK SMILES IDX 7 1 6 2 33 3 11 4 5 5 15 6 4 7 12 8 16 9 13 10 17 11 31 12
REMARK SMILES IDX 14 13 18 14 30 15 32 16 19 17 29 18 21 19 20 20 28 21 22 22
REMARK SMILES IDX 25 23 23 24 26 25 27 26 8 27 9 28 10 29 2 30 3 31 1 32 24 33
REMARK H PARENT 24 34
REMARK Flexibility Score: inf
ROOT
ATOM      1  C   UNL     1      25.155   1.827  11.939  1.00  0.00     0.014 C 
ATOM      2  C   UNL     1      25.220   3.014  10.907  1.00  0.00     0.014 C 
ATOM      3  C   UNL     1      26.559   1.960  12.588  1.00  0.00     0.012 C 
ATOM      4  C   UNL     1      24.080   2.012  13.023  1.00  0.00     0.014 C 
ATOM      5  C   UNL     1      26.722   3.335  10.667  1.00  0.00     0.009 C 
ATOM      6  C   UNL     1      26.914   1.231  13.940  1.00  0.00     0.000 C 
ATOM      7  C   UNL     1      27.545   2.269  11.432  1.00  0.00     0.018 C 
ATOM      8  C   UNL     1      24.352   1.100  14.246  1.00  0.00     0.008 C 
ATOM      9  C   UNL     1      27.391  -0.210  13.745  1.00  0.00     0.005 C 
ATOM     10  C   UNL     1      25.715   1.391  14.993  1.00  0.00    -0.024 C 
ATOM     11  C   UNL     1      27.721  -0.869  15.066  1.00  0.00     0.005 C 
ATOM     12  C   UNL     1      25.921   0.433  16.310  1.00  0.00    -0.024 C 
ATOM     13  C   UNL     1      25.649   2.890  15.482  1.00  0.00     0.012 C 
ATOM     14  C   UNL     1      26.445  -1.001  15.918  1.00  0.00     0.002 C 
ATOM     15  C   UNL     1      24.572   0.173  17.038  1.00  0.00     0.008 C 
ATOM     16  C   UNL     1      26.891   1.135  17.326  1.00  0.00     0.012 C 
ATOM     17  C   UNL     1      26.570  -2.111  17.089  1.00  0.00    -0.026 C 
ATOM     18  C   UNL     1      24.724  -0.628  18.320  1.00  0.00     0.005 C 
ATOM     19  C   UNL     1      27.984  -2.063  17.775  1.00  0.00     0.010 C 
ATOM     20  C   UNL     1      26.488  -3.495  16.353  1.00  0.00     0.012 C 
ATOM     21  C   UNL     1      25.351  -2.053  18.131  1.00  0.00     0.003 C 
ATOM     22  C   UNL     1      28.124  -2.756  19.132  1.00  0.00     0.033 C 
ATOM     23  C   UNL     1      25.605  -2.758  19.551  1.00  0.00    -0.006 C 
ATOM     24  C   UNL     1      27.003  -2.361  20.111  1.00  0.00     0.120 C 
ATOM     25  C   UNL     1      25.513  -4.332  19.521  1.00  0.00     0.014 C 
ATOM     26  C   UNL     1      24.513  -2.365  20.602  1.00  0.00     0.014 C 
ENDROOT
BRANCH   1  27
ATOM     27  C   UNL     1      24.820   0.543  11.179  1.00  0.00     0.048 C 
ATOM     28  O   UNL     1      24.525  -0.519  11.767  1.00  0.00    -0.550 OA
ATOM     29  O   UNL     1      24.751   0.550   9.809  1.00  0.00    -0.550 OA
ENDBRANCH   1  27
BRANCH   7  30
ATOM     30  C   UNL     1      27.949   1.090  10.526  1.00  0.00    -0.077 C 
ATOM     31  C   UNL     1      28.012   1.249   9.024  1.00  0.00     0.039 C 
ATOM     32  C   UNL     1      28.121  -0.173  10.992  1.00  0.00     0.008 C 
ENDBRANCH   7  30
BRANCH  24  33
ATOM     33  O   UNL     1      27.095  -0.983  20.356  1.00  0.00    -0.393 OA
ATOM     34  H   UNL     1      27.052  -0.873  21.356  1.00  0.00     0.210 HD
ENDBRANCH  24  33
TORSDOF 3
ENDMDL
MODEL 2
REMARK VINA RESULT:     9.950      1.757      3.618
REMARK INTER + INTRA:          11.828
REMARK INTER:                  11.549
REMARK INTRA:                   0.279
REMARK UNBOUND:                 0.423
REMARK SMILES C=C(C)[C@H]1CC[C@]2(C(=O)[O-])CC[C@]3(C)[C@@H](CC[C@H]4[C@@]5(C)CC[C@@H](O)C(C)(C)[C@H]5CC[C@@]43C)[C@@H]12
REMARK SMILES IDX 7 1 6 2 33 3 11 4 5 5 15 6 4 7 12 8 16 9 13 10 17 11 31 12
REMARK SMILES IDX 14 13 18 14 30 15 32 16 19 17 29 18 21 19 20 20 28 21 22 22
REMARK SMILES IDX 25 23 23 24 26 25 27 26 8 27 9 28 10 29 2 30 3 31 1 32 24 33
REMARK H PARENT 24 34
REMARK Flexibility Score: inf
ROOT
ATOM      1  C   UNL     1      26.921   0.077  11.514  1.00  0.00     0.014 C 
ATOM      2  C   UNL     1      26.559   0.146   9.983  1.00  0.00     0.014 C 
ATOM      3  C   UNL     1      25.500  -0.081  12.119  1.00  0.00     0.012 C 
ATOM      4  C   UNL     1      27.767  -1.150  11.891  1.00  0.00     0.014 C 
ATOM      5  C   UNL     1      25.065   0.564   9.881  1.00  0.00     0.009 C 
ATOM      6  C   UNL     1      25.286  -0.544  13.610  1.00  0.00     0.000 C 
ATOM      7  C   UNL     1      24.579   0.876  11.319  1.00  0.00     0.018 C 
ATOM      8  C   UNL     1      27.704  -1.431  13.414  1.00  0.00     0.008 C 
ATOM      9  C   UNL     1      25.338   0.609  14.616  1.00  0.00     0.005 C 
ATOM     10  C   UNL     1      26.259  -1.769  13.960  1.00  0.00    -0.024 C 
ATOM     11  C   UNL     1      25.126   0.120  16.031  1.00  0.00     0.005 C 
ATOM     12  C   UNL     1      26.265  -2.110  15.567  1.00  0.00    -0.024 C 
ATOM     13  C   UNL     1      25.775  -3.057  13.187  1.00  0.00     0.012 C 
ATOM     14  C   UNL     1      26.288  -0.802  16.445  1.00  0.00     0.002 C 
ATOM     15  C   UNL     1      27.550  -2.883  15.976  1.00  0.00     0.008 C 
ATOM     16  C   UNL     1      25.027  -3.009  15.918  1.00  0.00     0.012 C 
ATOM     17  C   UNL     1      26.435  -0.967  18.049  1.00  0.00    -0.026 C 
ATOM     18  C   UNL     1      27.556  -3.309  17.434  1.00  0.00     0.005 C 
ATOM     19  C   UNL     1      25.029  -1.099  18.741  1.00  0.00     0.010 C 
ATOM     20  C   UNL     1      27.042   0.392  18.547  1.00  0.00     0.012 C 
ATOM     21  C   UNL     1      27.463  -2.128  18.462  1.00  0.00     0.003 C 
ATOM     22  C   UNL     1      25.004  -1.649  20.169  1.00  0.00     0.033 C 
ATOM     23  C   UNL     1      27.329  -2.685  19.963  1.00  0.00    -0.006 C 
ATOM     24  C   UNL     1      25.833  -2.938  20.315  1.00  0.00     0.120 C 
ATOM     25  C   UNL     1      27.944  -1.739  21.064  1.00  0.00     0.014 C 
ATOM     26  C   UNL     1      28.125  -4.019  20.163  1.00  0.00     0.014 C 
ENDROOT
BRANCH   1  27
ATOM     27  C   UNL     1      27.735   1.320  11.875  1.00  0.00     0.048 C 
ATOM     28  O   UNL     1      28.125   2.133  11.011  1.00  0.00    -0.550 OA
ATOM     29  O   UNL     1      27.988   1.621  13.190  1.00  0.00    -0.550 OA
ENDBRANCH   1  27
BRANCH   7  30
ATOM     30  C   UNL     1      24.677   2.378  11.650  1.00  0.00    -0.077 C 
ATOM     31  C   UNL     1      25.206   3.365  10.635  1.00  0.00     0.039 C 
ATOM     32  C   UNL     1      24.446   2.876  12.891  1.00  0.00     0.008 C 
ENDBRANCH   7  30
BRANCH  24  33
ATOM     33  O   UNL     1      25.263  -3.925  19.498  1.00  0.00    -0.393 OA
ATOM     34  H   UNL     1      25.164  -4.745  20.075  1.00  0.00     0.210 HD
ENDBRANCH  24  33
TORSDOF 3
ENDMDL
MODEL 3
REMARK VINA RESULT:    10.276      1.742      7.897
REMARK INTER + INTRA:          12.201
REMARK INTER:                  11.877
REMARK INTRA:                   0.324
REMARK UNBOUND:                 0.423
REMARK SMILES C=C(C)[C@H]1CC[C@]2(C(=O)[O-])CC[C@]3(C)[C@@H](CC[C@H]4[C@@]5(C)CC[C@@H](O)C(C)(C)[C@H]5CC[C@@]43C)[C@@H]12
REMARK SMILES IDX 7 1 6 2 33 3 11 4 5 5 15 6 4 7 12 8 16 9 13 10 17 11 31 12
REMARK SMILES IDX 14 13 18 14 30 15 32 16 19 17 29 18 21 19 20 20 28 21 22 22
REMARK SMILES IDX 25 23 23 24 26 25 27 26 8 27 9 28 10 29 2 30 3 31 1 32 24 33
REMARK H PARENT 24 34
REMARK Flexibility Score: inf
ROOT
ATOM      1  C   UNL     1      27.186  -0.720  17.714  1.00  0.00     0.014 C 
ATOM      2  C   UNL     1      26.928  -0.797  19.265  1.00  0.00     0.014 C 
ATOM      3  C   UNL     1      25.744  -0.427  17.217  1.00  0.00     0.012 C 
ATOM      4  C   UNL     1      28.106   0.441  17.300  1.00  0.00     0.014 C 
ATOM      5  C   UNL     1      25.415  -1.089  19.466  1.00  0.00     0.009 C 
ATOM      6  C   UNL     1      25.467   0.091  15.754  1.00  0.00     0.000 C 
ATOM      7  C   UNL     1      24.803  -1.322  18.062  1.00  0.00     0.018 C 
ATOM      8  C   UNL     1      27.960   0.765  15.792  1.00  0.00     0.008 C 
ATOM      9  C   UNL     1      25.348  -1.036  14.725  1.00  0.00     0.005 C 
ATOM     10  C   UNL     1      26.515   1.237  15.358  1.00  0.00    -0.024 C 
ATOM     11  C   UNL     1      25.080  -0.495  13.338  1.00  0.00     0.005 C 
ATOM     12  C   UNL     1      26.436   1.618  13.762  1.00  0.00    -0.024 C 
ATOM     13  C   UNL     1      26.199   2.541  16.189  1.00  0.00     0.012 C 
ATOM     14  C   UNL     1      26.285   0.336  12.859  1.00  0.00     0.002 C 
ATOM     15  C   UNL     1      27.751   2.290  13.276  1.00  0.00     0.008 C 
ATOM     16  C   UNL     1      25.259   2.627  13.519  1.00  0.00     0.012 C 
ATOM     17  C   UNL     1      26.332   0.528  11.252  1.00  0.00    -0.026 C 
ATOM     18  C   UNL     1      27.691   2.751  11.830  1.00  0.00     0.005 C 
ATOM     19  C   UNL     1      24.897   0.796  10.667  1.00  0.00     0.010 C 
ATOM     20  C   UNL     1      26.783  -0.863  10.685  1.00  0.00     0.012 C 
ATOM     21  C   UNL     1      27.424   1.609  10.788  1.00  0.00     0.003 C 
ATOM     22  C   UNL     1      24.819   1.383   9.256  1.00  0.00     0.033 C 
ATOM     23  C   UNL     1      27.234   2.213   9.313  1.00  0.00    -0.006 C 
ATOM     24  C   UNL     1      25.743   2.600   9.075  1.00  0.00     0.120 C 
ATOM     25  C   UNL     1      27.685   1.247   8.152  1.00  0.00     0.014 C 
ATOM     26  C   UNL     1      28.125   3.480   9.081  1.00  0.00     0.014 C 
ENDROOT
BRANCH   1  27
ATOM     27  C   UNL     1      27.862  -2.017  17.270  1.00  0.00     0.048 C 
ATOM     28  O   UNL     1      28.125  -2.938  18.073  1.00  0.00    -0.550 OA
ATOM     29  O   UNL     1      28.125  -2.240  15.942  1.00  0.00    -0.550 OA
ENDBRANCH   1  27
BRANCH   7  30
ATOM     30  C   UNL     1      24.749  -2.818  17.696  1.00  0.00    -0.077 C 
ATOM     31  C   UNL     1      25.138  -3.880  18.698  1.00  0.00     0.039 C 
ATOM     32  C   UNL     1      24.501  -3.260  16.437  1.00  0.00     0.008 C 
ENDBRANCH   7  30
BRANCH  24  33
ATOM     33  O   UNL     1      25.320   3.611   9.950  1.00  0.00    -0.393 OA
ATOM     34  H   UNL     1      25.951   3.585  10.735  1.00  0.00     0.210 HD
ENDBRANCH  24  33
TORSDOF 3
ENDMDL
