MODEL 1
REMARK VINA RESULT:    -5.196      0.000      0.000
REMARK INTER + INTRA:          -5.598
REMARK INTER:                  -5.500
REMARK INTRA:                  -0.098
REMARK UNBOUND:                -0.098
REMARK SMILES C=C(C)[C@@H]1CC=C(C)C(=O)C1
REMARK SMILES IDX 8 1 7 2 6 3 5 4 4 5 11 6 9 7 10 8 2 9 1 10 3 11
REMARK H PARENT
REMARK Flexibility Score: inf
ROOT
ATOM      1  C   UNL     1     -43.965  31.367  26.260  1.00  0.00     0.048 C 
ATOM      2  C   UNL     1     -43.949  30.204  25.307  1.00  0.00    -0.012 C 
ATOM      3  C   UNL     1     -44.293  30.388  24.020  1.00  0.00    -0.019 C 
ATOM      4  C   UNL     1     -44.277  29.263  23.020  1.00  0.00     0.036 C 
ATOM      5  C   UNL     1     -44.631  27.921  23.690  1.00  0.00     0.025 C 
ATOM      6  C   UNL     1     -43.692  27.656  24.882  1.00  0.00     0.089 C 
ATOM      7  C   UNL     1     -43.674  28.837  25.814  1.00  0.00     0.158 C 
ATOM      8  O   UNL     1     -43.387  28.656  27.028  1.00  0.00    -0.295 OA
ENDROOT
BRANCH   5   9
ATOM      9  C   UNL     1     -44.608  26.772  22.691  1.00  0.00    -0.077 C 
ATOM     10  C   UNL     1     -44.290  25.522  23.069  1.00  0.00     0.008 C 
ATOM     11  C   UNL     1     -44.948  27.023  21.244  1.00  0.00     0.039 C 
ENDBRANCH   5   9
TORSDOF 1
ENDMDL
MODEL 2
REMARK VINA RESULT:    -4.479     13.731     14.691
REMARK INTER + INTRA:          -4.839
REMARK INTER:                  -4.746
REMARK INTRA:                  -0.093
REMARK UNBOUND:                -0.098
REMARK SMILES C=C(C)[C@@H]1CC=C(C)C(=O)C1
REMARK SMILES IDX 8 1 7 2 6 3 5 4 4 5 11 6 9 7 10 8 2 9 1 10 3 11
REMARK H PARENT
REMARK Flexibility Score: inf
ROOT
ATOM      1  C   UNL     1     -34.285  25.082  32.065  1.00  0.00     0.048 C 
ATOM      2  C   UNL     1     -33.203  24.340  31.330  1.00  0.00    -0.012 C 
ATOM      3  C   UNL     1     -32.526  24.951  30.342  1.00  0.00    -0.019 C 
ATOM      4  C   UNL     1     -31.421  24.262  29.586  1.00  0.00     0.036 C 
ATOM      5  C   UNL     1     -31.693  22.750  29.464  1.00  0.00     0.025 C 
ATOM      6  C   UNL     1     -31.919  22.134  30.858  1.00  0.00     0.089 C 
ATOM      7  C   UNL     1     -32.970  22.902  31.611  1.00  0.00     0.158 C 
ATOM      8  O   UNL     1     -33.630  22.317  32.513  1.00  0.00    -0.295 OA
ENDROOT
BRANCH   5   9
ATOM      9  C   UNL     1     -30.578  22.038  28.710  1.00  0.00    -0.077 C 
ATOM     10  C   UNL     1     -29.298  22.116  29.114  1.00  0.00     0.008 C 
ATOM     11  C   UNL     1     -30.897  21.223  27.483  1.00  0.00     0.039 C 
ENDBRANCH   5   9
TORSDOF 1
ENDMDL
MODEL 3
REMARK VINA RESULT:    -4.305     13.551     14.911
REMARK INTER + INTRA:          -4.655
REMARK INTER:                  -4.566
REMARK INTRA:                  -0.089
REMARK UNBOUND:                -0.098
REMARK SMILES C=C(C)[C@@H]1CC=C(C)C(=O)C1
REMARK SMILES IDX 8 1 7 2 6 3 5 4 4 5 11 6 9 7 10 8 2 9 1 10 3 11
REMARK H PARENT
REMARK Flexibility Score: inf
ROOT
ATOM      1  C   UNL     1     -29.932  22.550  28.953  1.00  0.00     0.048 C 
ATOM      2  C   UNL     1     -31.128  22.984  29.754  1.00  0.00    -0.012 C 
ATOM      3  C   UNL     1     -31.609  24.232  29.616  1.00  0.00    -0.019 C 
ATOM      4  C   UNL     1     -32.814  24.712  30.379  1.00  0.00     0.036 C 
ATOM      5  C   UNL     1     -32.895  24.044  31.765  1.00  0.00     0.025 C 
ATOM      6  C   UNL     1     -32.869  22.510  31.620  1.00  0.00     0.089 C 
ATOM      7  C   UNL     1     -31.697  22.078  30.783  1.00  0.00     0.158 C 
ATOM      8  O   UNL     1     -31.224  20.920  30.939  1.00  0.00    -0.295 OA
ENDROOT
BRANCH   5   9
ATOM      9  C   UNL     1     -34.116  24.513  32.545  1.00  0.00    -0.077 C 
ATOM     10  C   UNL     1     -34.017  25.451  33.503  1.00  0.00     0.008 C 
ATOM     11  C   UNL     1     -35.472  23.926  32.250  1.00  0.00     0.039 C 
ENDBRANCH   5   9
TORSDOF 1
ENDMDL
MODEL 4
REMARK VINA RESULT:    -4.304     14.001     15.219
REMARK INTER + INTRA:          -4.654
REMARK INTER:                  -4.559
REMARK INTRA:                  -0.095
REMARK UNBOUND:                -0.098
REMARK SMILES C=C(C)[C@@H]1CC=C(C)C(=O)C1
REMARK SMILES IDX 8 1 7 2 6 3 5 4 4 5 11 6 9 7 10 8 2 9 1 10 3 11
REMARK H PARENT
REMARK Flexibility Score: inf
ROOT
ATOM      1  C   UNL     1     -34.828  25.620  30.255  1.00  0.00     0.048 C 
ATOM      2  C   UNL     1     -33.511  25.093  30.753  1.00  0.00    -0.012 C 
ATOM      3  C   UNL     1     -32.615  24.600  29.881  1.00  0.00    -0.019 C 
ATOM      4  C   UNL     1     -31.275  24.075  30.324  1.00  0.00     0.036 C 
ATOM      5  C   UNL     1     -31.364  23.439  31.724  1.00  0.00     0.025 C 
ATOM      6  C   UNL     1     -31.960  24.442  32.730  1.00  0.00     0.089 C 
ATOM      7  C   UNL     1     -33.256  25.003  32.212  1.00  0.00     0.158 C 
ATOM      8  O   UNL     1     -34.111  25.432  33.033  1.00  0.00    -0.295 OA
ENDROOT
BRANCH   5   9
ATOM      9  C   UNL     1     -30.013  22.913  32.189  1.00  0.00    -0.077 C 
ATOM     10  C   UNL     1     -29.186  22.267  31.349  1.00  0.00     0.008 C 
ATOM     11  C   UNL     1     -29.576  23.112  33.619  1.00  0.00     0.039 C 
ENDBRANCH   5   9
TORSDOF 1
ENDMDL
MODEL 5
REMARK VINA RESULT:    -4.192     13.739     14.886
REMARK INTER + INTRA:          -4.535
REMARK INTER:                  -4.440
REMARK INTRA:                  -0.095
REMARK UNBOUND:                -0.098
REMARK SMILES C=C(C)[C@@H]1CC=C(C)C(=O)C1
REMARK SMILES IDX 8 1 7 2 6 3 5 4 4 5 11 6 9 7 10 8 2 9 1 10 3 11
REMARK H PARENT
REMARK Flexibility Score: inf
ROOT
ATOM      1  C   UNL     1     -34.714  24.351  32.787  1.00  0.00     0.048 C 
ATOM      2  C   UNL     1     -33.662  23.846  31.838  1.00  0.00    -0.012 C 
ATOM      3  C   UNL     1     -33.125  22.628  32.021  1.00  0.00    -0.019 C 
ATOM      4  C   UNL     1     -32.083  22.066  31.091  1.00  0.00     0.036 C 
ATOM      5  C   UNL     1     -31.189  23.184  30.521  1.00  0.00     0.025 C 
ATOM      6  C   UNL     1     -32.053  24.266  29.845  1.00  0.00     0.089 C 
ATOM      7  C   UNL     1     -33.133  24.740  30.778  1.00  0.00     0.158 C 
ATOM      8  O   UNL     1     -33.610  25.897  30.627  1.00  0.00    -0.295 OA
ENDROOT
BRANCH   5   9
ATOM      9  C   UNL     1     -30.136  22.631  29.570  1.00  0.00    -0.077 C 
ATOM     10  C   UNL     1     -30.256  22.766  28.238  1.00  0.00     0.008 C 
ATOM     11  C   UNL     1     -28.927  21.915  30.116  1.00  0.00     0.039 C 
ENDBRANCH   5   9
TORSDOF 1
ENDMDL
MODEL 6
REMARK VINA RESULT:    -4.178     13.946     15.294
REMARK INTER + INTRA:          -4.520
REMARK INTER:                  -4.425
REMARK INTRA:                  -0.095
REMARK UNBOUND:                -0.098
REMARK SMILES C=C(C)[C@@H]1CC=C(C)C(=O)C1
REMARK SMILES IDX 8 1 7 2 6 3 5 4 4 5 11 6 9 7 10 8 2 9 1 10 3 11
REMARK H PARENT
REMARK Flexibility Score: inf
ROOT
ATOM      1  C   UNL     1     -29.003  21.830  30.649  1.00  0.00     0.048 C 
ATOM      2  C   UNL     1     -30.131  22.804  30.853  1.00  0.00    -0.012 C 
ATOM      3  C   UNL     1     -30.501  23.148  32.099  1.00  0.00    -0.019 C 
ATOM      4  C   UNL     1     -31.610  24.131  32.360  1.00  0.00     0.036 C 
ATOM      5  C   UNL     1     -32.696  24.044  31.270  1.00  0.00     0.025 C 
ATOM      6  C   UNL     1     -32.068  24.229  29.875  1.00  0.00     0.089 C 
ATOM      7  C   UNL     1     -30.912  23.285  29.687  1.00  0.00     0.158 C 
ATOM      8  O   UNL     1     -30.589  22.935  28.519  1.00  0.00    -0.295 OA
ENDROOT
BRANCH   5   9
ATOM      9  C   UNL     1     -33.820  25.041  31.516  1.00  0.00    -0.077 C 
ATOM     10  C   UNL     1     -34.219  25.353  32.760  1.00  0.00     0.008 C 
ATOM     11  C   UNL     1     -34.512  25.701  30.350  1.00  0.00     0.039 C 
ENDBRANCH   5   9
TORSDOF 1
ENDMDL
MODEL 7
REMARK VINA RESULT:    -4.079     15.214     16.435
REMARK INTER + INTRA:          -4.416
REMARK INTER:                  -4.322
REMARK INTRA:                  -0.094
REMARK UNBOUND:                -0.098
REMARK SMILES C=C(C)[C@@H]1CC=C(C)C(=O)C1
REMARK SMILES IDX 8 1 7 2 6 3 5 4 4 5 11 6 9 7 10 8 2 9 1 10 3 11
REMARK H PARENT
REMARK Flexibility Score: inf
ROOT
ATOM      1  C   UNL     1     -33.945  17.060  24.327  1.00  0.00     0.048 C 
ATOM      2  C   UNL     1     -32.770  17.998  24.366  1.00  0.00    -0.012 C 
ATOM      3  C   UNL     1     -32.833  19.118  25.106  1.00  0.00    -0.019 C 
ATOM      4  C   UNL     1     -31.680  20.083  25.195  1.00  0.00     0.036 C 
ATOM      5  C   UNL     1     -30.885  20.118  23.876  1.00  0.00     0.025 C 
ATOM      6  C   UNL     1     -30.430  18.698  23.489  1.00  0.00     0.089 C 
ATOM      7  C   UNL     1     -31.597  17.749  23.492  1.00  0.00     0.158 C 
ATOM      8  O   UNL     1     -31.551  16.718  22.770  1.00  0.00    -0.295 OA
ENDROOT
BRANCH   5   9
ATOM      9  C   UNL     1     -29.709  21.083  23.955  1.00  0.00    -0.077 C 
ATOM     10  C   UNL     1     -29.158  21.608  22.847  1.00  0.00     0.008 C 
ATOM     11  C   UNL     1     -29.138  21.468  25.296  1.00  0.00     0.039 C 
ENDBRANCH   5   9
TORSDOF 1
ENDMDL
MODEL 8
REMARK VINA RESULT:    -4.054     16.030     17.874
REMARK INTER + INTRA:          -4.389
REMARK INTER:                  -4.294
REMARK INTRA:                  -0.095
REMARK UNBOUND:                -0.098
REMARK SMILES C=C(C)[C@@H]1CC=C(C)C(=O)C1
REMARK SMILES IDX 8 1 7 2 6 3 5 4 4 5 11 6 9 7 10 8 2 9 1 10 3 11
REMARK H PARENT
REMARK Flexibility Score: inf
ROOT
ATOM      1  C   UNL     1     -33.883  17.741  24.721  1.00  0.00     0.048 C 
ATOM      2  C   UNL     1     -33.821  16.501  25.571  1.00  0.00    -0.012 C 
ATOM      3  C   UNL     1     -34.303  16.526  26.826  1.00  0.00    -0.019 C 
ATOM      4  C   UNL     1     -34.282  15.310  27.713  1.00  0.00     0.036 C 
ATOM      5  C   UNL     1     -33.055  14.427  27.414  1.00  0.00     0.025 C 
ATOM      6  C   UNL     1     -33.013  14.059  25.919  1.00  0.00     0.089 C 
ATOM      7  C   UNL     1     -33.119  15.295  25.068  1.00  0.00     0.158 C 
ATOM      8  O   UNL     1     -32.634  15.282  23.904  1.00  0.00    -0.295 OA
ENDROOT
BRANCH   5   9
ATOM      9  C   UNL     1     -33.027  13.187  28.298  1.00  0.00    -0.077 C 
ATOM     10  C   UNL     1     -33.611  13.177  29.509  1.00  0.00     0.008 C 
ATOM     11  C   UNL     1     -32.335  11.936  27.822  1.00  0.00     0.039 C 
ENDBRANCH   5   9
TORSDOF 1
ENDMDL
MODEL 9
REMARK VINA RESULT:    -4.006     14.559     16.045
REMARK INTER + INTRA:          -4.338
REMARK INTER:                  -4.242
REMARK INTRA:                  -0.096
REMARK UNBOUND:                -0.098
REMARK SMILES C=C(C)[C@@H]1CC=C(C)C(=O)C1
REMARK SMILES IDX 8 1 7 2 6 3 5 4 4 5 11 6 9 7 10 8 2 9 1 10 3 11
REMARK H PARENT
REMARK Flexibility Score: inf
ROOT
ATOM      1  C   UNL     1     -31.059  20.107  23.552  1.00  0.00     0.048 C 
ATOM      2  C   UNL     1     -31.711  19.042  24.391  1.00  0.00    -0.012 C 
ATOM      3  C   UNL     1     -31.020  17.939  24.727  1.00  0.00    -0.019 C 
ATOM      4  C   UNL     1     -31.617  16.851  25.579  1.00  0.00     0.036 C 
ATOM      5  C   UNL     1     -33.132  16.720  25.327  1.00  0.00     0.025 C 
ATOM      6  C   UNL     1     -33.828  18.077  25.542  1.00  0.00     0.089 C 
ATOM      7  C   UNL     1     -33.150  19.152  24.738  1.00  0.00     0.158 C 
ATOM      8  O   UNL     1     -33.810  20.168  24.391  1.00  0.00    -0.295 OA
ENDROOT
BRANCH   5   9
ATOM      9  C   UNL     1     -33.752  15.628  26.190  1.00  0.00    -0.077 C 
ATOM     10  C   UNL     1     -34.588  15.925  27.200  1.00  0.00     0.008 C 
ATOM     11  C   UNL     1     -33.432  14.180  25.921  1.00  0.00     0.039 C 
ENDBRANCH   5   9
TORSDOF 1
ENDMDL
