MODEL 1
REMARK VINA RESULT:    -7.419      0.000      0.000
REMARK INTER + INTRA:          -9.008
REMARK INTER:                  -8.720
REMARK INTRA:                  -0.288
REMARK UNBOUND:                -0.288
REMARK SMILES O=c1cc(-c2ccc(O)c(O)c2)oc2cc(O)cc(O)c12
REMARK SMILES IDX 4 1 3 2 2 3 1 4 21 5 19 6 18 7 16 8 15 9 14 10 13 11 5 12
REMARK SMILES IDX 6 13 7 14 8 15 12 16 10 17 9 18 11 20 20 22 17 24
REMARK H PARENT 9 19 11 21 20 23 17 25
REMARK Flexibility Score: inf
ROOT
ATOM      1  C   UNL     1       2.793  -8.874   8.698  1.00  0.00     0.138 A 
ATOM      2  C   UNL     1       2.519  -7.975   9.737  1.00  0.00     0.100 A 
ATOM      3  C   UNL     1       1.328  -8.090  10.454  1.00  0.00     0.197 A 
ATOM      4  O   UNL     1       1.137  -7.302  11.417  1.00  0.00    -0.289 OA
ATOM      5  C   UNL     1       0.389  -9.090  10.104  1.00  0.00     0.107 A 
ATOM      6  C   UNL     1      -0.874  -9.280  10.741  1.00  0.00     0.134 A 
ATOM      7  C   UNL     1      -1.676 -10.367  10.371  1.00  0.00     0.093 A 
ATOM      8  C   UNL     1      -1.290 -11.234   9.350  1.00  0.00     0.123 A 
ATOM      9  C   UNL     1      -0.080 -11.028   8.686  1.00  0.00     0.094 A 
ATOM     10  C   UNL     1       0.758  -9.974   9.055  1.00  0.00     0.146 A 
ATOM     11  O   UNL     1       1.910  -9.823   8.409  1.00  0.00    -0.456 OA
ENDROOT
BRANCH   1  12
ATOM     12  C   UNL     1       4.043  -8.795   7.901  1.00  0.00     0.021 A 
ATOM     13  C   UNL     1       4.564  -9.915   7.225  1.00  0.00     0.016 A 
ATOM     14  C   UNL     1       5.738  -9.808   6.474  1.00  0.00     0.051 A 
ATOM     15  C   UNL     1       6.405  -8.580   6.379  1.00  0.00     0.157 A 
ATOM     16  C   UNL     1       4.713  -7.563   7.787  1.00  0.00     0.062 A 
ATOM     17  C   UNL     1       5.892  -7.456   7.035  1.00  0.00     0.158 A 
BRANCH  15  18
ATOM     18  O   UNL     1       7.577  -8.471   5.632  1.00  0.00    -0.504 OA
ATOM     19  H   UNL     1       7.593  -8.670   4.638  1.00  0.00     0.293 HD
ENDBRANCH  15  18
BRANCH  17  20
ATOM     20  O   UNL     1       6.556  -6.235   6.935  1.00  0.00    -0.504 OA
ATOM     21  H   UNL     1       6.122  -5.429   6.502  1.00  0.00     0.293 HD
ENDBRANCH  17  20
ENDBRANCH   1  12
BRANCH   6  22
ATOM     22  O   UNL     1      -1.396  -8.427  11.718  1.00  0.00    -0.507 OA
ATOM     23  H   UNL     1      -1.553  -7.439  11.601  1.00  0.00     0.293 HD
ENDBRANCH   6  22
BRANCH   8  24
ATOM     24  O   UNL     1      -2.122 -12.296   8.999  1.00  0.00    -0.508 OA
ATOM     25  H   UNL     1      -1.746 -13.209   8.770  1.00  0.00     0.293 HD
ENDBRANCH   8  24
TORSDOF 5
ENDMDL
MODEL 2
REMARK VINA RESULT:    -6.954      3.146      4.481
REMARK INTER + INTRA:          -8.461
REMARK INTER:                  -8.198
REMARK INTRA:                  -0.263
REMARK UNBOUND:                -0.288
REMARK SMILES O=c1cc(-c2ccc(O)c(O)c2)oc2cc(O)cc(O)c12
REMARK SMILES IDX 4 1 3 2 2 3 1 4 21 5 19 6 18 7 16 8 15 9 14 10 13 11 5 12
REMARK SMILES IDX 6 13 7 14 8 15 12 16 10 17 9 18 11 20 20 22 17 24
REMARK H PARENT 9 19 11 21 20 23 17 25
REMARK Flexibility Score: inf
ROOT
ATOM      1  C   UNL     1       3.224  -6.879   7.744  1.00  0.00     0.138 A 
ATOM      2  C   UNL     1       1.912  -6.904   8.237  1.00  0.00     0.100 A 
ATOM      3  C   UNL     1       1.609  -7.679   9.358  1.00  0.00     0.197 A 
ATOM      4  O   UNL     1       0.435  -7.636   9.808  1.00  0.00    -0.289 OA
ATOM      5  C   UNL     1       2.620  -8.461   9.966  1.00  0.00     0.107 A 
ATOM      6  C   UNL     1       2.421  -9.316  11.092  1.00  0.00     0.134 A 
ATOM      7  C   UNL     1       3.521  -9.965  11.667  1.00  0.00     0.093 A 
ATOM      8  C   UNL     1       4.799  -9.838  11.126  1.00  0.00     0.123 A 
ATOM      9  C   UNL     1       4.996  -9.045   9.994  1.00  0.00     0.094 A 
ATOM     10  C   UNL     1       3.927  -8.357   9.418  1.00  0.00     0.146 A 
ATOM     11  O   UNL     1       4.161  -7.597   8.352  1.00  0.00    -0.456 OA
ENDROOT
BRANCH   1  12
ATOM     12  C   UNL     1       3.599  -6.075   6.554  1.00  0.00     0.021 A 
ATOM     13  C   UNL     1       4.414  -4.931   6.659  1.00  0.00     0.016 A 
ATOM     14  C   UNL     1       4.759  -4.200   5.519  1.00  0.00     0.051 A 
ATOM     15  C   UNL     1       4.306  -4.603   4.257  1.00  0.00     0.157 A 
ATOM     16  C   UNL     1       3.161  -6.480   5.280  1.00  0.00     0.062 A 
ATOM     17  C   UNL     1       3.507  -5.746   4.136  1.00  0.00     0.158 A 
BRANCH  15  18
ATOM     18  O   UNL     1       4.647  -3.875   3.118  1.00  0.00    -0.504 OA
ATOM     19  H   UNL     1       5.098  -2.969   3.184  1.00  0.00     0.293 HD
ENDBRANCH  15  18
BRANCH  17  20
ATOM     20  O   UNL     1       3.060  -6.147   2.879  1.00  0.00    -0.504 OA
ATOM     21  H   UNL     1       2.434  -6.934   2.765  1.00  0.00     0.293 HD
ENDBRANCH  17  20
ENDBRANCH   1  12
BRANCH   6  22
ATOM     22  O   UNL     1       1.173  -9.579  11.666  1.00  0.00    -0.507 OA
ATOM     23  H   UNL     1       0.782  -9.087  12.453  1.00  0.00     0.293 HD
ENDBRANCH   6  22
BRANCH   8  24
ATOM     24  O   UNL     1       5.866 -10.511  11.716  1.00  0.00    -0.508 OA
ATOM     25  H   UNL     1       6.530 -10.031  12.314  1.00  0.00     0.293 HD
ENDBRANCH   8  24
TORSDOF 5
ENDMDL
MODEL 3
REMARK VINA RESULT:    -6.915      3.018      4.214
REMARK INTER + INTRA:          -8.416
REMARK INTER:                  -8.124
REMARK INTRA:                  -0.291
REMARK UNBOUND:                -0.288
REMARK SMILES O=c1cc(-c2ccc(O)c(O)c2)oc2cc(O)cc(O)c12
REMARK SMILES IDX 4 1 3 2 2 3 1 4 21 5 19 6 18 7 16 8 15 9 14 10 13 11 5 12
REMARK SMILES IDX 6 13 7 14 8 15 12 16 10 17 9 18 11 20 20 22 17 24
REMARK H PARENT 9 19 11 21 20 23 17 25
REMARK Flexibility Score: inf
ROOT
ATOM      1  C   UNL     1       3.396  -6.916   7.678  1.00  0.00     0.138 A 
ATOM      2  C   UNL     1       2.070  -6.878   8.129  1.00  0.00     0.100 A 
ATOM      3  C   UNL     1       1.698  -7.630   9.245  1.00  0.00     0.197 A 
ATOM      4  O   UNL     1       0.514  -7.531   9.658  1.00  0.00    -0.289 OA
ATOM      5  C   UNL     1       2.653  -8.452   9.890  1.00  0.00     0.107 A 
ATOM      6  C   UNL     1       2.381  -9.288  11.014  1.00  0.00     0.134 A 
ATOM      7  C   UNL     1       3.432  -9.981  11.628  1.00  0.00     0.093 A 
ATOM      8  C   UNL     1       4.731  -9.916  11.126  1.00  0.00     0.123 A 
ATOM      9  C   UNL     1       4.999  -9.141   9.996  1.00  0.00     0.094 A 
ATOM     10  C   UNL     1       3.980  -8.410   9.382  1.00  0.00     0.146 A 
ATOM     11  O   UNL     1       4.281  -7.671   8.319  1.00  0.00    -0.456 OA
ENDROOT
BRANCH   1  12
ATOM     12  C   UNL     1       3.845  -6.139   6.494  1.00  0.00     0.021 A 
ATOM     13  C   UNL     1       3.103  -6.117   5.298  1.00  0.00     0.016 A 
ATOM     14  C   UNL     1       3.545  -5.368   4.203  1.00  0.00     0.051 A 
ATOM     15  C   UNL     1       4.728  -4.623   4.289  1.00  0.00     0.157 A 
ATOM     16  C   UNL     1       5.024  -5.377   6.575  1.00  0.00     0.062 A 
ATOM     17  C   UNL     1       5.468  -4.626   5.477  1.00  0.00     0.158 A 
BRANCH  15  18
ATOM     18  O   UNL     1       5.172  -3.877   3.199  1.00  0.00    -0.504 OA
ATOM     19  H   UNL     1       4.527  -3.521   2.502  1.00  0.00     0.293 HD
ENDBRANCH  15  18
BRANCH  17  20
ATOM     20  O   UNL     1       6.643  -3.881   5.560  1.00  0.00    -0.504 OA
ATOM     21  H   UNL     1       7.126  -3.558   4.730  1.00  0.00     0.293 HD
ENDBRANCH  17  20
ENDBRANCH   1  12
BRANCH   6  22
ATOM     22  O   UNL     1       1.106  -9.490  11.551  1.00  0.00    -0.507 OA
ATOM     23  H   UNL     1       0.254  -9.542  11.016  1.00  0.00     0.293 HD
ENDBRANCH   6  22
BRANCH   8  24
ATOM     24  O   UNL     1       5.747 -10.632  11.754  1.00  0.00    -0.508 OA
ATOM     25  H   UNL     1       5.828 -11.637  11.652  1.00  0.00     0.293 HD
ENDBRANCH   8  24
TORSDOF 5
ENDMDL
MODEL 4
REMARK VINA RESULT:    -6.891      1.743      7.061
REMARK INTER + INTRA:          -8.388
REMARK INTER:                  -8.109
REMARK INTRA:                  -0.278
REMARK UNBOUND:                -0.288
REMARK SMILES O=c1cc(-c2ccc(O)c(O)c2)oc2cc(O)cc(O)c12
REMARK SMILES IDX 4 1 3 2 2 3 1 4 21 5 19 6 18 7 16 8 15 9 14 10 13 11 5 12
REMARK SMILES IDX 6 13 7 14 8 15 12 16 10 17 9 18 11 20 20 22 17 24
REMARK H PARENT 9 19 11 21 20 23 17 25
REMARK Flexibility Score: inf
ROOT
ATOM      1  C   UNL     1       2.176  -7.865   8.241  1.00  0.00     0.138 A 
ATOM      2  C   UNL     1       1.933  -6.551   7.818  1.00  0.00     0.100 A 
ATOM      3  C   UNL     1       2.914  -5.863   7.101  1.00  0.00     0.197 A 
ATOM      4  O   UNL     1       2.644  -4.706   6.688  1.00  0.00    -0.289 OA
ATOM      5  C   UNL     1       4.158  -6.485   6.837  1.00  0.00     0.107 A 
ATOM      6  C   UNL     1       5.245  -5.870   6.146  1.00  0.00     0.134 A 
ATOM      7  C   UNL     1       6.392  -6.620   5.859  1.00  0.00     0.093 A 
ATOM      8  C   UNL     1       6.517  -7.941   6.287  1.00  0.00     0.123 A 
ATOM      9  C   UNL     1       5.481  -8.536   7.008  1.00  0.00     0.094 A 
ATOM     10  C   UNL     1       4.310  -7.826   7.280  1.00  0.00     0.146 A 
ATOM     11  O   UNL     1       3.340  -8.437   7.954  1.00  0.00    -0.456 OA
ENDROOT
BRANCH   1  12
ATOM     12  C   UNL     1       1.170  -8.640   9.009  1.00  0.00     0.021 A 
ATOM     13  C   UNL     1       0.940 -10.007   8.762  1.00  0.00     0.016 A 
ATOM     14  C   UNL     1      -0.007 -10.713   9.508  1.00  0.00     0.051 A 
ATOM     15  C   UNL     1      -0.733 -10.070  10.519  1.00  0.00     0.157 A 
ATOM     16  C   UNL     1       0.446  -8.006  10.036  1.00  0.00     0.062 A 
ATOM     17  C   UNL     1      -0.505  -8.715  10.784  1.00  0.00     0.158 A 
BRANCH  15  18
ATOM     18  O   UNL     1      -1.679 -10.771  11.264  1.00  0.00    -0.504 OA
ATOM     19  H   UNL     1      -2.053 -10.401  12.131  1.00  0.00     0.293 HD
ENDBRANCH  15  18
BRANCH  17  20
ATOM     20  O   UNL     1      -1.226  -8.078  11.793  1.00  0.00    -0.504 OA
ATOM     21  H   UNL     1      -0.782  -7.771  12.650  1.00  0.00     0.293 HD
ENDBRANCH  17  20
ENDBRANCH   1  12
BRANCH   6  22
ATOM     22  O   UNL     1       5.260  -4.531   5.742  1.00  0.00    -0.507 OA
ATOM     23  H   UNL     1       5.650  -4.191   4.877  1.00  0.00     0.293 HD
ENDBRANCH   6  22
BRANCH   8  24
ATOM     24  O   UNL     1       7.680  -8.651   5.996  1.00  0.00    -0.508 OA
ATOM     25  H   UNL     1       7.759  -9.642   6.194  1.00  0.00     0.293 HD
ENDBRANCH   8  24
TORSDOF 5
ENDMDL
MODEL 5
REMARK VINA RESULT:    -6.831      2.616      7.076
REMARK INTER + INTRA:          -8.317
REMARK INTER:                  -8.052
REMARK INTRA:                  -0.264
REMARK UNBOUND:                -0.288
REMARK SMILES O=c1cc(-c2ccc(O)c(O)c2)oc2cc(O)cc(O)c12
REMARK SMILES IDX 4 1 3 2 2 3 1 4 21 5 19 6 18 7 16 8 15 9 14 10 13 11 5 12
REMARK SMILES IDX 6 13 7 14 8 15 12 16 10 17 9 18 11 20 20 22 17 24
REMARK H PARENT 9 19 11 21 20 23 17 25
REMARK Flexibility Score: inf
ROOT
ATOM      1  C   UNL     1       4.617  -8.683   7.953  1.00  0.00     0.138 A 
ATOM      2  C   UNL     1       5.444  -7.631   7.538  1.00  0.00     0.100 A 
ATOM      3  C   UNL     1       6.319  -7.821   6.467  1.00  0.00     0.197 A 
ATOM      4  O   UNL     1       7.008  -6.841   6.083  1.00  0.00    -0.289 OA
ATOM      5  C   UNL     1       6.392  -9.085   5.833  1.00  0.00     0.107 A 
ATOM      6  C   UNL     1       7.271  -9.406   4.756  1.00  0.00     0.134 A 
ATOM      7  C   UNL     1       7.182 -10.663   4.145  1.00  0.00     0.093 A 
ATOM      8  C   UNL     1       6.289 -11.629   4.607  1.00  0.00     0.123 A 
ATOM      9  C   UNL     1       5.460 -11.343   5.693  1.00  0.00     0.094 A 
ATOM     10  C   UNL     1       5.500 -10.087   6.302  1.00  0.00     0.146 A 
ATOM     11  O   UNL     1       4.681  -9.850   7.321  1.00  0.00    -0.456 OA
ENDROOT
BRANCH   1  12
ATOM     12  C   UNL     1       3.670  -8.536   9.087  1.00  0.00     0.021 A 
ATOM     13  C   UNL     1       3.841  -9.243  10.292  1.00  0.00     0.016 A 
ATOM     14  C   UNL     1       2.938  -9.076  11.347  1.00  0.00     0.051 A 
ATOM     15  C   UNL     1       1.858  -8.195  11.218  1.00  0.00     0.157 A 
ATOM     16  C   UNL     1       2.589  -7.642   8.973  1.00  0.00     0.062 A 
ATOM     17  C   UNL     1       1.684  -7.475  10.031  1.00  0.00     0.158 A 
BRANCH  15  18
ATOM     18  O   UNL     1       0.955  -8.027  12.267  1.00  0.00    -0.504 OA
ATOM     19  H   UNL     1       1.141  -8.402  13.191  1.00  0.00     0.293 HD
ENDBRANCH  15  18
BRANCH  17  20
ATOM     20  O   UNL     1       0.610  -6.596   9.908  1.00  0.00    -0.504 OA
ATOM     21  H   UNL     1       0.750  -5.600   9.790  1.00  0.00     0.293 HD
ENDBRANCH  17  20
ENDBRANCH   1  12
BRANCH   6  22
ATOM     22  O   UNL     1       8.257  -8.545   4.265  1.00  0.00    -0.507 OA
ATOM     23  H   UNL     1       8.918  -8.038   4.831  1.00  0.00     0.293 HD
ENDBRANCH   6  22
BRANCH   8  24
ATOM     24  O   UNL     1       6.239 -12.874   3.984  1.00  0.00    -0.508 OA
ATOM     25  H   UNL     1       6.682 -13.035   3.086  1.00  0.00     0.293 HD
ENDBRANCH   8  24
TORSDOF 5
ENDMDL
MODEL 6
REMARK VINA RESULT:    -6.793      1.801      7.133
REMARK INTER + INTRA:          -8.272
REMARK INTER:                  -7.979
REMARK INTRA:                  -0.293
REMARK UNBOUND:                -0.288
REMARK SMILES O=c1cc(-c2ccc(O)c(O)c2)oc2cc(O)cc(O)c12
REMARK SMILES IDX 4 1 3 2 2 3 1 4 21 5 19 6 18 7 16 8 15 9 14 10 13 11 5 12
REMARK SMILES IDX 6 13 7 14 8 15 12 16 10 17 9 18 11 20 20 22 17 24
REMARK H PARENT 9 19 11 21 20 23 17 25
REMARK Flexibility Score: inf
ROOT
ATOM      1  C   UNL     1       4.275  -9.207   7.907  1.00  0.00     0.138 A 
ATOM      2  C   UNL     1       4.974  -8.012   7.695  1.00  0.00     0.100 A 
ATOM      3  C   UNL     1       5.986  -7.964   6.734  1.00  0.00     0.197 A 
ATOM      4  O   UNL     1       6.557  -6.862   6.528  1.00  0.00    -0.289 OA
ATOM      5  C   UNL     1       6.322  -9.132   6.008  1.00  0.00     0.107 A 
ATOM      6  C   UNL     1       7.357  -9.212   5.029  1.00  0.00     0.134 A 
ATOM      7  C   UNL     1       7.531 -10.399   4.305  1.00  0.00     0.093 A 
ATOM      8  C   UNL     1       6.749 -11.523   4.563  1.00  0.00     0.123 A 
ATOM      9  C   UNL     1       5.767 -11.472   5.554  1.00  0.00     0.094 A 
ATOM     10  C   UNL     1       5.545 -10.293   6.269  1.00  0.00     0.146 A 
ATOM     11  O   UNL     1       4.588 -10.281   7.191  1.00  0.00    -0.456 OA
ENDROOT
BRANCH   1  12
ATOM     12  C   UNL     1       3.192  -9.314   8.918  1.00  0.00     0.021 A 
ATOM     13  C   UNL     1       2.358 -10.445   8.995  1.00  0.00     0.016 A 
ATOM     14  C   UNL     1       1.354 -10.522   9.964  1.00  0.00     0.051 A 
ATOM     15  C   UNL     1       1.172  -9.475  10.877  1.00  0.00     0.157 A 
ATOM     16  C   UNL     1       3.011  -8.274   9.848  1.00  0.00     0.062 A 
ATOM     17  C   UNL     1       2.003  -8.350  10.820  1.00  0.00     0.158 A 
BRANCH  15  18
ATOM     18  O   UNL     1       0.170  -9.547  11.843  1.00  0.00    -0.504 OA
ATOM     19  H   UNL     1      -0.779  -9.250  11.647  1.00  0.00     0.293 HD
ENDBRANCH  15  18
BRANCH  17  20
ATOM     20  O   UNL     1       1.822  -7.312  11.732  1.00  0.00    -0.504 OA
ATOM     21  H   UNL     1       1.034  -6.679  11.666  1.00  0.00     0.293 HD
ENDBRANCH  17  20
ENDBRANCH   1  12
BRANCH   6  22
ATOM     22  O   UNL     1       8.251  -8.174   4.746  1.00  0.00    -0.507 OA
ATOM     23  H   UNL     1       9.251  -8.274   4.674  1.00  0.00     0.293 HD
ENDBRANCH   6  22
BRANCH   8  24
ATOM     24  O   UNL     1       6.961 -12.691   3.833  1.00  0.00    -0.508 OA
ATOM     25  H   UNL     1       6.446 -12.885   2.982  1.00  0.00     0.293 HD
ENDBRANCH   8  24
TORSDOF 5
ENDMDL
MODEL 7
REMARK VINA RESULT:    -6.755      2.664      7.806
REMARK INTER + INTRA:          -8.228
REMARK INTER:                  -7.954
REMARK INTRA:                  -0.274
REMARK UNBOUND:                -0.288
REMARK SMILES O=c1cc(-c2ccc(O)c(O)c2)oc2cc(O)cc(O)c12
REMARK SMILES IDX 4 1 3 2 2 3 1 4 21 5 19 6 18 7 16 8 15 9 14 10 13 11 5 12
REMARK SMILES IDX 6 13 7 14 8 15 12 16 10 17 9 18 11 20 20 22 17 24
REMARK H PARENT 9 19 11 21 20 23 17 25
REMARK Flexibility Score: inf
ROOT
ATOM      1  C   UNL     1       4.686  -8.369   8.009  1.00  0.00     0.138 A 
ATOM      2  C   UNL     1       4.993  -9.576   7.365  1.00  0.00     0.100 A 
ATOM      3  C   UNL     1       5.914  -9.585   6.317  1.00  0.00     0.197 A 
ATOM      4  O   UNL     1       6.211 -10.692   5.797  1.00  0.00    -0.289 OA
ATOM      5  C   UNL     1       6.503  -8.371   5.887  1.00  0.00     0.107 A 
ATOM      6  C   UNL     1       7.427  -8.252   4.806  1.00  0.00     0.134 A 
ATOM      7  C   UNL     1       8.018  -7.011   4.537  1.00  0.00     0.093 A 
ATOM      8  C   UNL     1       7.676  -5.875   5.269  1.00  0.00     0.123 A 
ATOM      9  C   UNL     1       6.734  -5.969   6.295  1.00  0.00     0.094 A 
ATOM     10  C   UNL     1       6.153  -7.199   6.611  1.00  0.00     0.146 A 
ATOM     11  O   UNL     1       5.275  -7.249   7.607  1.00  0.00    -0.456 OA
ENDROOT
BRANCH   1  12
ATOM     12  C   UNL     1       3.712  -8.303   9.127  1.00  0.00     0.021 A 
ATOM     13  C   UNL     1       3.959  -8.929  10.364  1.00  0.00     0.016 A 
ATOM     14  C   UNL     1       3.028  -8.841  11.402  1.00  0.00     0.051 A 
ATOM     15  C   UNL     1       1.840  -8.120  11.226  1.00  0.00     0.157 A 
ATOM     16  C   UNL     1       2.523  -7.569   8.965  1.00  0.00     0.062 A 
ATOM     17  C   UNL     1       1.588  -7.481  10.007  1.00  0.00     0.158 A 
BRANCH  15  18
ATOM     18  O   UNL     1       0.909  -8.031  12.259  1.00  0.00    -0.504 OA
ATOM     19  H   UNL     1       1.133  -7.578  13.138  1.00  0.00     0.293 HD
ENDBRANCH  15  18
BRANCH  17  20
ATOM     20  O   UNL     1       0.407  -6.761   9.836  1.00  0.00    -0.504 OA
ATOM     21  H   UNL     1      -0.166  -6.487  10.625  1.00  0.00     0.293 HD
ENDBRANCH  17  20
ENDBRANCH   1  12
BRANCH   6  22
ATOM     22  O   UNL     1       7.782  -9.306   3.958  1.00  0.00    -0.507 OA
ATOM     23  H   UNL     1       8.679  -9.416   3.513  1.00  0.00     0.293 HD
ENDBRANCH   6  22
BRANCH   8  24
ATOM     24  O   UNL     1       8.273  -4.654   4.962  1.00  0.00    -0.508 OA
ATOM     25  H   UNL     1       8.068  -4.167   4.097  1.00  0.00     0.293 HD
ENDBRANCH   8  24
TORSDOF 5
ENDMDL
MODEL 8
REMARK VINA RESULT:    -6.655      2.459      3.701
REMARK INTER + INTRA:          -8.110
REMARK INTER:                  -7.808
REMARK INTRA:                  -0.302
REMARK UNBOUND:                -0.288
REMARK SMILES O=c1cc(-c2ccc(O)c(O)c2)oc2cc(O)cc(O)c12
REMARK SMILES IDX 4 1 3 2 2 3 1 4 21 5 19 6 18 7 16 8 15 9 14 10 13 11 5 12
REMARK SMILES IDX 6 13 7 14 8 15 12 16 10 17 9 18 11 20 20 22 17 24
REMARK H PARENT 9 19 11 21 20 23 17 25
REMARK Flexibility Score: inf
ROOT
ATOM      1  C   UNL     1       4.215  -8.831   7.090  1.00  0.00     0.138 A 
ATOM      2  C   UNL     1       3.798  -7.564   6.659  1.00  0.00     0.100 A 
ATOM      3  C   UNL     1       2.817  -6.879   7.377  1.00  0.00     0.197 A 
ATOM      4  O   UNL     1       2.504  -5.721   6.997  1.00  0.00    -0.289 OA
ATOM      5  C   UNL     1       2.225  -7.483   8.513  1.00  0.00     0.107 A 
ATOM      6  C   UNL     1       1.191  -6.894   9.302  1.00  0.00     0.134 A 
ATOM      7  C   UNL     1       0.753  -7.547  10.461  1.00  0.00     0.093 A 
ATOM      8  C   UNL     1       1.268  -8.789  10.829  1.00  0.00     0.123 A 
ATOM      9  C   UNL     1       2.242  -9.397  10.036  1.00  0.00     0.094 A 
ATOM     10  C   UNL     1       2.725  -8.757   8.893  1.00  0.00     0.146 A 
ATOM     11  O   UNL     1       3.667  -9.362   8.177  1.00  0.00    -0.456 OA
ENDROOT
BRANCH   1  12
ATOM     12  C   UNL     1       5.253  -9.604   6.362  1.00  0.00     0.021 A 
ATOM     13  C   UNL     1       6.356  -8.975   5.754  1.00  0.00     0.016 A 
ATOM     14  C   UNL     1       7.323  -9.730   5.084  1.00  0.00     0.051 A 
ATOM     15  C   UNL     1       7.208 -11.125   5.018  1.00  0.00     0.157 A 
ATOM     16  C   UNL     1       5.155 -11.006   6.302  1.00  0.00     0.062 A 
ATOM     17  C   UNL     1       6.124 -11.764   5.629  1.00  0.00     0.158 A 
BRANCH  15  18
ATOM     18  O   UNL     1       8.170 -11.880   4.349  1.00  0.00    -0.504 OA
ATOM     19  H   UNL     1       7.984 -12.292   3.442  1.00  0.00     0.293 HD
ENDBRANCH  15  18
BRANCH  17  20
ATOM     20  O   UNL     1       6.015 -13.151   5.565  1.00  0.00    -0.504 OA
ATOM     21  H   UNL     1       5.719 -13.622   4.718  1.00  0.00     0.293 HD
ENDBRANCH  17  20
ENDBRANCH   1  12
BRANCH   6  22
ATOM     22  O   UNL     1       0.549  -5.693   8.984  1.00  0.00    -0.507 OA
ATOM     23  H   UNL     1      -0.448  -5.549   8.994  1.00  0.00     0.293 HD
ENDBRANCH   6  22
BRANCH   8  24
ATOM     24  O   UNL     1       0.796  -9.415  11.981  1.00  0.00    -0.508 OA
ATOM     25  H   UNL     1       1.268  -9.309  12.872  1.00  0.00     0.293 HD
ENDBRANCH   8  24
TORSDOF 5
ENDMDL
