MODEL 1
REMARK VINA RESULT:    -7.456      0.000      0.000
REMARK INTER + INTRA:          -9.035
REMARK INTER:                  -8.764
REMARK INTRA:                  -0.272
REMARK UNBOUND:                -0.272
REMARK SMILES O=c1cc(-c2ccc(O)c(O)c2)oc2cc(O)cc(O)c12
REMARK SMILES IDX 4 1 3 2 2 3 1 4 21 5 19 6 18 7 16 8 15 9 14 10 13 11 5 12
REMARK SMILES IDX 6 13 7 14 8 15 12 16 10 17 9 18 11 20 20 22 17 24
REMARK H PARENT 9 19 11 21 20 23 17 25
REMARK Flexibility Score: inf
ROOT
ATOM      1  C   UNL     1      12.552  -3.431  13.596  1.00  0.00     0.138 A 
ATOM      2  C   UNL     1      11.821  -4.623  13.522  1.00  0.00     0.100 A 
ATOM      3  C   UNL     1      11.365  -5.080  12.285  1.00  0.00     0.197 A 
ATOM      4  O   UNL     1      10.760  -6.182  12.245  1.00  0.00    -0.289 OA
ATOM      5  C   UNL     1      11.614  -4.316  11.118  1.00  0.00     0.107 A 
ATOM      6  C   UNL     1      11.168  -4.664   9.807  1.00  0.00     0.134 A 
ATOM      7  C   UNL     1      11.561  -3.880   8.715  1.00  0.00     0.093 A 
ATOM      8  C   UNL     1      12.333  -2.729   8.893  1.00  0.00     0.123 A 
ATOM      9  C   UNL     1      12.730  -2.354  10.174  1.00  0.00     0.094 A 
ATOM     10  C   UNL     1      12.384  -3.133  11.280  1.00  0.00     0.146 A 
ATOM     11  O   UNL     1      12.800  -2.748  12.482  1.00  0.00    -0.456 OA
ENDROOT
BRANCH   1  12
ATOM     12  C   UNL     1      13.058  -2.898  14.886  1.00  0.00     0.021 A 
ATOM     13  C   UNL     1      12.188  -2.398  15.873  1.00  0.00     0.016 A 
ATOM     14  C   UNL     1      12.692  -1.912  17.083  1.00  0.00     0.051 A 
ATOM     15  C   UNL     1      14.070  -1.924  17.330  1.00  0.00     0.157 A 
ATOM     16  C   UNL     1      14.439  -2.919  15.149  1.00  0.00     0.062 A 
ATOM     17  C   UNL     1      14.947  -2.431  16.359  1.00  0.00     0.158 A 
BRANCH  15  18
ATOM     18  O   UNL     1      14.570  -1.437  18.537  1.00  0.00    -0.504 OA
ATOM     19  H   UNL     1      15.489  -1.016  18.600  1.00  0.00     0.293 HD
ENDBRANCH  15  18
BRANCH  17  20
ATOM     20  O   UNL     1      16.324  -2.460  16.576  1.00  0.00    -0.504 OA
ATOM     21  H   UNL     1      16.722  -2.660  17.486  1.00  0.00     0.293 HD
ENDBRANCH  17  20
ENDBRANCH   1  12
BRANCH   6  22
ATOM     22  O   UNL     1      10.329  -5.746   9.526  1.00  0.00    -0.507 OA
ATOM     23  H   UNL     1      10.407  -6.347   8.721  1.00  0.00     0.293 HD
ENDBRANCH   6  22
BRANCH   8  24
ATOM     24  O   UNL     1      12.704  -1.947   7.802  1.00  0.00    -0.508 OA
ATOM     25  H   UNL     1      12.131  -1.895   6.967  1.00  0.00     0.293 HD
ENDBRANCH   8  24
TORSDOF 5
ENDMDL
MODEL 2
REMARK VINA RESULT:    -7.411      8.303     12.667
REMARK INTER + INTRA:          -8.983
REMARK INTER:                  -8.665
REMARK INTRA:                  -0.318
REMARK UNBOUND:                -0.272
REMARK SMILES O=c1cc(-c2ccc(O)c(O)c2)oc2cc(O)cc(O)c12
REMARK SMILES IDX 4 1 3 2 2 3 1 4 21 5 19 6 18 7 16 8 15 9 14 10 13 11 5 12
REMARK SMILES IDX 6 13 7 14 8 15 12 16 10 17 9 18 11 20 20 22 17 24
REMARK H PARENT 9 19 11 21 20 23 17 25
REMARK Flexibility Score: inf
ROOT
ATOM      1  C   UNL     1       3.943  -8.157   7.450  1.00  0.00     0.138 A 
ATOM      2  C   UNL     1       3.486  -6.833   7.493  1.00  0.00     0.100 A 
ATOM      3  C   UNL     1       4.350  -5.816   7.900  1.00  0.00     0.197 A 
ATOM      4  O   UNL     1       3.926  -4.632   7.874  1.00  0.00    -0.289 OA
ATOM      5  C   UNL     1       5.671  -6.133   8.299  1.00  0.00     0.107 A 
ATOM      6  C   UNL     1       6.631  -5.184   8.766  1.00  0.00     0.134 A 
ATOM      7  C   UNL     1       7.938  -5.604   9.039  1.00  0.00     0.093 A 
ATOM      8  C   UNL     1       8.306  -6.946   8.919  1.00  0.00     0.123 A 
ATOM      9  C   UNL     1       7.363  -7.888   8.514  1.00  0.00     0.094 A 
ATOM     10  C   UNL     1       6.060  -7.496   8.201  1.00  0.00     0.146 A 
ATOM     11  O   UNL     1       5.197  -8.425   7.800  1.00  0.00    -0.456 OA
ENDROOT
BRANCH   1  12
ATOM     12  C   UNL     1       3.066  -9.278   7.028  1.00  0.00     0.021 A 
ATOM     13  C   UNL     1       1.766  -9.056   6.536  1.00  0.00     0.016 A 
ATOM     14  C   UNL     1       0.966 -10.131   6.137  1.00  0.00     0.051 A 
ATOM     15  C   UNL     1       1.452 -11.442   6.216  1.00  0.00     0.157 A 
ATOM     16  C   UNL     1       3.551 -10.597   7.091  1.00  0.00     0.062 A 
ATOM     17  C   UNL     1       2.751 -11.674   6.693  1.00  0.00     0.158 A 
BRANCH  15  18
ATOM     18  O   UNL     1       0.651 -12.511   5.818  1.00  0.00    -0.504 OA
ATOM     19  H   UNL     1       0.196 -13.113   6.495  1.00  0.00     0.293 HD
ENDBRANCH  15  18
BRANCH  17  20
ATOM     20  O   UNL     1       3.266 -12.967   6.781  1.00  0.00    -0.504 OA
ATOM     21  H   UNL     1       3.285 -13.595   5.985  1.00  0.00     0.293 HD
ENDBRANCH  17  20
ENDBRANCH   1  12
BRANCH   6  22
ATOM     22  O   UNL     1       6.349  -3.834   8.996  1.00  0.00    -0.507 OA
ATOM     23  H   UNL     1       6.999  -3.075   8.864  1.00  0.00     0.293 HD
ENDBRANCH   6  22
BRANCH   8  24
ATOM     24  O   UNL     1       9.606  -7.356   9.209  1.00  0.00    -0.508 OA
ATOM     25  H   UNL     1      10.077  -7.064  10.058  1.00  0.00     0.293 HD
ENDBRANCH   8  24
TORSDOF 5
ENDMDL
MODEL 3
REMARK VINA RESULT:    -7.371      2.987      4.145
REMARK INTER + INTRA:          -8.936
REMARK INTER:                  -8.617
REMARK INTRA:                  -0.318
REMARK UNBOUND:                -0.272
REMARK SMILES O=c1cc(-c2ccc(O)c(O)c2)oc2cc(O)cc(O)c12
REMARK SMILES IDX 4 1 3 2 2 3 1 4 21 5 19 6 18 7 16 8 15 9 14 10 13 11 5 12
REMARK SMILES IDX 6 13 7 14 8 15 12 16 10 17 9 18 11 20 20 22 17 24
REMARK H PARENT 9 19 11 21 20 23 17 25
REMARK Flexibility Score: inf
ROOT
ATOM      1  C   UNL     1      12.448  -3.875  15.441  1.00  0.00     0.138 A 
ATOM      2  C   UNL     1      12.439  -4.767  14.361  1.00  0.00     0.100 A 
ATOM      3  C   UNL     1      11.276  -4.925  13.605  1.00  0.00     0.197 A 
ATOM      4  O   UNL     1      11.317  -5.690  12.608  1.00  0.00    -0.289 OA
ATOM      5  C   UNL     1      10.105  -4.212  13.958  1.00  0.00     0.107 A 
ATOM      6  C   UNL     1       8.851  -4.319  13.283  1.00  0.00     0.134 A 
ATOM      7  C   UNL     1       7.791  -3.488  13.664  1.00  0.00     0.093 A 
ATOM      8  C   UNL     1       7.919  -2.597  14.732  1.00  0.00     0.123 A 
ATOM      9  C   UNL     1       9.122  -2.521  15.429  1.00  0.00     0.094 A 
ATOM     10  C   UNL     1      10.210  -3.312  15.052  1.00  0.00     0.146 A 
ATOM     11  O   UNL     1      11.345  -3.194  15.734  1.00  0.00    -0.456 OA
ENDROOT
BRANCH   1  12
ATOM     12  C   UNL     1      13.656  -3.671  16.280  1.00  0.00     0.021 A 
ATOM     13  C   UNL     1      14.836  -4.411  16.074  1.00  0.00     0.016 A 
ATOM     14  C   UNL     1      15.961  -4.190  16.872  1.00  0.00     0.051 A 
ATOM     15  C   UNL     1      15.931  -3.221  17.884  1.00  0.00     0.157 A 
ATOM     16  C   UNL     1      13.640  -2.691  17.289  1.00  0.00     0.062 A 
ATOM     17  C   UNL     1      14.765  -2.468  18.091  1.00  0.00     0.158 A 
BRANCH  15  18
ATOM     18  O   UNL     1      17.055  -3.004  18.680  1.00  0.00    -0.504 OA
ATOM     19  H   UNL     1      17.226  -3.551  19.516  1.00  0.00     0.293 HD
ENDBRANCH  15  18
BRANCH  17  20
ATOM     20  O   UNL     1      14.704  -1.494  19.087  1.00  0.00    -0.504 OA
ATOM     21  H   UNL     1      14.941  -1.694  20.052  1.00  0.00     0.293 HD
ENDBRANCH  17  20
ENDBRANCH   1  12
BRANCH   6  22
ATOM     22  O   UNL     1       8.590  -5.231  12.257  1.00  0.00    -0.507 OA
ATOM     23  H   UNL     1       8.878  -5.123  11.297  1.00  0.00     0.293 HD
ENDBRANCH   6  22
BRANCH   8  24
ATOM     24  O   UNL     1       6.852  -1.786  15.113  1.00  0.00    -0.508 OA
ATOM     25  H   UNL     1       6.474  -1.079  14.492  1.00  0.00     0.293 HD
ENDBRANCH   8  24
TORSDOF 5
ENDMDL
MODEL 4
REMARK VINA RESULT:    -7.353      4.480      7.542
REMARK INTER + INTRA:          -8.914
REMARK INTER:                  -8.607
REMARK INTRA:                  -0.307
REMARK UNBOUND:                -0.272
REMARK SMILES O=c1cc(-c2ccc(O)c(O)c2)oc2cc(O)cc(O)c12
REMARK SMILES IDX 4 1 3 2 2 3 1 4 21 5 19 6 18 7 16 8 15 9 14 10 13 11 5 12
REMARK SMILES IDX 6 13 7 14 8 15 12 16 10 17 9 18 11 20 20 22 17 24
REMARK H PARENT 9 19 11 21 20 23 17 25
REMARK Flexibility Score: inf
ROOT
ATOM      1  C   UNL     1      10.437  -4.533  14.846  1.00  0.00     0.138 A 
ATOM      2  C   UNL     1      11.735  -4.642  14.330  1.00  0.00     0.100 A 
ATOM      3  C   UNL     1      12.694  -5.386  15.020  1.00  0.00     0.197 A 
ATOM      4  O   UNL     1      13.833  -5.511  14.502  1.00  0.00    -0.289 OA
ATOM      5  C   UNL     1      12.358  -5.994  16.254  1.00  0.00     0.107 A 
ATOM      6  C   UNL     1      13.261  -6.747  17.063  1.00  0.00     0.134 A 
ATOM      7  C   UNL     1      12.786  -7.385  18.216  1.00  0.00     0.093 A 
ATOM      8  C   UNL     1      11.456  -7.248  18.620  1.00  0.00     0.123 A 
ATOM      9  C   UNL     1      10.579  -6.474  17.865  1.00  0.00     0.094 A 
ATOM     10  C   UNL     1      11.013  -5.854  16.691  1.00  0.00     0.146 A 
ATOM     11  O   UNL     1      10.138  -5.140  15.990  1.00  0.00    -0.456 OA
ENDROOT
BRANCH   1  12
ATOM     12  C   UNL     1       9.380  -3.752  14.155  1.00  0.00     0.021 A 
ATOM     13  C   UNL     1       9.363  -3.606  12.755  1.00  0.00     0.016 A 
ATOM     14  C   UNL     1       8.349  -2.873  12.132  1.00  0.00     0.051 A 
ATOM     15  C   UNL     1       7.333  -2.281  12.893  1.00  0.00     0.157 A 
ATOM     16  C   UNL     1       8.348  -3.167  14.910  1.00  0.00     0.062 A 
ATOM     17  C   UNL     1       7.333  -2.431  14.288  1.00  0.00     0.158 A 
BRANCH  15  18
ATOM     18  O   UNL     1       6.324  -1.550  12.267  1.00  0.00    -0.504 OA
ATOM     19  H   UNL     1       5.426  -1.966  12.047  1.00  0.00     0.293 HD
ENDBRANCH  15  18
BRANCH  17  20
ATOM     20  O   UNL     1       6.334  -1.858  15.074  1.00  0.00    -0.504 OA
ATOM     21  H   UNL     1       5.583  -1.307  14.674  1.00  0.00     0.293 HD
ENDBRANCH  17  20
ENDBRANCH   1  12
BRANCH   6  22
ATOM     22  O   UNL     1      14.626  -6.882  16.795  1.00  0.00    -0.507 OA
ATOM     23  H   UNL     1      15.349  -6.272  17.143  1.00  0.00     0.293 HD
ENDBRANCH   6  22
BRANCH   8  24
ATOM     24  O   UNL     1      10.998  -7.874  19.778  1.00  0.00    -0.508 OA
ATOM     25  H   UNL     1      10.067  -7.703  20.140  1.00  0.00     0.293 HD
ENDBRANCH   8  24
TORSDOF 5
ENDMDL
MODEL 5
REMARK VINA RESULT:    -7.291      5.098      7.532
REMARK INTER + INTRA:          -8.842
REMARK INTER:                  -8.580
REMARK INTRA:                  -0.262
REMARK UNBOUND:                -0.272
REMARK SMILES O=c1cc(-c2ccc(O)c(O)c2)oc2cc(O)cc(O)c12
REMARK SMILES IDX 4 1 3 2 2 3 1 4 21 5 19 6 18 7 16 8 15 9 14 10 13 11 5 12
REMARK SMILES IDX 6 13 7 14 8 15 12 16 10 17 9 18 11 20 20 22 17 24
REMARK H PARENT 9 19 11 21 20 23 17 25
REMARK Flexibility Score: inf
ROOT
ATOM      1  C   UNL     1      16.411  -6.331  16.890  1.00  0.00     0.138 A 
ATOM      2  C   UNL     1      16.936  -5.195  17.520  1.00  0.00     0.100 A 
ATOM      3  C   UNL     1      16.367  -3.944  17.277  1.00  0.00     0.197 A 
ATOM      4  O   UNL     1      16.826  -2.953  17.901  1.00  0.00    -0.289 OA
ATOM      5  C   UNL     1      15.287  -3.827  16.369  1.00  0.00     0.107 A 
ATOM      6  C   UNL     1      14.648  -2.599  16.017  1.00  0.00     0.134 A 
ATOM      7  C   UNL     1      13.524  -2.622  15.183  1.00  0.00     0.093 A 
ATOM      8  C   UNL     1      13.051  -3.820  14.641  1.00  0.00     0.123 A 
ATOM      9  C   UNL     1      13.698  -5.017  14.938  1.00  0.00     0.094 A 
ATOM     10  C   UNL     1      14.800  -5.032  15.794  1.00  0.00     0.146 A 
ATOM     11  O   UNL     1      15.376  -6.199  16.066  1.00  0.00    -0.456 OA
ENDROOT
BRANCH   1  12
ATOM     12  C   UNL     1      16.980  -7.685  17.109  1.00  0.00     0.021 A 
ATOM     13  C   UNL     1      17.923  -8.244  16.226  1.00  0.00     0.016 A 
ATOM     14  C   UNL     1      18.449  -9.517  16.464  1.00  0.00     0.051 A 
ATOM     15  C   UNL     1      18.049 -10.249  17.589  1.00  0.00     0.157 A 
ATOM     16  C   UNL     1      16.594  -8.421  18.244  1.00  0.00     0.062 A 
ATOM     17  C   UNL     1      17.118  -9.697  18.483  1.00  0.00     0.158 A 
BRANCH  15  18
ATOM     18  O   UNL     1      18.575 -11.519  17.822  1.00  0.00    -0.504 OA
ATOM     19  H   UNL     1      19.145 -11.992  17.130  1.00  0.00     0.293 HD
ENDBRANCH  15  18
BRANCH  17  20
ATOM     20  O   UNL     1      16.702 -10.398  19.614  1.00  0.00    -0.504 OA
ATOM     21  H   UNL     1      15.749 -10.351  19.957  1.00  0.00     0.293 HD
ENDBRANCH  17  20
ENDBRANCH   1  12
BRANCH   6  22
ATOM     22  O   UNL     1      15.086  -1.340  16.438  1.00  0.00    -0.507 OA
ATOM     23  H   UNL     1      15.910  -0.870  16.099  1.00  0.00     0.293 HD
ENDBRANCH   6  22
BRANCH   8  24
ATOM     24  O   UNL     1      11.941  -3.829  13.798  1.00  0.00    -0.508 OA
ATOM     25  H   UNL     1      11.160  -4.455  13.957  1.00  0.00     0.293 HD
ENDBRANCH   8  24
TORSDOF 5
ENDMDL
MODEL 6
REMARK VINA RESULT:    -7.280      5.874      8.390
REMARK INTER + INTRA:          -8.828
REMARK INTER:                  -8.510
REMARK INTRA:                  -0.318
REMARK UNBOUND:                -0.272
REMARK SMILES O=c1cc(-c2ccc(O)c(O)c2)oc2cc(O)cc(O)c12
REMARK SMILES IDX 4 1 3 2 2 3 1 4 21 5 19 6 18 7 16 8 15 9 14 10 13 11 5 12
REMARK SMILES IDX 6 13 7 14 8 15 12 16 10 17 9 18 11 20 20 22 17 24
REMARK H PARENT 9 19 11 21 20 23 17 25
REMARK Flexibility Score: inf
ROOT
ATOM      1  C   UNL     1       6.534  -5.605   9.469  1.00  0.00     0.138 A 
ATOM      2  C   UNL     1       5.549  -4.754   8.950  1.00  0.00     0.100 A 
ATOM      3  C   UNL     1       4.576  -5.267   8.090  1.00  0.00     0.197 A 
ATOM      4  O   UNL     1       3.674  -4.490   7.686  1.00  0.00    -0.289 OA
ATOM      5  C   UNL     1       4.613  -6.633   7.721  1.00  0.00     0.107 A 
ATOM      6  C   UNL     1       3.694  -7.260   6.825  1.00  0.00     0.134 A 
ATOM      7  C   UNL     1       3.772  -8.641   6.614  1.00  0.00     0.093 A 
ATOM      8  C   UNL     1       4.770  -9.410   7.219  1.00  0.00     0.123 A 
ATOM      9  C   UNL     1       5.701  -8.800   8.055  1.00  0.00     0.094 A 
ATOM     10  C   UNL     1       5.630  -7.429   8.313  1.00  0.00     0.146 A 
ATOM     11  O   UNL     1       6.528  -6.891   9.133  1.00  0.00    -0.456 OA
ENDROOT
BRANCH   1  12
ATOM     12  C   UNL     1       7.594  -5.112  10.385  1.00  0.00     0.021 A 
ATOM     13  C   UNL     1       7.605  -3.788  10.861  1.00  0.00     0.016 A 
ATOM     14  C   UNL     1       8.610  -3.355  11.730  1.00  0.00     0.051 A 
ATOM     15  C   UNL     1       9.616  -4.238  12.144  1.00  0.00     0.157 A 
ATOM     16  C   UNL     1       8.600  -5.996  10.817  1.00  0.00     0.062 A 
ATOM     17  C   UNL     1       9.609  -5.564  11.686  1.00  0.00     0.158 A 
BRANCH  15  18
ATOM     18  O   UNL     1      10.618  -3.802  13.010  1.00  0.00    -0.504 OA
ATOM     19  H   UNL     1      11.265  -3.068  12.745  1.00  0.00     0.293 HD
ENDBRANCH  15  18
BRANCH  17  20
ATOM     20  O   UNL     1      10.593  -6.469  12.082  1.00  0.00    -0.504 OA
ATOM     21  H   UNL     1      11.061  -7.079  11.421  1.00  0.00     0.293 HD
ENDBRANCH  17  20
ENDBRANCH   1  12
BRANCH   6  22
ATOM     22  O   UNL     1       2.710  -6.574   6.107  1.00  0.00    -0.507 OA
ATOM     23  H   UNL     1       1.856  -6.208   6.498  1.00  0.00     0.293 HD
ENDBRANCH   6  22
BRANCH   8  24
ATOM     24  O   UNL     1       4.848 -10.782   6.988  1.00  0.00    -0.508 OA
ATOM     25  H   UNL     1       4.165 -11.424   7.374  1.00  0.00     0.293 HD
ENDBRANCH   8  24
TORSDOF 5
ENDMDL
MODEL 7
REMARK VINA RESULT:    -7.273      6.615      9.783
REMARK INTER + INTRA:          -8.820
REMARK INTER:                  -8.552
REMARK INTRA:                  -0.267
REMARK UNBOUND:                -0.272
REMARK SMILES O=c1cc(-c2ccc(O)c(O)c2)oc2cc(O)cc(O)c12
REMARK SMILES IDX 4 1 3 2 2 3 1 4 21 5 19 6 18 7 16 8 15 9 14 10 13 11 5 12
REMARK SMILES IDX 6 13 7 14 8 15 12 16 10 17 9 18 11 20 20 22 17 24
REMARK H PARENT 9 19 11 21 20 23 17 25
REMARK Flexibility Score: inf
ROOT
ATOM      1  C   UNL     1       6.505  -6.738   8.146  1.00  0.00     0.138 A 
ATOM      2  C   UNL     1       5.439  -5.832   8.066  1.00  0.00     0.100 A 
ATOM      3  C   UNL     1       4.168  -6.289   7.713  1.00  0.00     0.197 A 
ATOM      4  O   UNL     1       3.222  -5.461   7.705  1.00  0.00    -0.289 OA
ATOM      5  C   UNL     1       3.974  -7.657   7.404  1.00  0.00     0.107 A 
ATOM      6  C   UNL     1       2.731  -8.231   6.999  1.00  0.00     0.134 A 
ATOM      7  C   UNL     1       2.639  -9.616   6.815  1.00  0.00     0.093 A 
ATOM      8  C   UNL     1       3.757 -10.440   6.965  1.00  0.00     0.123 A 
ATOM      9  C   UNL     1       4.986  -9.883   7.311  1.00  0.00     0.094 A 
ATOM     10  C   UNL     1       5.102  -8.510   7.535  1.00  0.00     0.146 A 
ATOM     11  O   UNL     1       6.290  -8.022   7.882  1.00  0.00    -0.456 OA
ENDROOT
BRANCH   1  12
ATOM     12  C   UNL     1       7.877  -6.305   8.513  1.00  0.00     0.021 A 
ATOM     13  C   UNL     1       8.741  -5.708   7.576  1.00  0.00     0.016 A 
ATOM     14  C   UNL     1      10.024  -5.301   7.954  1.00  0.00     0.051 A 
ATOM     15  C   UNL     1      10.463  -5.477   9.272  1.00  0.00     0.157 A 
ATOM     16  C   UNL     1       8.321  -6.465   9.838  1.00  0.00     0.062 A 
ATOM     17  C   UNL     1       9.606  -6.060  10.218  1.00  0.00     0.158 A 
BRANCH  15  18
ATOM     18  O   UNL     1      11.744  -5.072   9.644  1.00  0.00    -0.504 OA
ATOM     19  H   UNL     1      12.531  -5.153   9.010  1.00  0.00     0.293 HD
ENDBRANCH  15  18
BRANCH  17  20
ATOM     20  O   UNL     1      10.011  -6.246  11.539  1.00  0.00    -0.504 OA
ATOM     21  H   UNL     1      10.989  -6.288  11.802  1.00  0.00     0.293 HD
ENDBRANCH  17  20
ENDBRANCH   1  12
BRANCH   6  22
ATOM     22  O   UNL     1       1.572  -7.492   6.743  1.00  0.00    -0.507 OA
ATOM     23  H   UNL     1       0.646  -7.740   7.052  1.00  0.00     0.293 HD
ENDBRANCH   6  22
BRANCH   8  24
ATOM     24  O   UNL     1       3.659 -11.816   6.764  1.00  0.00    -0.508 OA
ATOM     25  H   UNL     1       2.827 -12.331   7.027  1.00  0.00     0.293 HD
ENDBRANCH   8  24
TORSDOF 5
ENDMDL
MODEL 8
REMARK VINA RESULT:    -7.266      2.397      4.493
REMARK INTER + INTRA:          -8.812
REMARK INTER:                  -8.527
REMARK INTRA:                  -0.285
REMARK UNBOUND:                -0.272
REMARK SMILES O=c1cc(-c2ccc(O)c(O)c2)oc2cc(O)cc(O)c12
REMARK SMILES IDX 4 1 3 2 2 3 1 4 21 5 19 6 18 7 16 8 15 9 14 10 13 11 5 12
REMARK SMILES IDX 6 13 7 14 8 15 12 16 10 17 9 18 11 20 20 22 17 24
REMARK H PARENT 9 19 11 21 20 23 17 25
REMARK Flexibility Score: inf
ROOT
ATOM      1  C   UNL     1      11.824  -3.321  10.309  1.00  0.00     0.138 A 
ATOM      2  C   UNL     1      12.241  -3.141   8.984  1.00  0.00     0.100 A 
ATOM      3  C   UNL     1      11.700  -3.938   7.974  1.00  0.00     0.197 A 
ATOM      4  O   UNL     1      12.053  -3.714   6.788  1.00  0.00    -0.289 OA
ATOM      5  C   UNL     1      10.762  -4.947   8.301  1.00  0.00     0.107 A 
ATOM      6  C   UNL     1      10.168  -5.843   7.361  1.00  0.00     0.134 A 
ATOM      7  C   UNL     1       9.177  -6.735   7.790  1.00  0.00     0.093 A 
ATOM      8  C   UNL     1       8.800  -6.804   9.133  1.00  0.00     0.123 A 
ATOM      9  C   UNL     1       9.409  -5.969  10.067  1.00  0.00     0.094 A 
ATOM     10  C   UNL     1      10.376  -5.045   9.665  1.00  0.00     0.146 A 
ATOM     11  O   UNL     1      10.918  -4.254  10.586  1.00  0.00    -0.456 OA
ENDROOT
BRANCH   1  12
ATOM     12  C   UNL     1      12.369  -2.503  11.422  1.00  0.00     0.021 A 
ATOM     13  C   UNL     1      12.512  -3.023  12.722  1.00  0.00     0.016 A 
ATOM     14  C   UNL     1      13.038  -2.233  13.748  1.00  0.00     0.051 A 
ATOM     15  C   UNL     1      13.437  -0.915  13.492  1.00  0.00     0.157 A 
ATOM     16  C   UNL     1      12.785  -1.184  11.170  1.00  0.00     0.062 A 
ATOM     17  C   UNL     1      13.311  -0.389  12.197  1.00  0.00     0.158 A 
BRANCH  15  18
ATOM     18  O   UNL     1      13.959  -0.129  14.518  1.00  0.00    -0.504 OA
ATOM     19  H   UNL     1      14.908  -0.254  14.851  1.00  0.00     0.293 HD
ENDBRANCH  15  18
BRANCH  17  20
ATOM     20  O   UNL     1      13.702   0.917  11.908  1.00  0.00    -0.504 OA
ATOM     21  H   UNL     1      13.750   1.636  12.621  1.00  0.00     0.293 HD
ENDBRANCH  17  20
ENDBRANCH   1  12
BRANCH   6  22
ATOM     22  O   UNL     1      10.527  -5.914   6.012  1.00  0.00    -0.507 OA
ATOM     23  H   UNL     1      11.451  -5.740   5.648  1.00  0.00     0.293 HD
ENDBRANCH   6  22
BRANCH   8  24
ATOM     24  O   UNL     1       7.824  -7.706   9.552  1.00  0.00    -0.508 OA
ATOM     25  H   UNL     1       7.919  -8.702   9.391  1.00  0.00     0.293 HD
ENDBRANCH   8  24
TORSDOF 5
ENDMDL
MODEL 9
REMARK VINA RESULT:    -7.221      4.067      7.875
REMARK INTER + INTRA:          -8.759
REMARK INTER:                  -8.456
REMARK INTRA:                  -0.303
REMARK UNBOUND:                -0.272
REMARK SMILES O=c1cc(-c2ccc(O)c(O)c2)oc2cc(O)cc(O)c12
REMARK SMILES IDX 4 1 3 2 2 3 1 4 21 5 19 6 18 7 16 8 15 9 14 10 13 11 5 12
REMARK SMILES IDX 6 13 7 14 8 15 12 16 10 17 9 18 11 20 20 22 17 24
REMARK H PARENT 9 19 11 21 20 23 17 25
REMARK Flexibility Score: inf
ROOT
ATOM      1  C   UNL     1       8.922  -4.146  12.304  1.00  0.00     0.138 A 
ATOM      2  C   UNL     1      10.153  -4.680  11.900  1.00  0.00     0.100 A 
ATOM      3  C   UNL     1      11.054  -5.144  12.860  1.00  0.00     0.197 A 
ATOM      4  O   UNL     1      12.126  -5.668  12.462  1.00  0.00    -0.289 OA
ATOM      5  C   UNL     1      10.733  -5.039  14.235  1.00  0.00     0.107 A 
ATOM      6  C   UNL     1      11.588  -5.447  15.304  1.00  0.00     0.134 A 
ATOM      7  C   UNL     1      11.119  -5.386  16.622  1.00  0.00     0.093 A 
ATOM      8  C   UNL     1       9.852  -4.876  16.915  1.00  0.00     0.123 A 
ATOM      9  C   UNL     1       9.031  -4.428  15.883  1.00  0.00     0.094 A 
ATOM     10  C   UNL     1       9.455  -4.509  14.555  1.00  0.00     0.146 A 
ATOM     11  O   UNL     1       8.632  -4.088  13.600  1.00  0.00    -0.456 OA
ENDROOT
BRANCH   1  12
ATOM     12  C   UNL     1       7.929  -3.635  11.326  1.00  0.00     0.021 A 
ATOM     13  C   UNL     1       7.764  -4.227  10.060  1.00  0.00     0.016 A 
ATOM     14  C   UNL     1       6.813  -3.730   9.164  1.00  0.00     0.051 A 
ATOM     15  C   UNL     1       6.007  -2.641   9.519  1.00  0.00     0.157 A 
ATOM     16  C   UNL     1       7.106  -2.551  11.680  1.00  0.00     0.062 A 
ATOM     17  C   UNL     1       6.154  -2.051  10.783  1.00  0.00     0.158 A 
BRANCH  15  18
ATOM     18  O   UNL     1       5.061  -2.148   8.622  1.00  0.00    -0.504 OA
ATOM     19  H   UNL     1       5.096  -2.377   7.635  1.00  0.00     0.293 HD
ENDBRANCH  15  18
BRANCH  17  20
ATOM     20  O   UNL     1       5.365  -0.968  11.169  1.00  0.00    -0.504 OA
ATOM     21  H   UNL     1       4.356  -1.036  11.242  1.00  0.00     0.293 HD
ENDBRANCH  17  20
ENDBRANCH   1  12
BRANCH   6  22
ATOM     22  O   UNL     1      12.900  -5.896  15.130  1.00  0.00    -0.507 OA
ATOM     23  H   UNL     1      13.167  -6.851  14.948  1.00  0.00     0.293 HD
ENDBRANCH   6  22
BRANCH   8  24
ATOM     24  O   UNL     1       9.402  -4.804  18.232  1.00  0.00    -0.508 OA
ATOM     25  H   UNL     1       9.871  -5.301  18.980  1.00  0.00     0.293 HD
ENDBRANCH   8  24
TORSDOF 5
ENDMDL
