MODEL 1
REMARK VINA RESULT:    -5.144      0.000      0.000
REMARK INTER + INTRA:          -8.032
REMARK INTER:                  -7.550
REMARK INTRA:                  -0.482
REMARK UNBOUND:                -0.482
REMARK SMILES O=C([O-])CCCCCCCC(=O)[O-]
REMARK SMILES IDX 7 1 6 2 5 3 4 4 2 5 1 6 3 7 8 8 9 9 10 10 11 11 12 12 13 13
REMARK H PARENT
REMARK Flexibility Score: inf
ROOT
ATOM      1  C   UNL     1      -3.976   6.774   4.512  1.00  0.00     0.000 C 
ENDROOT
BRANCH   1   2
ATOM      2  C   UNL     1      -2.552   6.484   4.009  1.00  0.00     0.000 C 
BRANCH   2   3
ATOM      3  C   UNL     1      -2.015   5.133   4.507  1.00  0.00     0.006 C 
BRANCH   3   4
ATOM      4  C   UNL     1      -2.889   4.581   5.637  1.00  0.00     0.053 C 
BRANCH   4   5
ATOM      5  C   UNL     1      -2.419   3.220   6.045  1.00  0.00     0.041 C 
ATOM      6  O   UNL     1      -1.889   3.044   7.173  1.00  0.00    -0.550 OA
ATOM      7  O   UNL     1      -2.522   2.155   5.158  1.00  0.00    -0.550 OA
ENDBRANCH   4   5
ENDBRANCH   3   4
ENDBRANCH   2   3
ENDBRANCH   1   2
BRANCH   1   8
ATOM      8  C   UNL     1      -4.085   8.134   5.225  1.00  0.00     0.000 C 
BRANCH   8   9
ATOM      9  C   UNL     1      -4.378   7.993   6.730  1.00  0.00     0.006 C 
BRANCH   9  10
ATOM     10  C   UNL     1      -5.297   6.814   7.085  1.00  0.00     0.053 C 
BRANCH  10  11
ATOM     11  C   UNL     1      -6.141   7.103   8.288  1.00  0.00     0.041 C 
ATOM     12  O   UNL     1      -7.240   6.510   8.448  1.00  0.00    -0.550 OA
ATOM     13  O   UNL     1      -5.696   8.000   9.251  1.00  0.00    -0.550 OA
ENDBRANCH  10  11
ENDBRANCH   9  10
ENDBRANCH   8   9
ENDBRANCH   1   8
TORSDOF 8
ENDMDL
MODEL 2
REMARK VINA RESULT:    -5.000      1.250      5.527
REMARK INTER + INTRA:          -7.819
REMARK INTER:                  -7.442
REMARK INTRA:                  -0.377
REMARK UNBOUND:                -0.482
REMARK SMILES O=C([O-])CCCCCCCC(=O)[O-]
REMARK SMILES IDX 7 1 6 2 5 3 4 4 2 5 1 6 3 7 8 8 9 9 10 10 11 11 12 12 13 13
REMARK H PARENT
REMARK Flexibility Score: inf
ROOT
ATOM      1  C   UNL     1      -4.262   7.694   5.912  1.00  0.00     0.000 C 
ENDROOT
BRANCH   1   2
ATOM      2  C   UNL     1      -5.008   6.671   6.785  1.00  0.00     0.000 C 
BRANCH   2   3
ATOM      3  C   UNL     1      -5.736   7.326   7.968  1.00  0.00     0.006 C 
BRANCH   3   4
ATOM      4  C   UNL     1      -6.556   6.292   8.745  1.00  0.00     0.053 C 
BRANCH   4   5
ATOM      5  C   UNL     1      -7.972   6.275   8.261  1.00  0.00     0.041 C 
ATOM      6  O   UNL     1      -8.406   5.290   7.608  1.00  0.00    -0.550 OA
ATOM      7  O   UNL     1      -8.798   7.369   8.488  1.00  0.00    -0.550 OA
ENDBRANCH   4   5
ENDBRANCH   3   4
ENDBRANCH   2   3
ENDBRANCH   1   2
BRANCH   1   8
ATOM      8  C   UNL     1      -3.383   7.026   4.839  1.00  0.00     0.000 C 
BRANCH   8   9
ATOM      9  C   UNL     1      -3.532   5.494   4.819  1.00  0.00     0.006 C 
BRANCH   9  10
ATOM     10  C   UNL     1      -2.232   4.731   5.122  1.00  0.00     0.053 C 
BRANCH  10  11
ATOM     11  C   UNL     1      -2.490   3.461   5.873  1.00  0.00     0.041 C 
ATOM     12  O   UNL     1      -2.750   3.495   7.105  1.00  0.00    -0.550 OA
ATOM     13  O   UNL     1      -2.478   2.243   5.205  1.00  0.00    -0.550 OA
ENDBRANCH  10  11
ENDBRANCH   9  10
ENDBRANCH   8   9
ENDBRANCH   1   8
TORSDOF 8
ENDMDL
MODEL 3
REMARK VINA RESULT:    -4.858      1.314      2.110
REMARK INTER + INTRA:          -7.612
REMARK INTER:                  -7.219
REMARK INTRA:                  -0.394
REMARK UNBOUND:                -0.482
REMARK SMILES O=C([O-])CCCCCCCC(=O)[O-]
REMARK SMILES IDX 7 1 6 2 5 3 4 4 2 5 1 6 3 7 8 8 9 9 10 10 11 11 12 12 13 13
REMARK H PARENT
REMARK Flexibility Score: inf
ROOT
ATOM      1  C   UNL     1      -4.316   7.806   6.107  1.00  0.00     0.000 C 
ENDROOT
BRANCH   1   2
ATOM      2  C   UNL     1      -3.547   7.335   4.861  1.00  0.00     0.000 C 
BRANCH   2   3
ATOM      3  C   UNL     1      -3.707   5.830   4.604  1.00  0.00     0.006 C 
BRANCH   3   4
ATOM      4  C   UNL     1      -2.411   5.079   4.925  1.00  0.00     0.053 C 
BRANCH   4   5
ATOM      5  C   UNL     1      -2.707   3.825   5.686  1.00  0.00     0.041 C 
ATOM      6  O   UNL     1      -3.017   3.882   6.906  1.00  0.00    -0.550 OA
ATOM      7  O   UNL     1      -2.592   2.590   5.062  1.00  0.00    -0.550 OA
ENDBRANCH   4   5
ENDBRANCH   3   4
ENDBRANCH   2   3
ENDBRANCH   1   2
BRANCH   1   8
ATOM      8  C   UNL     1      -5.136   6.677   6.757  1.00  0.00     0.000 C 
BRANCH   8   9
ATOM      9  C   UNL     1      -5.858   7.131   8.039  1.00  0.00     0.006 C 
BRANCH   9  10
ATOM     10  C   UNL     1      -6.755   6.054   8.670  1.00  0.00     0.053 C 
BRANCH  10  11
ATOM     11  C   UNL     1      -8.163   6.129   8.163  1.00  0.00     0.041 C 
ATOM     12  O   UNL     1      -8.788   7.222   8.188  1.00  0.00    -0.550 OA
ATOM     13  O   UNL     1      -8.771   5.000   7.628  1.00  0.00    -0.550 OA
ENDBRANCH  10  11
ENDBRANCH   9  10
ENDBRANCH   8   9
ENDBRANCH   1   8
TORSDOF 8
ENDMDL
MODEL 4
REMARK VINA RESULT:    -4.335      2.789      4.286
REMARK INTER + INTRA:          -6.844
REMARK INTER:                  -6.609
REMARK INTRA:                  -0.235
REMARK UNBOUND:                -0.482
REMARK SMILES O=C([O-])CCCCCCCC(=O)[O-]
REMARK SMILES IDX 7 1 6 2 5 3 4 4 2 5 1 6 3 7 8 8 9 9 10 10 11 11 12 12 13 13
REMARK H PARENT
REMARK Flexibility Score: inf
ROOT
ATOM      1  C   UNL     1      -5.872   7.456   8.456  1.00  0.00     0.000 C 
ENDROOT
BRANCH   1   2
ATOM      2  C   UNL     1      -5.425   6.847   7.117  1.00  0.00     0.000 C 
BRANCH   2   3
ATOM      3  C   UNL     1      -4.394   7.720   6.386  1.00  0.00     0.006 C 
BRANCH   3   4
ATOM      4  C   UNL     1      -4.333   7.365   4.898  1.00  0.00     0.053 C 
BRANCH   4   5
ATOM      5  C   UNL     1      -3.262   6.351   4.644  1.00  0.00     0.041 C 
ATOM      6  O   UNL     1      -2.318   6.611   3.853  1.00  0.00    -0.550 OA
ATOM      7  O   UNL     1      -3.332   5.100   5.245  1.00  0.00    -0.550 OA
ENDBRANCH   4   5
ENDBRANCH   3   4
ENDBRANCH   2   3
ENDBRANCH   1   2
BRANCH   1   8
ATOM      8  C   UNL     1      -7.326   7.102   8.811  1.00  0.00     0.000 C 
BRANCH   8   9
ATOM      9  C   UNL     1      -7.743   5.714   8.293  1.00  0.00     0.006 C 
BRANCH   9  10
ATOM     10  C   UNL     1      -7.409   4.558   9.249  1.00  0.00     0.053 C 
BRANCH  10  11
ATOM     11  C   UNL     1      -8.124   3.296   8.875  1.00  0.00     0.041 C 
ATOM     12  O   UNL     1      -9.112   3.335   8.096  1.00  0.00    -0.550 OA
ATOM     13  O   UNL     1      -7.677   2.073   9.359  1.00  0.00    -0.550 OA
ENDBRANCH  10  11
ENDBRANCH   9  10
ENDBRANCH   8   9
ENDBRANCH   1   8
TORSDOF 8
ENDMDL
MODEL 5
REMARK VINA RESULT:    -4.289      3.182      4.567
REMARK INTER + INTRA:          -6.776
REMARK INTER:                  -6.532
REMARK INTRA:                  -0.244
REMARK UNBOUND:                -0.482
REMARK SMILES O=C([O-])CCCCCCCC(=O)[O-]
REMARK SMILES IDX 7 1 6 2 5 3 4 4 2 5 1 6 3 7 8 8 9 9 10 10 11 11 12 12 13 13
REMARK H PARENT
REMARK Flexibility Score: inf
ROOT
ATOM      1  C   UNL     1      -2.602   3.609   7.050  1.00  0.00     0.000 C 
ENDROOT
BRANCH   1   2
ATOM      2  C   UNL     1      -1.582   2.516   7.409  1.00  0.00     0.000 C 
BRANCH   2   3
ATOM      3  C   UNL     1      -0.791   2.844   8.685  1.00  0.00     0.006 C 
BRANCH   3   4
ATOM      4  C   UNL     1      -1.514   2.313   9.927  1.00  0.00     0.053 C 
BRANCH   4   5
ATOM      5  C   UNL     1      -1.360   0.828  10.029  1.00  0.00     0.041 C 
ATOM      6  O   UNL     1      -2.375   0.090  10.125  1.00  0.00    -0.550 OA
ATOM      7  O   UNL     1      -0.091   0.263  10.068  1.00  0.00    -0.550 OA
ENDBRANCH   4   5
ENDBRANCH   3   4
ENDBRANCH   2   3
ENDBRANCH   1   2
BRANCH   1   8
ATOM      8  C   UNL     1      -2.376   4.189   5.643  1.00  0.00     0.000 C 
BRANCH   8   9
ATOM      9  C   UNL     1      -3.505   5.138   5.204  1.00  0.00     0.006 C 
BRANCH   9  10
ATOM     10  C   UNL     1      -3.015   6.465   4.602  1.00  0.00     0.053 C 
BRANCH  10  11
ATOM     11  C   UNL     1      -3.877   7.619   5.011  1.00  0.00     0.041 C 
ATOM     12  O   UNL     1      -3.957   8.641   4.280  1.00  0.00    -0.550 OA
ATOM     13  O   UNL     1      -4.621   7.552   6.183  1.00  0.00    -0.550 OA
ENDBRANCH  10  11
ENDBRANCH   9  10
ENDBRANCH   8   9
ENDBRANCH   1   8
TORSDOF 8
ENDMDL
MODEL 6
REMARK VINA RESULT:    -4.213      1.638      5.587
REMARK INTER + INTRA:          -6.664
REMARK INTER:                  -6.309
REMARK INTRA:                  -0.355
REMARK UNBOUND:                -0.482
REMARK SMILES O=C([O-])CCCCCCCC(=O)[O-]
REMARK SMILES IDX 7 1 6 2 5 3 4 4 2 5 1 6 3 7 8 8 9 9 10 10 11 11 12 12 13 13
REMARK H PARENT
REMARK Flexibility Score: inf
ROOT
ATOM      1  C   UNL     1      -2.438   5.130   4.916  1.00  0.00     0.000 C 
ENDROOT
BRANCH   1   2
ATOM      2  C   UNL     1      -3.392   6.335   4.853  1.00  0.00     0.000 C 
BRANCH   2   3
ATOM      3  C   UNL     1      -4.559   6.215   5.844  1.00  0.00     0.006 C 
BRANCH   3   4
ATOM      4  C   UNL     1      -4.628   7.443   6.758  1.00  0.00     0.053 C 
BRANCH   4   5
ATOM      5  C   UNL     1      -5.559   7.192   7.903  1.00  0.00     0.041 C 
ATOM      6  O   UNL     1      -6.426   6.283   7.827  1.00  0.00    -0.550 OA
ATOM      7  O   UNL     1      -5.500   7.996   9.034  1.00  0.00    -0.550 OA
ENDBRANCH   4   5
ENDBRANCH   3   4
ENDBRANCH   2   3
ENDBRANCH   1   2
BRANCH   1   8
ATOM      8  C   UNL     1      -3.004   3.971   5.756  1.00  0.00     0.000 C 
BRANCH   8   9
ATOM      9  C   UNL     1      -1.904   3.148   6.449  1.00  0.00     0.006 C 
BRANCH   9  10
ATOM     10  C   UNL     1      -1.934   3.222   7.984  1.00  0.00     0.053 C 
BRANCH  10  11
ATOM     11  C   UNL     1      -1.130   2.127   8.615  1.00  0.00     0.041 C 
ATOM     12  O   UNL     1       0.082   1.974   8.310  1.00  0.00    -0.550 OA
ATOM     13  O   UNL     1      -1.711   1.297   9.566  1.00  0.00    -0.550 OA
ENDBRANCH  10  11
ENDBRANCH   9  10
ENDBRANCH   8   9
ENDBRANCH   1   8
TORSDOF 8
ENDMDL
MODEL 7
REMARK VINA RESULT:    -4.086     16.079     18.138
REMARK INTER + INTRA:          -6.478
REMARK INTER:                  -5.906
REMARK INTRA:                  -0.572
REMARK UNBOUND:                -0.482
REMARK SMILES O=C([O-])CCCCCCCC(=O)[O-]
REMARK SMILES IDX 7 1 6 2 5 3 4 4 2 5 1 6 3 7 8 8 9 9 10 10 11 11 12 12 13 13
REMARK H PARENT
REMARK Flexibility Score: inf
ROOT
ATOM      1  C   UNL     1      -1.609  -4.638  -7.443  1.00  0.00     0.000 C 
ENDROOT
BRANCH   1   2
ATOM      2  C   UNL     1      -1.386  -3.139  -7.183  1.00  0.00     0.000 C 
BRANCH   2   3
ATOM      3  C   UNL     1      -1.242  -2.331  -8.481  1.00  0.00     0.006 C 
BRANCH   3   4
ATOM      4  C   UNL     1      -0.840  -0.884  -8.182  1.00  0.00     0.053 C 
BRANCH   4   5
ATOM      5  C   UNL     1      -1.935   0.056  -8.577  1.00  0.00     0.041 C 
ATOM      6  O   UNL     1      -2.098   1.138  -7.952  1.00  0.00    -0.550 OA
ATOM      7  O   UNL     1      -2.808  -0.285  -9.602  1.00  0.00    -0.550 OA
ENDBRANCH   4   5
ENDBRANCH   3   4
ENDBRANCH   2   3
ENDBRANCH   1   2
BRANCH   1   8
ATOM      8  C   UNL     1      -0.505  -5.516  -6.828  1.00  0.00     0.000 C 
BRANCH   8   9
ATOM      9  C   UNL     1       0.641  -4.688  -6.219  1.00  0.00     0.006 C 
BRANCH   9  10
ATOM     10  C   UNL     1       2.043  -5.122  -6.677  1.00  0.00     0.053 C 
BRANCH  10  11
ATOM     11  C   UNL     1       2.199  -5.034  -8.164  1.00  0.00     0.041 C 
ATOM     12  O   UNL     1       2.612  -6.028  -8.818  1.00  0.00    -0.550 OA
ATOM     13  O   UNL     1       1.853  -3.866  -8.833  1.00  0.00    -0.550 OA
ENDBRANCH  10  11
ENDBRANCH   9  10
ENDBRANCH   8   9
ENDBRANCH   1   8
TORSDOF 8
ENDMDL
MODEL 8
REMARK VINA RESULT:    -3.953     14.653     16.914
REMARK INTER + INTRA:          -6.284
REMARK INTER:                  -5.900
REMARK INTRA:                  -0.383
REMARK UNBOUND:                -0.482
REMARK SMILES O=C([O-])CCCCCCCC(=O)[O-]
REMARK SMILES IDX 7 1 6 2 5 3 4 4 2 5 1 6 3 7 8 8 9 9 10 10 11 11 12 12 13 13
REMARK H PARENT
REMARK Flexibility Score: inf
ROOT
ATOM      1  C   UNL     1       7.679   5.808  -5.464  1.00  0.00     0.000 C 
ENDROOT
BRANCH   1   2
ATOM      2  C   UNL     1       9.202   5.992  -5.560  1.00  0.00     0.000 C 
BRANCH   2   3
ATOM      3  C   UNL     1       9.880   4.885  -6.380  1.00  0.00     0.006 C 
BRANCH   3   4
ATOM      4  C   UNL     1       8.910   4.297  -7.410  1.00  0.00     0.053 C 
BRANCH   4   5
ATOM      5  C   UNL     1       9.577   3.213  -8.198  1.00  0.00     0.041 C 
ATOM      6  O   UNL     1       9.605   3.269  -9.456  1.00  0.00    -0.550 OA
ATOM      7  O   UNL     1      10.124   2.115  -7.545  1.00  0.00    -0.550 OA
ENDBRANCH   4   5
ENDBRANCH   3   4
ENDBRANCH   2   3
ENDBRANCH   1   2
BRANCH   1   8
ATOM      8  C   UNL     1       7.210   5.493  -4.033  1.00  0.00     0.000 C 
BRANCH   8   9
ATOM      9  C   UNL     1       8.159   6.056  -2.959  1.00  0.00     0.006 C 
BRANCH   9  10
ATOM     10  C   UNL     1       7.567   6.069  -1.541  1.00  0.00     0.053 C 
BRANCH  10  11
ATOM     11  C   UNL     1       7.752   4.756  -0.844  1.00  0.00     0.041 C 
ATOM     12  O   UNL     1       6.767   3.993  -0.658  1.00  0.00    -0.550 OA
ATOM     13  O   UNL     1       9.018   4.358  -0.433  1.00  0.00    -0.550 OA
ENDBRANCH  10  11
ENDBRANCH   9  10
ENDBRANCH   8   9
ENDBRANCH   1   8
TORSDOF 8
ENDMDL
