MODEL 1
REMARK VINA RESULT:    -7.606      0.000      0.000
REMARK INTER + INTRA:          -6.505
REMARK INTER:                  -7.829
REMARK INTRA:                   1.324
REMARK UNBOUND:                 1.324
REMARK SMILES C[C@H]1[C@@H](C)CC[C@@]2(C(=O)[O-])CC[C@]3(C)C(=CC[C@@H]4[C@]5(C)CC[C@@H](O)C(C)(C)[C@H]5CC[C@@]43C)[C@@H]12
REMARK SMILES IDX 7 1 6 2 11 3 33 4 5 5 12 6 15 7 2 8 3 9 13 10 16 11 1 12
REMARK SMILES IDX 4 13 14 14 31 15 17 16 18 17 30 18 32 19 19 20 29 21 28 22
REMARK SMILES IDX 21 23 20 24 25 25 22 26 23 27 26 28 27 29 8 30 9 31 10 32
REMARK SMILES IDX 24 33
REMARK H PARENT 24 34
REMARK Flexibility Score: inf
ROOT
ATOM      1  C   UNL     1      19.200  33.036  24.468  1.00  0.00     0.017 C 
ATOM      2  C   UNL     1      18.141  33.669  25.527  1.00  0.00     0.014 C 
ATOM      3  C   UNL     1      19.481  34.439  23.289  1.00  0.00     0.014 C 
ATOM      4  C   UNL     1      20.703  32.923  25.289  1.00  0.00     0.030 C 
ATOM      5  C   UNL     1      19.058  34.898  26.385  1.00  0.00     0.004 C 
ATOM      6  C   UNL     1      20.978  34.921  23.066  1.00  0.00     0.013 C 
ATOM      7  C   UNL     1      21.940  32.847  24.160  1.00  0.00    -0.063 C 
ATOM      8  C   UNL     1      20.946  33.085  26.823  1.00  0.00    -0.003 C 
ATOM      9  C   UNL     1      20.163  34.282  27.514  1.00  0.00    -0.011 C 
ATOM     10  C   UNL     1      21.986  33.745  22.840  1.00  0.00    -0.006 C 
ATOM     11  C   UNL     1      22.764  31.780  24.151  1.00  0.00    -0.027 C 
ATOM     12  C   UNL     1      22.402  32.921  27.215  1.00  0.00     0.008 C 
ATOM     13  C   UNL     1      21.315  35.119  28.698  1.00  0.00     0.008 C 
ATOM     14  C   UNL     1      21.438  33.007  21.518  1.00  0.00     0.017 C 
ATOM     15  C   UNL     1      23.536  34.168  22.577  1.00  0.00    -0.020 C 
ATOM     16  C   UNL     1      23.759  31.544  23.047  1.00  0.00     0.032 C 
ATOM     17  C   UNL     1      24.426  32.833  22.409  1.00  0.00     0.006 C 
ATOM     18  C   UNL     1      24.109  35.087  23.739  1.00  0.00     0.008 C 
ATOM     19  C   UNL     1      23.556  35.055  21.265  1.00  0.00     0.012 C 
ATOM     20  C   UNL     1      26.007  32.983  22.677  1.00  0.00    -0.025 C 
ATOM     21  C   UNL     1      25.601  34.962  24.219  1.00  0.00     0.005 C 
ATOM     22  C   UNL     1      26.225  33.560  24.108  1.00  0.00     0.003 C 
ATOM     23  C   UNL     1      26.790  31.610  22.554  1.00  0.00     0.010 C 
ATOM     24  C   UNL     1      26.597  33.930  21.561  1.00  0.00     0.012 C 
ATOM     25  C   UNL     1      27.709  33.372  24.683  1.00  0.00    -0.006 C 
ATOM     26  C   UNL     1      27.242  30.914  23.870  1.00  0.00     0.033 C 
ATOM     27  C   UNL     1      27.918  31.827  24.940  1.00  0.00     0.120 C 
ATOM     28  C   UNL     1      27.858  34.102  26.047  1.00  0.00     0.014 C 
ATOM     29  C   UNL     1      28.854  33.928  23.794  1.00  0.00     0.014 C 
ENDROOT
BRANCH   1  30
ATOM     30  C   UNL     1      18.453  31.350  24.595  1.00  0.00     0.048 C 
ATOM     31  O   UNL     1      19.190  30.469  23.589  1.00  0.00    -0.550 OA
ATOM     32  O   UNL     1      18.052  32.659  24.569  1.00  0.00    -0.550 OA
ENDBRANCH   1  30
BRANCH  27  33
ATOM     33  O   UNL     1      29.272  31.423  25.118  1.00  0.00    -0.393 OA
ATOM     34  H   UNL     1      29.785  31.738  24.333  1.00  0.00     0.210 HD
ENDBRANCH  27  33
TORSDOF 2
ENDMDL
MODEL 2
REMARK VINA RESULT:    -7.357      8.958     11.126
REMARK INTER + INTRA:          -6.248
REMARK INTER:                  -7.577
REMARK INTRA:                   1.329
REMARK UNBOUND:                 1.324
REMARK SMILES C[C@H]1[C@@H](C)CC[C@@]2(C(=O)[O-])CC[C@]3(C)C(=CC[C@@H]4[C@]5(C)CC[C@@H](O)C(C)(C)[C@H]5CC[C@@]43C)[C@@H]12
REMARK SMILES IDX 7 1 6 2 11 3 33 4 5 5 12 6 15 7 2 8 3 9 13 10 16 11 1 12
REMARK SMILES IDX 4 13 14 14 31 15 17 16 18 17 30 18 32 19 19 20 29 21 28 22
REMARK SMILES IDX 21 23 20 24 25 25 22 26 23 27 26 28 27 29 8 30 9 31 10 32
REMARK SMILES IDX 24 33
REMARK H PARENT 24 34
REMARK Flexibility Score: inf
ROOT
ATOM      1  C   UNL     1      13.665  27.944  23.031  1.00  0.00     0.017 C 
ATOM      2  C   UNL     1      12.936  28.801  21.857  1.00  0.00     0.014 C 
ATOM      3  C   UNL     1      12.846  26.287  22.889  1.00  0.00     0.014 C 
ATOM      4  C   UNL     1      15.261  27.627  22.482  1.00  0.00     0.030 C 
ATOM      5  C   UNL     1      13.495  28.067  20.362  1.00  0.00     0.004 C 
ATOM      6  C   UNL     1      13.782  25.021  22.674  1.00  0.00     0.013 C 
ATOM      7  C   UNL     1      15.872  26.304  23.313  1.00  0.00    -0.063 C 
ATOM      8  C   UNL     1      15.981  28.287  21.265  1.00  0.00    -0.003 C 
ATOM      9  C   UNL     1      15.096  28.447  19.955  1.00  0.00    -0.011 C 
ATOM     10  C   UNL     1      15.021  24.991  23.631  1.00  0.00    -0.006 C 
ATOM     11  C   UNL     1      16.997  26.443  24.042  1.00  0.00    -0.027 C 
ATOM     12  C   UNL     1      17.394  27.777  21.062  1.00  0.00     0.008 C 
ATOM     13  C   UNL     1      16.141  27.994  18.495  1.00  0.00     0.008 C 
ATOM     14  C   UNL     1      14.376  24.960  25.106  1.00  0.00     0.017 C 
ATOM     15  C   UNL     1      16.010  23.707  23.484  1.00  0.00    -0.020 C 
ATOM     16  C   UNL     1      17.488  25.367  24.973  1.00  0.00     0.032 C 
ATOM     17  C   UNL     1      17.242  23.870  24.513  1.00  0.00     0.006 C 
ATOM     18  C   UNL     1      16.537  23.525  21.996  1.00  0.00     0.008 C 
ATOM     19  C   UNL     1      15.145  22.419  23.805  1.00  0.00     0.012 C 
ATOM     20  C   UNL     1      18.577  23.034  24.176  1.00  0.00    -0.025 C 
ATOM     21  C   UNL     1      17.997  23.022  21.702  1.00  0.00     0.005 C 
ATOM     22  C   UNL     1      19.061  23.409  22.744  1.00  0.00     0.003 C 
ATOM     23  C   UNL     1      19.755  23.306  25.202  1.00  0.00     0.010 C 
ATOM     24  C   UNL     1      18.229  21.500  24.300  1.00  0.00     0.012 C 
ATOM     25  C   UNL     1      20.579  23.003  22.425  1.00  0.00    -0.006 C 
ATOM     26  C   UNL     1      20.926  24.216  24.734  1.00  0.00     0.033 C 
ATOM     27  C   UNL     1      21.505  23.925  23.314  1.00  0.00     0.120 C 
ATOM     28  C   UNL     1      20.916  23.292  20.936  1.00  0.00     0.014 C 
ATOM     29  C   UNL     1      20.938  21.509  22.645  1.00  0.00     0.014 C 
ENDROOT
BRANCH   1  30
ATOM     30  C   UNL     1      13.818  29.418  24.134  1.00  0.00     0.048 C 
ATOM     31  O   UNL     1      14.391  28.915  25.457  1.00  0.00    -0.550 OA
ATOM     32  O   UNL     1      12.929  28.883  23.241  1.00  0.00    -0.550 OA
ENDBRANCH   1  30
BRANCH  27  33
ATOM     33  O   UNL     1      22.854  23.487  23.434  1.00  0.00    -0.393 OA
ATOM     34  H   UNL     1      23.430  24.292  23.456  1.00  0.00     0.210 HD
ENDBRANCH  27  33
TORSDOF 2
ENDMDL
MODEL 3
REMARK VINA RESULT:    -7.331      2.910      5.849
REMARK INTER + INTRA:          -6.222
REMARK INTER:                  -7.552
REMARK INTRA:                   1.331
REMARK UNBOUND:                 1.324
REMARK SMILES C[C@H]1[C@@H](C)CC[C@@]2(C(=O)[O-])CC[C@]3(C)C(=CC[C@@H]4[C@]5(C)CC[C@@H](O)C(C)(C)[C@H]5CC[C@@]43C)[C@@H]12
REMARK SMILES IDX 7 1 6 2 11 3 33 4 5 5 12 6 15 7 2 8 3 9 13 10 16 11 1 12
REMARK SMILES IDX 4 13 14 14 31 15 17 16 18 17 30 18 32 19 19 20 29 21 28 22
REMARK SMILES IDX 21 23 20 24 25 25 22 26 23 27 26 28 27 29 8 30 9 31 10 32
REMARK SMILES IDX 24 33
REMARK H PARENT 24 34
REMARK Flexibility Score: inf
ROOT
ATOM      1  C   UNL     1      19.510  33.046  22.863  1.00  0.00     0.017 C 
ATOM      2  C   UNL     1      19.767  31.925  21.713  1.00  0.00     0.014 C 
ATOM      3  C   UNL     1      19.464  32.031  24.414  1.00  0.00     0.014 C 
ATOM      4  C   UNL     1      20.979  33.921  23.026  1.00  0.00     0.030 C 
ATOM      5  C   UNL     1      21.399  31.351  22.012  1.00  0.00     0.004 C 
ATOM      6  C   UNL     1      20.474  32.421  25.577  1.00  0.00     0.013 C 
ATOM      7  C   UNL     1      21.009  34.665  24.528  1.00  0.00    -0.063 C 
ATOM      8  C   UNL     1      22.205  33.879  22.061  1.00  0.00    -0.003 C 
ATOM      9  C   UNL     1      22.616  32.434  21.544  1.00  0.00    -0.011 C 
ATOM     10  C   UNL     1      20.521  33.957  25.874  1.00  0.00    -0.006 C 
ATOM     11  C   UNL     1      21.123  36.006  24.600  1.00  0.00    -0.027 C 
ATOM     12  C   UNL     1      23.341  34.781  22.503  1.00  0.00     0.008 C 
ATOM     13  C   UNL     1      24.463  32.311  21.584  1.00  0.00     0.008 C 
ATOM     14  C   UNL     1      19.013  34.320  26.305  1.00  0.00     0.017 C 
ATOM     15  C   UNL     1      21.516  34.425  27.074  1.00  0.00    -0.020 C 
ATOM     16  C   UNL     1      20.950  36.758  25.893  1.00  0.00     0.032 C 
ATOM     17  C   UNL     1      21.464  36.033  27.206  1.00  0.00     0.006 C 
ATOM     18  C   UNL     1      23.007  33.925  26.844  1.00  0.00     0.008 C 
ATOM     19  C   UNL     1      21.013  33.712  28.396  1.00  0.00     0.012 C 
ATOM     20  C   UNL     1      22.722  36.737  27.924  1.00  0.00    -0.025 C 
ATOM     21  C   UNL     1      24.239  34.811  27.254  1.00  0.00     0.005 C 
ATOM     22  C   UNL     1      24.026  36.333  27.173  1.00  0.00     0.003 C 
ATOM     23  C   UNL     1      22.615  38.319  27.949  1.00  0.00     0.010 C 
ATOM     24  C   UNL     1      22.739  36.272  29.431  1.00  0.00     0.012 C 
ATOM     25  C   UNL     1      25.290  37.267  27.483  1.00  0.00    -0.006 C 
ATOM     26  C   UNL     1      23.500  39.120  26.952  1.00  0.00     0.033 C 
ATOM     27  C   UNL     1      24.994  38.682  26.846  1.00  0.00     0.120 C 
ATOM     28  C   UNL     1      26.565  36.699  26.800  1.00  0.00     0.014 C 
ATOM     29  C   UNL     1      25.664  37.421  28.982  1.00  0.00     0.014 C 
ENDROOT
BRANCH   1  30
ATOM     30  C   UNL     1      18.456  34.076  21.748  1.00  0.00     0.048 C 
ATOM     31  O   UNL     1      18.040  35.305  22.555  1.00  0.00    -0.550 OA
ATOM     32  O   UNL     1      18.630  32.760  22.081  1.00  0.00    -0.550 OA
ENDBRANCH   1  30
BRANCH  27  33
ATOM     33  O   UNL     1      25.831  39.738  27.306  1.00  0.00    -0.393 OA
ATOM     34  H   UNL     1      26.234  40.170  26.512  1.00  0.00     0.210 HD
ENDBRANCH  27  33
TORSDOF 2
ENDMDL
MODEL 4
REMARK VINA RESULT:    -7.272      3.791      9.129
REMARK INTER + INTRA:          -6.161
REMARK INTER:                  -7.497
REMARK INTRA:                   1.336
REMARK UNBOUND:                 1.324
REMARK SMILES C[C@H]1[C@@H](C)CC[C@@]2(C(=O)[O-])CC[C@]3(C)C(=CC[C@@H]4[C@]5(C)CC[C@@H](O)C(C)(C)[C@H]5CC[C@@]43C)[C@@H]12
REMARK SMILES IDX 7 1 6 2 11 3 33 4 5 5 12 6 15 7 2 8 3 9 13 10 16 11 1 12
REMARK SMILES IDX 4 13 14 14 31 15 17 16 18 17 30 18 32 19 19 20 29 21 28 22
REMARK SMILES IDX 21 23 20 24 25 25 22 26 23 27 26 28 27 29 8 30 9 31 10 32
REMARK SMILES IDX 24 33
REMARK H PARENT 24 34
REMARK Flexibility Score: inf
ROOT
ATOM      1  C   UNL     1      29.998  30.069  18.750  1.00  0.00     0.017 C 
ATOM      2  C   UNL     1      31.094  30.623  17.684  1.00  0.00     0.014 C 
ATOM      3  C   UNL     1      30.711  30.602  20.376  1.00  0.00     0.014 C 
ATOM      4  C   UNL     1      28.615  31.074  18.594  1.00  0.00     0.030 C 
ATOM      5  C   UNL     1      30.948  32.371  17.771  1.00  0.00     0.004 C 
ATOM      6  C   UNL     1      29.796  31.494  21.321  1.00  0.00     0.013 C 
ATOM      7  C   UNL     1      27.701  30.969  19.996  1.00  0.00    -0.063 C 
ATOM      8  C   UNL     1      28.328  32.101  17.453  1.00  0.00    -0.003 C 
ATOM      9  C   UNL     1      29.566  32.994  17.015  1.00  0.00    -0.011 C 
ATOM     10  C   UNL     1      28.333  30.956  21.462  1.00  0.00    -0.006 C 
ATOM     11  C   UNL     1      26.424  30.545  19.923  1.00  0.00    -0.027 C 
ATOM     12  C   UNL     1      27.005  32.822  17.622  1.00  0.00     0.008 C 
ATOM     13  C   UNL     1      28.966  34.729  16.771  1.00  0.00     0.008 C 
ATOM     14  C   UNL     1      28.514  29.486  22.093  1.00  0.00     0.017 C 
ATOM     15  C   UNL     1      27.347  31.807  22.439  1.00  0.00    -0.020 C 
ATOM     16  C   UNL     1      25.612  30.230  21.151  1.00  0.00     0.032 C 
ATOM     17  C   UNL     1      25.881  31.132  22.426  1.00  0.00     0.006 C 
ATOM     18  C   UNL     1      27.267  33.338  22.022  1.00  0.00     0.008 C 
ATOM     19  C   UNL     1      27.992  31.779  23.885  1.00  0.00     0.012 C 
ATOM     20  C   UNL     1      24.651  32.074  22.865  1.00  0.00    -0.025 C 
ATOM     21  C   UNL     1      25.927  34.150  22.145  1.00  0.00     0.005 C 
ATOM     22  C   UNL     1      24.633  33.340  21.956  1.00  0.00     0.003 C 
ATOM     23  C   UNL     1      23.245  31.348  22.759  1.00  0.00     0.010 C 
ATOM     24  C   UNL     1      24.844  32.441  24.387  1.00  0.00     0.012 C 
ATOM     25  C   UNL     1      23.251  34.152  21.973  1.00  0.00    -0.006 C 
ATOM     26  C   UNL     1      22.325  31.724  21.563  1.00  0.00     0.033 C 
ATOM     27  C   UNL     1      22.169  33.247  21.261  1.00  0.00     0.120 C 
ATOM     28  C   UNL     1      23.385  35.464  21.150  1.00  0.00     0.014 C 
ATOM     29  C   UNL     1      22.745  34.595  23.372  1.00  0.00     0.014 C 
ENDROOT
BRANCH   1  30
ATOM     30  C   UNL     1      29.627  28.575  17.727  1.00  0.00     0.048 C 
ATOM     31  O   UNL     1      28.554  27.789  18.476  1.00  0.00    -0.550 OA
ATOM     32  O   UNL     1      30.712  29.300  18.143  1.00  0.00    -0.550 OA
ENDBRANCH   1  30
BRANCH  27  33
ATOM     33  O   UNL     1      20.817  33.637  21.481  1.00  0.00    -0.393 OA
ATOM     34  H   UNL     1      20.816  34.323  22.194  1.00  0.00     0.210 HD
ENDBRANCH  27  33
TORSDOF 2
ENDMDL
MODEL 5
REMARK VINA RESULT:    -7.271      4.227      6.928
REMARK INTER + INTRA:          -6.160
REMARK INTER:                  -7.510
REMARK INTRA:                   1.351
REMARK UNBOUND:                 1.324
REMARK SMILES C[C@H]1[C@@H](C)CC[C@@]2(C(=O)[O-])CC[C@]3(C)C(=CC[C@@H]4[C@]5(C)CC[C@@H](O)C(C)(C)[C@H]5CC[C@@]43C)[C@@H]12
REMARK SMILES IDX 7 1 6 2 11 3 33 4 5 5 12 6 15 7 2 8 3 9 13 10 16 11 1 12
REMARK SMILES IDX 4 13 14 14 31 15 17 16 18 17 30 18 32 19 19 20 29 21 28 22
REMARK SMILES IDX 21 23 20 24 25 25 22 26 23 27 26 28 27 29 8 30 9 31 10 32
REMARK SMILES IDX 24 33
REMARK H PARENT 24 34
REMARK Flexibility Score: inf
ROOT
ATOM      1  C   UNL     1      27.219  30.105  20.053  1.00  0.00     0.017 C 
ATOM      2  C   UNL     1      26.011  29.675  19.053  1.00  0.00     0.014 C 
ATOM      3  C   UNL     1      27.967  31.560  19.180  1.00  0.00     0.014 C 
ATOM      4  C   UNL     1      26.482  30.825  21.426  1.00  0.00     0.030 C 
ATOM      5  C   UNL     1      24.859  30.996  19.158  1.00  0.00     0.004 C 
ATOM      6  C   UNL     1      28.068  32.926  19.985  1.00  0.00     0.013 C 
ATOM      7  C   UNL     1      27.605  31.796  22.205  1.00  0.00    -0.063 C 
ATOM      8  C   UNL     1      24.967  30.789  21.802  1.00  0.00    -0.003 C 
ATOM      9  C   UNL     1      23.961  31.026  20.595  1.00  0.00    -0.011 C 
ATOM     10  C   UNL     1      28.625  32.755  21.438  1.00  0.00    -0.006 C 
ATOM     11  C   UNL     1      27.920  31.543  23.491  1.00  0.00    -0.027 C 
ATOM     12  C   UNL     1      24.655  31.527  23.089  1.00  0.00     0.008 C 
ATOM     13  C   UNL     1      22.607  32.145  21.183  1.00  0.00     0.008 C 
ATOM     14  C   UNL     1      30.092  32.127  21.224  1.00  0.00     0.017 C 
ATOM     15  C   UNL     1      28.782  34.120  22.312  1.00  0.00    -0.020 C 
ATOM     16  C   UNL     1      29.060  32.234  24.189  1.00  0.00     0.032 C 
ATOM     17  C   UNL     1      29.325  33.744  23.784  1.00  0.00     0.006 C 
ATOM     18  C   UNL     1      27.419  34.931  22.402  1.00  0.00     0.008 C 
ATOM     19  C   UNL     1      29.797  35.053  21.532  1.00  0.00     0.012 C 
ATOM     20  C   UNL     1      29.048  34.820  24.950  1.00  0.00    -0.025 C 
ATOM     21  C   UNL     1      27.013  35.703  23.710  1.00  0.00     0.005 C 
ATOM     22  C   UNL     1      27.516  35.095  25.031  1.00  0.00     0.003 C 
ATOM     23  C   UNL     1      29.557  34.338  26.372  1.00  0.00     0.010 C 
ATOM     24  C   UNL     1      29.866  36.124  24.607  1.00  0.00     0.012 C 
ATOM     25  C   UNL     1      27.036  35.796  26.390  1.00  0.00    -0.006 C 
ATOM     26  C   UNL     1      28.492  33.849  27.394  1.00  0.00     0.033 C 
ATOM     27  C   UNL     1      27.220  34.740  27.550  1.00  0.00     0.120 C 
ATOM     28  C   UNL     1      25.525  36.153  26.311  1.00  0.00     0.014 C 
ATOM     29  C   UNL     1      27.752  37.125  26.753  1.00  0.00     0.014 C 
ENDROOT
BRANCH   1  30
ATOM     30  C   UNL     1      27.553  28.356  20.546  1.00  0.00     0.048 C 
ATOM     31  O   UNL     1      28.861  28.367  21.335  1.00  0.00    -0.550 OA
ATOM     32  O   UNL     1      27.120  29.057  19.453  1.00  0.00    -0.550 OA
ENDBRANCH   1  30
BRANCH  27  33
ATOM     33  O   UNL     1      27.179  35.279  28.868  1.00  0.00    -0.393 OA
ATOM     34  H   UNL     1      27.771  36.072  28.886  1.00  0.00     0.210 HD
ENDBRANCH  27  33
TORSDOF 2
ENDMDL
MODEL 6
REMARK VINA RESULT:    -7.198      8.225     12.469
REMARK INTER + INTRA:          -6.084
REMARK INTER:                  -7.405
REMARK INTRA:                   1.321
REMARK UNBOUND:                 1.324
REMARK SMILES C[C@H]1[C@@H](C)CC[C@@]2(C(=O)[O-])CC[C@]3(C)C(=CC[C@@H]4[C@]5(C)CC[C@@H](O)C(C)(C)[C@H]5CC[C@@]43C)[C@@H]12
REMARK SMILES IDX 7 1 6 2 11 3 33 4 5 5 12 6 15 7 2 8 3 9 13 10 16 11 1 12
REMARK SMILES IDX 4 13 14 14 31 15 17 16 18 17 30 18 32 19 19 20 29 21 28 22
REMARK SMILES IDX 21 23 20 24 25 25 22 26 23 27 26 28 27 29 8 30 9 31 10 32
REMARK SMILES IDX 24 33
REMARK H PARENT 24 34
REMARK Flexibility Score: inf
ROOT
ATOM      1  C   UNL     1      19.901  23.065  21.771  1.00  0.00     0.017 C 
ATOM      2  C   UNL     1      20.808  22.408  20.591  1.00  0.00     0.014 C 
ATOM      3  C   UNL     1      20.777  24.662  22.112  1.00  0.00     0.014 C 
ATOM      4  C   UNL     1      18.441  23.583  21.031  1.00  0.00     0.030 C 
ATOM      5  C   UNL     1      20.550  23.453  19.203  1.00  0.00     0.004 C 
ATOM      6  C   UNL     1      19.930  26.002  22.000  1.00  0.00     0.013 C 
ATOM      7  C   UNL     1      17.724  24.754  21.994  1.00  0.00    -0.063 C 
ATOM      8  C   UNL     1      17.936  23.219  19.599  1.00  0.00    -0.003 C 
ATOM      9  C   UNL     1      19.040  23.262  18.457  1.00  0.00    -0.011 C 
ATOM     10  C   UNL     1      18.539  25.923  22.715  1.00  0.00    -0.006 C 
ATOM     11  C   UNL     1      16.482  24.546  22.474  1.00  0.00    -0.027 C 
ATOM     12  C   UNL     1      16.598  23.847  19.262  1.00  0.00     0.008 C 
ATOM     13  C   UNL     1      18.292  24.056  16.961  1.00  0.00     0.008 C 
ATOM     14  C   UNL     1      18.905  25.625  24.254  1.00  0.00     0.017 C 
ATOM     15  C   UNL     1      17.628  27.271  22.663  1.00  0.00    -0.020 C 
ATOM     16  C   UNL     1      15.859  25.449  23.505  1.00  0.00     0.032 C 
ATOM     17  C   UNL     1      16.225  26.989  23.409  1.00  0.00     0.006 C 
ATOM     18  C   UNL     1      17.386  27.773  21.175  1.00  0.00     0.008 C 
ATOM     19  C   UNL     1      18.455  28.415  23.383  1.00  0.00     0.012 C 
ATOM     20  C   UNL     1      14.997  27.957  23.023  1.00  0.00    -0.025 C 
ATOM     21  C   UNL     1      16.018  28.414  20.741  1.00  0.00     0.005 C 
ATOM     22  C   UNL     1      14.772  27.899  21.482  1.00  0.00     0.003 C 
ATOM     23  C   UNL     1      13.645  27.565  23.753  1.00  0.00     0.010 C 
ATOM     24  C   UNL     1      15.358  29.412  23.514  1.00  0.00     0.012 C 
ATOM     25  C   UNL     1      13.349  28.454  20.996  1.00  0.00    -0.006 C 
ATOM     26  C   UNL     1      12.555  26.840  22.914  1.00  0.00     0.033 C 
ATOM     27  C   UNL     1      12.253  27.438  21.505  1.00  0.00     0.120 C 
ATOM     28  C   UNL     1      13.281  28.484  19.444  1.00  0.00     0.014 C 
ATOM     29  C   UNL     1      12.997  29.897  21.449  1.00  0.00     0.014 C 
ENDROOT
BRANCH   1  30
ATOM     30  C   UNL     1      19.510  21.416  22.508  1.00  0.00     0.048 C 
ATOM     31  O   UNL     1      18.683  21.685  23.764  1.00  0.00    -0.550 OA
ATOM     32  O   UNL     1      20.569  22.066  21.934  1.00  0.00    -0.550 OA
ENDBRANCH   1  30
BRANCH  27  33
ATOM     33  O   UNL     1      10.916  27.928  21.476  1.00  0.00    -0.393 OA
ATOM     34  H   UNL     1      10.422  27.498  22.219  1.00  0.00     0.210 HD
ENDBRANCH  27  33
TORSDOF 2
ENDMDL
MODEL 7
REMARK VINA RESULT:    -7.158      9.213     11.456
REMARK INTER + INTRA:          -6.043
REMARK INTER:                  -7.365
REMARK INTRA:                   1.322
REMARK UNBOUND:                 1.324
REMARK SMILES C[C@H]1[C@@H](C)CC[C@@]2(C(=O)[O-])CC[C@]3(C)C(=CC[C@@H]4[C@]5(C)CC[C@@H](O)C(C)(C)[C@H]5CC[C@@]43C)[C@@H]12
REMARK SMILES IDX 7 1 6 2 11 3 33 4 5 5 12 6 15 7 2 8 3 9 13 10 16 11 1 12
REMARK SMILES IDX 4 13 14 14 31 15 17 16 18 17 30 18 32 19 19 20 29 21 28 22
REMARK SMILES IDX 21 23 20 24 25 25 22 26 23 27 26 28 27 29 8 30 9 31 10 32
REMARK SMILES IDX 24 33
REMARK H PARENT 24 34
REMARK Flexibility Score: inf
ROOT
ATOM      1  C   UNL     1      12.808  28.552  24.664  1.00  0.00     0.017 C 
ATOM      2  C   UNL     1      11.599  29.418  24.006  1.00  0.00     0.014 C 
ATOM      3  C   UNL     1      12.037  26.880  24.876  1.00  0.00     0.014 C 
ATOM      4  C   UNL     1      13.953  28.287  23.412  1.00  0.00     0.030 C 
ATOM      5  C   UNL     1      11.386  28.733  22.403  1.00  0.00     0.004 C 
ATOM      6  C   UNL     1      12.771  25.643  24.201  1.00  0.00     0.013 C 
ATOM      7  C   UNL     1      14.900  26.961  23.808  1.00  0.00    -0.063 C 
ATOM      8  C   UNL     1      13.999  28.993  22.020  1.00  0.00    -0.003 C 
ATOM      9  C   UNL     1      12.595  29.161  21.296  1.00  0.00    -0.011 C 
ATOM     10  C   UNL     1      14.316  25.621  24.451  1.00  0.00    -0.006 C 
ATOM     11  C   UNL     1      16.235  27.111  23.918  1.00  0.00    -0.027 C 
ATOM     12  C   UNL     1      15.149  28.522  21.152  1.00  0.00     0.008 C 
ATOM     13  C   UNL     1      12.822  28.768  19.500  1.00  0.00     0.008 C 
ATOM     14  C   UNL     1      14.453  25.540  26.054  1.00  0.00     0.017 C 
ATOM     15  C   UNL     1      15.130  24.364  23.811  1.00  0.00    -0.020 C 
ATOM     16  C   UNL     1      17.121  26.025  24.468  1.00  0.00     0.032 C 
ATOM     17  C   UNL     1      16.702  24.533  24.133  1.00  0.00     0.006 C 
ATOM     18  C   UNL     1      14.885  24.229  22.247  1.00  0.00     0.008 C 
ATOM     19  C   UNL     1      14.535  23.049  24.463  1.00  0.00     0.012 C 
ATOM     20  C   UNL     1      17.723  23.738  23.175  1.00  0.00    -0.025 C 
ATOM     21  C   UNL     1      16.034  23.770  21.277  1.00  0.00     0.005 C 
ATOM     22  C   UNL     1      17.462  24.158  21.698  1.00  0.00     0.003 C 
ATOM     23  C   UNL     1      19.244  24.015  23.525  1.00  0.00     0.010 C 
ATOM     24  C   UNL     1      17.492  22.194  23.401  1.00  0.00     0.012 C 
ATOM     25  C   UNL     1      18.648  23.797  20.683  1.00  0.00    -0.006 C 
ATOM     26  C   UNL     1      20.041  24.964  22.584  1.00  0.00     0.033 C 
ATOM     27  C   UNL     1      19.876  24.720  21.052  1.00  0.00     0.120 C 
ATOM     28  C   UNL     1      18.232  24.127  19.222  1.00  0.00     0.014 C 
ATOM     29  C   UNL     1      19.084  22.307  20.657  1.00  0.00     0.014 C 
ENDROOT
BRANCH   1  30
ATOM     30  C   UNL     1      13.453  30.004  25.607  1.00  0.00     0.048 C 
ATOM     31  O   UNL     1      14.630  29.497  26.438  1.00  0.00    -0.550 OA
ATOM     32  O   UNL     1      12.251  29.449  25.259  1.00  0.00    -0.550 OA
ENDBRANCH   1  30
BRANCH  27  33
ATOM     33  O   UNL     1      21.124  24.312  20.501  1.00  0.00    -0.393 OA
ATOM     34  H   UNL     1      21.840  24.771  21.007  1.00  0.00     0.210 HD
ENDBRANCH  27  33
TORSDOF 2
ENDMDL
MODEL 8
REMARK VINA RESULT:    -6.981      3.940      6.635
REMARK INTER + INTRA:          -5.861
REMARK INTER:                  -7.185
REMARK INTRA:                   1.324
REMARK UNBOUND:                 1.324
REMARK SMILES C[C@H]1[C@@H](C)CC[C@@]2(C(=O)[O-])CC[C@]3(C)C(=CC[C@@H]4[C@]5(C)CC[C@@H](O)C(C)(C)[C@H]5CC[C@@]43C)[C@@H]12
REMARK SMILES IDX 7 1 6 2 11 3 33 4 5 5 12 6 15 7 2 8 3 9 13 10 16 11 1 12
REMARK SMILES IDX 4 13 14 14 31 15 17 16 18 17 30 18 32 19 19 20 29 21 28 22
REMARK SMILES IDX 21 23 20 24 25 25 22 26 23 27 26 28 27 29 8 30 9 31 10 32
REMARK SMILES IDX 24 33
REMARK H PARENT 24 34
REMARK Flexibility Score: inf
ROOT
ATOM      1  C   UNL     1      23.525  33.482  24.300  1.00  0.00     0.017 C 
ATOM      2  C   UNL     1      23.616  31.904  23.917  1.00  0.00     0.014 C 
ATOM      3  C   UNL     1      22.964  33.438  26.066  1.00  0.00     0.014 C 
ATOM      4  C   UNL     1      25.141  34.046  24.428  1.00  0.00     0.030 C 
ATOM      5  C   UNL     1      24.955  31.294  24.876  1.00  0.00     0.004 C 
ATOM      6  C   UNL     1      23.862  34.190  27.140  1.00  0.00     0.013 C 
ATOM      7  C   UNL     1      25.163  35.440  25.359  1.00  0.00    -0.063 C 
ATOM      8  C   UNL     1      26.432  33.301  23.963  1.00  0.00    -0.003 C 
ATOM      9  C   UNL     1      26.485  31.751  24.307  1.00  0.00    -0.011 C 
ATOM     10  C   UNL     1      24.302  35.624  26.692  1.00  0.00    -0.006 C 
ATOM     11  C   UNL     1      25.642  36.582  24.829  1.00  0.00    -0.027 C 
ATOM     12  C   UNL     1      27.701  34.089  24.225  1.00  0.00     0.008 C 
ATOM     13  C   UNL     1      28.193  31.348  24.896  1.00  0.00     0.008 C 
ATOM     14  C   UNL     1      22.914  36.412  26.480  1.00  0.00     0.017 C 
ATOM     15  C   UNL     1      25.203  36.464  27.756  1.00  0.00    -0.020 C 
ATOM     16  C   UNL     1      25.504  37.910  25.525  1.00  0.00     0.032 C 
ATOM     17  C   UNL     1      25.593  37.890  27.108  1.00  0.00     0.006 C 
ATOM     18  C   UNL     1      26.505  35.668  28.196  1.00  0.00     0.008 C 
ATOM     19  C   UNL     1      24.329  36.635  29.067  1.00  0.00     0.012 C 
ATOM     20  C   UNL     1      26.879  38.634  27.727  1.00  0.00    -0.025 C 
ATOM     21  C   UNL     1      27.865  36.410  28.463  1.00  0.00     0.005 C 
ATOM     22  C   UNL     1      28.109  37.682  27.632  1.00  0.00     0.003 C 
ATOM     23  C   UNL     1      27.226  39.993  26.987  1.00  0.00     0.010 C 
ATOM     24  C   UNL     1      26.543  39.018  29.220  1.00  0.00     0.012 C 
ATOM     25  C   UNL     1      29.528  38.407  27.803  1.00  0.00    -0.006 C 
ATOM     26  C   UNL     1      28.439  39.997  26.013  1.00  0.00     0.033 C 
ATOM     27  C   UNL     1      29.744  39.316  26.529  1.00  0.00     0.120 C 
ATOM     28  C   UNL     1      30.674  37.357  27.833  1.00  0.00     0.014 C 
ATOM     29  C   UNL     1      29.707  39.245  29.097  1.00  0.00     0.014 C 
ENDROOT
BRANCH   1  30
ATOM     30  C   UNL     1      22.983  33.954  22.597  1.00  0.00     0.048 C 
ATOM     31  O   UNL     1      22.690  35.452  22.632  1.00  0.00    -0.550 OA
ATOM     32  O   UNL     1      22.787  32.945  23.502  1.00  0.00    -0.550 OA
ENDBRANCH   1  30
BRANCH  27  33
ATOM     33  O   UNL     1      30.771  40.295  26.654  1.00  0.00    -0.393 OA
ATOM     34  H   UNL     1      30.993  40.376  27.615  1.00  0.00     0.210 HD
ENDBRANCH  27  33
TORSDOF 2
ENDMDL
MODEL 9
REMARK VINA RESULT:    -6.873      2.771      5.040
REMARK INTER + INTRA:          -5.749
REMARK INTER:                  -7.070
REMARK INTRA:                   1.321
REMARK UNBOUND:                 1.324
REMARK SMILES C[C@H]1[C@@H](C)CC[C@@]2(C(=O)[O-])CC[C@]3(C)C(=CC[C@@H]4[C@]5(C)CC[C@@H](O)C(C)(C)[C@H]5CC[C@@]43C)[C@@H]12
REMARK SMILES IDX 7 1 6 2 11 3 33 4 5 5 12 6 15 7 2 8 3 9 13 10 16 11 1 12
REMARK SMILES IDX 4 13 14 14 31 15 17 16 18 17 30 18 32 19 19 20 29 21 28 22
REMARK SMILES IDX 21 23 20 24 25 25 22 26 23 27 26 28 27 29 8 30 9 31 10 32
REMARK SMILES IDX 24 33
REMARK H PARENT 24 34
REMARK Flexibility Score: inf
ROOT
ATOM      1  C   UNL     1      22.000  34.342  24.857  1.00  0.00     0.017 C 
ATOM      2  C   UNL     1      20.535  33.801  25.313  1.00  0.00     0.014 C 
ATOM      3  C   UNL     1      23.136  33.466  26.031  1.00  0.00     0.014 C 
ATOM      4  C   UNL     1      22.351  33.588  23.355  1.00  0.00     0.030 C 
ATOM      5  C   UNL     1      20.535  32.102  24.870  1.00  0.00     0.004 C 
ATOM      6  C   UNL     1      24.301  32.585  25.404  1.00  0.00     0.013 C 
ATOM      7  C   UNL     1      24.009  33.611  23.105  1.00  0.00    -0.063 C 
ATOM      8  C   UNL     1      21.354  32.803  22.445  1.00  0.00    -0.003 C 
ATOM      9  C   UNL     1      20.372  31.814  23.208  1.00  0.00    -0.011 C 
ATOM     10  C   UNL     1      25.078  33.306  24.252  1.00  0.00    -0.006 C 
ATOM     11  C   UNL     1      24.505  34.226  22.013  1.00  0.00    -0.027 C 
ATOM     12  C   UNL     1      21.997  32.268  21.181  1.00  0.00     0.008 C 
ATOM     13  C   UNL     1      20.262  30.244  22.231  1.00  0.00     0.008 C 
ATOM     14  C   UNL     1      25.691  34.619  24.953  1.00  0.00     0.017 C 
ATOM     15  C   UNL     1      26.304  32.471  23.581  1.00  0.00    -0.020 C 
ATOM     16  C   UNL     1      25.980  34.466  21.829  1.00  0.00     0.032 C 
ATOM     17  C   UNL     1      26.954  33.350  22.393  1.00  0.00     0.006 C 
ATOM     18  C   UNL     1      25.837  31.051  23.043  1.00  0.00     0.008 C 
ATOM     19  C   UNL     1      27.350  32.181  24.735  1.00  0.00     0.012 C 
ATOM     20  C   UNL     1      27.786  32.544  21.275  1.00  0.00    -0.025 C 
ATOM     21  C   UNL     1      26.439  30.437  21.727  1.00  0.00     0.005 C 
ATOM     22  C   UNL     1      26.869  31.449  20.651  1.00  0.00     0.003 C 
ATOM     23  C   UNL     1      28.330  33.478  20.114  1.00  0.00     0.010 C 
ATOM     24  C   UNL     1      29.057  31.923  21.974  1.00  0.00     0.012 C 
ATOM     25  C   UNL     1      27.391  30.858  19.256  1.00  0.00    -0.006 C 
ATOM     26  C   UNL     1      27.596  33.430  18.744  1.00  0.00     0.033 C 
ATOM     27  C   UNL     1      27.266  32.011  18.184  1.00  0.00     0.120 C 
ATOM     28  C   UNL     1      26.486  29.682  18.793  1.00  0.00     0.014 C 
ATOM     29  C   UNL     1      28.834  30.286  19.263  1.00  0.00     0.014 C 
ENDROOT
BRANCH   1  30
ATOM     30  C   UNL     1      21.344  36.013  24.417  1.00  0.00     0.048 C 
ATOM     31  O   UNL     1      22.546  36.856  23.998  1.00  0.00    -0.550 OA
ATOM     32  O   UNL     1      21.169  35.054  25.379  1.00  0.00    -0.550 OA
ENDBRANCH   1  30
BRANCH  27  33
ATOM     33  O   UNL     1      27.994  31.797  16.979  1.00  0.00    -0.393 OA
ATOM     34  H   UNL     1      27.587  32.363  16.277  1.00  0.00     0.210 HD
ENDBRANCH  27  33
TORSDOF 2
ENDMDL
