MODEL 1
REMARK VINA RESULT:    -3.419      0.000      0.000
REMARK INTER + INTRA:          -4.113
REMARK INTER:                  -4.019
REMARK INTRA:                  -0.094
REMARK UNBOUND:                -0.094
REMARK SMILES CCCCC(=O)[O-]
REMARK SMILES IDX 4 1 5 2 6 3 7 4 3 5 2 6 1 7
REMARK H PARENT
REMARK Flexibility Score: inf
ROOT
ATOM      1  C   UNL     1      -2.579   7.952   4.898  1.00  0.00     0.053 C 
ENDROOT
BRANCH   1   2
ATOM      2  C   UNL     1      -2.638   8.627   6.234  1.00  0.00     0.041 C 
ATOM      3  O   UNL     1      -2.308   8.000   7.275  1.00  0.00    -0.550 OA
ATOM      4  O   UNL     1      -3.090   9.936   6.334  1.00  0.00    -0.550 OA
ENDBRANCH   1   2
BRANCH   1   5
ATOM      5  C   UNL     1      -2.119   6.492   5.017  1.00  0.00     0.006 C 
BRANCH   5   6
ATOM      6  C   UNL     1      -3.277   5.501   4.830  1.00  0.00    -0.003 C 
ATOM      7  C   UNL     1      -3.378   4.544   6.015  1.00  0.00     0.004 C 
ENDBRANCH   5   6
ENDBRANCH   1   5
TORSDOF 3
ENDMDL
MODEL 2
REMARK VINA RESULT:    -3.371      1.387      2.231
REMARK INTER + INTRA:          -4.056
REMARK INTER:                  -3.953
REMARK INTRA:                  -0.103
REMARK UNBOUND:                -0.094
REMARK SMILES CCCCC(=O)[O-]
REMARK SMILES IDX 4 1 5 2 6 3 7 4 3 5 2 6 1 7
REMARK H PARENT
REMARK Flexibility Score: inf
ROOT
ATOM      1  C   UNL     1      -2.019   8.520   6.860  1.00  0.00     0.053 C 
ENDROOT
BRANCH   1   2
ATOM      2  C   UNL     1      -3.017   8.431   7.974  1.00  0.00     0.041 C 
ATOM      3  O   UNL     1      -3.464   9.479   8.508  1.00  0.00    -0.550 OA
ATOM      4  O   UNL     1      -3.429   7.190   8.443  1.00  0.00    -0.550 OA
ENDBRANCH   1   2
BRANCH   1   5
ATOM      5  C   UNL     1      -2.669   8.272   5.492  1.00  0.00     0.006 C 
BRANCH   5   6
ATOM      6  C   UNL     1      -2.091   7.036   4.789  1.00  0.00    -0.003 C 
ATOM      7  C   UNL     1      -2.880   5.779   5.149  1.00  0.00     0.004 C 
ENDBRANCH   5   6
ENDBRANCH   1   5
TORSDOF 3
ENDMDL
MODEL 3
REMARK VINA RESULT:    -3.295     14.011     14.680
REMARK INTER + INTRA:          -3.966
REMARK INTER:                  -3.871
REMARK INTRA:                  -0.095
REMARK UNBOUND:                -0.094
REMARK SMILES CCCCC(=O)[O-]
REMARK SMILES IDX 4 1 5 2 6 3 7 4 3 5 2 6 1 7
REMARK H PARENT
REMARK Flexibility Score: inf
ROOT
ATOM      1  C   UNL     1      -4.084   2.545  -7.673  1.00  0.00     0.053 C 
ENDROOT
BRANCH   1   2
ATOM      2  C   UNL     1      -3.419   3.736  -8.292  1.00  0.00     0.041 C 
ATOM      3  O   UNL     1      -2.187   3.929  -8.126  1.00  0.00    -0.550 OA
ATOM      4  O   UNL     1      -4.167   4.650  -9.023  1.00  0.00    -0.550 OA
ENDBRANCH   1   2
BRANCH   1   5
ATOM      5  C   UNL     1      -5.283   2.949  -6.803  1.00  0.00     0.006 C 
BRANCH   5   6
ATOM      6  C   UNL     1      -6.623   2.557  -7.441  1.00  0.00    -0.003 C 
ATOM      7  C   UNL     1      -6.413   1.612  -8.622  1.00  0.00     0.004 C 
ENDBRANCH   5   6
ENDBRANCH   1   5
TORSDOF 3
ENDMDL
MODEL 4
REMARK VINA RESULT:    -3.152     13.847     14.412
REMARK INTER + INTRA:          -3.798
REMARK INTER:                  -3.762
REMARK INTRA:                  -0.037
REMARK UNBOUND:                -0.094
REMARK SMILES CCCCC(=O)[O-]
REMARK SMILES IDX 4 1 5 2 6 3 7 4 3 5 2 6 1 7
REMARK H PARENT
REMARK Flexibility Score: inf
ROOT
ATOM      1  C   UNL     1      -3.966   3.596  -8.758  1.00  0.00     0.053 C 
ENDROOT
BRANCH   1   2
ATOM      2  C   UNL     1      -2.819   4.521  -8.488  1.00  0.00     0.041 C 
ATOM      3  O   UNL     1      -1.675   4.056  -8.244  1.00  0.00    -0.550 OA
ATOM      4  O   UNL     1      -3.021   5.895  -8.474  1.00  0.00    -0.550 OA
ENDBRANCH   1   2
BRANCH   1   5
ATOM      5  C   UNL     1      -4.148   2.571  -7.630  1.00  0.00     0.006 C 
BRANCH   5   6
ATOM      6  C   UNL     1      -5.358   2.893  -6.742  1.00  0.00    -0.003 C 
ATOM      7  C   UNL     1      -6.667   2.557  -7.452  1.00  0.00     0.004 C 
ENDBRANCH   5   6
ENDBRANCH   1   5
TORSDOF 3
ENDMDL
MODEL 5
REMARK VINA RESULT:    -3.148     13.150     14.447
REMARK INTER + INTRA:          -3.794
REMARK INTER:                  -3.687
REMARK INTRA:                  -0.107
REMARK UNBOUND:                -0.094
REMARK SMILES CCCCC(=O)[O-]
REMARK SMILES IDX 4 1 5 2 6 3 7 4 3 5 2 6 1 7
REMARK H PARENT
REMARK Flexibility Score: inf
ROOT
ATOM      1  C   UNL     1       2.219  -4.759   7.793  1.00  0.00     0.053 C 
ENDROOT
BRANCH   1   2
ATOM      2  C   UNL     1       0.954  -5.484   7.449  1.00  0.00     0.041 C 
ATOM      3  O   UNL     1       0.887  -6.735   7.574  1.00  0.00    -0.550 OA
ATOM      4  O   UNL     1      -0.140  -4.782   6.960  1.00  0.00    -0.550 OA
ENDBRANCH   1   2
BRANCH   1   5
ATOM      5  C   UNL     1       3.117  -5.590   8.721  1.00  0.00     0.006 C 
BRANCH   5   6
ATOM      6  C   UNL     1       4.383  -6.088   8.010  1.00  0.00    -0.003 C 
ATOM      7  C   UNL     1       4.371  -7.608   7.864  1.00  0.00     0.004 C 
ENDBRANCH   5   6
ENDBRANCH   1   5
TORSDOF 3
ENDMDL
MODEL 6
REMARK VINA RESULT:    -3.052     14.099     14.905
REMARK INTER + INTRA:          -3.682
REMARK INTER:                  -3.645
REMARK INTRA:                  -0.037
REMARK UNBOUND:                -0.094
REMARK SMILES CCCCC(=O)[O-]
REMARK SMILES IDX 4 1 5 2 6 3 7 4 3 5 2 6 1 7
REMARK H PARENT
REMARK Flexibility Score: inf
ROOT
ATOM      1  C   UNL     1       3.017  -5.337   8.837  1.00  0.00     0.053 C 
ENDROOT
BRANCH   1   2
ATOM      2  C   UNL     1       3.509  -6.742   8.662  1.00  0.00     0.041 C 
ATOM      3  O   UNL     1       4.293  -7.024   7.719  1.00  0.00    -0.550 OA
ATOM      4  O   UNL     1       3.075  -7.744   9.521  1.00  0.00    -0.550 OA
ENDBRANCH   1   2
BRANCH   1   5
ATOM      5  C   UNL     1       1.988  -4.957   7.764  1.00  0.00     0.006 C 
BRANCH   5   6
ATOM      6  C   UNL     1       0.884  -6.013   7.616  1.00  0.00    -0.003 C 
ATOM      7  C   UNL     1      -0.432  -5.375   7.177  1.00  0.00     0.004 C 
ENDBRANCH   5   6
ENDBRANCH   1   5
TORSDOF 3
ENDMDL
MODEL 7
REMARK VINA RESULT:    -2.997     13.406     14.748
REMARK INTER + INTRA:          -3.617
REMARK INTER:                  -3.561
REMARK INTRA:                  -0.056
REMARK UNBOUND:                -0.094
REMARK SMILES CCCCC(=O)[O-]
REMARK SMILES IDX 4 1 5 2 6 3 7 4 3 5 2 6 1 7
REMARK H PARENT
REMARK Flexibility Score: inf
ROOT
ATOM      1  C   UNL     1       2.073  -6.617   8.173  1.00  0.00     0.053 C 
ENDROOT
BRANCH   1   2
ATOM      2  C   UNL     1       1.344  -5.458   7.566  1.00  0.00     0.041 C 
ATOM      3  O   UNL     1       1.970  -4.413   7.249  1.00  0.00    -0.550 OA
ATOM      4  O   UNL     1      -0.031  -5.520   7.380  1.00  0.00    -0.550 OA
ENDBRANCH   1   2
BRANCH   1   5
ATOM      5  C   UNL     1       3.519  -6.252   8.539  1.00  0.00     0.006 C 
BRANCH   5   6
ATOM      6  C   UNL     1       4.540  -7.183   7.870  1.00  0.00    -0.003 C 
ATOM      7  C   UNL     1       5.647  -6.385   7.187  1.00  0.00     0.004 C 
ENDBRANCH   5   6
ENDBRANCH   1   5
TORSDOF 3
ENDMDL
MODEL 8
REMARK VINA RESULT:    -2.958     14.105     14.850
REMARK INTER + INTRA:          -3.570
REMARK INTER:                  -3.455
REMARK INTRA:                  -0.115
REMARK UNBOUND:                -0.094
REMARK SMILES CCCCC(=O)[O-]
REMARK SMILES IDX 4 1 5 2 6 3 7 4 3 5 2 6 1 7
REMARK H PARENT
REMARK Flexibility Score: inf
ROOT
ATOM      1  C   UNL     1      -4.034   2.307  -7.680  1.00  0.00     0.053 C 
ENDROOT
BRANCH   1   2
ATOM      2  C   UNL     1      -5.364   2.983  -7.544  1.00  0.00     0.041 C 
ATOM      3  O   UNL     1      -5.927   3.481  -8.554  1.00  0.00    -0.550 OA
ATOM      4  O   UNL     1      -5.965   3.093  -6.297  1.00  0.00    -0.550 OA
ENDBRANCH   1   2
BRANCH   1   5
ATOM      5  C   UNL     1      -3.265   2.805  -8.911  1.00  0.00     0.006 C 
BRANCH   5   6
ATOM      6  C   UNL     1      -2.326   3.973  -8.576  1.00  0.00    -0.003 C 
ATOM      7  C   UNL     1      -2.834   5.279  -9.182  1.00  0.00     0.004 C 
ENDBRANCH   5   6
ENDBRANCH   1   5
TORSDOF 3
ENDMDL
MODEL 9
REMARK VINA RESULT:    -2.916      2.292      3.440
REMARK INTER + INTRA:          -3.522
REMARK INTER:                  -3.430
REMARK INTRA:                  -0.092
REMARK UNBOUND:                -0.094
REMARK SMILES CCCCC(=O)[O-]
REMARK SMILES IDX 4 1 5 2 6 3 7 4 3 5 2 6 1 7
REMARK H PARENT
REMARK Flexibility Score: inf
ROOT
ATOM      1  C   UNL     1      -2.918   9.145   8.447  1.00  0.00     0.053 C 
ENDROOT
BRANCH   1   2
ATOM      2  C   UNL     1      -3.945   8.125   8.835  1.00  0.00     0.041 C 
ATOM      3  O   UNL     1      -5.058   8.491   9.294  1.00  0.00    -0.550 OA
ATOM      4  O   UNL     1      -3.660   6.771   8.719  1.00  0.00    -0.550 OA
ENDBRANCH   1   2
BRANCH   1   5
ATOM      5  C   UNL     1      -1.976   8.617   7.356  1.00  0.00     0.006 C 
BRANCH   5   6
ATOM      6  C   UNL     1      -2.618   8.661   5.962  1.00  0.00    -0.003 C 
ATOM      7  C   UNL     1      -2.246   7.425   5.147  1.00  0.00     0.004 C 
ENDBRANCH   5   6
ENDBRANCH   1   5
TORSDOF 3
ENDMDL
