MODEL 1
REMARK VINA RESULT:    -3.658      0.000      0.000
REMARK INTER + INTRA:          -7.305
REMARK INTER:                  -5.582
REMARK INTRA:                  -1.723
REMARK UNBOUND:                -1.723
REMARK SMILES CCCCCCCCCC=CC(=O)[O-]
REMARK SMILES IDX 7 1 8 2 9 3 10 4 11 5 12 6 13 7 14 8 6 9 5 10 4 11 3 12 2 13
REMARK SMILES IDX 1 14
REMARK H PARENT
REMARK Flexibility Score: inf
ROOT
ATOM      1  C   UNL     1       0.821   9.773   3.288  1.00  0.00     0.000 C 
ENDROOT
BRANCH   1   2
ATOM      2  C   UNL     1      -0.429  10.041   4.142  1.00  0.00     0.004 C 
BRANCH   2   3
ATOM      3  C   UNL     1      -1.556   9.029   3.879  1.00  0.00     0.027 C 
BRANCH   3   4
ATOM      4  C   UNL     1      -1.066   7.879   3.046  1.00  0.00    -0.025 C 
ATOM      5  C   UNL     1      -1.312   6.610   3.392  1.00  0.00     0.020 C 
BRANCH   5   6
ATOM      6  C   UNL     1      -0.831   5.468   2.600  1.00  0.00     0.064 C 
ATOM      7  O   UNL     1      -1.488   5.035   1.615  1.00  0.00    -0.545 OA
ATOM      8  O   UNL     1       0.367   4.856   2.942  1.00  0.00    -0.545 OA
ENDBRANCH   5   6
ENDBRANCH   3   4
ENDBRANCH   2   3
ENDBRANCH   1   2
BRANCH   1   9
ATOM      9  C   UNL     1       2.125   9.900   4.093  1.00  0.00     0.000 C 
BRANCH   9  10
ATOM     10  C   UNL     1       2.097   9.083   5.396  1.00  0.00     0.000 C 
BRANCH  10  11
ATOM     11  C   UNL     1       2.065   7.566   5.142  1.00  0.00    -0.000 C 
BRANCH  11  12
ATOM     12  C   UNL     1       1.120   6.827   6.103  1.00  0.00    -0.000 C 
BRANCH  12  13
ATOM     13  C   UNL     1       0.370   7.780   7.046  1.00  0.00    -0.003 C 
ATOM     14  C   UNL     1      -1.118   7.445   7.095  1.00  0.00     0.004 C 
ENDBRANCH  12  13
ENDBRANCH  11  12
ENDBRANCH  10  11
ENDBRANCH   9  10
ENDBRANCH   1   9
TORSDOF 9
ENDMDL
MODEL 2
REMARK VINA RESULT:    -3.347      2.783      4.997
REMARK INTER + INTRA:          -6.831
REMARK INTER:                  -5.573
REMARK INTRA:                  -1.258
REMARK UNBOUND:                -1.723
REMARK SMILES CCCCCCCCCC=CC(=O)[O-]
REMARK SMILES IDX 7 1 8 2 9 3 10 4 11 5 12 6 13 7 14 8 6 9 5 10 4 11 3 12 2 13
REMARK SMILES IDX 1 14
REMARK H PARENT
REMARK Flexibility Score: inf
ROOT
ATOM      1  C   UNL     1      -1.554   7.827   7.384  1.00  0.00     0.000 C 
ENDROOT
BRANCH   1   2
ATOM      2  C   UNL     1      -0.034   8.038   7.462  1.00  0.00     0.004 C 
BRANCH   2   3
ATOM      3  C   UNL     1       0.759   6.873   6.847  1.00  0.00     0.027 C 
BRANCH   3   4
ATOM      4  C   UNL     1       1.967   7.372   6.108  1.00  0.00    -0.025 C 
ATOM      5  C   UNL     1       2.073   8.649   5.722  1.00  0.00     0.020 C 
BRANCH   5   6
ATOM      6  C   UNL     1       3.241   9.157   4.985  1.00  0.00     0.064 C 
ATOM      7  O   UNL     1       3.102   9.912   3.985  1.00  0.00    -0.545 OA
ATOM      8  O   UNL     1       4.517   8.798   5.397  1.00  0.00    -0.545 OA
ENDBRANCH   5   6
ENDBRANCH   3   4
ENDBRANCH   2   3
ENDBRANCH   1   2
BRANCH   1   9
ATOM      9  C   UNL     1      -2.165   8.401   6.093  1.00  0.00     0.000 C 
BRANCH   9  10
ATOM     10  C   UNL     1      -2.496   7.310   5.062  1.00  0.00     0.000 C 
BRANCH  10  11
ATOM     11  C   UNL     1      -2.110   7.715   3.628  1.00  0.00    -0.000 C 
BRANCH  11  12
ATOM     12  C   UNL     1      -0.619   7.490   3.332  1.00  0.00    -0.000 C 
BRANCH  12  13
ATOM     13  C   UNL     1      -0.213   6.011   3.424  1.00  0.00    -0.003 C 
ATOM     14  C   UNL     1      -0.876   5.191   2.320  1.00  0.00     0.004 C 
ENDBRANCH  12  13
ENDBRANCH  11  12
ENDBRANCH  10  11
ENDBRANCH   9  10
ENDBRANCH   1   9
TORSDOF 9
ENDMDL
MODEL 3
REMARK VINA RESULT:    -3.292     15.263     16.526
REMARK INTER + INTRA:          -6.747
REMARK INTER:                  -5.741
REMARK INTRA:                  -1.006
REMARK UNBOUND:                -1.723
REMARK SMILES CCCCCCCCCC=CC(=O)[O-]
REMARK SMILES IDX 7 1 8 2 9 3 10 4 11 5 12 6 13 7 14 8 6 9 5 10 4 11 3 12 2 13
REMARK SMILES IDX 1 14
REMARK H PARENT
REMARK Flexibility Score: inf
ROOT
ATOM      1  C   UNL     1       8.356  -0.048  -7.200  1.00  0.00     0.000 C 
ENDROOT
BRANCH   1   2
ATOM      2  C   UNL     1       6.914   0.309  -7.595  1.00  0.00     0.004 C 
BRANCH   2   3
ATOM      3  C   UNL     1       6.215  -0.820  -8.369  1.00  0.00     0.027 C 
BRANCH   3   4
ATOM      4  C   UNL     1       4.765  -0.502  -8.596  1.00  0.00    -0.025 C 
ATOM      5  C   UNL     1       3.793  -1.271  -8.091  1.00  0.00     0.020 C 
BRANCH   5   6
ATOM      6  C   UNL     1       2.366  -0.987  -8.311  1.00  0.00     0.064 C 
ATOM      7  O   UNL     1       1.917  -0.771  -9.469  1.00  0.00    -0.545 OA
ATOM      8  O   UNL     1       1.501  -0.956  -7.227  1.00  0.00    -0.545 OA
ENDBRANCH   5   6
ENDBRANCH   3   4
ENDBRANCH   2   3
ENDBRANCH   1   2
BRANCH   1   9
ATOM      9  C   UNL     1       9.122   1.151  -6.614  1.00  0.00     0.000 C 
BRANCH   9  10
ATOM     10  C   UNL     1       9.608   2.128  -7.697  1.00  0.00     0.000 C 
BRANCH  10  11
ATOM     11  C   UNL     1      10.262   1.409  -8.891  1.00  0.00    -0.000 C 
BRANCH  11  12
ATOM     12  C   UNL     1       9.776   1.952 -10.244  1.00  0.00    -0.000 C 
BRANCH  12  13
ATOM     13  C   UNL     1       8.533   1.216 -10.768  1.00  0.00    -0.003 C 
ATOM     14  C   UNL     1       7.308   2.125 -10.747  1.00  0.00     0.004 C 
ENDBRANCH  12  13
ENDBRANCH  11  12
ENDBRANCH  10  11
ENDBRANCH   9  10
ENDBRANCH   1   9
TORSDOF 9
ENDMDL
MODEL 4
REMARK VINA RESULT:    -3.281     15.409     16.631
REMARK INTER + INTRA:          -6.729
REMARK INTER:                  -5.558
REMARK INTRA:                  -1.172
REMARK UNBOUND:                -1.723
REMARK SMILES CCCCCCCCCC=CC(=O)[O-]
REMARK SMILES IDX 7 1 8 2 9 3 10 4 11 5 12 6 13 7 14 8 6 9 5 10 4 11 3 12 2 13
REMARK SMILES IDX 1 14
REMARK H PARENT
REMARK Flexibility Score: inf
ROOT
ATOM      1  C   UNL     1       8.634  -0.086  -6.872  1.00  0.00     0.000 C 
ENDROOT
BRANCH   1   2
ATOM      2  C   UNL     1       7.265   0.271  -7.471  1.00  0.00     0.004 C 
BRANCH   2   3
ATOM      3  C   UNL     1       6.606  -0.916  -8.194  1.00  0.00     0.027 C 
BRANCH   3   4
ATOM      4  C   UNL     1       5.234  -0.554  -8.687  1.00  0.00    -0.025 C 
ATOM      5  C   UNL     1       4.810   0.714  -8.707  1.00  0.00     0.020 C 
BRANCH   5   6
ATOM      6  C   UNL     1       3.466   1.090  -9.173  1.00  0.00     0.064 C 
ATOM      7  O   UNL     1       3.277   2.149  -9.830  1.00  0.00    -0.545 OA
ATOM      8  O   UNL     1       2.388   0.265  -8.883  1.00  0.00    -0.545 OA
ENDBRANCH   5   6
ENDBRANCH   3   4
ENDBRANCH   2   3
ENDBRANCH   1   2
BRANCH   1   9
ATOM      9  C   UNL     1       9.487   1.158  -6.565  1.00  0.00     0.000 C 
BRANCH   9  10
ATOM     10  C   UNL     1       9.538   2.144  -7.743  1.00  0.00     0.000 C 
BRANCH  10  11
ATOM     11  C   UNL     1      10.461   1.663  -8.877  1.00  0.00    -0.000 C 
BRANCH  11  12
ATOM     12  C   UNL     1       9.910   2.003 -10.271  1.00  0.00    -0.000 C 
BRANCH  12  13
ATOM     13  C   UNL     1       8.665   1.179 -10.634  1.00  0.00    -0.003 C 
ATOM     14  C   UNL     1       7.452   2.081 -10.844  1.00  0.00     0.004 C 
ENDBRANCH  12  13
ENDBRANCH  11  12
ENDBRANCH  10  11
ENDBRANCH   9  10
ENDBRANCH   1   9
TORSDOF 9
ENDMDL
MODEL 5
REMARK VINA RESULT:    -3.214     15.100     15.880
REMARK INTER + INTRA:          -6.628
REMARK INTER:                  -6.104
REMARK INTRA:                  -0.524
REMARK UNBOUND:                -1.723
REMARK SMILES CCCCCCCCCC=CC(=O)[O-]
REMARK SMILES IDX 7 1 8 2 9 3 10 4 11 5 12 6 13 7 14 8 6 9 5 10 4 11 3 12 2 13
REMARK SMILES IDX 1 14
REMARK H PARENT
REMARK Flexibility Score: inf
ROOT
ATOM      1  C   UNL     1       7.201   0.533  -7.617  1.00  0.00     0.000 C 
ENDROOT
BRANCH   1   2
ATOM      2  C   UNL     1       5.908   0.129  -8.344  1.00  0.00     0.004 C 
BRANCH   2   3
ATOM      3  C   UNL     1       5.696  -1.393  -8.375  1.00  0.00     0.027 C 
BRANCH   3   4
ATOM      4  C   UNL     1       4.292  -1.752  -7.981  1.00  0.00    -0.025 C 
ATOM      5  C   UNL     1       3.236  -1.118  -8.502  1.00  0.00     0.020 C 
BRANCH   5   6
ATOM      6  C   UNL     1       1.852  -1.443  -8.120  1.00  0.00     0.064 C 
ATOM      7  O   UNL     1       1.260  -0.801  -7.211  1.00  0.00    -0.545 OA
ATOM      8  O   UNL     1       1.189  -2.474  -8.771  1.00  0.00    -0.545 OA
ENDBRANCH   5   6
ENDBRANCH   3   4
ENDBRANCH   2   3
ENDBRANCH   1   2
BRANCH   1   9
ATOM      9  C   UNL     1       8.146  -0.659  -7.388  1.00  0.00     0.000 C 
BRANCH   9  10
ATOM     10  C   UNL     1       9.309  -0.318  -6.441  1.00  0.00     0.000 C 
BRANCH  10  11
ATOM     11  C   UNL     1       9.375   1.183  -6.104  1.00  0.00    -0.000 C 
BRANCH  11  12
ATOM     12  C   UNL     1      10.639   1.856  -6.661  1.00  0.00    -0.000 C 
BRANCH  12  13
ATOM     13  C   UNL     1      10.344   3.206  -7.335  1.00  0.00    -0.003 C 
ATOM     14  C   UNL     1      11.095   4.340  -6.643  1.00  0.00     0.004 C 
ENDBRANCH  12  13
ENDBRANCH  11  12
ENDBRANCH  10  11
ENDBRANCH   9  10
ENDBRANCH   1   9
TORSDOF 9
ENDMDL
MODEL 6
REMARK VINA RESULT:    -3.189     15.698     17.152
REMARK INTER + INTRA:          -6.589
REMARK INTER:                  -5.417
REMARK INTRA:                  -1.172
REMARK UNBOUND:                -1.723
REMARK SMILES CCCCCCCCCC=CC(=O)[O-]
REMARK SMILES IDX 7 1 8 2 9 3 10 4 11 5 12 6 13 7 14 8 6 9 5 10 4 11 3 12 2 13
REMARK SMILES IDX 1 14
REMARK H PARENT
REMARK Flexibility Score: inf
ROOT
ATOM      1  C   UNL     1       8.126   1.786  -9.587  1.00  0.00     0.000 C 
ENDROOT
BRANCH   1   2
ATOM      2  C   UNL     1       7.350   0.484  -9.331  1.00  0.00     0.004 C 
BRANCH   2   3
ATOM      3  C   UNL     1       6.988   0.291  -7.850  1.00  0.00     0.027 C 
BRANCH   3   4
ATOM      4  C   UNL     1       8.199   0.437  -6.974  1.00  0.00    -0.025 C 
ATOM      5  C   UNL     1       9.075  -0.563  -6.819  1.00  0.00     0.020 C 
BRANCH   5   6
ATOM      6  C   UNL     1      10.260  -0.447  -5.955  1.00  0.00     0.064 C 
ATOM      7  O   UNL     1      10.260   0.311  -4.948  1.00  0.00    -0.545 OA
ATOM      8  O   UNL     1      11.398  -1.184  -6.255  1.00  0.00    -0.545 OA
ENDBRANCH   5   6
ENDBRANCH   3   4
ENDBRANCH   2   3
ENDBRANCH   1   2
BRANCH   1   9
ATOM      9  C   UNL     1       8.985   1.721 -10.862  1.00  0.00     0.000 C 
BRANCH   9  10
ATOM     10  C   UNL     1      10.471   2.005 -10.588  1.00  0.00     0.000 C 
BRANCH  10  11
ATOM     11  C   UNL     1      10.883   1.659  -9.146  1.00  0.00    -0.000 C 
BRANCH  11  12
ATOM     12  C   UNL     1      11.448   2.870  -8.388  1.00  0.00    -0.000 C 
BRANCH  12  13
ATOM     13  C   UNL     1      10.573   3.282  -7.194  1.00  0.00    -0.003 C 
ATOM     14  C   UNL     1      11.080   4.576  -6.563  1.00  0.00     0.004 C 
ENDBRANCH  12  13
ENDBRANCH  11  12
ENDBRANCH  10  11
ENDBRANCH   9  10
ENDBRANCH   1   9
TORSDOF 9
ENDMDL
MODEL 7
REMARK VINA RESULT:    -3.183     15.744     17.392
REMARK INTER + INTRA:          -6.581
REMARK INTER:                  -5.392
REMARK INTRA:                  -1.189
REMARK UNBOUND:                -1.723
REMARK SMILES CCCCCCCCCC=CC(=O)[O-]
REMARK SMILES IDX 7 1 8 2 9 3 10 4 11 5 12 6 13 7 14 8 6 9 5 10 4 11 3 12 2 13
REMARK SMILES IDX 1 14
REMARK H PARENT
REMARK Flexibility Score: inf
ROOT
ATOM      1  C   UNL     1      10.970   2.993  -7.778  1.00  0.00     0.000 C 
ENDROOT
BRANCH   1   2
ATOM      2  C   UNL     1       9.556   2.397  -7.675  1.00  0.00     0.004 C 
BRANCH   2   3
ATOM      3  C   UNL     1       9.429   1.363  -6.545  1.00  0.00     0.027 C 
BRANCH   3   4
ATOM      4  C   UNL     1       8.554   0.215  -6.959  1.00  0.00    -0.025 C 
ATOM      5  C   UNL     1       7.376   0.415  -7.561  1.00  0.00     0.020 C 
BRANCH   5   6
ATOM      6  C   UNL     1       6.496  -0.694  -7.962  1.00  0.00     0.064 C 
ATOM      7  O   UNL     1       5.324  -0.479  -8.371  1.00  0.00    -0.545 OA
ATOM      8  O   UNL     1       6.966  -1.998  -7.889  1.00  0.00    -0.545 OA
ENDBRANCH   5   6
ENDBRANCH   3   4
ENDBRANCH   2   3
ENDBRANCH   1   2
BRANCH   1   9
ATOM      9  C   UNL     1      11.646   2.679  -9.124  1.00  0.00     0.000 C 
BRANCH   9  10
ATOM     10  C   UNL     1      10.828   1.699  -9.982  1.00  0.00     0.000 C 
BRANCH  10  11
ATOM     11  C   UNL     1      10.658   2.184 -11.433  1.00  0.00    -0.000 C 
BRANCH  11  12
ATOM     12  C   UNL     1       9.189   2.449 -11.797  1.00  0.00    -0.000 C 
BRANCH  12  13
ATOM     13  C   UNL     1       8.217   1.510 -11.066  1.00  0.00    -0.003 C 
ATOM     14  C   UNL     1       6.924   2.233 -10.703  1.00  0.00     0.004 C 
ENDBRANCH  12  13
ENDBRANCH  11  12
ENDBRANCH  10  11
ENDBRANCH   9  10
ENDBRANCH   1   9
TORSDOF 9
ENDMDL
MODEL 8
REMARK VINA RESULT:    -3.177     15.702     16.993
REMARK INTER + INTRA:          -6.571
REMARK INTER:                  -5.372
REMARK INTRA:                  -1.199
REMARK UNBOUND:                -1.723
REMARK SMILES CCCCCCCCCC=CC(=O)[O-]
REMARK SMILES IDX 7 1 8 2 9 3 10 4 11 5 12 6 13 7 14 8 6 9 5 10 4 11 3 12 2 13
REMARK SMILES IDX 1 14
REMARK H PARENT
REMARK Flexibility Score: inf
ROOT
ATOM      1  C   UNL     1      10.726   2.380  -6.135  1.00  0.00     0.000 C 
ENDROOT
BRANCH   1   2
ATOM      2  C   UNL     1      10.616   3.134  -7.471  1.00  0.00     0.004 C 
BRANCH   2   3
ATOM      3  C   UNL     1      11.395   2.448  -8.604  1.00  0.00     0.027 C 
BRANCH   3   4
ATOM      4  C   UNL     1      10.471   1.992  -9.697  1.00  0.00    -0.025 C 
ATOM      5  C   UNL     1       9.141   2.051  -9.558  1.00  0.00     0.020 C 
BRANCH   5   6
ATOM      6  C   UNL     1       8.217   1.598 -10.609  1.00  0.00     0.064 C 
ATOM      7  O   UNL     1       8.419   0.522 -11.233  1.00  0.00    -0.545 OA
ATOM      8  O   UNL     1       7.104   2.368 -10.918  1.00  0.00    -0.545 OA
ENDBRANCH   5   6
ENDBRANCH   3   4
ENDBRANCH   2   3
ENDBRANCH   1   2
BRANCH   1   9
ATOM      9  C   UNL     1       9.542   1.428  -5.896  1.00  0.00     0.000 C 
BRANCH   9  10
ATOM     10  C   UNL     1       9.908  -0.044  -6.149  1.00  0.00     0.000 C 
BRANCH  10  11
ATOM     11  C   UNL     1       8.791  -0.815  -6.876  1.00  0.00    -0.000 C 
BRANCH  11  12
ATOM     12  C   UNL     1       7.605   0.085  -7.256  1.00  0.00    -0.000 C 
BRANCH  12  13
ATOM     13  C   UNL     1       6.490  -0.680  -7.986  1.00  0.00    -0.003 C 
ATOM     14  C   UNL     1       5.427   0.276  -8.519  1.00  0.00     0.004 C 
ENDBRANCH  12  13
ENDBRANCH  11  12
ENDBRANCH  10  11
ENDBRANCH   9  10
ENDBRANCH   1   9
TORSDOF 9
ENDMDL
MODEL 9
REMARK VINA RESULT:    -3.131     15.354     16.672
REMARK INTER + INTRA:          -6.501
REMARK INTER:                  -5.256
REMARK INTRA:                  -1.244
REMARK UNBOUND:                -1.723
REMARK SMILES CCCCCCCCCC=CC(=O)[O-]
REMARK SMILES IDX 7 1 8 2 9 3 10 4 11 5 12 6 13 7 14 8 6 9 5 10 4 11 3 12 2 13
REMARK SMILES IDX 1 14
REMARK H PARENT
REMARK Flexibility Score: inf
ROOT
ATOM      1  C   UNL     1       9.912  -0.191  -6.101  1.00  0.00     0.000 C 
ENDROOT
BRANCH   1   2
ATOM      2  C   UNL     1       8.731  -0.768  -6.898  1.00  0.00     0.004 C 
BRANCH   2   3
ATOM      3  C   UNL     1       7.678   0.295  -7.251  1.00  0.00     0.027 C 
BRANCH   3   4
ATOM      4  C   UNL     1       6.542  -0.306  -8.028  1.00  0.00    -0.025 C 
ATOM      5  C   UNL     1       5.522   0.441  -8.465  1.00  0.00     0.020 C 
BRANCH   5   6
ATOM      6  C   UNL     1       4.392  -0.128  -9.216  1.00  0.00     0.064 C 
ATOM      7  O   UNL     1       3.202   0.072  -8.852  1.00  0.00    -0.545 OA
ATOM      8  O   UNL     1       4.641  -0.899 -10.343  1.00  0.00    -0.545 OA
ENDBRANCH   5   6
ENDBRANCH   3   4
ENDBRANCH   2   3
ENDBRANCH   1   2
BRANCH   1   9
ATOM      9  C   UNL     1       9.710   1.289  -5.735  1.00  0.00     0.000 C 
BRANCH   9  10
ATOM     10  C   UNL     1      10.787   2.201  -6.346  1.00  0.00     0.000 C 
BRANCH  10  11
ATOM     11  C   UNL     1      10.284   2.959  -7.588  1.00  0.00    -0.000 C 
BRANCH  11  12
ATOM     12  C   UNL     1      10.843   2.381  -8.898  1.00  0.00    -0.000 C 
BRANCH  12  13
ATOM     13  C   UNL     1       9.740   1.884  -9.845  1.00  0.00    -0.003 C 
ATOM     14  C   UNL     1       9.944   0.414 -10.201  1.00  0.00     0.004 C 
ENDBRANCH  12  13
ENDBRANCH  11  12
ENDBRANCH  10  11
ENDBRANCH   9  10
ENDBRANCH   1   9
TORSDOF 9
ENDMDL
