MODEL 1
REMARK VINA RESULT:    -3.796      0.000      0.000
REMARK INTER + INTRA:          -5.110
REMARK INTER:                  -4.462
REMARK INTRA:                  -0.648
REMARK UNBOUND:                -0.648
REMARK SMILES C=C(C)[C@H]1CC[C@@]2(CO)CC[C@@]3(C)[C@@H](CC[C@H]4[C@@]5(C)CC[C@H](O)C(C)(C)[C@@H]5CC[C@@]43C)[C@H]12
REMARK SMILES IDX 4 1 5 2 6 3 7 4 32 5 14 6 15 7 16 8 17 9 18 10 20 11 21 12
REMARK SMILES IDX 22 13 24 14 27 15 28 16 29 17 30 18 12 19 11 20 10 21 13 22
REMARK SMILES IDX 31 23 25 24 26 25 19 26 2 27 3 28 1 29 8 30 9 31 23 33
REMARK H PARENT 9 32 23 34
REMARK Flexibility Score: inf
ROOT
ATOM      1  C   UNL     1       0.281 -32.327 -10.712  1.00  0.00     0.018 C 
ATOM      2  C   UNL     1       0.470 -32.923  -9.295  1.00  0.00     0.009 C 
ATOM      3  C   UNL     1       0.298 -34.446  -9.431  1.00  0.00     0.010 C 
ATOM      4  C   UNL     1       0.555 -34.736 -10.916  1.00  0.00    -0.003 C 
ATOM      5  C   UNL     1      -0.155 -33.532 -11.567  1.00  0.00     0.008 C 
ATOM      6  C   UNL     1       0.046 -33.523 -13.104  1.00  0.00    -0.000 C 
ATOM      7  C   UNL     1      -0.479 -32.251 -13.794  1.00  0.00     0.005 C 
ATOM      8  C   UNL     1      -0.158 -32.251 -15.300  1.00  0.00     0.005 C 
ATOM      9  C   UNL     1      -0.655 -33.533 -16.025  1.00  0.00     0.002 C 
ATOM     10  C   UNL     1      -0.622 -33.507 -17.644  1.00  0.00    -0.026 C 
ATOM     11  C   UNL     1       0.172 -32.275 -18.190  1.00  0.00     0.010 C 
ATOM     12  C   UNL     1       0.362 -32.265 -19.717  1.00  0.00     0.033 C 
ATOM     13  C   UNL     1       1.034 -33.554 -20.228  1.00  0.00     0.120 C 
ATOM     14  C   UNL     1       0.279 -34.857 -19.801  1.00  0.00    -0.006 C 
ATOM     15  C   UNL     1       0.063 -34.804 -18.230  1.00  0.00     0.003 C 
ATOM     16  C   UNL     1      -0.455 -36.125 -17.596  1.00  0.00     0.005 C 
ATOM     17  C   UNL     1      -0.794 -36.036 -16.091  1.00  0.00     0.008 C 
ATOM     18  C   UNL     1      -0.129 -34.849 -15.324  1.00  0.00    -0.024 C 
ATOM     19  C   UNL     1      -0.557 -34.841 -13.761  1.00  0.00    -0.024 C 
ATOM     20  C   UNL     1      -0.036 -36.125 -12.995  1.00  0.00     0.008 C 
ATOM     21  C   UNL     1      -0.103 -36.033 -11.442  1.00  0.00     0.010 C 
ATOM     22  C   UNL     1      -2.125 -34.883 -13.585  1.00  0.00     0.012 C 
ATOM     23  C   UNL     1       1.440 -34.961 -15.450  1.00  0.00     0.012 C 
ATOM     24  C   UNL     1      -1.030 -35.047 -20.626  1.00  0.00     0.014 C 
ATOM     25  C   UNL     1       1.207 -36.057 -20.144  1.00  0.00     0.014 C 
ATOM     26  C   UNL     1      -2.102 -33.388 -18.121  1.00  0.00     0.012 C 
ENDROOT
BRANCH   1  27
ATOM     27  C   UNL     1      -0.716 -31.170 -10.707  1.00  0.00    -0.077 C 
ATOM     28  C   UNL     1      -0.301 -29.766 -11.078  1.00  0.00     0.039 C 
ATOM     29  C   UNL     1      -2.007 -31.398 -10.418  1.00  0.00     0.008 C 
ENDBRANCH   1  27
BRANCH   4  30
ATOM     30  C   UNL     1       2.108 -34.788 -11.149  1.00  0.00     0.163 C 
BRANCH  30  31
ATOM     31  O   UNL     1       2.748 -35.461 -10.094  1.00  0.00    -0.396 OA
ATOM     32  H   UNL     1       3.727 -35.357 -10.224  1.00  0.00     0.210 HD
ENDBRANCH  30  31
ENDBRANCH   4  30
BRANCH  13  33
ATOM     33  O   UNL     1       1.244 -33.497 -21.620  1.00  0.00    -0.393 OA
ATOM     34  H   UNL     1       1.236 -34.423 -21.976  1.00  0.00     0.210 HD
ENDBRANCH  13  33
TORSDOF 4
ENDMDL
MODEL 2
REMARK VINA RESULT:    -3.582      2.696      9.495
REMARK INTER + INTRA:          -4.859
REMARK INTER:                  -4.572
REMARK INTRA:                  -0.286
REMARK UNBOUND:                -0.648
REMARK SMILES C=C(C)[C@H]1CC[C@@]2(CO)CC[C@@]3(C)[C@@H](CC[C@H]4[C@@]5(C)CC[C@H](O)C(C)(C)[C@@H]5CC[C@@]43C)[C@H]12
REMARK SMILES IDX 4 1 5 2 6 3 7 4 32 5 14 6 15 7 16 8 17 9 18 10 20 11 21 12
REMARK SMILES IDX 22 13 24 14 27 15 28 16 29 17 30 18 12 19 11 20 10 21 13 22
REMARK SMILES IDX 31 23 25 24 26 25 19 26 2 27 3 28 1 29 8 30 9 31 23 33
REMARK H PARENT 9 32 23 34
REMARK Flexibility Score: inf
ROOT
ATOM      1  C   UNL     1       2.503 -33.775 -23.669  1.00  0.00     0.018 C 
ATOM      2  C   UNL     1       2.190 -33.285 -25.104  1.00  0.00     0.009 C 
ATOM      3  C   UNL     1       0.699 -32.903 -25.125  1.00  0.00     0.010 C 
ATOM      4  C   UNL     1       0.338 -32.662 -23.652  1.00  0.00    -0.003 C 
ATOM      5  C   UNL     1       1.126 -33.803 -22.978  1.00  0.00     0.008 C 
ATOM      6  C   UNL     1       1.017 -33.727 -21.433  1.00  0.00    -0.000 C 
ATOM      7  C   UNL     1       1.927 -34.724 -20.694  1.00  0.00     0.005 C 
ATOM      8  C   UNL     1       1.856 -34.530 -19.168  1.00  0.00     0.005 C 
ATOM      9  C   UNL     1       0.403 -34.579 -18.619  1.00  0.00     0.002 C 
ATOM     10  C   UNL     1       0.240 -34.670 -17.010  1.00  0.00    -0.026 C 
ATOM     11  C   UNL     1       1.596 -34.416 -16.273  1.00  0.00     0.010 C 
ATOM     12  C   UNL     1       1.485 -34.350 -14.740  1.00  0.00     0.033 C 
ATOM     13  C   UNL     1       0.463 -33.295 -14.275  1.00  0.00     0.120 C 
ATOM     14  C   UNL     1      -0.961 -33.495 -14.897  1.00  0.00    -0.006 C 
ATOM     15  C   UNL     1      -0.794 -33.606 -16.471  1.00  0.00     0.003 C 
ATOM     16  C   UNL     1      -2.125 -33.565 -17.274  1.00  0.00     0.005 C 
ATOM     17  C   UNL     1      -1.978 -33.807 -18.792  1.00  0.00     0.008 C 
ATOM     18  C   UNL     1      -0.547 -33.565 -19.373  1.00  0.00    -0.024 C 
ATOM     19  C   UNL     1      -0.499 -33.857 -20.967  1.00  0.00    -0.024 C 
ATOM     20  C   UNL     1      -1.413 -32.854 -21.783  1.00  0.00     0.008 C 
ATOM     21  C   UNL     1      -1.161 -32.842 -23.319  1.00  0.00     0.010 C 
ATOM     22  C   UNL     1      -1.068 -35.287 -21.315  1.00  0.00     0.012 C 
ATOM     23  C   UNL     1      -0.115 -32.075 -19.087  1.00  0.00     0.012 C 
ATOM     24  C   UNL     1      -1.699 -34.701 -14.241  1.00  0.00     0.014 C 
ATOM     25  C   UNL     1      -1.790 -32.222 -14.564  1.00  0.00     0.014 C 
ATOM     26  C   UNL     1      -0.229 -36.123 -16.689  1.00  0.00     0.012 C 
ENDROOT
BRANCH   1  27
ATOM     27  C   UNL     1       3.226 -35.120 -23.679  1.00  0.00    -0.077 C 
ATOM     28  C   UNL     1       4.406 -35.390 -22.775  1.00  0.00     0.039 C 
ATOM     29  C   UNL     1       2.785 -36.113 -24.466  1.00  0.00     0.008 C 
ENDBRANCH   1  27
BRANCH   4  30
ATOM     30  C   UNL     1       0.808 -31.216 -23.257  1.00  0.00     0.163 C 
BRANCH  30  31
ATOM     31  O   UNL     1       0.942 -30.406 -24.398  1.00  0.00    -0.396 OA
ATOM     32  H   UNL     1       0.331 -29.631 -24.287  1.00  0.00     0.210 HD
ENDBRANCH  30  31
ENDBRANCH   4  30
BRANCH  13  33
ATOM     33  O   UNL     1       0.418 -33.217 -12.870  1.00  0.00    -0.393 OA
ATOM     34  H   UNL     1       1.329 -33.003 -12.538  1.00  0.00     0.210 HD
ENDBRANCH  13  33
TORSDOF 4
ENDMDL
MODEL 3
REMARK VINA RESULT:    -3.258      7.120     11.928
REMARK INTER + INTRA:          -4.478
REMARK INTER:                  -4.956
REMARK INTRA:                   0.478
REMARK UNBOUND:                -0.648
REMARK SMILES C=C(C)[C@H]1CC[C@@]2(CO)CC[C@@]3(C)[C@@H](CC[C@H]4[C@@]5(C)CC[C@H](O)C(C)(C)[C@@H]5CC[C@@]43C)[C@H]12
REMARK SMILES IDX 4 1 5 2 6 3 7 4 32 5 14 6 15 7 16 8 17 9 18 10 20 11 21 12
REMARK SMILES IDX 22 13 24 14 27 15 28 16 29 17 30 18 12 19 11 20 10 21 13 22
REMARK SMILES IDX 31 23 25 24 26 25 19 26 2 27 3 28 1 29 8 30 9 31 23 33
REMARK H PARENT 9 32 23 34
REMARK Flexibility Score: inf
ROOT
ATOM      1  C   UNL     1      -1.958 -29.108 -10.567  1.00  0.00     0.018 C 
ATOM      2  C   UNL     1      -1.786 -30.407  -9.742  1.00  0.00     0.009 C 
ATOM      3  C   UNL     1      -0.803 -30.081  -8.604  1.00  0.00     0.010 C 
ATOM      4  C   UNL     1      -0.858 -28.552  -8.468  1.00  0.00    -0.003 C 
ATOM      5  C   UNL     1      -0.930 -28.139  -9.952  1.00  0.00     0.008 C 
ATOM      6  C   UNL     1      -1.103 -26.606 -10.101  1.00  0.00    -0.000 C 
ATOM      7  C   UNL     1      -1.366 -26.146 -11.546  1.00  0.00     0.005 C 
ATOM      8  C   UNL     1      -1.635 -24.631 -11.618  1.00  0.00     0.005 C 
ATOM      9  C   UNL     1      -0.514 -23.786 -10.952  1.00  0.00     0.002 C 
ATOM     10  C   UNL     1      -0.557 -22.189 -11.220  1.00  0.00    -0.026 C 
ATOM     11  C   UNL     1      -1.899 -21.747 -11.891  1.00  0.00     0.010 C 
ATOM     12  C   UNL     1      -2.063 -20.225 -12.046  1.00  0.00     0.033 C 
ATOM     13  C   UNL     1      -1.913 -19.485 -10.703  1.00  0.00     0.120 C 
ATOM     14  C   UNL     1      -0.565 -19.796  -9.971  1.00  0.00    -0.006 C 
ATOM     15  C   UNL     1      -0.413 -21.372  -9.876  1.00  0.00     0.003 C 
ATOM     16  C   UNL     1       0.748 -21.864  -8.967  1.00  0.00     0.005 C 
ATOM     17  C   UNL     1       0.982 -23.390  -8.978  1.00  0.00     0.008 C 
ATOM     18  C   UNL     1      -0.227 -24.250  -9.468  1.00  0.00    -0.024 C 
ATOM     19  C   UNL     1       0.126 -25.832  -9.452  1.00  0.00    -0.024 C 
ATOM     20  C   UNL     1       0.400 -26.365  -7.986  1.00  0.00     0.008 C 
ATOM     21  C   UNL     1       0.406 -27.916  -7.845  1.00  0.00     0.010 C 
ATOM     22  C   UNL     1       1.458 -26.140 -10.242  1.00  0.00     0.012 C 
ATOM     23  C   UNL     1      -1.474 -23.969  -8.543  1.00  0.00     0.012 C 
ATOM     24  C   UNL     1       0.632 -19.074 -10.661  1.00  0.00     0.014 C 
ATOM     25  C   UNL     1      -0.677 -19.210  -8.534  1.00  0.00     0.014 C 
ATOM     26  C   UNL     1       0.612 -21.867 -12.201  1.00  0.00     0.012 C 
ENDROOT
BRANCH   1  27
ATOM     27  C   UNL     1      -1.764 -29.360 -12.060  1.00  0.00    -0.077 C 
ATOM     28  C   UNL     1      -1.250 -30.682 -12.580  1.00  0.00     0.039 C 
ATOM     29  C   UNL     1      -2.099 -28.413 -12.950  1.00  0.00     0.008 C 
ENDBRANCH   1  27
BRANCH   4  30
ATOM     30  C   UNL     1      -2.125 -28.176  -7.618  1.00  0.00     0.163 C 
BRANCH  30  31
ATOM     31  O   UNL     1      -1.804 -28.099  -6.252  1.00  0.00    -0.396 OA
ATOM     32  H   UNL     1      -1.700 -29.028  -5.917  1.00  0.00     0.210 HD
ENDBRANCH  30  31
ENDBRANCH   4  30
BRANCH  13  33
ATOM     33  O   UNL     1      -2.120 -18.100 -10.863  1.00  0.00    -0.393 OA
ATOM     34  H   UNL     1      -1.241 -17.668 -11.019  1.00  0.00     0.210 HD
ENDBRANCH  13  33
TORSDOF 4
ENDMDL
MODEL 4
REMARK VINA RESULT:    -2.704      3.934      8.509
REMARK INTER + INTRA:          -3.827
REMARK INTER:                  -3.227
REMARK INTRA:                  -0.600
REMARK UNBOUND:                -0.648
REMARK SMILES C=C(C)[C@H]1CC[C@@]2(CO)CC[C@@]3(C)[C@@H](CC[C@H]4[C@@]5(C)CC[C@H](O)C(C)(C)[C@@H]5CC[C@@]43C)[C@H]12
REMARK SMILES IDX 4 1 5 2 6 3 7 4 32 5 14 6 15 7 16 8 17 9 18 10 20 11 21 12
REMARK SMILES IDX 22 13 24 14 27 15 28 16 29 17 30 18 12 19 11 20 10 21 13 22
REMARK SMILES IDX 31 23 25 24 26 25 19 26 2 27 3 28 1 29 8 30 9 31 23 33
REMARK H PARENT 9 32 23 34
REMARK Flexibility Score: inf
ROOT
ATOM      1  C   UNL     1       1.749 -34.817 -10.878  1.00  0.00     0.018 C 
ATOM      2  C   UNL     1       1.305 -36.124 -11.581  1.00  0.00     0.009 C 
ATOM      3  C   UNL     1      -0.148 -35.908 -12.038  1.00  0.00     0.010 C 
ATOM      4  C   UNL     1      -0.318 -34.382 -12.087  1.00  0.00    -0.003 C 
ATOM      5  C   UNL     1       0.464 -33.971 -10.823  1.00  0.00     0.008 C 
ATOM      6  C   UNL     1       0.541 -32.428 -10.686  1.00  0.00    -0.000 C 
ATOM      7  C   UNL     1       1.461 -31.948  -9.549  1.00  0.00     0.005 C 
ATOM      8  C   UNL     1       1.581 -30.413  -9.529  1.00  0.00     0.005 C 
ATOM      9  C   UNL     1       0.202 -29.699  -9.477  1.00  0.00     0.002 C 
ATOM     10  C   UNL     1       0.221 -28.110  -9.168  1.00  0.00    -0.026 C 
ATOM     11  C   UNL     1       1.668 -27.519  -9.246  1.00  0.00     0.010 C 
ATOM     12  C   UNL     1       1.741 -25.989  -9.101  1.00  0.00     0.033 C 
ATOM     13  C   UNL     1       0.853 -25.264 -10.131  1.00  0.00     0.120 C 
ATOM     14  C   UNL     1      -0.643 -25.725 -10.094  1.00  0.00    -0.006 C 
ATOM     15  C   UNL     1      -0.668 -27.308 -10.198  1.00  0.00     0.003 C 
ATOM     16  C   UNL     1      -2.078 -27.926 -10.419  1.00  0.00     0.005 C 
ATOM     17  C   UNL     1      -2.125 -29.469 -10.387  1.00  0.00     0.008 C 
ATOM     18  C   UNL     1      -0.759 -30.187 -10.635  1.00  0.00    -0.024 C 
ATOM     19  C   UNL     1      -0.916 -31.798 -10.569  1.00  0.00    -0.024 C 
ATOM     20  C   UNL     1      -1.849 -32.353 -11.722  1.00  0.00     0.008 C 
ATOM     21  C   UNL     1      -1.777 -33.892 -11.938  1.00  0.00     0.010 C 
ATOM     22  C   UNL     1      -1.618 -32.261  -9.233  1.00  0.00     0.012 C 
ATOM     23  C   UNL     1      -0.196 -29.759 -12.046  1.00  0.00     0.012 C 
ATOM     24  C   UNL     1      -1.379 -25.149  -8.847  1.00  0.00     0.014 C 
ATOM     25  C   UNL     1      -1.339 -25.123 -11.347  1.00  0.00     0.014 C 
ATOM     26  C   UNL     1      -0.305 -27.930  -7.711  1.00  0.00     0.012 C 
ENDROOT
BRANCH   1  27
ATOM     27  C   UNL     1       2.373 -35.098  -9.513  1.00  0.00    -0.077 C 
ATOM     28  C   UNL     1       1.529 -35.216  -8.266  1.00  0.00     0.039 C 
ATOM     29  C   UNL     1       3.696 -35.296  -9.408  1.00  0.00     0.008 C 
ENDBRANCH   1  27
BRANCH   4  30
ATOM     30  C   UNL     1       0.291 -33.858 -13.437  1.00  0.00     0.163 C 
BRANCH  30  31
ATOM     31  O   UNL     1      -0.324 -34.482 -14.536  1.00  0.00    -0.396 OA
ATOM     32  H   UNL     1      -1.151 -34.921 -14.205  1.00  0.00     0.210 HD
ENDBRANCH  30  31
ENDBRANCH   4  30
BRANCH  13  33
ATOM     33  O   UNL     1       0.978 -23.866 -10.011  1.00  0.00    -0.393 OA
ATOM     34  H   UNL     1       1.419 -23.520 -10.830  1.00  0.00     0.210 HD
ENDBRANCH  13  33
TORSDOF 4
ENDMDL
MODEL 5
REMARK VINA RESULT:    -2.030      2.862      9.098
REMARK INTER + INTRA:          -3.034
REMARK INTER:                  -2.836
REMARK INTRA:                  -0.198
REMARK UNBOUND:                -0.648
REMARK SMILES C=C(C)[C@H]1CC[C@@]2(CO)CC[C@@]3(C)[C@@H](CC[C@H]4[C@@]5(C)CC[C@H](O)C(C)(C)[C@@H]5CC[C@@]43C)[C@H]12
REMARK SMILES IDX 4 1 5 2 6 3 7 4 32 5 14 6 15 7 16 8 17 9 18 10 20 11 21 12
REMARK SMILES IDX 22 13 24 14 27 15 28 16 29 17 30 18 12 19 11 20 10 21 13 22
REMARK SMILES IDX 31 23 25 24 26 25 19 26 2 27 3 28 1 29 8 30 9 31 23 33
REMARK H PARENT 9 32 23 34
REMARK Flexibility Score: inf
ROOT
ATOM      1  C   UNL     1      -1.252 -31.755 -23.656  1.00  0.00     0.018 C 
ATOM      2  C   UNL     1      -1.189 -32.294 -25.106  1.00  0.00     0.009 C 
ATOM      3  C   UNL     1      -0.505 -33.671 -25.035  1.00  0.00     0.010 C 
ATOM      4  C   UNL     1      -0.681 -34.119 -23.577  1.00  0.00    -0.003 C 
ATOM      5  C   UNL     1      -0.446 -32.784 -22.841  1.00  0.00     0.008 C 
ATOM      6  C   UNL     1      -0.674 -32.935 -21.315  1.00  0.00    -0.000 C 
ATOM      7  C   UNL     1      -0.637 -31.604 -20.544  1.00  0.00     0.005 C 
ATOM      8  C   UNL     1      -0.975 -31.803 -19.055  1.00  0.00     0.005 C 
ATOM      9  C   UNL     1      -0.082 -32.875 -18.371  1.00  0.00     0.002 C 
ATOM     10  C   UNL     1      -0.161 -32.958 -16.755  1.00  0.00    -0.026 C 
ATOM     11  C   UNL     1      -1.344 -32.109 -16.186  1.00  0.00     0.010 C 
ATOM     12  C   UNL     1      -1.562 -32.255 -14.670  1.00  0.00     0.033 C 
ATOM     13  C   UNL     1      -1.758 -33.724 -14.249  1.00  0.00     0.120 C 
ATOM     14  C   UNL     1      -0.589 -34.661 -14.704  1.00  0.00    -0.006 C 
ATOM     15  C   UNL     1      -0.368 -34.444 -16.260  1.00  0.00     0.003 C 
ATOM     16  C   UNL     1       0.590 -35.466 -16.933  1.00  0.00     0.005 C 
ATOM     17  C   UNL     1       0.912 -35.178 -18.416  1.00  0.00     0.008 C 
ATOM     18  C   UNL     1      -0.104 -34.249 -19.155  1.00  0.00    -0.024 C 
ATOM     19  C   UNL     1       0.332 -34.002 -20.696  1.00  0.00    -0.024 C 
ATOM     20  C   UNL     1       0.305 -35.339 -21.543  1.00  0.00     0.008 C 
ATOM     21  C   UNL     1       0.373 -35.139 -23.085  1.00  0.00     0.010 C 
ATOM     22  C   UNL     1       1.821 -33.491 -20.807  1.00  0.00     0.012 C 
ATOM     23  C   UNL     1      -1.540 -34.901 -19.100  1.00  0.00     0.012 C 
ATOM     24  C   UNL     1       0.685 -34.437 -13.835  1.00  0.00     0.014 C 
ATOM     25  C   UNL     1      -1.053 -36.125 -14.458  1.00  0.00     0.014 C 
ATOM     26  C   UNL     1       1.176 -32.366 -16.211  1.00  0.00     0.012 C 
ENDROOT
BRANCH   1  27
ATOM     27  C   UNL     1      -0.716 -30.327 -23.563  1.00  0.00    -0.077 C 
ATOM     28  C   UNL     1       0.474 -29.875 -24.375  1.00  0.00     0.039 C 
ATOM     29  C   UNL     1      -1.337 -29.427 -22.786  1.00  0.00     0.008 C 
ENDBRANCH   1  27
BRANCH   4  30
ATOM     30  C   UNL     1      -2.125 -34.716 -23.413  1.00  0.00     0.163 C 
BRANCH  30  31
ATOM     31  O   UNL     1      -2.119 -36.104 -23.636  1.00  0.00    -0.396 OA
ATOM     32  H   UNL     1      -2.498 -36.537 -22.827  1.00  0.00     0.210 HD
ENDBRANCH  30  31
ENDBRANCH   4  30
BRANCH  13  33
ATOM     33  O   UNL     1      -2.008 -33.825 -12.866  1.00  0.00    -0.393 OA
ATOM     34  H   UNL     1      -2.431 -34.704 -12.687  1.00  0.00     0.210 HD
ENDBRANCH  13  33
TORSDOF 4
ENDMDL
