MODEL 1
REMARK VINA RESULT:    -4.753      0.000      0.000
REMARK INTER + INTRA:          -9.360
REMARK INTER:                  -7.253
REMARK INTRA:                  -2.107
REMARK UNBOUND:                -2.107
REMARK SMILES CC(=O)CCC=C(C)CCC=C(C)CCC=C(C)C
REMARK SMILES IDX 10 1 11 2 12 3 13 4 14 5 15 6 16 7 18 8 17 9 19 10 9 11 7 12
REMARK SMILES IDX 6 13 8 14 5 15 4 16 2 17 3 18 1 19
REMARK H PARENT
REMARK Flexibility Score: inf
ROOT
ATOM      1  C   UNL     1     -16.454   3.201  29.185  1.00  0.00     0.032 C 
ENDROOT
BRANCH   1   2
ATOM      2  C   UNL     1     -16.501   2.124  30.242  1.00  0.00    -0.028 C 
ATOM      3  C   UNL     1     -16.636   0.796  30.014  1.00  0.00    -0.077 C 
ATOM      4  C   UNL     1     -16.566  -0.135  31.199  1.00  0.00     0.039 C 
BRANCH   3   5
ATOM      5  C   UNL     1     -16.858   0.199  28.634  1.00  0.00     0.034 C 
BRANCH   5   6
ATOM      6  C   UNL     1     -15.678  -0.686  28.194  1.00  0.00     0.032 C 
BRANCH   6   7
ATOM      7  C   UNL     1     -14.411   0.110  27.995  1.00  0.00    -0.028 C 
ATOM      8  C   UNL     1     -12.096   0.821  28.413  1.00  0.00     0.039 C 
ATOM      9  C   UNL     1     -13.302  -0.015  28.757  1.00  0.00    -0.080 C 
ATOM     10  C   UNL     1     -13.248  -0.945  29.946  1.00  0.00     0.039 C 
ENDBRANCH   6   7
ENDBRANCH   5   6
ENDBRANCH   3   5
ENDBRANCH   1   2
BRANCH   1  11
ATOM     11  C   UNL     1     -15.033   3.436  28.661  1.00  0.00     0.034 C 
BRANCH  11  12
ATOM     12  C   UNL     1     -15.051   3.684  27.165  1.00  0.00    -0.077 C 
ATOM     13  C   UNL     1     -14.147   4.472  26.539  1.00  0.00    -0.028 C 
ATOM     14  C   UNL     1     -16.076   2.966  26.327  1.00  0.00     0.039 C 
BRANCH  13  15
ATOM     15  C   UNL     1     -13.072   5.274  27.233  1.00  0.00     0.035 C 
BRANCH  15  16
ATOM     16  C   UNL     1     -12.660   6.501  26.407  1.00  0.00     0.079 C 
BRANCH  16  17
ATOM     17  C   UNL     1     -11.432   6.229  25.579  1.00  0.00     0.130 C 
ATOM     18  O   UNL     1     -11.189   6.927  24.607  1.00  0.00    -0.300 OA
ATOM     19  C   UNL     1     -10.515   5.098  25.933  1.00  0.00     0.087 C 
ENDBRANCH  16  17
ENDBRANCH  15  16
ENDBRANCH  13  15
ENDBRANCH  11  12
ENDBRANCH   1  11
TORSDOF 9
ENDMDL
MODEL 2
REMARK VINA RESULT:    -4.699      3.273      6.688
REMARK INTER + INTRA:          -9.278
REMARK INTER:                  -7.815
REMARK INTRA:                  -1.463
REMARK UNBOUND:                -2.107
REMARK SMILES CC(=O)CCC=C(C)CCC=C(C)CCC=C(C)C
REMARK SMILES IDX 10 1 11 2 12 3 13 4 14 5 15 6 16 7 18 8 17 9 19 10 9 11 7 12
REMARK SMILES IDX 6 13 8 14 5 15 4 16 2 17 3 18 1 19
REMARK H PARENT
REMARK Flexibility Score: inf
ROOT
ATOM      1  C   UNL     1     -15.482   5.230  28.606  1.00  0.00     0.032 C 
ENDROOT
BRANCH   1   2
ATOM      2  C   UNL     1     -16.003   6.491  27.960  1.00  0.00    -0.028 C 
ATOM      3  C   UNL     1     -15.608   6.989  26.764  1.00  0.00    -0.077 C 
ATOM      4  C   UNL     1     -16.317   8.213  26.240  1.00  0.00     0.039 C 
BRANCH   3   5
ATOM      5  C   UNL     1     -14.491   6.385  25.930  1.00  0.00     0.034 C 
BRANCH   5   6
ATOM      6  C   UNL     1     -13.115   6.966  26.304  1.00  0.00     0.032 C 
BRANCH   6   7
ATOM      7  C   UNL     1     -12.062   5.894  26.448  1.00  0.00    -0.028 C 
ATOM      8  C   UNL     1      -9.995   4.671  25.934  1.00  0.00     0.039 C 
ATOM      9  C   UNL     1     -10.984   5.769  25.642  1.00  0.00    -0.080 C 
ATOM     10  C   UNL     1     -10.760   6.677  24.456  1.00  0.00     0.039 C 
ENDBRANCH   6   7
ENDBRANCH   5   6
ENDBRANCH   3   5
ENDBRANCH   1   2
BRANCH   1  11
ATOM     11  C   UNL     1     -16.309   3.998  28.222  1.00  0.00     0.034 C 
BRANCH  11  12
ATOM     12  C   UNL     1     -15.484   3.044  27.380  1.00  0.00    -0.077 C 
ATOM     13  C   UNL     1     -16.023   2.245  26.431  1.00  0.00    -0.028 C 
ATOM     14  C   UNL     1     -13.988   3.034  27.558  1.00  0.00     0.039 C 
BRANCH  13  15
ATOM     15  C   UNL     1     -17.500   2.122  26.141  1.00  0.00     0.035 C 
BRANCH  15  16
ATOM     16  C   UNL     1     -17.885   0.685  25.765  1.00  0.00     0.079 C 
BRANCH  16  17
ATOM     17  C   UNL     1     -17.610   0.396  24.313  1.00  0.00     0.130 C 
ATOM     18  O   UNL     1     -17.518   1.318  23.517  1.00  0.00    -0.300 OA
ATOM     19  C   UNL     1     -17.466  -1.017  23.836  1.00  0.00     0.087 C 
ENDBRANCH  16  17
ENDBRANCH  15  16
ENDBRANCH  13  15
ENDBRANCH  11  12
ENDBRANCH   1  11
TORSDOF 9
ENDMDL
MODEL 3
REMARK VINA RESULT:    -4.661      2.675      6.457
REMARK INTER + INTRA:          -9.221
REMARK INTER:                  -7.953
REMARK INTRA:                  -1.268
REMARK UNBOUND:                -2.107
REMARK SMILES CC(=O)CCC=C(C)CCC=C(C)CCC=C(C)C
REMARK SMILES IDX 10 1 11 2 12 3 13 4 14 5 15 6 16 7 18 8 17 9 19 10 9 11 7 12
REMARK SMILES IDX 6 13 8 14 5 15 4 16 2 17 3 18 1 19
REMARK H PARENT
REMARK Flexibility Score: inf
ROOT
ATOM      1  C   UNL     1     -16.456   2.732  25.912  1.00  0.00     0.032 C 
ENDROOT
BRANCH   1   2
ATOM      2  C   UNL     1     -16.454   3.785  26.994  1.00  0.00    -0.028 C 
ATOM      3  C   UNL     1     -15.520   4.753  27.154  1.00  0.00    -0.077 C 
ATOM      4  C   UNL     1     -15.743   5.776  28.240  1.00  0.00     0.039 C 
BRANCH   3   5
ATOM      5  C   UNL     1     -14.265   4.859  26.304  1.00  0.00     0.034 C 
BRANCH   5   6
ATOM      6  C   UNL     1     -13.291   5.920  26.846  1.00  0.00     0.032 C 
BRANCH   6   7
ATOM      7  C   UNL     1     -12.535   6.618  25.742  1.00  0.00    -0.028 C 
ATOM      8  C   UNL     1     -10.688   7.030  24.175  1.00  0.00     0.039 C 
ATOM      9  C   UNL     1     -11.302   6.262  25.316  1.00  0.00    -0.080 C 
ATOM     10  C   UNL     1     -10.524   5.141  25.963  1.00  0.00     0.039 C 
ENDBRANCH   6   7
ENDBRANCH   5   6
ENDBRANCH   3   5
ENDBRANCH   1   2
BRANCH   1  11
ATOM     11  C   UNL     1     -17.560   1.690  26.121  1.00  0.00     0.034 C 
BRANCH  11  12
ATOM     12  C   UNL     1     -17.377   0.522  25.172  1.00  0.00    -0.077 C 
ATOM     13  C   UNL     1     -16.924  -0.688  25.573  1.00  0.00    -0.028 C 
ATOM     14  C   UNL     1     -17.783   0.691  23.731  1.00  0.00     0.039 C 
BRANCH  13  15
ATOM     15  C   UNL     1     -16.458  -1.017  26.971  1.00  0.00     0.035 C 
BRANCH  15  16
ATOM     16  C   UNL     1     -14.927  -1.056  27.063  1.00  0.00     0.079 C 
BRANCH  16  17
ATOM     17  C   UNL     1     -14.423  -0.340  28.289  1.00  0.00     0.130 C 
ATOM     18  O   UNL     1     -13.359  -0.668  28.790  1.00  0.00    -0.300 OA
ATOM     19  C   UNL     1     -15.229   0.762  28.906  1.00  0.00     0.087 C 
ENDBRANCH  16  17
ENDBRANCH  15  16
ENDBRANCH  13  15
ENDBRANCH  11  12
ENDBRANCH   1  11
TORSDOF 9
ENDMDL
MODEL 4
REMARK VINA RESULT:    -4.583      2.228      4.165
REMARK INTER + INTRA:          -9.101
REMARK INTER:                  -7.113
REMARK INTRA:                  -1.988
REMARK UNBOUND:                -2.107
REMARK SMILES CC(=O)CCC=C(C)CCC=C(C)CCC=C(C)C
REMARK SMILES IDX 10 1 11 2 12 3 13 4 14 5 15 6 16 7 18 8 17 9 19 10 9 11 7 12
REMARK SMILES IDX 6 13 8 14 5 15 4 16 2 17 3 18 1 19
REMARK H PARENT
REMARK Flexibility Score: inf
ROOT
ATOM      1  C   UNL     1     -13.530   3.894  27.087  1.00  0.00     0.032 C 
ENDROOT
BRANCH   1   2
ATOM      2  C   UNL     1     -15.000   3.803  26.755  1.00  0.00    -0.028 C 
ATOM      3  C   UNL     1     -16.002   3.613  27.646  1.00  0.00    -0.077 C 
ATOM      4  C   UNL     1     -17.420   3.647  27.132  1.00  0.00     0.039 C 
BRANCH   3   5
ATOM      5  C   UNL     1     -15.773   3.366  29.128  1.00  0.00     0.034 C 
BRANCH   5   6
ATOM      6  C   UNL     1     -16.119   1.920  29.529  1.00  0.00     0.032 C 
BRANCH   6   7
ATOM      7  C   UNL     1     -15.345   0.903  28.726  1.00  0.00    -0.028 C 
ATOM      8  C   UNL     1     -15.007  -0.963  27.165  1.00  0.00     0.039 C 
ATOM      9  C   UNL     1     -15.911  -0.040  27.940  1.00  0.00    -0.080 C 
ATOM     10  C   UNL     1     -17.409  -0.206  27.839  1.00  0.00     0.039 C 
ENDBRANCH   6   7
ENDBRANCH   5   6
ENDBRANCH   3   5
ENDBRANCH   1   2
BRANCH   1  11
ATOM     11  C   UNL     1     -13.100   5.325  27.429  1.00  0.00     0.034 C 
BRANCH  11  12
ATOM     12  C   UNL     1     -12.351   5.948  26.267  1.00  0.00    -0.077 C 
ATOM     13  C   UNL     1     -12.889   6.897  25.468  1.00  0.00    -0.028 C 
ATOM     14  C   UNL     1     -10.918   5.545  26.033  1.00  0.00     0.039 C 
BRANCH  13  15
ATOM     15  C   UNL     1     -14.312   7.396  25.556  1.00  0.00     0.035 C 
BRANCH  15  16
ATOM     16  C   UNL     1     -14.403   8.711  26.343  1.00  0.00     0.079 C 
BRANCH  16  17
ATOM     17  C   UNL     1     -15.527   8.684  27.344  1.00  0.00     0.130 C 
ATOM     18  O   UNL     1     -15.863   9.715  27.907  1.00  0.00    -0.300 OA
ATOM     19  C   UNL     1     -16.225   7.398  27.665  1.00  0.00     0.087 C 
ENDBRANCH  16  17
ENDBRANCH  15  16
ENDBRANCH  13  15
ENDBRANCH  11  12
ENDBRANCH   1  11
TORSDOF 9
ENDMDL
MODEL 5
REMARK VINA RESULT:    -4.566      2.782      7.285
REMARK INTER + INTRA:          -9.075
REMARK INTER:                  -7.957
REMARK INTRA:                  -1.118
REMARK UNBOUND:                -2.107
REMARK SMILES CC(=O)CCC=C(C)CCC=C(C)CCC=C(C)C
REMARK SMILES IDX 10 1 11 2 12 3 13 4 14 5 15 6 16 7 18 8 17 9 19 10 9 11 7 12
REMARK SMILES IDX 6 13 8 14 5 15 4 16 2 17 3 18 1 19
REMARK H PARENT
REMARK Flexibility Score: inf
ROOT
ATOM      1  C   UNL     1     -14.492   4.640  27.494  1.00  0.00     0.032 C 
ENDROOT
BRANCH   1   2
ATOM      2  C   UNL     1     -13.050   4.813  27.083  1.00  0.00    -0.028 C 
ATOM      3  C   UNL     1     -12.595   5.662  26.131  1.00  0.00    -0.077 C 
ATOM      4  C   UNL     1     -11.103   5.762  25.929  1.00  0.00     0.039 C 
BRANCH   3   5
ATOM      5  C   UNL     1     -13.504   6.511  25.258  1.00  0.00     0.034 C 
BRANCH   5   6
ATOM      6  C   UNL     1     -13.564   7.972  25.740  1.00  0.00     0.032 C 
BRANCH   6   7
ATOM      7  C   UNL     1     -14.751   8.229  26.636  1.00  0.00    -0.028 C 
ATOM      8  C   UNL     1     -16.653   9.473  27.570  1.00  0.00     0.039 C 
ATOM      9  C   UNL     1     -15.467   9.376  26.646  1.00  0.00    -0.080 C 
ATOM     10  C   UNL     1     -15.099  10.558  25.781  1.00  0.00     0.039 C 
ENDBRANCH   6   7
ENDBRANCH   5   6
ENDBRANCH   3   5
ENDBRANCH   1   2
BRANCH   1  11
ATOM     11  C   UNL     1     -14.744   3.286  28.166  1.00  0.00     0.034 C 
BRANCH  11  12
ATOM     12  C   UNL     1     -15.462   2.346  27.217  1.00  0.00    -0.077 C 
ATOM     13  C   UNL     1     -15.608   1.023  27.461  1.00  0.00    -0.028 C 
ATOM     14  C   UNL     1     -16.104   2.920  25.981  1.00  0.00     0.039 C 
BRANCH  13  15
ATOM     15  C   UNL     1     -15.012   0.290  28.639  1.00  0.00     0.035 C 
BRANCH  15  16
ATOM     16  C   UNL     1     -13.974  -0.748  28.193  1.00  0.00     0.079 C 
BRANCH  16  17
ATOM     17  C   UNL     1     -12.569  -0.295  28.488  1.00  0.00     0.130 C 
ATOM     18  O   UNL     1     -12.343   0.887  28.699  1.00  0.00    -0.300 OA
ATOM     19  C   UNL     1     -11.443  -1.284  28.509  1.00  0.00     0.087 C 
ENDBRANCH  16  17
ENDBRANCH  15  16
ENDBRANCH  13  15
ENDBRANCH  11  12
ENDBRANCH   1  11
TORSDOF 9
ENDMDL
MODEL 6
REMARK VINA RESULT:    -4.538      1.140      2.788
REMARK INTER + INTRA:          -9.033
REMARK INTER:                  -7.223
REMARK INTRA:                  -1.811
REMARK UNBOUND:                -2.107
REMARK SMILES CC(=O)CCC=C(C)CCC=C(C)CCC=C(C)C
REMARK SMILES IDX 10 1 11 2 12 3 13 4 14 5 15 6 16 7 18 8 17 9 19 10 9 11 7 12
REMARK SMILES IDX 6 13 8 14 5 15 4 16 2 17 3 18 1 19
REMARK H PARENT
REMARK Flexibility Score: inf
ROOT
ATOM      1  C   UNL     1     -14.437   2.746  27.623  1.00  0.00     0.032 C 
ENDROOT
BRANCH   1   2
ATOM      2  C   UNL     1     -13.873   1.568  28.380  1.00  0.00    -0.028 C 
ATOM      3  C   UNL     1     -14.292   0.284  28.273  1.00  0.00    -0.077 C 
ATOM      4  C   UNL     1     -13.538  -0.771  29.043  1.00  0.00     0.039 C 
BRANCH   3   5
ATOM      5  C   UNL     1     -15.479  -0.144  27.427  1.00  0.00     0.034 C 
BRANCH   5   6
ATOM      6  C   UNL     1     -16.738  -0.381  28.280  1.00  0.00     0.032 C 
BRANCH   6   7
ATOM      7  C   UNL     1     -17.373   0.912  28.732  1.00  0.00    -0.028 C 
ATOM      8  C   UNL     1     -17.975   2.711  30.293  1.00  0.00     0.039 C 
ATOM      9  C   UNL     1     -17.329   1.383  29.999  1.00  0.00    -0.080 C 
ATOM     10  C   UNL     1     -16.676   0.608  31.119  1.00  0.00     0.039 C 
ENDBRANCH   6   7
ENDBRANCH   5   6
ENDBRANCH   3   5
ENDBRANCH   1   2
BRANCH   1  11
ATOM     11  C   UNL     1     -14.518   4.007  28.491  1.00  0.00     0.034 C 
BRANCH  11  12
ATOM     12  C   UNL     1     -15.218   5.124  27.743  1.00  0.00    -0.077 C 
ATOM     13  C   UNL     1     -14.557   6.031  26.988  1.00  0.00    -0.028 C 
ATOM     14  C   UNL     1     -16.723   5.187  27.781  1.00  0.00     0.039 C 
BRANCH  13  15
ATOM     15  C   UNL     1     -13.055   6.118  26.859  1.00  0.00     0.035 C 
BRANCH  15  16
ATOM     16  C   UNL     1     -12.635   6.664  25.487  1.00  0.00     0.079 C 
BRANCH  16  17
ATOM     17  C   UNL     1     -11.207   6.315  25.161  1.00  0.00     0.130 C 
ATOM     18  O   UNL     1     -10.618   6.926  24.283  1.00  0.00    -0.300 OA
ATOM     19  C   UNL     1     -10.511   5.211  25.896  1.00  0.00     0.087 C 
ENDBRANCH  16  17
ENDBRANCH  15  16
ENDBRANCH  13  15
ENDBRANCH  11  12
ENDBRANCH   1  11
TORSDOF 9
ENDMDL
MODEL 7
REMARK VINA RESULT:    -4.508      1.654      3.301
REMARK INTER + INTRA:          -8.986
REMARK INTER:                  -7.203
REMARK INTRA:                  -1.783
REMARK UNBOUND:                -2.107
REMARK SMILES CC(=O)CCC=C(C)CCC=C(C)CCC=C(C)C
REMARK SMILES IDX 10 1 11 2 12 3 13 4 14 5 15 6 16 7 18 8 17 9 19 10 9 11 7 12
REMARK SMILES IDX 6 13 8 14 5 15 4 16 2 17 3 18 1 19
REMARK H PARENT
REMARK Flexibility Score: inf
ROOT
ATOM      1  C   UNL     1     -16.683   2.892  26.598  1.00  0.00     0.032 C 
ENDROOT
BRANCH   1   2
ATOM      2  C   UNL     1     -17.349   1.934  25.640  1.00  0.00    -0.028 C 
ATOM      3  C   UNL     1     -17.174   0.591  25.613  1.00  0.00    -0.077 C 
ATOM      4  C   UNL     1     -18.003  -0.210  24.640  1.00  0.00     0.039 C 
BRANCH   3   5
ATOM      5  C   UNL     1     -16.187  -0.146  26.503  1.00  0.00     0.034 C 
BRANCH   5   6
ATOM      6  C   UNL     1     -16.872  -0.752  27.741  1.00  0.00     0.032 C 
BRANCH   6   7
ATOM      7  C   UNL     1     -16.520  -0.011  29.009  1.00  0.00    -0.028 C 
ATOM      8  C   UNL     1     -16.888   1.440  30.957  1.00  0.00     0.039 C 
ATOM      9  C   UNL     1     -17.369   0.797  29.682  1.00  0.00    -0.080 C 
ATOM     10  C   UNL     1     -18.765   1.087  29.182  1.00  0.00     0.039 C 
ENDBRANCH   6   7
ENDBRANCH   5   6
ENDBRANCH   3   5
ENDBRANCH   1   2
BRANCH   1  11
ATOM     11  C   UNL     1     -15.456   3.570  25.979  1.00  0.00     0.034 C 
BRANCH  11  12
ATOM     12  C   UNL     1     -14.351   3.715  27.008  1.00  0.00    -0.077 C 
ATOM     13  C   UNL     1     -13.502   4.767  27.033  1.00  0.00    -0.028 C 
ATOM     14  C   UNL     1     -14.238   2.679  28.097  1.00  0.00     0.039 C 
BRANCH  13  15
ATOM     15  C   UNL     1     -13.469   5.877  26.008  1.00  0.00     0.035 C 
BRANCH  15  16
ATOM     16  C   UNL     1     -12.222   6.757  26.167  1.00  0.00     0.079 C 
BRANCH  16  17
ATOM     17  C   UNL     1     -11.097   6.295  25.278  1.00  0.00     0.130 C 
ATOM     18  O   UNL     1     -10.822   6.927  24.269  1.00  0.00    -0.300 OA
ATOM     19  C   UNL     1     -10.324   5.057  25.616  1.00  0.00     0.087 C 
ENDBRANCH  16  17
ENDBRANCH  15  16
ENDBRANCH  13  15
ENDBRANCH  11  12
ENDBRANCH   1  11
TORSDOF 9
ENDMDL
MODEL 8
REMARK VINA RESULT:    -4.427      3.172      6.995
REMARK INTER + INTRA:          -8.863
REMARK INTER:                  -7.546
REMARK INTRA:                  -1.317
REMARK UNBOUND:                -2.107
REMARK SMILES CC(=O)CCC=C(C)CCC=C(C)CCC=C(C)C
REMARK SMILES IDX 10 1 11 2 12 3 13 4 14 5 15 6 16 7 18 8 17 9 19 10 9 11 7 12
REMARK SMILES IDX 6 13 8 14 5 15 4 16 2 17 3 18 1 19
REMARK H PARENT
REMARK Flexibility Score: inf
ROOT
ATOM      1  C   UNL     1     -14.661   3.878  28.898  1.00  0.00     0.032 C 
ENDROOT
BRANCH   1   2
ATOM      2  C   UNL     1     -15.544   5.070  28.615  1.00  0.00    -0.028 C 
ATOM      3  C   UNL     1     -15.573   5.778  27.461  1.00  0.00    -0.077 C 
ATOM      4  C   UNL     1     -16.595   6.881  27.335  1.00  0.00     0.039 C 
BRANCH   3   5
ATOM      5  C   UNL     1     -14.633   5.523  26.295  1.00  0.00     0.034 C 
BRANCH   5   6
ATOM      6  C   UNL     1     -13.321   6.317  26.431  1.00  0.00     0.032 C 
BRANCH   6   7
ATOM      7  C   UNL     1     -12.109   5.418  26.457  1.00  0.00    -0.028 C 
ATOM      8  C   UNL     1      -9.849   4.649  25.875  1.00  0.00     0.039 C 
ATOM      9  C   UNL     1     -10.997   5.611  25.712  1.00  0.00    -0.080 C 
ATOM     10  C   UNL     1     -10.888   6.739  24.714  1.00  0.00     0.039 C 
ENDBRANCH   6   7
ENDBRANCH   5   6
ENDBRANCH   3   5
ENDBRANCH   1   2
BRANCH   1  11
ATOM     11  C   UNL     1     -15.248   2.578  28.338  1.00  0.00     0.034 C 
BRANCH  11  12
ATOM     12  C   UNL     1     -14.346   1.403  28.665  1.00  0.00    -0.077 C 
ATOM     13  C   UNL     1     -14.807   0.249  29.200  1.00  0.00    -0.028 C 
ATOM     14  C   UNL     1     -12.884   1.495  28.314  1.00  0.00     0.039 C 
BRANCH  13  15
ATOM     15  C   UNL     1     -16.235   0.002  29.626  1.00  0.00     0.035 C 
BRANCH  15  16
ATOM     16  C   UNL     1     -16.317  -0.476  31.082  1.00  0.00     0.079 C 
BRANCH  16  17
ATOM     17  C   UNL     1     -16.956   0.556  31.973  1.00  0.00     0.130 C 
ATOM     18  O   UNL     1     -17.393   0.228  33.065  1.00  0.00    -0.300 OA
ATOM     19  C   UNL     1     -17.072   1.979  31.520  1.00  0.00     0.087 C 
ENDBRANCH  16  17
ENDBRANCH  15  16
ENDBRANCH  13  15
ENDBRANCH  11  12
ENDBRANCH   1  11
TORSDOF 9
ENDMDL
MODEL 9
REMARK VINA RESULT:    -4.393      1.581      2.898
REMARK INTER + INTRA:          -8.810
REMARK INTER:                  -6.514
REMARK INTRA:                  -2.296
REMARK UNBOUND:                -2.107
REMARK SMILES CC(=O)CCC=C(C)CCC=C(C)CCC=C(C)C
REMARK SMILES IDX 10 1 11 2 12 3 13 4 14 5 15 6 16 7 18 8 17 9 19 10 9 11 7 12
REMARK SMILES IDX 6 13 8 14 5 15 4 16 2 17 3 18 1 19
REMARK H PARENT
REMARK Flexibility Score: inf
ROOT
ATOM      1  C   UNL     1     -17.023   3.140  26.488  1.00  0.00     0.032 C 
ENDROOT
BRANCH   1   2
ATOM      2  C   UNL     1     -17.177   1.900  25.640  1.00  0.00    -0.028 C 
ATOM      3  C   UNL     1     -17.794   0.755  26.017  1.00  0.00    -0.077 C 
ATOM      4  C   UNL     1     -17.931  -0.343  24.992  1.00  0.00     0.039 C 
BRANCH   3   5
ATOM      5  C   UNL     1     -18.347   0.519  27.412  1.00  0.00     0.034 C 
BRANCH   5   6
ATOM      6  C   UNL     1     -17.477  -0.463  28.218  1.00  0.00     0.032 C 
BRANCH   6   7
ATOM      7  C   UNL     1     -16.181   0.163  28.672  1.00  0.00    -0.028 C 
ATOM      8  C   UNL     1     -13.770   0.636  28.657  1.00  0.00     0.039 C 
ATOM      9  C   UNL     1     -14.973  -0.097  28.123  1.00  0.00    -0.080 C 
ATOM     10  C   UNL     1     -14.797  -1.111  27.017  1.00  0.00     0.039 C 
ENDBRANCH   6   7
ENDBRANCH   5   6
ENDBRANCH   3   5
ENDBRANCH   1   2
BRANCH   1  11
ATOM     11  C   UNL     1     -15.643   3.787  26.323  1.00  0.00     0.034 C 
BRANCH  11  12
ATOM     12  C   UNL     1     -15.003   4.028  27.676  1.00  0.00    -0.077 C 
ATOM     13  C   UNL     1     -13.748   4.513  27.820  1.00  0.00    -0.028 C 
ATOM     14  C   UNL     1     -15.822   3.786  28.916  1.00  0.00     0.039 C 
BRANCH  13  15
ATOM     15  C   UNL     1     -12.792   4.790  26.684  1.00  0.00     0.035 C 
BRANCH  15  16
ATOM     16  C   UNL     1     -12.330   6.253  26.677  1.00  0.00     0.079 C 
BRANCH  16  17
ATOM     17  C   UNL     1     -13.135   7.088  25.717  1.00  0.00     0.130 C 
ATOM     18  O   UNL     1     -12.720   7.281  24.585  1.00  0.00    -0.300 OA
ATOM     19  C   UNL     1     -14.434   7.697  26.148  1.00  0.00     0.087 C 
ENDBRANCH  16  17
ENDBRANCH  15  16
ENDBRANCH  13  15
ENDBRANCH  11  12
ENDBRANCH   1  11
TORSDOF 9
ENDMDL
