MODEL 1
REMARK VINA RESULT:    -3.007      0.000      0.000
REMARK INTER + INTRA:          -4.680
REMARK INTER:                  -4.590
REMARK INTRA:                  -0.090
REMARK UNBOUND:                -0.090
REMARK SMILES CC1=CCC[C@H](C)C(=O)C[C@@H](C(C)C)C(=O)C1
REMARK SMILES IDX 8 1 9 2 6 3 7 4 5 5 4 6 3 7 2 8 1 9 10 11 11 12 15 13 16 14
REMARK SMILES IDX 17 15 12 17 13 18 14 19
REMARK H PARENT
REMARK Flexibility Score: 70.00
ROOT
ATOM      1  C   UNL     1     -37.398  -8.394  47.232  1.00  0.00     0.136 C 
ATOM      2  O   UNL     1     -37.600  -9.589  47.393  1.00  0.00    -0.299 OA
ENDROOT
BRANCH   1   3
ATOM      3  C   UNL     1     -38.209  -7.418  48.080  1.00  0.00     0.053 C 
ATOM      4  C   UNL     1     -39.573  -8.048  48.396  1.00  0.00     0.016 C 
BRANCH   3   5
ATOM      5  C   UNL     1     -37.560  -6.922  49.404  1.00  0.00     0.015 C 
BRANCH   5   6
ATOM      6  C   UNL     1     -36.892  -5.535  49.360  1.00  0.00     0.028 C 
BRANCH   6   7
ATOM      7  C   UNL     1     -37.371  -4.690  48.204  1.00  0.00    -0.028 C 
ATOM      8  C   UNL     1     -36.591  -4.260  47.185  1.00  0.00    -0.070 CG0
ATOM      9  C   UNL     1     -37.231  -3.419  46.109  1.00  0.00     0.039 C 
ATOM     10  G   UNL     1     -35.120  -4.614  47.063  1.00  0.00     0.000 G0
ENDBRANCH   6   7
ENDBRANCH   5   6
ENDBRANCH   3   5
ENDBRANCH   1   3
BRANCH   1  11
ATOM     11  C   UNL     1     -36.354  -7.991  46.213  1.00  0.00     0.087 C 
BRANCH  11  12
ATOM     12  C   UNL     1     -35.120  -7.234  46.812  1.00  0.00     0.066 C 
BRANCH  12  13
ATOM     13  C   UNL     1     -34.909  -5.837  46.229  1.00  0.00     0.140 C 
ATOM     14  O   UNL     1     -34.559  -5.706  45.066  1.00  0.00    -0.299 OA
BRANCH  13  15
ATOM     15  C   UNL     1     -35.100  -4.593  47.059  1.00  0.00     0.106 CG0
ATOM     16  G   UNL     1     -36.576  -4.259  47.183  1.00  0.00     0.000 G0
ENDBRANCH  13  15
ENDBRANCH  12  13
BRANCH  12  17
ATOM     17  C   UNL     1     -33.793  -8.061  46.808  1.00  0.00    -0.006 C 
ATOM     18  C   UNL     1     -33.493  -8.780  45.479  1.00  0.00     0.008 C 
ATOM     19  C   UNL     1     -33.756  -9.072  47.968  1.00  0.00     0.008 C 
ENDBRANCH  12  17
ENDBRANCH  11  12
ENDBRANCH   1  11
TORSDOF 1
ENDMDL
MODEL 2
REMARK VINA RESULT:    -2.899     13.519     15.360
REMARK INTER + INTRA:          -4.514
REMARK INTER:                  -4.399
REMARK INTRA:                  -0.115
REMARK UNBOUND:                -0.090
REMARK SMILES CC1=CCC[C@H](C)C(=O)C[C@@H](C(C)C)C(=O)C1
REMARK SMILES IDX 8 1 9 2 6 3 7 4 5 5 4 6 3 7 2 8 1 9 10 11 11 12 15 13 16 14
REMARK SMILES IDX 17 15 12 17 13 18 14 19
REMARK H PARENT
REMARK Flexibility Score: 70.00
ROOT
ATOM      1  C   UNL     1     -49.504  -0.603  44.173  1.00  0.00     0.136 C 
ATOM      2  O   UNL     1     -49.576  -1.713  44.678  1.00  0.00    -0.299 OA
ENDROOT
BRANCH   1   3
ATOM      3  C   UNL     1     -50.670  -0.143  43.302  1.00  0.00     0.053 C 
ATOM      4  C   UNL     1     -51.045  -1.277  42.336  1.00  0.00     0.016 C 
BRANCH   3   5
ATOM      5  C   UNL     1     -51.951   0.346  44.034  1.00  0.00     0.015 C 
BRANCH   5   6
ATOM      6  C   UNL     1     -51.739   1.042  45.391  1.00  0.00     0.028 C 
BRANCH   6   7
ATOM      7  C   UNL     1     -51.261   2.467  45.251  1.00  0.00    -0.028 C 
ATOM      8  C   UNL     1     -50.267   3.025  45.981  1.00  0.00    -0.070 CG0
ATOM      9  C   UNL     1     -49.916   4.467  45.714  1.00  0.00     0.039 C 
ATOM     10  G   UNL     1     -49.477   2.258  47.025  1.00  0.00     0.000 G0
ENDBRANCH   6   7
ENDBRANCH   5   6
ENDBRANCH   3   5
ENDBRANCH   1   3
BRANCH   1  11
ATOM     11  C   UNL     1     -48.269   0.222  44.468  1.00  0.00     0.087 C 
BRANCH  11  12
ATOM     12  C   UNL     1     -47.941   0.376  45.992  1.00  0.00     0.066 C 
BRANCH  12  13
ATOM     13  C   UNL     1     -48.142   1.793  46.528  1.00  0.00     0.140 C 
ATOM     14  O   UNL     1     -47.202   2.573  46.563  1.00  0.00    -0.299 OA
BRANCH  13  15
ATOM     15  C   UNL     1     -49.478   2.265  47.044  1.00  0.00     0.106 CG0
ATOM     16  G   UNL     1     -50.228   3.022  45.964  1.00  0.00     0.000 G0
ENDBRANCH  13  15
ENDBRANCH  12  13
BRANCH  12  17
ATOM     17  C   UNL     1     -46.549  -0.201  46.412  1.00  0.00    -0.006 C 
ATOM     18  C   UNL     1     -46.165  -1.516  45.708  1.00  0.00     0.008 C 
ATOM     19  C   UNL     1     -46.451  -0.378  47.937  1.00  0.00     0.008 C 
ENDBRANCH  12  17
ENDBRANCH  11  12
ENDBRANCH   1  11
TORSDOF 1
ENDMDL
MODEL 3
REMARK VINA RESULT:    -2.877      1.997      2.997
REMARK INTER + INTRA:          -4.480
REMARK INTER:                  -4.603
REMARK INTRA:                   0.123
REMARK UNBOUND:                -0.090
REMARK SMILES CC1=CCC[C@H](C)C(=O)C[C@@H](C(C)C)C(=O)C1
REMARK SMILES IDX 8 1 9 2 6 3 7 4 5 5 4 6 3 7 2 8 1 9 10 11 11 12 15 13 16 14
REMARK SMILES IDX 17 15 12 17 13 18 14 19
REMARK H PARENT
REMARK Flexibility Score: 70.00
ROOT
ATOM      1  C   UNL     1     -34.364  -9.114  48.077  1.00  0.00     0.136 C 
ATOM      2  O   UNL     1     -33.753 -10.011  47.515  1.00  0.00    -0.299 OA
ENDROOT
BRANCH   1   3
ATOM      3  C   UNL     1     -34.271  -9.039  49.599  1.00  0.00     0.053 C 
ATOM      4  C   UNL     1     -32.812  -9.276  50.019  1.00  0.00     0.016 C 
BRANCH   3   5
ATOM      5  C   UNL     1     -34.789  -7.738  50.276  1.00  0.00     0.015 C 
BRANCH   5   6
ATOM      6  C   UNL     1     -36.294  -7.445  50.130  1.00  0.00     0.028 C 
BRANCH   6   7
ATOM      7  C   UNL     1     -36.614  -5.972  50.199  1.00  0.00    -0.028 C 
ATOM      8  C   UNL     1     -36.770  -5.162  49.125  1.00  0.00    -0.070 CG0
ATOM      9  C   UNL     1     -37.086  -3.709  49.374  1.00  0.00     0.039 C 
ATOM     10  G   UNL     1     -36.673  -5.659  47.694  1.00  0.00     0.000 G0
ENDBRANCH   6   7
ENDBRANCH   5   6
ENDBRANCH   3   5
ENDBRANCH   1   3
BRANCH   1  11
ATOM     11  C   UNL     1     -35.149  -8.152  47.211  1.00  0.00     0.087 C 
BRANCH  11  12
ATOM     12  C   UNL     1     -34.414  -6.802  46.911  1.00  0.00     0.066 C 
BRANCH  12  13
ATOM     13  C   UNL     1     -35.284  -5.563  47.128  1.00  0.00     0.140 C 
ATOM     14  O   UNL     1     -34.839  -4.452  46.879  1.00  0.00    -0.299 OA
BRANCH  13  15
ATOM     15  C   UNL     1     -36.689  -5.663  47.665  1.00  0.00     0.106 CG0
ATOM     16  G   UNL     1     -36.747  -5.168  49.098  1.00  0.00     0.000 G0
ENDBRANCH  13  15
ENDBRANCH  12  13
BRANCH  12  17
ATOM     17  C   UNL     1     -33.691  -6.756  45.525  1.00  0.00    -0.006 C 
ATOM     18  C   UNL     1     -34.387  -7.568  44.416  1.00  0.00     0.008 C 
ATOM     19  C   UNL     1     -32.220  -7.189  45.644  1.00  0.00     0.008 C 
ENDBRANCH  12  17
ENDBRANCH  11  12
ENDBRANCH   1  11
TORSDOF 1
ENDMDL
MODEL 4
REMARK VINA RESULT:    -2.818      2.366      4.341
REMARK INTER + INTRA:          -4.391
REMARK INTER:                  -4.334
REMARK INTRA:                  -0.056
REMARK UNBOUND:                -0.090
REMARK SMILES CC1=CCC[C@H](C)C(=O)C[C@@H](C(C)C)C(=O)C1
REMARK SMILES IDX 8 1 9 2 6 3 7 4 5 5 4 6 3 7 2 8 1 9 10 11 11 12 15 13 16 14
REMARK SMILES IDX 17 15 12 17 13 18 14 19
REMARK H PARENT
REMARK Flexibility Score: 70.00
ROOT
ATOM      1  C   UNL     1     -36.752  -3.275  48.144  1.00  0.00     0.136 C 
ATOM      2  O   UNL     1     -36.772  -2.797  49.268  1.00  0.00    -0.299 OA
ENDROOT
BRANCH   1   3
ATOM      3  C   UNL     1     -37.817  -2.808  47.156  1.00  0.00     0.053 C 
ATOM      4  C   UNL     1     -37.130  -2.380  45.850  1.00  0.00     0.016 C 
BRANCH   3   5
ATOM      5  C   UNL     1     -38.961  -3.807  46.823  1.00  0.00     0.015 C 
BRANCH   5   6
ATOM      6  C   UNL     1     -39.615  -4.521  48.021  1.00  0.00     0.028 C 
BRANCH   6   7
ATOM      7  C   UNL     1     -39.645  -6.022  47.865  1.00  0.00    -0.028 C 
ATOM      8  C   UNL     1     -38.863  -6.888  48.552  1.00  0.00    -0.070 CG0
ATOM      9  C   UNL     1     -39.020  -8.361  48.270  1.00  0.00     0.039 C 
ATOM     10  G   UNL     1     -37.868  -6.444  49.608  1.00  0.00     0.000 G0
ENDBRANCH   6   7
ENDBRANCH   5   6
ENDBRANCH   3   5
ENDBRANCH   1   3
BRANCH   1  11
ATOM     11  C   UNL     1     -35.664  -4.280  47.830  1.00  0.00     0.087 C 
BRANCH  11  12
ATOM     12  C   UNL     1     -36.166  -5.758  47.692  1.00  0.00     0.066 C 
BRANCH  12  13
ATOM     13  C   UNL     1     -36.467  -6.436  49.028  1.00  0.00     0.140 C 
ATOM     14  O   UNL     1     -35.573  -6.991  49.649  1.00  0.00    -0.299 OA
BRANCH  13  15
ATOM     15  C   UNL     1     -37.858  -6.462  49.610  1.00  0.00     0.106 CG0
ATOM     16  G   UNL     1     -38.864  -6.904  48.562  1.00  0.00     0.000 G0
ENDBRANCH  13  15
ENDBRANCH  12  13
BRANCH  12  17
ATOM     17  C   UNL     1     -35.268  -6.660  46.784  1.00  0.00    -0.006 C 
ATOM     18  C   UNL     1     -33.979  -5.981  46.284  1.00  0.00     0.008 C 
ATOM     19  C   UNL     1     -36.059  -7.221  45.590  1.00  0.00     0.008 C 
ENDBRANCH  12  17
ENDBRANCH  11  12
ENDBRANCH   1  11
TORSDOF 1
ENDMDL
MODEL 5
REMARK VINA RESULT:    -2.811      1.900      4.220
REMARK INTER + INTRA:          -4.381
REMARK INTER:                  -4.223
REMARK INTRA:                  -0.158
REMARK UNBOUND:                -0.090
REMARK SMILES CC1=CCC[C@H](C)C(=O)C[C@@H](C(C)C)C(=O)C1
REMARK SMILES IDX 8 1 9 2 6 3 7 4 5 5 4 6 3 7 2 8 1 9 10 11 11 12 15 13 16 14
REMARK SMILES IDX 17 15 12 17 13 18 14 19
REMARK H PARENT
REMARK Flexibility Score: 70.00
ROOT
ATOM      1  C   UNL     1     -37.498  -5.887  49.512  1.00  0.00     0.136 C 
ATOM      2  O   UNL     1     -38.090  -5.191  50.324  1.00  0.00    -0.299 OA
ENDROOT
BRANCH   1   3
ATOM      3  C   UNL     1     -37.818  -7.379  49.491  1.00  0.00     0.053 C 
ATOM      4  C   UNL     1     -38.630  -7.731  50.747  1.00  0.00     0.016 C 
BRANCH   3   5
ATOM      5  C   UNL     1     -38.559  -7.926  48.238  1.00  0.00     0.015 C 
BRANCH   5   6
ATOM      6  C   UNL     1     -37.782  -8.935  47.371  1.00  0.00     0.028 C 
BRANCH   6   7
ATOM      7  C   UNL     1     -36.286  -8.828  47.546  1.00  0.00    -0.028 C 
ATOM      8  C   UNL     1     -35.473  -8.049  46.796  1.00  0.00    -0.070 CG0
ATOM      9  C   UNL     1     -33.996  -8.063  47.104  1.00  0.00     0.039 C 
ATOM     10  G   UNL     1     -35.984  -7.143  45.690  1.00  0.00     0.000 G0
ENDBRANCH   6   7
ENDBRANCH   5   6
ENDBRANCH   3   5
ENDBRANCH   1   3
BRANCH   1  11
ATOM     11  C   UNL     1     -36.509  -5.203  48.594  1.00  0.00     0.087 C 
BRANCH  11  12
ATOM     12  C   UNL     1     -36.969  -5.106  47.100  1.00  0.00     0.066 C 
BRANCH  12  13
ATOM     13  C   UNL     1     -35.959  -5.673  46.102  1.00  0.00     0.140 C 
ATOM     14  O   UNL     1     -35.108  -4.945  45.612  1.00  0.00    -0.299 OA
BRANCH  13  15
ATOM     15  C   UNL     1     -35.987  -7.120  45.679  1.00  0.00     0.106 CG0
ATOM     16  G   UNL     1     -35.473  -8.010  46.796  1.00  0.00     0.000 G0
ENDBRANCH  13  15
ENDBRANCH  12  13
BRANCH  12  17
ATOM     17  C   UNL     1     -37.462  -3.686  46.668  1.00  0.00    -0.006 C 
ATOM     18  C   UNL     1     -36.784  -2.522  47.415  1.00  0.00     0.008 C 
ATOM     19  C   UNL     1     -38.991  -3.561  46.785  1.00  0.00     0.008 C 
ENDBRANCH  12  17
ENDBRANCH  11  12
ENDBRANCH   1  11
TORSDOF 1
ENDMDL
MODEL 6
REMARK VINA RESULT:    -2.666      2.863      4.922
REMARK INTER + INTRA:          -4.159
REMARK INTER:                  -3.912
REMARK INTRA:                  -0.247
REMARK UNBOUND:                -0.090
REMARK SMILES CC1=CCC[C@H](C)C(=O)C[C@@H](C(C)C)C(=O)C1
REMARK SMILES IDX 8 1 9 2 6 3 7 4 5 5 4 6 3 7 2 8 1 9 10 11 11 12 15 13 16 14
REMARK SMILES IDX 17 15 12 17 13 18 14 19
REMARK H PARENT
REMARK Flexibility Score: 70.00
ROOT
ATOM      1  C   UNL     1     -36.117  -5.119  48.928  1.00  0.00     0.136 C 
ATOM      2  O   UNL     1     -35.429  -4.854  47.953  1.00  0.00    -0.299 OA
ENDROOT
BRANCH   1   3
ATOM      3  C   UNL     1     -37.212  -4.128  49.314  1.00  0.00     0.053 C 
ATOM      4  C   UNL     1     -36.682  -2.700  49.116  1.00  0.00     0.016 C 
BRANCH   3   5
ATOM      5  C   UNL     1     -38.579  -4.267  48.588  1.00  0.00     0.015 C 
BRANCH   5   6
ATOM      6  C   UNL     1     -39.640  -5.137  49.288  1.00  0.00     0.028 C 
BRANCH   6   7
ATOM      7  C   UNL     1     -39.452  -5.201  50.784  1.00  0.00    -0.028 C 
ATOM      8  C   UNL     1     -39.204  -6.331  51.486  1.00  0.00    -0.070 CG0
ATOM      9  C   UNL     1     -39.045  -6.216  52.981  1.00  0.00     0.039 C 
ATOM     10  G   UNL     1     -39.048  -7.692  50.833  1.00  0.00     0.000 G0
ENDBRANCH   6   7
ENDBRANCH   5   6
ENDBRANCH   3   5
ENDBRANCH   1   3
BRANCH   1  11
ATOM     11  C   UNL     1     -35.826  -6.412  49.660  1.00  0.00     0.087 C 
BRANCH  11  12
ATOM     12  C   UNL     1     -36.852  -7.562  49.377  1.00  0.00     0.066 C 
BRANCH  12  13
ATOM     13  C   UNL     1     -37.607  -8.036  50.619  1.00  0.00     0.140 C 
ATOM     14  O   UNL     1     -37.036  -8.714  51.460  1.00  0.00    -0.299 OA
BRANCH  13  15
ATOM     15  C   UNL     1     -39.063  -7.710  50.836  1.00  0.00     0.106 CG0
ATOM     16  G   UNL     1     -39.211  -6.348  51.489  1.00  0.00     0.000 G0
ENDBRANCH  13  15
ENDBRANCH  12  13
BRANCH  12  17
ATOM     17  C   UNL     1     -36.264  -8.766  48.572  1.00  0.00    -0.006 C 
ATOM     18  C   UNL     1     -35.417  -8.364  47.349  1.00  0.00     0.008 C 
ATOM     19  C   UNL     1     -37.367  -9.749  48.142  1.00  0.00     0.008 C 
ENDBRANCH  12  17
ENDBRANCH  11  12
ENDBRANCH   1  11
TORSDOF 1
ENDMDL
MODEL 7
REMARK VINA RESULT:    -2.626      2.441      4.742
REMARK INTER + INTRA:          -4.097
REMARK INTER:                  -3.835
REMARK INTRA:                  -0.263
REMARK UNBOUND:                -0.090
REMARK SMILES CC1=CCC[C@H](C)C(=O)C[C@@H](C(C)C)C(=O)C1
REMARK SMILES IDX 8 1 9 2 6 3 7 4 5 5 4 6 3 7 2 8 1 9 10 11 11 12 15 13 16 14
REMARK SMILES IDX 17 15 12 17 13 18 14 19
REMARK H PARENT
REMARK Flexibility Score: 70.00
ROOT
ATOM      1  C   UNL     1     -37.241  -9.072  50.422  1.00  0.00     0.136 C 
ATOM      2  O   UNL     1     -37.643  -9.932  51.191  1.00  0.00    -0.299 OA
ENDROOT
BRANCH   1   3
ATOM      3  C   UNL     1     -36.623  -9.532  49.104  1.00  0.00     0.053 C 
ATOM      4  C   UNL     1     -35.829 -10.823  49.352  1.00  0.00     0.016 C 
BRANCH   3   5
ATOM      5  C   UNL     1     -37.590  -9.753  47.907  1.00  0.00     0.015 C 
BRANCH   5   6
ATOM      6  C   UNL     1     -37.764  -8.566  46.941  1.00  0.00     0.028 C 
BRANCH   6   7
ATOM      7  C   UNL     1     -36.554  -7.665  46.895  1.00  0.00    -0.028 C 
ATOM      8  C   UNL     1     -36.553  -6.352  47.224  1.00  0.00    -0.070 CG0
ATOM      9  C   UNL     1     -35.252  -5.596  47.117  1.00  0.00     0.039 C 
ATOM     10  G   UNL     1     -37.787  -5.624  47.723  1.00  0.00     0.000 G0
ENDBRANCH   6   7
ENDBRANCH   5   6
ENDBRANCH   3   5
ENDBRANCH   1   3
BRANCH   1  11
ATOM     11  C   UNL     1     -37.403  -7.626  50.841  1.00  0.00     0.087 C 
BRANCH  11  12
ATOM     12  C   UNL     1     -38.451  -6.821  50.000  1.00  0.00     0.066 C 
BRANCH  12  13
ATOM     13  C   UNL     1     -37.856  -5.632  49.244  1.00  0.00     0.140 C 
ATOM     14  O   UNL     1     -37.436  -4.664  49.860  1.00  0.00    -0.299 OA
BRANCH  13  15
ATOM     15  C   UNL     1     -37.787  -5.603  47.739  1.00  0.00     0.106 CG0
ATOM     16  G   UNL     1     -36.558  -6.346  47.248  1.00  0.00     0.000 G0
ENDBRANCH  13  15
ENDBRANCH  12  13
BRANCH  12  17
ATOM     17  C   UNL     1     -39.734  -6.408  50.794  1.00  0.00    -0.006 C 
ATOM     18  C   UNL     1     -39.573  -6.437  52.326  1.00  0.00     0.008 C 
ATOM     19  C   UNL     1     -40.949  -7.256  50.381  1.00  0.00     0.008 C 
ENDBRANCH  12  17
ENDBRANCH  11  12
ENDBRANCH   1  11
TORSDOF 1
ENDMDL
MODEL 8
REMARK VINA RESULT:    -2.546      1.964      4.667
REMARK INTER + INTRA:          -3.976
REMARK INTER:                  -3.986
REMARK INTRA:                   0.010
REMARK UNBOUND:                -0.090
REMARK SMILES CC1=CCC[C@H](C)C(=O)C[C@@H](C(C)C)C(=O)C1
REMARK SMILES IDX 8 1 9 2 6 3 7 4 5 5 4 6 3 7 2 8 1 9 10 11 11 12 15 13 16 14
REMARK SMILES IDX 17 15 12 17 13 18 14 19
REMARK H PARENT
REMARK Flexibility Score: 70.00
ROOT
ATOM      1  C   UNL     1     -37.516  -3.963  48.271  1.00  0.00     0.136 C 
ATOM      2  O   UNL     1     -37.083  -3.503  49.317  1.00  0.00    -0.299 OA
ENDROOT
BRANCH   1   3
ATOM      3  C   UNL     1     -37.474  -3.072  47.033  1.00  0.00     0.053 C 
ATOM      4  C   UNL     1     -37.617  -1.607  47.471  1.00  0.00     0.016 C 
BRANCH   3   5
ATOM      5  C   UNL     1     -36.233  -3.205  46.106  1.00  0.00     0.015 C 
BRANCH   5   6
ATOM      6  C   UNL     1     -35.150  -4.206  46.553  1.00  0.00     0.028 C 
BRANCH   6   7
ATOM      7  C   UNL     1     -35.159  -5.479  45.743  1.00  0.00    -0.028 C 
ATOM      8  C   UNL     1     -35.072  -6.727  46.260  1.00  0.00    -0.070 CG0
ATOM      9  C   UNL     1     -35.092  -7.893  45.304  1.00  0.00     0.039 C 
ATOM     10  G   UNL     1     -34.990  -7.000  47.751  1.00  0.00     0.000 G0
ENDBRANCH   6   7
ENDBRANCH   5   6
ENDBRANCH   3   5
ENDBRANCH   1   3
BRANCH   1  11
ATOM     11  C   UNL     1     -38.045  -5.382  48.296  1.00  0.00     0.087 C 
BRANCH  11  12
ATOM     12  C   UNL     1     -37.185  -6.380  49.143  1.00  0.00     0.066 C 
BRANCH  12  13
ATOM     13  C   UNL     1     -36.367  -7.360  48.302  1.00  0.00     0.140 C 
ATOM     14  O   UNL     1     -36.805  -8.476  48.063  1.00  0.00    -0.299 OA
BRANCH  13  15
ATOM     15  C   UNL     1     -35.006  -7.000  47.764  1.00  0.00     0.106 CG0
ATOM     16  G   UNL     1     -35.080  -6.717  46.274  1.00  0.00     0.000 G0
ENDBRANCH  13  15
ENDBRANCH  12  13
BRANCH  12  17
ATOM     17  C   UNL     1     -37.980  -7.120  50.268  1.00  0.00    -0.006 C 
ATOM     18  C   UNL     1     -39.350  -6.496  50.598  1.00  0.00     0.008 C 
ATOM     19  C   UNL     1     -37.145  -7.252  51.553  1.00  0.00     0.008 C 
ENDBRANCH  12  17
ENDBRANCH  11  12
ENDBRANCH   1  11
TORSDOF 1
ENDMDL
MODEL 9
REMARK VINA RESULT:    -2.471     13.984     16.198
REMARK INTER + INTRA:          -3.862
REMARK INTER:                  -3.928
REMARK INTRA:                   0.066
REMARK UNBOUND:                -0.090
REMARK SMILES CC1=CCC[C@H](C)C(=O)C[C@@H](C(C)C)C(=O)C1
REMARK SMILES IDX 8 1 9 2 6 3 7 4 5 5 4 6 3 7 2 8 1 9 10 11 11 12 15 13 16 14
REMARK SMILES IDX 17 15 12 17 13 18 14 19
REMARK H PARENT
REMARK Flexibility Score: 70.00
ROOT
ATOM      1  C   UNL     1     -49.779   4.537  45.983  1.00  0.00     0.136 C 
ATOM      2  O   UNL     1     -49.016   5.475  45.805  1.00  0.00    -0.299 OA
ENDROOT
BRANCH   1   3
ATOM      3  C   UNL     1     -50.692   4.588  47.206  1.00  0.00     0.053 C 
ATOM      4  C   UNL     1     -52.093   4.109  46.800  1.00  0.00     0.016 C 
BRANCH   3   5
ATOM      5  C   UNL     1     -50.232   3.801  48.465  1.00  0.00     0.015 C 
BRANCH   5   6
ATOM      6  C   UNL     1     -48.803   4.086  48.965  1.00  0.00     0.028 C 
BRANCH   6   7
ATOM      7  C   UNL     1     -47.999   2.830  49.195  1.00  0.00    -0.028 C 
ATOM      8  C   UNL     1     -47.305   2.170  48.239  1.00  0.00    -0.070 CG0
ATOM      9  C   UNL     1     -46.555   0.924  48.640  1.00  0.00     0.039 C 
ATOM     10  G   UNL     1     -47.221   2.646  46.800  1.00  0.00     0.000 G0
ENDBRANCH   6   7
ENDBRANCH   5   6
ENDBRANCH   3   5
ENDBRANCH   1   3
BRANCH   1  11
ATOM     11  C   UNL     1     -49.759   3.415  44.968  1.00  0.00     0.087 C 
BRANCH  11  12
ATOM     12  C   UNL     1     -49.501   1.995  45.575  1.00  0.00     0.066 C 
BRANCH  12  13
ATOM     13  C   UNL     1     -48.033   1.717  45.899  1.00  0.00     0.140 C 
ATOM     14  O   UNL     1     -47.484   0.722  45.449  1.00  0.00    -0.299 OA
BRANCH  13  15
ATOM     15  C   UNL     1     -47.229   2.633  46.787  1.00  0.00     0.106 CG0
ATOM     16  G   UNL     1     -47.297   2.169  48.231  1.00  0.00     0.000 G0
ENDBRANCH  13  15
ENDBRANCH  12  13
BRANCH  12  17
ATOM     17  C   UNL     1     -50.137   0.821  44.761  1.00  0.00    -0.006 C 
ATOM     18  C   UNL     1     -50.669   1.223  43.372  1.00  0.00     0.008 C 
ATOM     19  C   UNL     1     -51.247   0.117  45.561  1.00  0.00     0.008 C 
ENDBRANCH  12  17
ENDBRANCH  11  12
ENDBRANCH   1  11
TORSDOF 1
ENDMDL
