MODEL 1
REMARK VINA RESULT:    -3.714      0.000      0.000
REMARK INTER + INTRA:          -5.367
REMARK INTER:                  -5.017
REMARK INTRA:                  -0.350
REMARK UNBOUND:                -0.350
REMARK SMILES CCCCCCCC(=O)[O-]
REMARK SMILES IDX 5 1 6 2 7 3 8 4 9 5 10 6 4 7 3 8 2 9 1 10
REMARK H PARENT
REMARK Flexibility Score: inf
ROOT
ATOM      1  C   UNL     1     -19.956  -5.536 -14.777  1.00  0.00     0.000 C 
ENDROOT
BRANCH   1   2
ATOM      2  C   UNL     1     -19.932  -4.445 -13.688  1.00  0.00     0.006 C 
BRANCH   2   3
ATOM      3  C   UNL     1     -21.128  -3.480 -13.723  1.00  0.00     0.053 C 
BRANCH   3   4
ATOM      4  C   UNL     1     -22.031  -3.663 -12.541  1.00  0.00     0.041 C 
ATOM      5  O   UNL     1     -21.934  -2.897 -11.547  1.00  0.00    -0.550 OA
ATOM      6  O   UNL     1     -22.955  -4.700 -12.524  1.00  0.00    -0.550 OA
ENDBRANCH   3   4
ENDBRANCH   2   3
ENDBRANCH   1   2
BRANCH   1   7
ATOM      7  C   UNL     1     -20.211  -6.966 -14.266  1.00  0.00     0.000 C 
BRANCH   7   8
ATOM      8  C   UNL     1     -20.354  -7.039 -12.736  1.00  0.00    -0.000 C 
BRANCH   8   9
ATOM      9  C   UNL     1     -20.712  -8.450 -12.245  1.00  0.00    -0.003 C 
ATOM     10  C   UNL     1     -20.081  -9.552 -13.096  1.00  0.00     0.004 C 
ENDBRANCH   8   9
ENDBRANCH   7   8
ENDBRANCH   1   7
TORSDOF 6
ENDMDL
MODEL 2
REMARK VINA RESULT:    -3.528      1.497      1.921
REMARK INTER + INTRA:          -5.115
REMARK INTER:                  -4.686
REMARK INTRA:                  -0.429
REMARK UNBOUND:                -0.350
REMARK SMILES CCCCCCCC(=O)[O-]
REMARK SMILES IDX 5 1 6 2 7 3 8 4 9 5 10 6 4 7 3 8 2 9 1 10
REMARK H PARENT
REMARK Flexibility Score: inf
ROOT
ATOM      1  C   UNL     1     -20.071  -5.079 -13.036  1.00  0.00     0.000 C 
ENDROOT
BRANCH   1   2
ATOM      2  C   UNL     1     -21.144  -3.975 -13.117  1.00  0.00     0.006 C 
BRANCH   2   3
ATOM      3  C   UNL     1     -22.528  -4.389 -12.593  1.00  0.00     0.053 C 
BRANCH   3   4
ATOM      4  C   UNL     1     -23.554  -4.421 -13.684  1.00  0.00     0.041 C 
ATOM      5  O   UNL     1     -24.775  -4.285 -13.409  1.00  0.00    -0.550 OA
ATOM      6  O   UNL     1     -23.165  -4.635 -15.000  1.00  0.00    -0.550 OA
ENDBRANCH   3   4
ENDBRANCH   2   3
ENDBRANCH   1   2
BRANCH   1   7
ATOM      7  C   UNL     1     -19.974  -5.992 -14.273  1.00  0.00     0.000 C 
BRANCH   7   8
ATOM      8  C   UNL     1     -20.786  -7.290 -14.124  1.00  0.00    -0.000 C 
BRANCH   8   9
ATOM      9  C   UNL     1     -20.501  -8.013 -12.799  1.00  0.00    -0.003 C 
ATOM     10  C   UNL     1     -20.106  -9.477 -12.995  1.00  0.00     0.004 C 
ENDBRANCH   8   9
ENDBRANCH   7   8
ENDBRANCH   1   7
TORSDOF 6
ENDMDL
MODEL 3
REMARK VINA RESULT:    -3.511      2.781      3.215
REMARK INTER + INTRA:          -5.093
REMARK INTER:                  -4.842
REMARK INTRA:                  -0.251
REMARK UNBOUND:                -0.350
REMARK SMILES CCCCCCCC(=O)[O-]
REMARK SMILES IDX 5 1 6 2 7 3 8 4 9 5 10 6 4 7 3 8 2 9 1 10
REMARK H PARENT
REMARK Flexibility Score: inf
ROOT
ATOM      1  C   UNL     1     -20.895  -4.613 -13.412  1.00  0.00     0.000 C 
ENDROOT
BRANCH   1   2
ATOM      2  C   UNL     1     -19.586  -4.613 -14.225  1.00  0.00     0.006 C 
BRANCH   2   3
ATOM      3  C   UNL     1     -19.755  -4.264 -15.712  1.00  0.00     0.053 C 
BRANCH   3   4
ATOM      4  C   UNL     1     -19.313  -2.864 -16.013  1.00  0.00     0.041 C 
ATOM      5  O   UNL     1     -18.414  -2.656 -16.869  1.00  0.00    -0.550 OA
ATOM      6  O   UNL     1     -19.871  -1.794 -15.325  1.00  0.00    -0.550 OA
ENDBRANCH   3   4
ENDBRANCH   2   3
ENDBRANCH   1   2
BRANCH   1   7
ATOM      7  C   UNL     1     -21.531  -5.998 -13.193  1.00  0.00     0.000 C 
BRANCH   7   8
ATOM      8  C   UNL     1     -20.530  -7.039 -12.662  1.00  0.00    -0.000 C 
BRANCH   8   9
ATOM      9  C   UNL     1     -20.262  -8.165 -13.672  1.00  0.00    -0.003 C 
ATOM     10  C   UNL     1     -20.135  -9.537 -13.011  1.00  0.00     0.004 C 
ENDBRANCH   8   9
ENDBRANCH   7   8
ENDBRANCH   1   7
TORSDOF 6
ENDMDL
MODEL 4
REMARK VINA RESULT:    -3.488     19.747     20.762
REMARK INTER + INTRA:          -5.061
REMARK INTER:                  -4.747
REMARK INTRA:                  -0.314
REMARK UNBOUND:                -0.350
REMARK SMILES CCCCCCCC(=O)[O-]
REMARK SMILES IDX 5 1 6 2 7 3 8 4 9 5 10 6 4 7 3 8 2 9 1 10
REMARK H PARENT
REMARK Flexibility Score: inf
ROOT
ATOM      1  C   UNL     1      -7.552  -9.392  -0.343  1.00  0.00     0.000 C 
ENDROOT
BRANCH   1   2
ATOM      2  C   UNL     1      -6.459  -9.972   0.576  1.00  0.00     0.006 C 
BRANCH   2   3
ATOM      3  C   UNL     1      -5.693 -11.167  -0.016  1.00  0.00     0.053 C 
BRANCH   3   4
ATOM      4  C   UNL     1      -5.991 -12.441   0.714  1.00  0.00     0.041 C 
ATOM      5  O   UNL     1      -5.927 -13.544   0.111  1.00  0.00    -0.550 OA
ATOM      6  O   UNL     1      -6.371 -12.406   2.049  1.00  0.00    -0.550 OA
ENDBRANCH   3   4
ENDBRANCH   2   3
ENDBRANCH   1   2
BRANCH   1   7
ATOM      7  C   UNL     1      -7.763  -7.871  -0.230  1.00  0.00     0.000 C 
BRANCH   7   8
ATOM      8  C   UNL     1      -6.445  -7.079  -0.272  1.00  0.00    -0.000 C 
BRANCH   8   9
ATOM      9  C   UNL     1      -6.346  -6.043   0.858  1.00  0.00    -0.003 C 
ATOM     10  C   UNL     1      -7.652  -5.887   1.637  1.00  0.00     0.004 C 
ENDBRANCH   8   9
ENDBRANCH   7   8
ENDBRANCH   1   7
TORSDOF 6
ENDMDL
MODEL 5
REMARK VINA RESULT:    -3.459      2.649      3.197
REMARK INTER + INTRA:          -5.023
REMARK INTER:                  -4.618
REMARK INTRA:                  -0.405
REMARK UNBOUND:                -0.350
REMARK SMILES CCCCCCCC(=O)[O-]
REMARK SMILES IDX 5 1 6 2 7 3 8 4 9 5 10 6 4 7 3 8 2 9 1 10
REMARK H PARENT
REMARK Flexibility Score: inf
ROOT
ATOM      1  C   UNL     1     -21.358  -4.648 -13.016  1.00  0.00     0.000 C 
ENDROOT
BRANCH   1   2
ATOM      2  C   UNL     1     -22.575  -4.976 -13.904  1.00  0.00     0.006 C 
BRANCH   2   3
ATOM      3  C   UNL     1     -22.310  -4.879 -15.415  1.00  0.00     0.053 C 
BRANCH   3   4
ATOM      4  C   UNL     1     -22.228  -6.231 -16.057  1.00  0.00     0.041 C 
ATOM      5  O   UNL     1     -21.169  -6.594 -16.633  1.00  0.00    -0.550 OA
ATOM      6  O   UNL     1     -23.332  -7.074 -16.048  1.00  0.00    -0.550 OA
ENDBRANCH   3   4
ENDBRANCH   2   3
ENDBRANCH   1   2
BRANCH   1   7
ATOM      7  C   UNL     1     -20.195  -5.652 -13.102  1.00  0.00     0.000 C 
BRANCH   7   8
ATOM      8  C   UNL     1     -20.593  -7.070 -12.656  1.00  0.00    -0.000 C 
BRANCH   8   9
ATOM      9  C   UNL     1     -20.102  -8.152 -13.629  1.00  0.00    -0.003 C 
ATOM     10  C   UNL     1     -20.133  -9.555 -13.022  1.00  0.00     0.004 C 
ENDBRANCH   8   9
ENDBRANCH   7   8
ENDBRANCH   1   7
TORSDOF 6
ENDMDL
MODEL 6
REMARK VINA RESULT:    -3.457     19.297     20.208
REMARK INTER + INTRA:          -5.020
REMARK INTER:                  -4.892
REMARK INTRA:                  -0.128
REMARK UNBOUND:                -0.350
REMARK SMILES CCCCCCCC(=O)[O-]
REMARK SMILES IDX 5 1 6 2 7 3 8 4 9 5 10 6 4 7 3 8 2 9 1 10
REMARK H PARENT
REMARK Flexibility Score: inf
ROOT
ATOM      1  C   UNL     1      -6.699 -10.658  -0.223  1.00  0.00     0.000 C 
ENDROOT
BRANCH   1   2
ATOM      2  C   UNL     1      -6.942  -9.330   0.521  1.00  0.00     0.006 C 
BRANCH   2   3
ATOM      3  C   UNL     1      -7.514  -8.202  -0.352  1.00  0.00     0.053 C 
BRANCH   3   4
ATOM      4  C   UNL     1      -7.139  -6.847   0.166  1.00  0.00     0.041 C 
ATOM      5  O   UNL     1      -7.841  -6.291   1.051  1.00  0.00    -0.550 OA
ATOM      6  O   UNL     1      -6.034  -6.184  -0.354  1.00  0.00    -0.550 OA
ENDBRANCH   3   4
ENDBRANCH   2   3
ENDBRANCH   1   2
BRANCH   1   7
ATOM      7  C   UNL     1      -5.453 -11.442   0.226  1.00  0.00     0.000 C 
BRANCH   7   8
ATOM      8  C   UNL     1      -5.568 -12.953  -0.041  1.00  0.00    -0.000 C 
BRANCH   8   9
ATOM      9  C   UNL     1      -6.061 -13.731   1.188  1.00  0.00    -0.003 C 
ATOM     10  C   UNL     1      -6.664 -15.090   0.828  1.00  0.00     0.004 C 
ENDBRANCH   8   9
ENDBRANCH   7   8
ENDBRANCH   1   7
TORSDOF 6
ENDMDL
MODEL 7
REMARK VINA RESULT:    -3.449      1.331      1.853
REMARK INTER + INTRA:          -5.008
REMARK INTER:                  -4.780
REMARK INTRA:                  -0.229
REMARK UNBOUND:                -0.350
REMARK SMILES CCCCCCCC(=O)[O-]
REMARK SMILES IDX 5 1 6 2 7 3 8 4 9 5 10 6 4 7 3 8 2 9 1 10
REMARK H PARENT
REMARK Flexibility Score: inf
ROOT
ATOM      1  C   UNL     1     -20.899  -5.242 -13.004  1.00  0.00     0.000 C 
ENDROOT
BRANCH   1   2
ATOM      2  C   UNL     1     -22.378  -5.050 -13.396  1.00  0.00     0.006 C 
BRANCH   2   3
ATOM      3  C   UNL     1     -23.133  -4.009 -12.554  1.00  0.00     0.053 C 
BRANCH   3   4
ATOM      4  C   UNL     1     -22.319  -2.771 -12.331  1.00  0.00     0.041 C 
ATOM      5  O   UNL     1     -22.026  -2.023 -13.300  1.00  0.00    -0.550 OA
ATOM      6  O   UNL     1     -21.856  -2.462 -11.058  1.00  0.00    -0.550 OA
ENDBRANCH   3   4
ENDBRANCH   2   3
ENDBRANCH   1   2
BRANCH   1   7
ATOM      7  C   UNL     1     -19.982  -5.746 -14.133  1.00  0.00     0.000 C 
BRANCH   7   8
ATOM      8  C   UNL     1     -20.000  -7.278 -14.280  1.00  0.00    -0.000 C 
BRANCH   8   9
ATOM      9  C   UNL     1     -20.374  -7.990 -12.972  1.00  0.00    -0.003 C 
ATOM     10  C   UNL     1     -20.177  -9.504 -13.043  1.00  0.00     0.004 C 
ENDBRANCH   8   9
ENDBRANCH   7   8
ENDBRANCH   1   7
TORSDOF 6
ENDMDL
MODEL 8
REMARK VINA RESULT:    -3.384     19.014     19.755
REMARK INTER + INTRA:          -4.921
REMARK INTER:                  -4.673
REMARK INTRA:                  -0.247
REMARK UNBOUND:                -0.350
REMARK SMILES CCCCCCCC(=O)[O-]
REMARK SMILES IDX 5 1 6 2 7 3 8 4 9 5 10 6 4 7 3 8 2 9 1 10
REMARK H PARENT
REMARK Flexibility Score: inf
ROOT
ATOM      1  C   UNL     1      -7.253  -7.512  -0.198  1.00  0.00     0.000 C 
ENDROOT
BRANCH   1   2
ATOM      2  C   UNL     1      -6.687  -7.135   1.185  1.00  0.00     0.006 C 
BRANCH   2   3
ATOM      3  C   UNL     1      -7.748  -6.754   2.230  1.00  0.00     0.053 C 
BRANCH   3   4
ATOM      4  C   UNL     1      -8.216  -5.340   2.064  1.00  0.00     0.041 C 
ATOM      5  O   UNL     1      -9.448  -5.083   2.020  1.00  0.00    -0.550 OA
ATOM      6  O   UNL     1      -7.292  -4.312   1.925  1.00  0.00    -0.550 OA
ENDBRANCH   3   4
ENDBRANCH   2   3
ENDBRANCH   1   2
BRANCH   1   7
ATOM      7  C   UNL     1      -7.669  -8.986  -0.356  1.00  0.00     0.000 C 
BRANCH   7   8
ATOM      8  C   UNL     1      -6.809  -9.944   0.486  1.00  0.00    -0.000 C 
BRANCH   8   9
ATOM      9  C   UNL     1      -6.035 -10.951  -0.378  1.00  0.00    -0.003 C 
ATOM     10  C   UNL     1      -5.930 -12.332   0.270  1.00  0.00     0.004 C 
ENDBRANCH   8   9
ENDBRANCH   7   8
ENDBRANCH   1   7
TORSDOF 6
ENDMDL
MODEL 9
REMARK VINA RESULT:    -3.361      2.405      2.884
REMARK INTER + INTRA:          -4.889
REMARK INTER:                  -4.554
REMARK INTRA:                  -0.335
REMARK UNBOUND:                -0.350
REMARK SMILES CCCCCCCC(=O)[O-]
REMARK SMILES IDX 5 1 6 2 7 3 8 4 9 5 10 6 4 7 3 8 2 9 1 10
REMARK H PARENT
REMARK Flexibility Score: inf
ROOT
ATOM      1  C   UNL     1     -21.942  -6.715 -15.171  1.00  0.00     0.000 C 
ENDROOT
BRANCH   1   2
ATOM      2  C   UNL     1     -21.824  -5.330 -15.837  1.00  0.00     0.006 C 
BRANCH   2   3
ATOM      3  C   UNL     1     -20.415  -4.982 -16.344  1.00  0.00     0.053 C 
BRANCH   3   4
ATOM      4  C   UNL     1     -19.797  -3.864 -15.560  1.00  0.00     0.041 C 
ATOM      5  O   UNL     1     -20.070  -3.722 -14.339  1.00  0.00    -0.550 OA
ATOM      6  O   UNL     1     -18.947  -2.962 -16.185  1.00  0.00    -0.550 OA
ENDBRANCH   3   4
ENDBRANCH   2   3
ENDBRANCH   1   2
BRANCH   1   7
ATOM      7  C   UNL     1     -20.656  -7.232 -14.500  1.00  0.00     0.000 C 
BRANCH   7   8
ATOM      8  C   UNL     1     -20.652  -7.026 -12.975  1.00  0.00    -0.000 C 
BRANCH   8   9
ATOM      9  C   UNL     1     -20.616  -8.354 -12.203  1.00  0.00    -0.003 C 
ATOM     10  C   UNL     1     -20.151  -9.529 -13.064  1.00  0.00     0.004 C 
ENDBRANCH   8   9
ENDBRANCH   7   8
ENDBRANCH   1   7
TORSDOF 6
ENDMDL
