MODEL 1
REMARK VINA RESULT:    -4.239      0.000      0.000
REMARK INTER + INTRA:          -5.266
REMARK INTER:                  -5.974
REMARK INTRA:                   0.709
REMARK UNBOUND:                 0.709
REMARK SMILES CC1=CCCC(C)=CCC(C)(C)C=CC1
REMARK SMILES IDX 2 1 3 2 1 3 4 4 5 5 6 6 7 7 8 8 15 10 14 11 13 12 10 13
REMARK SMILES IDX 11 14 12 15 9 16
REMARK H PARENT
REMARK Flexibility Score: 60.00
ROOT
ATOM      1  C   UNL     1      -1.096   1.089  13.223  1.00  0.00    -0.074 C 
ATOM      2  C   UNL     1      -0.989   1.327  14.555  1.00  0.00    -0.027 C 
ATOM      3  C   UNL     1      -1.840  -0.147  12.784  1.00  0.00     0.039 C 
ENDROOT
BRANCH   2   4
ATOM      4  C   UNL     1      -0.281   2.503  15.184  1.00  0.00     0.032 C 
BRANCH   4   5
ATOM      5  C   UNL     1      -1.205   3.729  15.275  1.00  0.00     0.034 C 
BRANCH   5   6
ATOM      6  C   UNL     1      -0.743   4.940  14.480  1.00  0.00    -0.077 C 
ATOM      7  C   UNL     1       0.310   5.831  15.096  1.00  0.00     0.039 C 
ATOM      8  C   UNL     1      -1.121   5.224  13.205  1.00  0.00    -0.027 CG0
ATOM      9  G   UNL     1      -2.269   4.626  12.410  1.00  0.00     0.000 G0
ENDBRANCH   5   6
ENDBRANCH   4   5
ENDBRANCH   2   4
BRANCH   1  10
ATOM     10  C   UNL     1      -0.495   1.992  12.157  1.00  0.00     0.057 C 
BRANCH  10  11
ATOM     11  C   UNL     1      -1.373   2.007  10.932  1.00  0.00    -0.026 C 
ATOM     12  C   UNL     1      -1.981   3.070  10.353  1.00  0.00    -0.024 C 
BRANCH  12  13
ATOM     13  C   UNL     1      -2.111   4.505  10.869  1.00  0.00    -0.014 C 
ATOM     14  C   UNL     1      -3.307   5.188  10.168  1.00  0.00     0.016 C 
ATOM     15  C   UNL     1      -0.836   5.280  10.451  1.00  0.00     0.016 C 
BRANCH  13  16
ATOM     16  C   UNL     1      -2.276   4.629  12.415  1.00  0.00     0.038 CG0
ATOM     17  G   UNL     1      -1.115   5.215  13.199  1.00  0.00     0.000 G0
ENDBRANCH  13  16
ENDBRANCH  12  13
ENDBRANCH  10  11
ENDBRANCH   1  10
TORSDOF 0
ENDMDL
MODEL 2
REMARK VINA RESULT:    -4.041      1.453      4.214
REMARK INTER + INTRA:          -4.986
REMARK INTER:                  -5.862
REMARK INTRA:                   0.876
REMARK UNBOUND:                 0.709
REMARK SMILES CC1=CCCC(C)=CCC(C)(C)C=CC1
REMARK SMILES IDX 2 1 3 2 1 3 4 4 5 5 6 6 7 7 8 8 15 10 14 11 13 12 10 13
REMARK SMILES IDX 11 14 12 15 9 16
REMARK H PARENT
REMARK Flexibility Score: 60.00
ROOT
ATOM      1  C   UNL     1      -2.520   4.302  11.105  1.00  0.00    -0.074 C 
ATOM      2  C   UNL     1      -1.762   3.250  10.705  1.00  0.00    -0.027 C 
ATOM      3  C   UNL     1      -3.677   4.711  10.228  1.00  0.00     0.039 C 
ENDROOT
BRANCH   2   4
ATOM      4  C   UNL     1      -0.565   2.699  11.443  1.00  0.00     0.032 C 
BRANCH   4   5
ATOM      5  C   UNL     1      -0.963   1.535  12.366  1.00  0.00     0.034 C 
BRANCH   5   6
ATOM      6  C   UNL     1      -1.192   1.919  13.819  1.00  0.00    -0.077 C 
ATOM      7  C   UNL     1      -2.312   1.230  14.564  1.00  0.00     0.039 C 
ATOM      8  C   UNL     1      -0.397   2.755  14.539  1.00  0.00    -0.027 CG0
ATOM      9  G   UNL     1       0.669   3.708  14.028  1.00  0.00     0.000 G0
ENDBRANCH   5   6
ENDBRANCH   4   5
ENDBRANCH   2   4
BRANCH   1  10
ATOM     10  C   UNL     1      -2.256   5.094  12.375  1.00  0.00     0.057 C 
BRANCH  10  11
ATOM     11  C   UNL     1      -1.051   5.983  12.194  1.00  0.00    -0.026 C 
ATOM     12  C   UNL     1       0.098   5.988  12.909  1.00  0.00    -0.024 C 
BRANCH  12  13
ATOM     13  C   UNL     1       0.431   5.242  14.203  1.00  0.00    -0.014 C 
ATOM     14  C   UNL     1      -0.705   5.474  15.226  1.00  0.00     0.016 C 
ATOM     15  C   UNL     1       1.715   5.871  14.800  1.00  0.00     0.016 C 
BRANCH  13  16
ATOM     16  C   UNL     1       0.668   3.709  14.031  1.00  0.00     0.038 CG0
ATOM     17  G   UNL     1      -0.418   2.773  14.531  1.00  0.00     0.000 G0
ENDBRANCH  13  16
ENDBRANCH  12  13
ENDBRANCH  10  11
ENDBRANCH   1  10
TORSDOF 0
ENDMDL
MODEL 3
REMARK VINA RESULT:    -3.960      1.041      3.701
REMARK INTER + INTRA:          -4.872
REMARK INTER:                  -6.023
REMARK INTRA:                   1.151
REMARK UNBOUND:                 0.709
REMARK SMILES CC1=CCCC(C)=CCC(C)(C)C=CC1
REMARK SMILES IDX 2 1 3 2 1 3 4 4 5 5 6 6 7 7 8 8 15 10 14 11 13 12 10 13
REMARK SMILES IDX 11 14 12 15 9 16
REMARK H PARENT
REMARK Flexibility Score: 60.00
ROOT
ATOM      1  C   UNL     1      -1.597   0.970  13.538  1.00  0.00    -0.074 C 
ATOM      2  C   UNL     1      -1.144   0.942  12.259  1.00  0.00    -0.027 C 
ATOM      3  C   UNL     1      -2.143  -0.309  14.123  1.00  0.00     0.039 C 
ENDROOT
BRANCH   2   4
ATOM      4  C   UNL     1      -0.570   2.116  11.504  1.00  0.00     0.032 C 
BRANCH   4   5
ATOM      5  C   UNL     1      -1.647   2.825  10.666  1.00  0.00     0.034 C 
BRANCH   5   6
ATOM      6  C   UNL     1      -2.069   4.189  11.186  1.00  0.00    -0.077 C 
ATOM      7  C   UNL     1      -3.396   4.743  10.723  1.00  0.00     0.039 C 
ATOM      8  C   UNL     1      -1.397   4.906  12.126  1.00  0.00    -0.027 CG0
ATOM      9  G   UNL     1       0.018   4.695  12.634  1.00  0.00     0.000 G0
ENDBRANCH   5   6
ENDBRANCH   4   5
ENDBRANCH   2   4
BRANCH   1  10
ATOM     10  C   UNL     1      -1.597   2.221  14.402  1.00  0.00     0.057 C 
BRANCH  10  11
ATOM     11  C   UNL     1      -0.225   2.453  14.982  1.00  0.00    -0.026 C 
ATOM     12  C   UNL     1       0.510   3.590  14.959  1.00  0.00    -0.024 C 
BRANCH  12  13
ATOM     13  C   UNL     1       0.254   4.887  14.187  1.00  0.00    -0.014 C 
ATOM     14  C   UNL     1       1.443   5.850  14.410  1.00  0.00     0.016 C 
ATOM     15  C   UNL     1      -0.999   5.565  14.795  1.00  0.00     0.016 C 
BRANCH  13  16
ATOM     16  C   UNL     1       0.018   4.700  12.657  1.00  0.00     0.038 CG0
ATOM     17  G   UNL     1      -1.395   4.897  12.137  1.00  0.00     0.000 G0
ENDBRANCH  13  16
ENDBRANCH  12  13
ENDBRANCH  10  11
ENDBRANCH   1  10
TORSDOF 0
ENDMDL
MODEL 4
REMARK VINA RESULT:    -3.877      1.578      2.150
REMARK INTER + INTRA:          -4.755
REMARK INTER:                  -5.204
REMARK INTRA:                   0.449
REMARK UNBOUND:                 0.709
REMARK SMILES CC1=CCCC(C)=CCC(C)(C)C=CC1
REMARK SMILES IDX 2 1 3 2 1 3 4 4 5 5 6 6 7 7 8 8 15 10 14 11 13 12 10 13
REMARK SMILES IDX 11 14 12 15 9 16
REMARK H PARENT
REMARK Flexibility Score: 60.00
ROOT
ATOM      1  C   UNL     1      -2.088   2.929  14.517  1.00  0.00    -0.074 C 
ATOM      2  C   UNL     1      -1.159   3.457  15.353  1.00  0.00    -0.027 C 
ATOM      3  C   UNL     1      -2.652   1.572  14.856  1.00  0.00     0.039 C 
ENDROOT
BRANCH   2   4
ATOM      4  C   UNL     1      -0.479   4.795  15.180  1.00  0.00     0.032 C 
BRANCH   4   5
ATOM      5  C   UNL     1       0.746   4.685  14.256  1.00  0.00     0.034 C 
BRANCH   5   6
ATOM      6  C   UNL     1       1.159   5.983  13.582  1.00  0.00    -0.077 C 
ATOM      7  C   UNL     1       2.516   6.554  13.921  1.00  0.00     0.039 C 
ATOM      8  C   UNL     1       0.450   6.615  12.610  1.00  0.00    -0.027 CG0
ATOM      9  G   UNL     1      -0.993   6.382  12.197  1.00  0.00     0.000 G0
ENDBRANCH   5   6
ENDBRANCH   4   5
ENDBRANCH   2   4
BRANCH   1  10
ATOM     10  C   UNL     1      -2.576   3.624  13.256  1.00  0.00     0.057 C 
BRANCH  10  11
ATOM     11  C   UNL     1      -1.732   3.215  12.076  1.00  0.00    -0.026 C 
ATOM     12  C   UNL     1      -1.132   4.013  11.161  1.00  0.00    -0.024 C 
BRANCH  12  13
ATOM     13  C   UNL     1      -1.289   5.521  10.948  1.00  0.00    -0.014 C 
ATOM     14  C   UNL     1      -2.721   5.813  10.443  1.00  0.00     0.016 C 
ATOM     15  C   UNL     1      -0.315   5.947   9.822  1.00  0.00     0.016 C 
BRANCH  13  16
ATOM     16  C   UNL     1      -0.996   6.392  12.208  1.00  0.00     0.038 CG0
ATOM     17  G   UNL     1       0.459   6.604  12.589  1.00  0.00     0.000 G0
ENDBRANCH  13  16
ENDBRANCH  12  13
ENDBRANCH  10  11
ENDBRANCH   1  10
TORSDOF 0
ENDMDL
MODEL 5
REMARK VINA RESULT:    -3.733      1.466      3.972
REMARK INTER + INTRA:          -4.551
REMARK INTER:                  -5.095
REMARK INTRA:                   0.544
REMARK UNBOUND:                 0.709
REMARK SMILES CC1=CCCC(C)=CCC(C)(C)C=CC1
REMARK SMILES IDX 2 1 3 2 1 3 4 4 5 5 6 6 7 7 8 8 15 10 14 11 13 12 10 13
REMARK SMILES IDX 11 14 12 15 9 16
REMARK H PARENT
REMARK Flexibility Score: 60.00
ROOT
ATOM      1  C   UNL     1      -1.474   2.403  11.618  1.00  0.00    -0.074 C 
ATOM      2  C   UNL     1      -1.989   3.106  10.577  1.00  0.00    -0.027 C 
ATOM      3  C   UNL     1      -0.763   1.108  11.313  1.00  0.00     0.039 C 
ENDROOT
BRANCH   2   4
ATOM      4  C   UNL     1      -2.734   4.415  10.683  1.00  0.00     0.032 C 
BRANCH   4   5
ATOM      5  C   UNL     1      -1.803   5.612  10.432  1.00  0.00     0.034 C 
BRANCH   5   6
ATOM      6  C   UNL     1      -1.707   6.602  11.582  1.00  0.00    -0.077 C 
ATOM      7  C   UNL     1      -2.679   7.759  11.600  1.00  0.00     0.039 C 
ATOM      8  C   UNL     1      -0.890   6.467  12.659  1.00  0.00    -0.027 CG0
ATOM      9  G   UNL     1       0.290   5.527  12.832  1.00  0.00     0.000 G0
ENDBRANCH   5   6
ENDBRANCH   4   5
ENDBRANCH   2   4
BRANCH   1  10
ATOM     10  C   UNL     1      -1.589   2.844  13.069  1.00  0.00     0.057 C 
BRANCH  10  11
ATOM     11  C   UNL     1      -0.303   2.559  13.803  1.00  0.00    -0.026 C 
ATOM     12  C   UNL     1       0.548   3.446  14.372  1.00  0.00    -0.024 C 
BRANCH  12  13
ATOM     13  C   UNL     1       0.556   4.973  14.272  1.00  0.00    -0.014 C 
ATOM     14  C   UNL     1       1.914   5.505  14.787  1.00  0.00     0.016 C 
ATOM     15  C   UNL     1      -0.536   5.520  15.225  1.00  0.00     0.016 C 
BRANCH  13  16
ATOM     16  C   UNL     1       0.288   5.535  12.842  1.00  0.00     0.038 CG0
ATOM     17  G   UNL     1      -0.897   6.468  12.668  1.00  0.00     0.000 G0
ENDBRANCH  13  16
ENDBRANCH  12  13
ENDBRANCH  10  11
ENDBRANCH   1  10
TORSDOF 0
ENDMDL
MODEL 6
REMARK VINA RESULT:    -3.726      1.424      3.842
REMARK INTER + INTRA:          -4.542
REMARK INTER:                  -5.356
REMARK INTRA:                   0.814
REMARK UNBOUND:                 0.709
REMARK SMILES CC1=CCCC(C)=CCC(C)(C)C=CC1
REMARK SMILES IDX 2 1 3 2 1 3 4 4 5 5 6 6 7 7 8 8 15 10 14 11 13 12 10 13
REMARK SMILES IDX 11 14 12 15 9 16
REMARK H PARENT
REMARK Flexibility Score: 60.00
ROOT
ATOM      1  C   UNL     1       1.075   5.177  14.250  1.00  0.00    -0.074 C 
ATOM      2  C   UNL     1       0.598   4.037  14.811  1.00  0.00    -0.027 C 
ATOM      3  C   UNL     1       2.141   5.939  14.997  1.00  0.00     0.039 C 
ENDROOT
BRANCH   2   4
ATOM      4  C   UNL     1      -0.468   3.145  14.220  1.00  0.00     0.032 C 
BRANCH   4   5
ATOM      5  C   UNL     1       0.123   2.181  13.178  1.00  0.00     0.034 C 
BRANCH   5   6
ATOM      6  C   UNL     1      -0.834   1.769  12.071  1.00  0.00    -0.077 C 
ATOM      7  C   UNL     1      -1.372   0.358  12.091  1.00  0.00     0.039 C 
ATOM      8  C   UNL     1      -1.334   2.606  11.124  1.00  0.00    -0.027 CG0
ATOM      9  G   UNL     1      -0.856   3.998  10.753  1.00  0.00     0.000 G0
ENDBRANCH   5   6
ENDBRANCH   4   5
ENDBRANCH   2   4
BRANCH   1  10
ATOM     10  C   UNL     1       0.583   5.730  12.923  1.00  0.00     0.057 C 
BRANCH  10  11
ATOM     11  C   UNL     1      -0.852   6.179  13.045  1.00  0.00    -0.026 C 
ATOM     12  C   UNL     1      -1.892   5.883  12.230  1.00  0.00    -0.024 C 
BRANCH  12  13
ATOM     13  C   UNL     1      -1.881   5.182  10.870  1.00  0.00    -0.014 C 
ATOM     14  C   UNL     1      -1.588   6.224   9.766  1.00  0.00     0.016 C 
ATOM     15  C   UNL     1      -3.304   4.629  10.606  1.00  0.00     0.016 C 
BRANCH  13  16
ATOM     16  C   UNL     1      -0.866   4.003  10.752  1.00  0.00     0.038 CG0
ATOM     17  G   UNL     1      -1.353   2.619  11.143  1.00  0.00     0.000 G0
ENDBRANCH  13  16
ENDBRANCH  12  13
ENDBRANCH  10  11
ENDBRANCH   1  10
TORSDOF 0
ENDMDL
MODEL 7
REMARK VINA RESULT:    -3.681      1.566      4.230
REMARK INTER + INTRA:          -4.478
REMARK INTER:                  -4.928
REMARK INTRA:                   0.450
REMARK UNBOUND:                 0.709
REMARK SMILES CC1=CCCC(C)=CCC(C)(C)C=CC1
REMARK SMILES IDX 2 1 3 2 1 3 4 4 5 5 6 6 7 7 8 8 15 10 14 11 13 12 10 13
REMARK SMILES IDX 11 14 12 15 9 16
REMARK H PARENT
REMARK Flexibility Score: 60.00
ROOT
ATOM      1  C   UNL     1      -2.074   5.885  10.754  1.00  0.00    -0.074 C 
ATOM      2  C   UNL     1      -1.134   6.826  11.023  1.00  0.00    -0.027 C 
ATOM      3  C   UNL     1      -3.262   6.291   9.919  1.00  0.00     0.039 C 
ENDROOT
BRANCH   2   4
ATOM      4  C   UNL     1       0.117   6.611  11.842  1.00  0.00     0.032 C 
BRANCH   4   5
ATOM      5  C   UNL     1      -0.183   6.677  13.349  1.00  0.00     0.034 C 
BRANCH   5   6
ATOM      6  C   UNL     1       0.789   5.907  14.229  1.00  0.00    -0.077 C 
ATOM      7  C   UNL     1       1.700   6.700  15.136  1.00  0.00     0.039 C 
ATOM      8  C   UNL     1       0.825   4.554  14.350  1.00  0.00    -0.027 CG0
ATOM      9  G   UNL     1       0.169   3.513  13.460  1.00  0.00     0.000 G0
ENDBRANCH   5   6
ENDBRANCH   4   5
ENDBRANCH   2   4
BRANCH   1  10
ATOM     10  C   UNL     1      -2.000   4.454  11.262  1.00  0.00     0.057 C 
BRANCH  10  11
ATOM     11  C   UNL     1      -2.793   4.311  12.537  1.00  0.00    -0.026 C 
ATOM     12  C   UNL     1      -2.415   3.719  13.694  1.00  0.00    -0.024 C 
BRANCH  12  13
ATOM     13  C   UNL     1      -1.174   2.870  13.981  1.00  0.00    -0.014 C 
ATOM     14  C   UNL     1      -1.364   1.469  13.354  1.00  0.00     0.016 C 
ATOM     15  C   UNL     1      -1.076   2.672  15.515  1.00  0.00     0.016 C 
BRANCH  13  16
ATOM     16  C   UNL     1       0.168   3.485  13.478  1.00  0.00     0.038 CG0
ATOM     17  G   UNL     1       0.823   4.544  14.349  1.00  0.00     0.000 G0
ENDBRANCH  13  16
ENDBRANCH  12  13
ENDBRANCH  10  11
ENDBRANCH   1  10
TORSDOF 0
ENDMDL
MODEL 8
REMARK VINA RESULT:    -3.630      1.563      4.918
REMARK INTER + INTRA:          -4.407
REMARK INTER:                  -4.802
REMARK INTRA:                   0.395
REMARK UNBOUND:                 0.709
REMARK SMILES CC1=CCCC(C)=CCC(C)(C)C=CC1
REMARK SMILES IDX 2 1 3 2 1 3 4 4 5 5 6 6 7 7 8 8 15 10 14 11 13 12 10 13
REMARK SMILES IDX 11 14 12 15 9 16
REMARK H PARENT
REMARK Flexibility Score: 60.00
ROOT
ATOM      1  C   UNL     1      -2.521   6.408  11.071  1.00  0.00    -0.074 C 
ATOM      2  C   UNL     1      -2.409   5.309  10.282  1.00  0.00    -0.027 C 
ATOM      3  C   UNL     1      -2.341   7.760  10.428  1.00  0.00     0.039 C 
ENDROOT
BRANCH   2   4
ATOM      4  C   UNL     1      -2.551   3.878  10.743  1.00  0.00     0.032 C 
BRANCH   4   5
ATOM      5  C   UNL     1      -1.184   3.178  10.826  1.00  0.00     0.034 C 
BRANCH   5   6
ATOM      6  C   UNL     1      -0.749   2.785  12.229  1.00  0.00    -0.077 C 
ATOM      7  C   UNL     1      -1.037   1.374  12.687  1.00  0.00     0.039 C 
ATOM      8  C   UNL     1      -0.019   3.567  13.066  1.00  0.00    -0.027 CG0
ATOM      9  G   UNL     1       0.261   5.056  12.955  1.00  0.00     0.000 G0
ENDBRANCH   5   6
ENDBRANCH   4   5
ENDBRANCH   2   4
BRANCH   1  10
ATOM     10  C   UNL     1      -2.802   6.346  12.564  1.00  0.00     0.057 C 
BRANCH  10  11
ATOM     11  C   UNL     1      -1.991   7.390  13.291  1.00  0.00    -0.026 C 
ATOM     12  C   UNL     1      -0.798   7.238  13.911  1.00  0.00    -0.024 C 
BRANCH  12  13
ATOM     13  C   UNL     1      -0.029   5.951  14.219  1.00  0.00    -0.014 C 
ATOM     14  C   UNL     1      -0.820   5.126  15.260  1.00  0.00     0.016 C 
ATOM     15  C   UNL     1       1.317   6.344  14.878  1.00  0.00     0.016 C 
BRANCH  13  16
ATOM     16  C   UNL     1       0.276   5.060  12.975  1.00  0.00     0.038 CG0
ATOM     17  G   UNL     1      -0.032   3.577  13.084  1.00  0.00     0.000 G0
ENDBRANCH  13  16
ENDBRANCH  12  13
ENDBRANCH  10  11
ENDBRANCH   1  10
TORSDOF 0
ENDMDL
MODEL 9
REMARK VINA RESULT:    -3.620      1.410      4.822
REMARK INTER + INTRA:          -4.392
REMARK INTER:                  -4.973
REMARK INTRA:                   0.581
REMARK UNBOUND:                 0.709
REMARK SMILES CC1=CCCC(C)=CCC(C)(C)C=CC1
REMARK SMILES IDX 2 1 3 2 1 3 4 4 5 5 6 6 7 7 8 8 15 10 14 11 13 12 10 13
REMARK SMILES IDX 11 14 12 15 9 16
REMARK H PARENT
REMARK Flexibility Score: 60.00
ROOT
ATOM      1  C   UNL     1       0.569   6.422  13.548  1.00  0.00    -0.074 C 
ATOM      2  C   UNL     1       0.715   6.812  12.256  1.00  0.00    -0.027 C 
ATOM      3  C   UNL     1       1.813   6.299  14.393  1.00  0.00     0.039 C 
ENDROOT
BRANCH   2   4
ATOM      4  C   UNL     1      -0.406   6.986  11.259  1.00  0.00     0.032 C 
BRANCH   4   5
ATOM      5  C   UNL     1      -0.703   5.674  10.515  1.00  0.00     0.034 C 
BRANCH   5   6
ATOM      6  C   UNL     1      -2.003   4.993  10.910  1.00  0.00    -0.077 C 
ATOM      7  C   UNL     1      -3.280   5.475  10.261  1.00  0.00     0.039 C 
ATOM      8  C   UNL     1      -2.097   3.905  11.719  1.00  0.00    -0.027 CG0
ATOM      9  G   UNL     1      -1.035   3.320  12.634  1.00  0.00     0.000 G0
ENDBRANCH   5   6
ENDBRANCH   4   5
ENDBRANCH   2   4
BRANCH   1  10
ATOM     10  C   UNL     1      -0.774   6.092  14.180  1.00  0.00     0.057 C 
BRANCH  10  11
ATOM     11  C   UNL     1      -0.598   5.063  15.269  1.00  0.00    -0.026 C 
ATOM     12  C   UNL     1      -0.822   3.729  15.201  1.00  0.00    -0.024 C 
BRANCH  12  13
ATOM     13  C   UNL     1      -1.488   2.920  14.085  1.00  0.00    -0.014 C 
ATOM     14  C   UNL     1      -3.023   3.064  14.204  1.00  0.00     0.016 C 
ATOM     15  C   UNL     1      -1.154   1.425  14.316  1.00  0.00     0.016 C 
BRANCH  13  16
ATOM     16  C   UNL     1      -1.041   3.307  12.642  1.00  0.00     0.038 CG0
ATOM     17  G   UNL     1      -2.089   3.912  11.724  1.00  0.00     0.000 G0
ENDBRANCH  13  16
ENDBRANCH  12  13
ENDBRANCH  10  11
ENDBRANCH   1  10
TORSDOF 0
ENDMDL
