MODEL 1
REMARK VINA RESULT:    -4.458      0.000      0.000
REMARK INTER + INTRA:          -4.881
REMARK INTER:                  -4.849
REMARK INTRA:                  -0.032
REMARK UNBOUND:                -0.032
REMARK SMILES O=C([O-])c1ccc(O)cc1
REMARK SMILES IDX 4 1 5 2 10 3 6 4 9 5 7 6 2 7 1 8 3 9 8 10
REMARK H PARENT 8 11
REMARK Flexibility Score: inf
ROOT
ATOM      1  C   UNL     1      34.721 -30.032  11.274  1.00  0.00    -0.003 A 
ATOM      2  C   UNL     1      34.365 -31.384  11.417  1.00  0.00     0.014 A 
ATOM      3  C   UNL     1      35.648 -29.672  10.279  1.00  0.00     0.014 A 
ATOM      4  C   UNL     1      34.924 -32.356  10.582  1.00  0.00     0.047 A 
ATOM      5  C   UNL     1      36.205 -30.647   9.444  1.00  0.00     0.047 A 
ATOM      6  C   UNL     1      35.844 -31.992   9.595  1.00  0.00     0.115 A 
ENDROOT
BRANCH   1   7
ATOM      7  C   UNL     1      34.128 -29.005  12.159  1.00  0.00     0.071 C 
ATOM      8  O   UNL     1      33.837 -27.864  11.711  1.00  0.00    -0.545 OA
ATOM      9  O   UNL     1      33.882 -29.285  13.498  1.00  0.00    -0.545 OA
ENDBRANCH   1   7
BRANCH   6  10
ATOM     10  O   UNL     1      36.393 -32.972   8.771  1.00  0.00    -0.508 OA
ATOM     11  H   UNL     1      35.811 -33.662   8.310  1.00  0.00     0.293 HD
ENDBRANCH   6  10
TORSDOF 2
ENDMDL
MODEL 2
REMARK VINA RESULT:    -4.457      0.047      1.532
REMARK INTER + INTRA:          -4.880
REMARK INTER:                  -4.848
REMARK INTRA:                  -0.032
REMARK UNBOUND:                -0.032
REMARK SMILES O=C([O-])c1ccc(O)cc1
REMARK SMILES IDX 4 1 5 2 10 3 6 4 9 5 7 6 2 7 1 8 3 9 8 10
REMARK H PARENT 8 11
REMARK Flexibility Score: inf
ROOT
ATOM      1  C   UNL     1      34.725 -30.048  11.261  1.00  0.00    -0.003 A 
ATOM      2  C   UNL     1      35.678 -29.677  10.296  1.00  0.00     0.014 A 
ATOM      3  C   UNL     1      34.359 -31.402  11.373  1.00  0.00     0.014 A 
ATOM      4  C   UNL     1      36.253 -30.641   9.462  1.00  0.00     0.047 A 
ATOM      5  C   UNL     1      34.936 -32.363  10.536  1.00  0.00     0.047 A 
ATOM      6  C   UNL     1      35.885 -31.984   9.578  1.00  0.00     0.115 A 
ENDROOT
BRANCH   1   7
ATOM      7  C   UNL     1      34.120 -29.027  12.144  1.00  0.00     0.071 C 
ATOM      8  O   UNL     1      33.833 -27.884  11.699  1.00  0.00    -0.545 OA
ATOM      9  O   UNL     1      33.859 -29.315  13.479  1.00  0.00    -0.545 OA
ENDBRANCH   1   7
BRANCH   6  10
ATOM     10  O   UNL     1      36.465 -32.932   8.738  1.00  0.00    -0.508 OA
ATOM     11  H   UNL     1      37.124 -32.665   8.016  1.00  0.00     0.293 HD
ENDBRANCH   6  10
TORSDOF 2
ENDMDL
MODEL 3
REMARK VINA RESULT:    -4.378      0.710      1.239
REMARK INTER + INTRA:          -4.794
REMARK INTER:                  -4.767
REMARK INTRA:                  -0.027
REMARK UNBOUND:                -0.032
REMARK SMILES O=C([O-])c1ccc(O)cc1
REMARK SMILES IDX 4 1 5 2 10 3 6 4 9 5 7 6 2 7 1 8 3 9 8 10
REMARK H PARENT 8 11
REMARK Flexibility Score: inf
ROOT
ATOM      1  C   UNL     1      34.786 -29.843  11.081  1.00  0.00    -0.003 A 
ATOM      2  C   UNL     1      34.057 -30.862  10.444  1.00  0.00     0.014 A 
ATOM      3  C   UNL     1      36.155 -29.699  10.791  1.00  0.00     0.014 A 
ATOM      4  C   UNL     1      34.684 -31.718   9.534  1.00  0.00     0.047 A 
ATOM      5  C   UNL     1      36.779 -30.558   9.880  1.00  0.00     0.047 A 
ATOM      6  C   UNL     1      36.045 -31.570   9.250  1.00  0.00     0.115 A 
ENDROOT
BRANCH   1   7
ATOM      7  C   UNL     1      34.120 -28.937  12.042  1.00  0.00     0.071 C 
ATOM      8  O   UNL     1      33.945 -29.289  13.240  1.00  0.00    -0.545 OA
ATOM      9  O   UNL     1      33.676 -27.683  11.638  1.00  0.00    -0.545 OA
ENDBRANCH   1   7
BRANCH   6  10
ATOM     10  O   UNL     1      36.656 -32.432   8.342  1.00  0.00    -0.508 OA
ATOM     11  H   UNL     1      37.635 -32.680   8.425  1.00  0.00     0.293 HD
ENDBRANCH   6  10
TORSDOF 2
ENDMDL
MODEL 4
REMARK VINA RESULT:    -4.372      1.141      4.185
REMARK INTER + INTRA:          -4.787
REMARK INTER:                  -4.760
REMARK INTRA:                  -0.027
REMARK UNBOUND:                -0.032
REMARK SMILES O=C([O-])c1ccc(O)cc1
REMARK SMILES IDX 4 1 5 2 10 3 6 4 9 5 7 6 2 7 1 8 3 9 8 10
REMARK H PARENT 8 11
REMARK Flexibility Score: inf
ROOT
ATOM      1  C   UNL     1      35.868 -30.863   9.972  1.00  0.00    -0.003 A 
ATOM      2  C   UNL     1      34.508 -31.167  10.156  1.00  0.00     0.014 A 
ATOM      3  C   UNL     1      36.398 -29.708  10.576  1.00  0.00     0.014 A 
ATOM      4  C   UNL     1      33.695 -30.332  10.929  1.00  0.00     0.047 A 
ATOM      5  C   UNL     1      35.581 -28.876  11.348  1.00  0.00     0.047 A 
ATOM      6  C   UNL     1      34.227 -29.185  11.526  1.00  0.00     0.115 A 
ENDROOT
BRANCH   1   7
ATOM      7  C   UNL     1      36.727 -31.749   9.156  1.00  0.00     0.071 C 
ATOM      8  O   UNL     1      36.778 -31.615   7.904  1.00  0.00    -0.545 OA
ATOM      9  O   UNL     1      37.491 -32.742   9.758  1.00  0.00    -0.545 OA
ENDBRANCH   1   7
BRANCH   6  10
ATOM     10  O   UNL     1      33.403 -28.363  12.292  1.00  0.00    -0.508 OA
ATOM     11  H   UNL     1      33.106 -27.454  11.957  1.00  0.00     0.293 HD
ENDBRANCH   6  10
TORSDOF 2
ENDMDL
MODEL 5
REMARK VINA RESULT:    -4.367      1.144      4.395
REMARK INTER + INTRA:          -4.782
REMARK INTER:                  -4.755
REMARK INTRA:                  -0.027
REMARK UNBOUND:                -0.032
REMARK SMILES O=C([O-])c1ccc(O)cc1
REMARK SMILES IDX 4 1 5 2 10 3 6 4 9 5 7 6 2 7 1 8 3 9 8 10
REMARK H PARENT 8 11
REMARK Flexibility Score: inf
ROOT
ATOM      1  C   UNL     1      35.890 -30.895   9.974  1.00  0.00    -0.003 A 
ATOM      2  C   UNL     1      36.412 -29.735  10.573  1.00  0.00     0.014 A 
ATOM      3  C   UNL     1      34.530 -31.206  10.157  1.00  0.00     0.014 A 
ATOM      4  C   UNL     1      35.589 -28.903  11.339  1.00  0.00     0.047 A 
ATOM      5  C   UNL     1      33.711 -30.371  10.924  1.00  0.00     0.047 A 
ATOM      6  C   UNL     1      34.239 -29.217  11.517  1.00  0.00     0.115 A 
ENDROOT
BRANCH   1   7
ATOM      7  C   UNL     1      36.762 -31.773   9.164  1.00  0.00     0.071 C 
ATOM      8  O   UNL     1      36.776 -31.679   7.907  1.00  0.00    -0.545 OA
ATOM      9  O   UNL     1      37.580 -32.716   9.777  1.00  0.00    -0.545 OA
ENDBRANCH   1   7
BRANCH   6  10
ATOM     10  O   UNL     1      33.433 -28.378  12.283  1.00  0.00    -0.508 OA
ATOM     11  H   UNL     1      32.669 -27.857  11.870  1.00  0.00     0.293 HD
ENDBRANCH   6  10
TORSDOF 2
ENDMDL
MODEL 6
REMARK VINA RESULT:    -3.711     18.582     20.430
REMARK INTER + INTRA:          -4.068
REMARK INTER:                  -4.038
REMARK INTRA:                  -0.030
REMARK UNBOUND:                -0.032
REMARK SMILES O=C([O-])c1ccc(O)cc1
REMARK SMILES IDX 4 1 5 2 10 3 6 4 9 5 7 6 2 7 1 8 3 9 8 10
REMARK H PARENT 8 11
REMARK Flexibility Score: inf
ROOT
ATOM      1  C   UNL     1      23.040 -15.531   7.318  1.00  0.00    -0.003 A 
ATOM      2  C   UNL     1      21.994 -16.003   6.506  1.00  0.00     0.014 A 
ATOM      3  C   UNL     1      23.321 -14.153   7.334  1.00  0.00     0.014 A 
ATOM      4  C   UNL     1      21.245 -15.115   5.728  1.00  0.00     0.047 A 
ATOM      5  C   UNL     1      22.570 -13.267   6.555  1.00  0.00     0.047 A 
ATOM      6  C   UNL     1      21.530 -13.747   5.749  1.00  0.00     0.115 A 
ENDROOT
BRANCH   1   7
ATOM      7  C   UNL     1      23.830 -16.473   8.141  1.00  0.00     0.071 C 
ATOM      8  O   UNL     1      24.363 -17.488   7.619  1.00  0.00    -0.545 OA
ATOM      9  O   UNL     1      23.995 -16.251   9.503  1.00  0.00    -0.545 OA
ENDBRANCH   1   7
BRANCH   6  10
ATOM     10  O   UNL     1      20.775 -12.875   4.967  1.00  0.00    -0.508 OA
ATOM     11  H   UNL     1      21.025 -12.677   4.005  1.00  0.00     0.293 HD
ENDBRANCH   6  10
TORSDOF 2
ENDMDL
MODEL 7
REMARK VINA RESULT:    -3.693     18.583     20.470
REMARK INTER + INTRA:          -4.049
REMARK INTER:                  -4.019
REMARK INTRA:                  -0.030
REMARK UNBOUND:                -0.032
REMARK SMILES O=C([O-])c1ccc(O)cc1
REMARK SMILES IDX 4 1 5 2 10 3 6 4 9 5 7 6 2 7 1 8 3 9 8 10
REMARK H PARENT 8 11
REMARK Flexibility Score: inf
ROOT
ATOM      1  C   UNL     1      23.023 -15.545   7.320  1.00  0.00    -0.003 A 
ATOM      2  C   UNL     1      23.284 -14.164   7.350  1.00  0.00     0.014 A 
ATOM      3  C   UNL     1      21.985 -16.026   6.500  1.00  0.00     0.014 A 
ATOM      4  C   UNL     1      22.524 -13.283   6.575  1.00  0.00     0.047 A 
ATOM      5  C   UNL     1      21.227 -15.141   5.726  1.00  0.00     0.047 A 
ATOM      6  C   UNL     1      21.495 -13.766   5.763  1.00  0.00     0.115 A 
ENDROOT
BRANCH   1   7
ATOM      7  C   UNL     1      23.829 -16.476   8.140  1.00  0.00     0.071 C 
ATOM      8  O   UNL     1      24.371 -17.486   7.616  1.00  0.00    -0.545 OA
ATOM      9  O   UNL     1      24.000 -16.250   9.501  1.00  0.00    -0.545 OA
ENDBRANCH   1   7
BRANCH   6  10
ATOM     10  O   UNL     1      20.746 -12.875   4.998  1.00  0.00    -0.508 OA
ATOM     11  H   UNL     1      20.945 -11.882   4.999  1.00  0.00     0.293 HD
ENDBRANCH   6  10
TORSDOF 2
ENDMDL
MODEL 8
REMARK VINA RESULT:    -3.335      2.568      5.313
REMARK INTER + INTRA:          -3.660
REMARK INTER:                  -3.625
REMARK INTRA:                  -0.035
REMARK UNBOUND:                -0.032
REMARK SMILES O=C([O-])c1ccc(O)cc1
REMARK SMILES IDX 4 1 5 2 10 3 6 4 9 5 7 6 2 7 1 8 3 9 8 10
REMARK H PARENT 8 11
REMARK Flexibility Score: inf
ROOT
ATOM      1  C   UNL     1      36.126 -32.320   7.597  1.00  0.00    -0.003 A 
ATOM      2  C   UNL     1      36.768 -31.332   8.365  1.00  0.00     0.014 A 
ATOM      3  C   UNL     1      35.145 -33.125   8.203  1.00  0.00     0.014 A 
ATOM      4  C   UNL     1      36.434 -31.154   9.711  1.00  0.00     0.047 A 
ATOM      5  C   UNL     1      34.814 -32.943   9.550  1.00  0.00     0.047 A 
ATOM      6  C   UNL     1      35.458 -31.957  10.307  1.00  0.00     0.115 A 
ENDROOT
BRANCH   1   7
ATOM      7  C   UNL     1      36.481 -32.506   6.173  1.00  0.00     0.071 C 
ATOM      8  O   UNL     1      37.591 -32.105   5.731  1.00  0.00    -0.545 OA
ATOM      9  O   UNL     1      35.593 -33.125   5.300  1.00  0.00    -0.545 OA
ENDBRANCH   1   7
BRANCH   6  10
ATOM     10  O   UNL     1      35.137 -31.768  11.650  1.00  0.00    -0.508 OA
ATOM     11  H   UNL     1      35.429 -32.428  12.361  1.00  0.00     0.293 HD
ENDBRANCH   6  10
TORSDOF 2
ENDMDL
MODEL 9
REMARK VINA RESULT:    -3.059     19.348     21.140
REMARK INTER + INTRA:          -3.360
REMARK INTER:                  -3.333
REMARK INTRA:                  -0.027
REMARK UNBOUND:                -0.032
REMARK SMILES O=C([O-])c1ccc(O)cc1
REMARK SMILES IDX 4 1 5 2 10 3 6 4 9 5 7 6 2 7 1 8 3 9 8 10
REMARK H PARENT 8 11
REMARK Flexibility Score: inf
ROOT
ATOM      1  C   UNL     1      21.852 -14.144   6.106  1.00  0.00    -0.003 A 
ATOM      2  C   UNL     1      22.784 -13.491   6.931  1.00  0.00     0.014 A 
ATOM      3  C   UNL     1      21.755 -15.546   6.162  1.00  0.00     0.014 A 
ATOM      4  C   UNL     1      23.601 -14.227   7.795  1.00  0.00     0.047 A 
ATOM      5  C   UNL     1      22.574 -16.278   7.027  1.00  0.00     0.047 A 
ATOM      6  C   UNL     1      23.500 -15.620   7.846  1.00  0.00     0.115 A 
ENDROOT
BRANCH   1   7
ATOM      7  C   UNL     1      20.987 -13.364   5.193  1.00  0.00     0.071 C 
ATOM      8  O   UNL     1      19.898 -12.878   5.602  1.00  0.00    -0.545 OA
ATOM      9  O   UNL     1      21.364 -13.154   3.872  1.00  0.00    -0.545 OA
ENDBRANCH   1   7
BRANCH   6  10
ATOM     10  O   UNL     1      24.322 -16.339   8.711  1.00  0.00    -0.508 OA
ATOM     11  H   UNL     1      25.112 -16.873   8.367  1.00  0.00     0.293 HD
ENDBRANCH   6  10
TORSDOF 2
ENDMDL
