MODEL 1
REMARK VINA RESULT:    -3.276      0.000      0.000
REMARK INTER + INTRA:          -4.250
REMARK INTER:                  -4.042
REMARK INTRA:                  -0.208
REMARK UNBOUND:                -0.208
REMARK SMILES CCCCCC(=O)[O-]
REMARK SMILES IDX 4 1 5 2 6 3 7 4 8 5 3 6 2 7 1 8
REMARK H PARENT
REMARK Flexibility Score: inf
ROOT
ATOM      1  C   UNL     1     -33.472  25.372  30.669  1.00  0.00     0.006 C 
ENDROOT
BRANCH   1   2
ATOM      2  C   UNL     1     -34.098  25.257  32.065  1.00  0.00     0.053 C 
BRANCH   2   3
ATOM      3  C   UNL     1     -34.644  23.885  32.319  1.00  0.00     0.041 C 
ATOM      4  O   UNL     1     -35.869  23.649  32.161  1.00  0.00    -0.550 OA
ATOM      5  O   UNL     1     -33.800  22.873  32.761  1.00  0.00    -0.550 OA
ENDBRANCH   2   3
ENDBRANCH   1   2
BRANCH   1   6
ATOM      6  C   UNL     1     -31.943  25.193  30.703  1.00  0.00     0.000 C 
BRANCH   6   7
ATOM      7  C   UNL     1     -31.433  24.271  29.584  1.00  0.00    -0.003 C 
ATOM      8  C   UNL     1     -31.916  22.831  29.735  1.00  0.00     0.004 C 
ENDBRANCH   6   7
ENDBRANCH   1   6
TORSDOF 4
ENDMDL
MODEL 2
REMARK VINA RESULT:    -3.199      1.132      1.784
REMARK INTER + INTRA:          -4.155
REMARK INTER:                  -4.075
REMARK INTRA:                  -0.080
REMARK UNBOUND:                -0.208
REMARK SMILES CCCCCC(=O)[O-]
REMARK SMILES IDX 4 1 5 2 6 3 7 4 8 5 3 6 2 7 1 8
REMARK H PARENT
REMARK Flexibility Score: inf
ROOT
ATOM      1  C   UNL     1     -32.123  25.103  30.865  1.00  0.00     0.006 C 
ENDROOT
BRANCH   1   2
ATOM      2  C   UNL     1     -33.616  25.431  30.730  1.00  0.00     0.053 C 
BRANCH   2   3
ATOM      3  C   UNL     1     -34.380  25.066  31.966  1.00  0.00     0.041 C 
ATOM      4  O   UNL     1     -33.998  25.476  33.092  1.00  0.00    -0.550 OA
ATOM      5  O   UNL     1     -35.499  24.248  31.874  1.00  0.00    -0.550 OA
ENDBRANCH   2   3
ENDBRANCH   1   2
BRANCH   1   6
ATOM      6  C   UNL     1     -31.574  24.380  29.622  1.00  0.00     0.000 C 
BRANCH   6   7
ATOM      7  C   UNL     1     -31.937  22.887  29.602  1.00  0.00    -0.003 C 
ATOM      8  C   UNL     1     -31.070  22.078  28.639  1.00  0.00     0.004 C 
ENDBRANCH   6   7
ENDBRANCH   1   6
TORSDOF 4
ENDMDL
MODEL 3
REMARK VINA RESULT:    -3.194      1.761      2.537
REMARK INTER + INTRA:          -4.148
REMARK INTER:                  -4.022
REMARK INTRA:                  -0.127
REMARK UNBOUND:                -0.208
REMARK SMILES CCCCCC(=O)[O-]
REMARK SMILES IDX 4 1 5 2 6 3 7 4 8 5 3 6 2 7 1 8
REMARK H PARENT
REMARK Flexibility Score: inf
ROOT
ATOM      1  C   UNL     1     -31.585  24.371  29.610  1.00  0.00     0.006 C 
ENDROOT
BRANCH   1   2
ATOM      2  C   UNL     1     -31.942  25.221  30.837  1.00  0.00     0.053 C 
BRANCH   2   3
ATOM      3  C   UNL     1     -33.423  25.304  31.046  1.00  0.00     0.041 C 
ATOM      4  O   UNL     1     -34.190  25.515  30.071  1.00  0.00    -0.550 OA
ATOM      5  O   UNL     1     -33.953  25.176  32.324  1.00  0.00    -0.550 OA
ENDBRANCH   2   3
ENDBRANCH   1   2
BRANCH   1   6
ATOM      6  C   UNL     1     -31.892  22.879  29.830  1.00  0.00     0.000 C 
BRANCH   6   7
ATOM      7  C   UNL     1     -31.149  21.973  28.836  1.00  0.00    -0.003 C 
ATOM      8  C   UNL     1     -29.994  22.684  28.133  1.00  0.00     0.004 C 
ENDBRANCH   6   7
ENDBRANCH   1   6
TORSDOF 4
ENDMDL
MODEL 4
REMARK VINA RESULT:    -3.168      1.942      3.688
REMARK INTER + INTRA:          -4.116
REMARK INTER:                  -3.979
REMARK INTRA:                  -0.137
REMARK UNBOUND:                -0.208
REMARK SMILES CCCCCC(=O)[O-]
REMARK SMILES IDX 4 1 5 2 6 3 7 4 8 5 3 6 2 7 1 8
REMARK H PARENT
REMARK Flexibility Score: inf
ROOT
ATOM      1  C   UNL     1     -32.000  25.003  30.864  1.00  0.00     0.006 C 
ENDROOT
BRANCH   1   2
ATOM      2  C   UNL     1     -31.544  24.319  29.568  1.00  0.00     0.053 C 
BRANCH   2   3
ATOM      3  C   UNL     1     -31.775  22.840  29.609  1.00  0.00     0.041 C 
ATOM      4  O   UNL     1     -31.467  22.122  28.622  1.00  0.00    -0.550 OA
ATOM      5  O   UNL     1     -32.359  22.258  30.727  1.00  0.00    -0.550 OA
ENDBRANCH   2   3
ENDBRANCH   1   2
BRANCH   1   6
ATOM      6  C   UNL     1     -33.465  25.469  30.789  1.00  0.00     0.000 C 
BRANCH   6   7
ATOM      7  C   UNL     1     -34.198  25.321  32.131  1.00  0.00    -0.003 C 
ATOM      8  C   UNL     1     -35.104  24.092  32.180  1.00  0.00     0.004 C 
ENDBRANCH   6   7
ENDBRANCH   1   6
TORSDOF 4
ENDMDL
MODEL 5
REMARK VINA RESULT:    -3.058      3.149      4.432
REMARK INTER + INTRA:          -3.981
REMARK INTER:                  -3.920
REMARK INTRA:                  -0.061
REMARK UNBOUND:                -0.208
REMARK SMILES CCCCCC(=O)[O-]
REMARK SMILES IDX 4 1 5 2 6 3 7 4 8 5 3 6 2 7 1 8
REMARK H PARENT
REMARK Flexibility Score: inf
ROOT
ATOM      1  C   UNL     1     -34.993  25.812  30.031  1.00  0.00     0.006 C 
ENDROOT
BRANCH   1   2
ATOM      2  C   UNL     1     -34.088  25.189  31.103  1.00  0.00     0.053 C 
BRANCH   2   3
ATOM      3  C   UNL     1     -32.716  24.902  30.575  1.00  0.00     0.041 C 
ATOM      4  O   UNL     1     -31.701  25.364  31.158  1.00  0.00    -0.550 OA
ATOM      5  O   UNL     1     -32.561  24.146  29.419  1.00  0.00    -0.550 OA
ENDBRANCH   2   3
ENDBRANCH   1   2
BRANCH   1   6
ATOM      6  C   UNL     1     -35.131  27.335  30.203  1.00  0.00     0.000 C 
BRANCH   6   7
ATOM      7  C   UNL     1     -36.055  27.964  29.149  1.00  0.00    -0.003 C 
ATOM      8  C   UNL     1     -35.805  29.459  28.957  1.00  0.00     0.004 C 
ENDBRANCH   6   7
ENDBRANCH   1   6
TORSDOF 4
ENDMDL
MODEL 6
REMARK VINA RESULT:    -3.012      8.245      8.774
REMARK INTER + INTRA:          -3.924
REMARK INTER:                  -3.857
REMARK INTRA:                  -0.067
REMARK UNBOUND:                -0.208
REMARK SMILES CCCCCC(=O)[O-]
REMARK SMILES IDX 4 1 5 2 6 3 7 4 8 5 3 6 2 7 1 8
REMARK H PARENT
REMARK Flexibility Score: inf
ROOT
ATOM      1  C   UNL     1     -30.917  20.197  24.208  1.00  0.00     0.006 C 
ENDROOT
BRANCH   1   2
ATOM      2  C   UNL     1     -31.928  19.061  24.005  1.00  0.00     0.053 C 
BRANCH   2   3
ATOM      3  C   UNL     1     -33.263  19.391  24.597  1.00  0.00     0.041 C 
ATOM      4  O   UNL     1     -33.845  20.465  24.294  1.00  0.00    -0.550 OA
ATOM      5  O   UNL     1     -33.853  18.524  25.509  1.00  0.00    -0.550 OA
ENDBRANCH   2   3
ENDBRANCH   1   2
BRANCH   1   6
ATOM      6  C   UNL     1     -30.122  20.502  22.926  1.00  0.00     0.000 C 
BRANCH   6   7
ATOM      7  C   UNL     1     -29.151  21.680  23.101  1.00  0.00    -0.003 C 
ATOM      8  C   UNL     1     -27.689  21.241  23.158  1.00  0.00     0.004 C 
ENDBRANCH   6   7
ENDBRANCH   1   6
TORSDOF 4
ENDMDL
MODEL 7
REMARK VINA RESULT:    -2.924      3.390      4.648
REMARK INTER + INTRA:          -3.815
REMARK INTER:                  -3.686
REMARK INTRA:                  -0.129
REMARK UNBOUND:                -0.208
REMARK SMILES CCCCCC(=O)[O-]
REMARK SMILES IDX 4 1 5 2 6 3 7 4 8 5 3 6 2 7 1 8
REMARK H PARENT
REMARK Flexibility Score: inf
ROOT
ATOM      1  C   UNL     1     -31.216  23.568  30.425  1.00  0.00     0.006 C 
ENDROOT
BRANCH   1   2
ATOM      2  C   UNL     1     -31.794  22.723  29.282  1.00  0.00     0.053 C 
BRANCH   2   3
ATOM      3  C   UNL     1     -30.717  22.153  28.411  1.00  0.00     0.041 C 
ATOM      4  O   UNL     1     -29.522  22.515  28.560  1.00  0.00    -0.550 OA
ATOM      5  O   UNL     1     -31.041  21.241  27.414  1.00  0.00    -0.550 OA
ENDBRANCH   2   3
ENDBRANCH   1   2
BRANCH   1   6
ATOM      6  C   UNL     1     -31.761  25.007  30.415  1.00  0.00     0.000 C 
BRANCH   6   7
ATOM      7  C   UNL     1     -33.297  25.054  30.368  1.00  0.00    -0.003 C 
ATOM      8  C   UNL     1     -33.934  25.042  31.756  1.00  0.00     0.004 C 
ENDBRANCH   6   7
ENDBRANCH   1   6
TORSDOF 4
ENDMDL
MODEL 8
REMARK VINA RESULT:    -2.887      8.161      9.335
REMARK INTER + INTRA:          -3.770
REMARK INTER:                  -3.671
REMARK INTRA:                  -0.098
REMARK UNBOUND:                -0.208
REMARK SMILES CCCCCC(=O)[O-]
REMARK SMILES IDX 4 1 5 2 6 3 7 4 8 5 3 6 2 7 1 8
REMARK H PARENT
REMARK Flexibility Score: inf
ROOT
ATOM      1  C   UNL     1     -33.381  16.917  25.714  1.00  0.00     0.006 C 
ENDROOT
BRANCH   1   2
ATOM      2  C   UNL     1     -33.672  17.889  24.563  1.00  0.00     0.053 C 
BRANCH   2   3
ATOM      3  C   UNL     1     -33.201  19.277  24.873  1.00  0.00     0.041 C 
ATOM      4  O   UNL     1     -33.748  20.270  24.327  1.00  0.00    -0.550 OA
ATOM      5  O   UNL     1     -32.136  19.470  25.744  1.00  0.00    -0.550 OA
ENDBRANCH   2   3
ENDBRANCH   1   2
BRANCH   1   6
ATOM      6  C   UNL     1     -34.652  16.555  26.503  1.00  0.00     0.000 C 
BRANCH   6   7
ATOM      7  C   UNL     1     -34.402  15.461  27.552  1.00  0.00    -0.003 C 
ATOM      8  C   UNL     1     -33.418  14.394  27.074  1.00  0.00     0.004 C 
ENDBRANCH   6   7
ENDBRANCH   1   6
TORSDOF 4
ENDMDL
MODEL 9
REMARK VINA RESULT:    -2.840      8.396      9.359
REMARK INTER + INTRA:          -3.712
REMARK INTER:                  -3.618
REMARK INTRA:                  -0.093
REMARK UNBOUND:                -0.208
REMARK SMILES CCCCCC(=O)[O-]
REMARK SMILES IDX 4 1 5 2 6 3 7 4 8 5 3 6 2 7 1 8
REMARK H PARENT
REMARK Flexibility Score: inf
ROOT
ATOM      1  C   UNL     1     -31.497  19.820  24.717  1.00  0.00     0.006 C 
ENDROOT
BRANCH   1   2
ATOM      2  C   UNL     1     -30.701  20.194  23.460  1.00  0.00     0.053 C 
BRANCH   2   3
ATOM      3  C   UNL     1     -29.661  21.234  23.747  1.00  0.00     0.041 C 
ATOM      4  O   UNL     1     -29.388  21.548  24.935  1.00  0.00    -0.550 OA
ATOM      5  O   UNL     1     -29.015  21.879  22.699  1.00  0.00    -0.550 OA
ENDBRANCH   2   3
ENDBRANCH   1   2
BRANCH   1   6
ATOM      6  C   UNL     1     -33.010  19.751  24.445  1.00  0.00     0.000 C 
BRANCH   6   7
ATOM      7  C   UNL     1     -33.683  18.572  25.165  1.00  0.00    -0.003 C 
ATOM      8  C   UNL     1     -33.734  17.306  24.312  1.00  0.00     0.004 C 
ENDBRANCH   6   7
ENDBRANCH   1   6
TORSDOF 4
ENDMDL
