MODEL 1
REMARK VINA RESULT:    -0.212      0.000      0.000
REMARK INTER + INTRA:          -0.212
REMARK INTER:                  -0.212
REMARK INTRA:                   0.000
REMARK UNBOUND:                 0.000
REMARK SMILES CC(=O)[O-]
REMARK SMILES IDX 1 1 2 2 3 3 4 4
REMARK H PARENT
REMARK Flexibility Score: inf
ROOT
ATOM      1  C   UNL     1     158.032 181.994 178.882  1.00  0.00     0.063 C 
ATOM      2  C   UNL     1     158.572 181.037 177.874  1.00  0.00     0.038 C 
ATOM      3  O   UNL     1     157.877 180.713 176.876  1.00  0.00    -0.550 OA
ATOM      4  O   UNL     1     159.862 180.541 178.006  1.00  0.00    -0.550 OA
ENDROOT
TORSDOF 0
ENDMDL
MODEL 2
REMARK VINA RESULT:    -0.117      1.798      1.798
REMARK INTER + INTRA:          -0.117
REMARK INTER:                  -0.117
REMARK INTRA:                   0.000
REMARK UNBOUND:                 0.000
REMARK SMILES CC(=O)[O-]
REMARK SMILES IDX 1 1 2 2 3 3 4 4
REMARK H PARENT
REMARK Flexibility Score: inf
ROOT
ATOM      1  C   UNL     1     160.234 182.136 177.623  1.00  0.00     0.063 C 
ATOM      2  C   UNL     1     160.084 180.653 177.647  1.00  0.00     0.038 C 
ATOM      3  O   UNL     1     159.250 180.091 176.890  1.00  0.00    -0.550 OA
ATOM      4  O   UNL     1     160.901 179.884 178.465  1.00  0.00    -0.550 OA
ENDROOT
TORSDOF 0
ENDMDL
MODEL 3
REMARK VINA RESULT:    -0.117      2.963      3.324
REMARK INTER + INTRA:          -0.117
REMARK INTER:                  -0.117
REMARK INTRA:                   0.000
REMARK UNBOUND:                 0.000
REMARK SMILES CC(=O)[O-]
REMARK SMILES IDX 1 1 2 2 3 3 4 4
REMARK H PARENT
REMARK Flexibility Score: inf
ROOT
ATOM      1  C   UNL     1     159.827 184.170 178.351  1.00  0.00     0.063 C 
ATOM      2  C   UNL     1     158.578 183.844 177.605  1.00  0.00     0.038 C 
ATOM      3  O   UNL     1     158.096 182.683 177.658  1.00  0.00    -0.550 OA
ATOM      4  O   UNL     1     157.914 184.834 176.893  1.00  0.00    -0.550 OA
ENDROOT
TORSDOF 0
ENDMDL
MODEL 4
REMARK VINA RESULT:    -0.115      2.067      2.291
REMARK INTER + INTRA:          -0.115
REMARK INTER:                  -0.115
REMARK INTRA:                   0.000
REMARK UNBOUND:                 0.000
REMARK SMILES CC(=O)[O-]
REMARK SMILES IDX 1 1 2 2 3 3 4 4
REMARK H PARENT
REMARK Flexibility Score: inf
ROOT
ATOM      1  C   UNL     1     159.484 179.877 177.293  1.00  0.00     0.063 C 
ATOM      2  C   UNL     1     159.876 181.234 177.769  1.00  0.00     0.038 C 
ATOM      3  O   UNL     1     160.311 182.088 176.954  1.00  0.00    -0.550 OA
ATOM      4  O   UNL     1     159.712 181.578 179.105  1.00  0.00    -0.550 OA
ENDROOT
TORSDOF 0
ENDMDL
MODEL 5
REMARK VINA RESULT:    -0.095     26.819     26.986
REMARK INTER + INTRA:          -0.095
REMARK INTER:                  -0.095
REMARK INTRA:                   0.000
REMARK UNBOUND:                 0.000
REMARK SMILES CC(=O)[O-]
REMARK SMILES IDX 1 1 2 2 3 3 4 4
REMARK H PARENT
REMARK Flexibility Score: inf
ROOT
ATOM      1  C   UNL     1     176.420 200.124 183.022  1.00  0.00     0.063 C 
ATOM      2  C   UNL     1     177.114 199.611 184.238  1.00  0.00     0.038 C 
ATOM      3  O   UNL     1     176.755 199.999 185.380  1.00  0.00    -0.550 OA
ATOM      4  O   UNL     1     178.121 198.663 184.117  1.00  0.00    -0.550 OA
ENDROOT
TORSDOF 0
ENDMDL
MODEL 6
REMARK VINA RESULT:    -0.093     26.905     27.197
REMARK INTER + INTRA:          -0.093
REMARK INTER:                  -0.093
REMARK INTRA:                   0.000
REMARK UNBOUND:                 0.000
REMARK SMILES CC(=O)[O-]
REMARK SMILES IDX 1 1 2 2 3 3 4 4
REMARK H PARENT
REMARK Flexibility Score: inf
ROOT
ATOM      1  C   UNL     1     175.799 200.034 183.979  1.00  0.00     0.063 C 
ATOM      2  C   UNL     1     177.124 199.760 184.605  1.00  0.00     0.038 C 
ATOM      3  O   UNL     1     178.107 199.438 183.888  1.00  0.00    -0.550 OA
ATOM      4  O   UNL     1     177.291 199.910 185.976  1.00  0.00    -0.550 OA
ENDROOT
TORSDOF 0
ENDMDL
MODEL 7
REMARK VINA RESULT:    -0.093     26.989     27.124
REMARK INTER + INTRA:          -0.093
REMARK INTER:                  -0.093
REMARK INTRA:                   0.000
REMARK UNBOUND:                 0.000
REMARK SMILES CC(=O)[O-]
REMARK SMILES IDX 1 1 2 2 3 3 4 4
REMARK H PARENT
REMARK Flexibility Score: inf
ROOT
ATOM      1  C   UNL     1     178.004 198.646 185.054  1.00  0.00     0.063 C 
ATOM      2  C   UNL     1     176.933 199.680 184.963  1.00  0.00     0.038 C 
ATOM      3  O   UNL     1     176.577 200.121 183.840  1.00  0.00    -0.550 OA
ATOM      4  O   UNL     1     176.290 200.119 186.112  1.00  0.00    -0.550 OA
ENDROOT
TORSDOF 0
ENDMDL
MODEL 8
REMARK VINA RESULT:    -0.092     26.615     26.907
REMARK INTER + INTRA:          -0.092
REMARK INTER:                  -0.092
REMARK INTRA:                   0.000
REMARK UNBOUND:                 0.000
REMARK SMILES CC(=O)[O-]
REMARK SMILES IDX 1 1 2 2 3 3 4 4
REMARK H PARENT
REMARK Flexibility Score: inf
ROOT
ATOM      1  C   UNL     1     175.964 200.125 182.526  1.00  0.00     0.063 C 
ATOM      2  C   UNL     1     177.195 199.695 183.250  1.00  0.00     0.038 C 
ATOM      3  O   UNL     1     178.123 199.116 182.628  1.00  0.00    -0.550 OA
ATOM      4  O   UNL     1     177.344 199.980 184.601  1.00  0.00    -0.550 OA
ENDROOT
TORSDOF 0
ENDMDL
MODEL 9
REMARK VINA RESULT:    -0.089     26.397     26.809
REMARK INTER + INTRA:          -0.089
REMARK INTER:                  -0.089
REMARK INTRA:                   0.000
REMARK UNBOUND:                 0.000
REMARK SMILES CC(=O)[O-]
REMARK SMILES IDX 1 1 2 2 3 3 4 4
REMARK H PARENT
REMARK Flexibility Score: inf
ROOT
ATOM      1  C   UNL     1     178.094 200.113 181.733  1.00  0.00     0.063 C 
ATOM      2  C   UNL     1     177.352 199.940 180.451  1.00  0.00     0.038 C 
ATOM      3  O   UNL     1     176.120 199.685 180.464  1.00  0.00    -0.550 OA
ATOM      4  O   UNL     1     178.007 200.111 179.239  1.00  0.00    -0.550 OA
ENDROOT
TORSDOF 0
ENDMDL
