MODEL 1
REMARK VINA RESULT:    -4.315      0.000      0.000
REMARK INTER + INTRA:          -7.306
REMARK INTER:                  -6.585
REMARK INTRA:                  -0.721
REMARK UNBOUND:                -0.721
REMARK SMILES O=C([O-])CCCCCCCCC(=O)[O-]
REMARK SMILES IDX 7 1 6 2 5 3 4 4 2 5 1 6 3 7 8 8 9 9 10 10 11 11 12 12 13 13
REMARK SMILES IDX 14 14
REMARK H PARENT
REMARK Flexibility Score: inf
ROOT
ATOM      1  C   UNL     1     -11.088  -5.896  -4.481  1.00  0.00     0.000 C 
ENDROOT
BRANCH   1   2
ATOM      2  C   UNL     1     -10.680  -4.477  -4.913  1.00  0.00     0.000 C 
BRANCH   2   3
ATOM      3  C   UNL     1     -10.856  -3.433  -3.794  1.00  0.00     0.006 C 
BRANCH   3   4
ATOM      4  C   UNL     1     -10.585  -3.983  -2.381  1.00  0.00     0.053 C 
BRANCH   4   5
ATOM      5  C   UNL     1      -9.174  -3.754  -1.933  1.00  0.00     0.041 C 
ATOM      6  O   UNL     1      -8.675  -2.598  -1.965  1.00  0.00    -0.550 OA
ATOM      7  O   UNL     1      -8.418  -4.814  -1.446  1.00  0.00    -0.550 OA
ENDBRANCH   4   5
ENDBRANCH   3   4
ENDBRANCH   2   3
ENDBRANCH   1   2
BRANCH   1   8
ATOM      8  C   UNL     1     -11.038  -6.906  -5.639  1.00  0.00     0.000 C 
BRANCH   8   9
ATOM      9  C   UNL     1     -10.551  -6.272  -6.954  1.00  0.00     0.000 C 
BRANCH   9  10
ATOM     10  C   UNL     1      -9.229  -6.882  -7.449  1.00  0.00     0.006 C 
BRANCH  10  11
ATOM     11  C   UNL     1      -7.997  -6.180  -6.865  1.00  0.00     0.053 C 
BRANCH  11  12
ATOM     12  C   UNL     1      -7.538  -6.878  -5.624  1.00  0.00     0.041 C 
ATOM     13  O   UNL     1      -7.029  -8.028  -5.696  1.00  0.00    -0.550 OA
ATOM     14  O   UNL     1      -7.717  -6.281  -4.383  1.00  0.00    -0.550 OA
ENDBRANCH  11  12
ENDBRANCH  10  11
ENDBRANCH   9  10
ENDBRANCH   8   9
ENDBRANCH   1   8
TORSDOF 9
ENDMDL
MODEL 2
REMARK VINA RESULT:    -4.277      1.558      1.824
REMARK INTER + INTRA:          -7.248
REMARK INTER:                  -6.626
REMARK INTRA:                  -0.622
REMARK UNBOUND:                -0.721
REMARK SMILES O=C([O-])CCCCCCCCC(=O)[O-]
REMARK SMILES IDX 7 1 6 2 5 3 4 4 2 5 1 6 3 7 8 8 9 9 10 10 11 11 12 12 13 13
REMARK SMILES IDX 14 14
REMARK H PARENT
REMARK Flexibility Score: inf
ROOT
ATOM      1  C   UNL     1     -10.100  -5.443  -4.963  1.00  0.00     0.000 C 
ENDROOT
BRANCH   1   2
ATOM      2  C   UNL     1     -11.076  -5.045  -3.842  1.00  0.00     0.000 C 
BRANCH   2   3
ATOM      3  C   UNL     1     -10.954  -3.565  -3.435  1.00  0.00     0.006 C 
BRANCH   3   4
ATOM      4  C   UNL     1     -10.453  -3.353  -1.994  1.00  0.00     0.053 C 
BRANCH   4   5
ATOM      5  C   UNL     1      -8.969  -3.521  -1.868  1.00  0.00     0.041 C 
ATOM      6  O   UNL     1      -8.200  -2.541  -2.053  1.00  0.00    -0.550 OA
ATOM      7  O   UNL     1      -8.437  -4.754  -1.512  1.00  0.00    -0.550 OA
ENDBRANCH   4   5
ENDBRANCH   3   4
ENDBRANCH   2   3
ENDBRANCH   1   2
BRANCH   1   8
ATOM      8  C   UNL     1     -10.485  -6.767  -5.642  1.00  0.00     0.000 C 
BRANCH   8   9
ATOM      9  C   UNL     1     -10.939  -6.572  -7.099  1.00  0.00     0.000 C 
BRANCH   9  10
ATOM     10  C   UNL     1     -10.158  -5.459  -7.817  1.00  0.00     0.006 C 
BRANCH  10  11
ATOM     11  C   UNL     1      -9.056  -6.005  -8.733  1.00  0.00     0.053 C 
BRANCH  11  12
ATOM     12  C   UNL     1      -7.706  -5.697  -8.167  1.00  0.00     0.041 C 
ATOM     13  O   UNL     1      -6.941  -4.889  -8.757  1.00  0.00    -0.550 OA
ATOM     14  O   UNL     1      -7.272  -6.338  -7.014  1.00  0.00    -0.550 OA
ENDBRANCH  11  12
ENDBRANCH  10  11
ENDBRANCH   9  10
ENDBRANCH   8   9
ENDBRANCH   1   8
TORSDOF 9
ENDMDL
MODEL 3
REMARK VINA RESULT:    -4.244      1.644      5.282
REMARK INTER + INTRA:          -7.198
REMARK INTER:                  -6.556
REMARK INTRA:                  -0.642
REMARK UNBOUND:                -0.721
REMARK SMILES O=C([O-])CCCCCCCCC(=O)[O-]
REMARK SMILES IDX 7 1 6 2 5 3 4 4 2 5 1 6 3 7 8 8 9 9 10 10 11 11 12 12 13 13
REMARK SMILES IDX 14 14
REMARK H PARENT
REMARK Flexibility Score: inf
ROOT
ATOM      1  C   UNL     1     -10.473  -6.751  -5.799  1.00  0.00     0.000 C 
ENDROOT
BRANCH   1   2
ATOM      2  C   UNL     1     -10.596  -6.326  -7.273  1.00  0.00     0.000 C 
BRANCH   2   3
ATOM      3  C   UNL     1      -9.949  -4.957  -7.560  1.00  0.00     0.006 C 
BRANCH   3   4
ATOM      4  C   UNL     1      -8.958  -4.971  -8.737  1.00  0.00     0.053 C 
BRANCH   4   5
ATOM      5  C   UNL     1      -7.818  -5.920  -8.522  1.00  0.00     0.041 C 
ATOM      6  O   UNL     1      -7.449  -6.691  -9.447  1.00  0.00    -0.550 OA
ATOM      7  O   UNL     1      -7.141  -5.929  -7.309  1.00  0.00    -0.550 OA
ENDBRANCH   4   5
ENDBRANCH   3   4
ENDBRANCH   2   3
ENDBRANCH   1   2
BRANCH   1   8
ATOM      8  C   UNL     1      -9.935  -5.627  -4.900  1.00  0.00     0.000 C 
BRANCH   8   9
ATOM      9  C   UNL     1     -11.020  -5.031  -3.987  1.00  0.00     0.000 C 
BRANCH   9  10
ATOM     10  C   UNL     1     -10.765  -3.552  -3.655  1.00  0.00     0.006 C 
BRANCH  10  11
ATOM     11  C   UNL     1     -10.444  -3.324  -2.172  1.00  0.00     0.053 C 
BRANCH  11  12
ATOM     12  C   UNL     1      -8.985  -3.530  -1.916  1.00  0.00     0.041 C 
ATOM     13  O   UNL     1      -8.553  -4.669  -1.597  1.00  0.00    -0.550 OA
ATOM     14  O   UNL     1      -8.108  -2.455  -1.983  1.00  0.00    -0.550 OA
ENDBRANCH  11  12
ENDBRANCH  10  11
ENDBRANCH   9  10
ENDBRANCH   8   9
ENDBRANCH   1   8
TORSDOF 9
ENDMDL
MODEL 4
REMARK VINA RESULT:    -4.173      0.464      4.606
REMARK INTER + INTRA:          -7.091
REMARK INTER:                  -6.324
REMARK INTRA:                  -0.767
REMARK UNBOUND:                -0.721
REMARK SMILES O=C([O-])CCCCCCCCC(=O)[O-]
REMARK SMILES IDX 7 1 6 2 5 3 4 4 2 5 1 6 3 7 8 8 9 9 10 10 11 11 12 12 13 13
REMARK SMILES IDX 14 14
REMARK H PARENT
REMARK Flexibility Score: inf
ROOT
ATOM      1  C   UNL     1     -11.109  -6.886  -6.221  1.00  0.00     0.000 C 
ENDROOT
BRANCH   1   2
ATOM      2  C   UNL     1     -10.438  -6.247  -7.449  1.00  0.00     0.000 C 
BRANCH   2   3
ATOM      3  C   UNL     1      -9.012  -6.774  -7.698  1.00  0.00     0.006 C 
BRANCH   3   4
ATOM      4  C   UNL     1      -7.919  -5.995  -6.945  1.00  0.00     0.053 C 
BRANCH   4   5
ATOM      5  C   UNL     1      -7.540  -6.641  -5.646  1.00  0.00     0.041 C 
ATOM      6  O   UNL     1      -7.728  -6.037  -4.557  1.00  0.00    -0.550 OA
ATOM      7  O   UNL     1      -7.010  -7.925  -5.637  1.00  0.00    -0.550 OA
ENDBRANCH   4   5
ENDBRANCH   3   4
ENDBRANCH   2   3
ENDBRANCH   1   2
BRANCH   1   8
ATOM      8  C   UNL     1     -11.125  -5.951  -5.000  1.00  0.00     0.000 C 
BRANCH   8   9
ATOM      9  C   UNL     1     -10.878  -4.481  -5.380  1.00  0.00     0.000 C 
BRANCH   9  10
ATOM     10  C   UNL     1     -10.882  -3.548  -4.159  1.00  0.00     0.006 C 
BRANCH  10  11
ATOM     11  C   UNL     1     -10.741  -4.306  -2.833  1.00  0.00     0.053 C 
BRANCH  11  12
ATOM     12  C   UNL     1      -9.582  -3.774  -2.049  1.00  0.00     0.041 C 
ATOM     13  O   UNL     1      -9.528  -2.552  -1.750  1.00  0.00    -0.550 OA
ATOM     14  O   UNL     1      -8.539  -4.618  -1.691  1.00  0.00    -0.550 OA
ENDBRANCH  11  12
ENDBRANCH  10  11
ENDBRANCH   9  10
ENDBRANCH   8   9
ENDBRANCH   1   8
TORSDOF 9
ENDMDL
MODEL 5
REMARK VINA RESULT:    -3.908      1.684      5.173
REMARK INTER + INTRA:          -6.685
REMARK INTER:                  -6.239
REMARK INTRA:                  -0.446
REMARK UNBOUND:                -0.721
REMARK SMILES O=C([O-])CCCCCCCCC(=O)[O-]
REMARK SMILES IDX 7 1 6 2 5 3 4 4 2 5 1 6 3 7 8 8 9 9 10 10 11 11 12 12 13 13
REMARK SMILES IDX 14 14
REMARK H PARENT
REMARK Flexibility Score: inf
ROOT
ATOM      1  C   UNL     1     -10.672  -4.421  -6.274  1.00  0.00     0.000 C 
ENDROOT
BRANCH   1   2
ATOM      2  C   UNL     1     -11.044  -4.525  -7.763  1.00  0.00     0.000 C 
BRANCH   2   3
ATOM      3  C   UNL     1      -9.822  -4.752  -8.674  1.00  0.00     0.006 C 
BRANCH   3   4
ATOM      4  C   UNL     1      -9.039  -6.039  -8.358  1.00  0.00     0.053 C 
BRANCH   4   5
ATOM      5  C   UNL     1      -7.628  -5.767  -7.933  1.00  0.00     0.041 C 
ATOM      6  O   UNL     1      -7.180  -6.257  -6.863  1.00  0.00    -0.550 OA
ATOM      7  O   UNL     1      -6.796  -4.999  -8.739  1.00  0.00    -0.550 OA
ENDBRANCH   4   5
ENDBRANCH   3   4
ENDBRANCH   2   3
ENDBRANCH   1   2
BRANCH   1   8
ATOM      8  C   UNL     1     -11.052  -5.680  -5.478  1.00  0.00     0.000 C 
BRANCH   8   9
ATOM      9  C   UNL     1     -11.125  -5.421  -3.963  1.00  0.00     0.000 C 
BRANCH   9  10
ATOM     10  C   UNL     1     -10.855  -3.951  -3.603  1.00  0.00     0.006 C 
BRANCH  10  11
ATOM     11  C   UNL     1     -10.545  -3.753  -2.114  1.00  0.00     0.053 C 
BRANCH  11  12
ATOM     12  C   UNL     1      -9.066  -3.696  -1.892  1.00  0.00     0.041 C 
ATOM     13  O   UNL     1      -8.439  -2.619  -2.075  1.00  0.00    -0.550 OA
ATOM     14  O   UNL     1      -8.372  -4.844  -1.531  1.00  0.00    -0.550 OA
ENDBRANCH  11  12
ENDBRANCH  10  11
ENDBRANCH   9  10
ENDBRANCH   8   9
ENDBRANCH   1   8
TORSDOF 9
ENDMDL
MODEL 6
REMARK VINA RESULT:    -3.751      1.739      2.066
REMARK INTER + INTRA:          -6.446
REMARK INTER:                  -5.940
REMARK INTRA:                  -0.507
REMARK UNBOUND:                -0.721
REMARK SMILES O=C([O-])CCCCCCCCC(=O)[O-]
REMARK SMILES IDX 7 1 6 2 5 3 4 4 2 5 1 6 3 7 8 8 9 9 10 10 11 11 12 12 13 13
REMARK SMILES IDX 14 14
REMARK H PARENT
REMARK Flexibility Score: inf
ROOT
ATOM      1  C   UNL     1     -10.504  -5.584  -5.241  1.00  0.00     0.000 C 
ENDROOT
BRANCH   1   2
ATOM      2  C   UNL     1     -10.719  -4.068  -5.395  1.00  0.00     0.000 C 
BRANCH   2   3
ATOM      3  C   UNL     1     -10.756  -3.326  -4.045  1.00  0.00     0.006 C 
BRANCH   3   4
ATOM      4  C   UNL     1     -10.525  -4.237  -2.826  1.00  0.00     0.053 C 
BRANCH   4   5
ATOM      5  C   UNL     1      -9.345  -3.814  -2.005  1.00  0.00     0.041 C 
ATOM      6  O   UNL     1      -9.191  -2.605  -1.688  1.00  0.00    -0.550 OA
ATOM      7  O   UNL     1      -8.432  -4.762  -1.559  1.00  0.00    -0.550 OA
ENDBRANCH   4   5
ENDBRANCH   3   4
ENDBRANCH   2   3
ENDBRANCH   1   2
BRANCH   1   8
ATOM      8  C   UNL     1      -9.268  -6.087  -6.004  1.00  0.00     0.000 C 
BRANCH   8   9
ATOM      9  C   UNL     1      -8.515  -7.192  -5.242  1.00  0.00     0.000 C 
BRANCH   9  10
ATOM     10  C   UNL     1      -6.989  -7.076  -5.391  1.00  0.00     0.006 C 
BRANCH  10  11
ATOM     11  C   UNL     1      -6.565  -5.859  -6.223  1.00  0.00     0.053 C 
BRANCH  11  12
ATOM     12  C   UNL     1      -5.143  -5.498  -5.932  1.00  0.00     0.041 C 
ATOM     13  O   UNL     1      -4.333  -6.380  -5.540  1.00  0.00    -0.550 OA
ATOM     14  O   UNL     1      -4.722  -4.179  -6.045  1.00  0.00    -0.550 OA
ENDBRANCH  11  12
ENDBRANCH  10  11
ENDBRANCH   9  10
ENDBRANCH   8   9
ENDBRANCH   1   8
TORSDOF 9
ENDMDL
MODEL 7
REMARK VINA RESULT:    -3.735      2.386      5.474
REMARK INTER + INTRA:          -6.422
REMARK INTER:                  -5.879
REMARK INTRA:                  -0.543
REMARK UNBOUND:                -0.721
REMARK SMILES O=C([O-])CCCCCCCCC(=O)[O-]
REMARK SMILES IDX 7 1 6 2 5 3 4 4 2 5 1 6 3 7 8 8 9 9 10 10 11 11 12 12 13 13
REMARK SMILES IDX 14 14
REMARK H PARENT
REMARK Flexibility Score: inf
ROOT
ATOM      1  C   UNL     1      -8.538  -6.407  -5.444  1.00  0.00     0.000 C 
ENDROOT
BRANCH   1   2
ATOM      2  C   UNL     1      -7.879  -6.381  -6.834  1.00  0.00     0.000 C 
BRANCH   2   3
ATOM      3  C   UNL     1      -8.823  -6.855  -7.955  1.00  0.00     0.006 C 
BRANCH   3   4
ATOM      4  C   UNL     1      -8.501  -6.254  -9.336  1.00  0.00     0.053 C 
BRANCH   4   5
ATOM      5  C   UNL     1      -8.648  -4.763  -9.366  1.00  0.00     0.041 C 
ATOM      6  O   UNL     1      -7.777  -4.049  -9.928  1.00  0.00    -0.550 OA
ATOM      7  O   UNL     1      -9.767  -4.164  -8.801  1.00  0.00    -0.550 OA
ENDBRANCH   4   5
ENDBRANCH   3   4
ENDBRANCH   2   3
ENDBRANCH   1   2
BRANCH   1   8
ATOM      8  C   UNL     1     -10.055  -6.647  -5.511  1.00  0.00     0.000 C 
BRANCH   8   9
ATOM      9  C   UNL     1     -10.830  -5.816  -4.472  1.00  0.00     0.000 C 
BRANCH   9  10
ATOM     10  C   UNL     1     -10.105  -4.512  -4.101  1.00  0.00     0.006 C 
BRANCH  10  11
ATOM     11  C   UNL     1     -10.276  -4.140  -2.622  1.00  0.00     0.053 C 
BRANCH  11  12
ATOM     12  C   UNL     1      -8.943  -3.897  -1.988  1.00  0.00     0.041 C 
ATOM     13  O   UNL     1      -8.340  -4.835  -1.402  1.00  0.00    -0.550 OA
ATOM     14  O   UNL     1      -8.388  -2.624  -2.001  1.00  0.00    -0.550 OA
ENDBRANCH  11  12
ENDBRANCH  10  11
ENDBRANCH   9  10
ENDBRANCH   8   9
ENDBRANCH   1   8
TORSDOF 9
ENDMDL
MODEL 8
REMARK VINA RESULT:    -3.378      2.073      2.794
REMARK INTER + INTRA:          -5.877
REMARK INTER:                  -5.413
REMARK INTRA:                  -0.464
REMARK UNBOUND:                -0.721
REMARK SMILES O=C([O-])CCCCCCCCC(=O)[O-]
REMARK SMILES IDX 7 1 6 2 5 3 4 4 2 5 1 6 3 7 8 8 9 9 10 10 11 11 12 12 13 13
REMARK SMILES IDX 14 14
REMARK H PARENT
REMARK Flexibility Score: inf
ROOT
ATOM      1  C   UNL     1     -10.439  -4.765  -6.228  1.00  0.00     0.000 C 
ENDROOT
BRANCH   1   2
ATOM      2  C   UNL     1     -11.124  -5.581  -5.118  1.00  0.00     0.000 C 
BRANCH   2   3
ATOM      3  C   UNL     1     -10.821  -5.047  -3.705  1.00  0.00     0.006 C 
BRANCH   3   4
ATOM      4  C   UNL     1      -9.537  -4.203  -3.619  1.00  0.00     0.053 C 
BRANCH   4   5
ATOM      5  C   UNL     1      -9.152  -3.879  -2.208  1.00  0.00     0.041 C 
ATOM      6  O   UNL     1      -8.502  -4.709  -1.519  1.00  0.00    -0.550 OA
ATOM      7  O   UNL     1      -9.483  -2.644  -1.663  1.00  0.00    -0.550 OA
ENDBRANCH   4   5
ENDBRANCH   3   4
ENDBRANCH   2   3
ENDBRANCH   1   2
BRANCH   1   8
ATOM      8  C   UNL     1     -11.081  -4.984  -7.608  1.00  0.00     0.000 C 
BRANCH   8   9
ATOM      9  C   UNL     1     -10.368  -4.198  -8.721  1.00  0.00     0.000 C 
BRANCH   9  10
ATOM     10  C   UNL     1      -8.958  -4.736  -9.014  1.00  0.00     0.006 C 
BRANCH  10  11
ATOM     11  C   UNL     1      -8.972  -5.985  -9.904  1.00  0.00     0.053 C 
BRANCH  11  12
ATOM     12  C   UNL     1      -8.439  -7.165  -9.156  1.00  0.00     0.041 C 
ATOM     13  O   UNL     1      -8.235  -7.089  -7.915  1.00  0.00    -0.550 OA
ATOM     14  O   UNL     1      -8.119  -8.333  -9.836  1.00  0.00    -0.550 OA
ENDBRANCH  11  12
ENDBRANCH  10  11
ENDBRANCH   9  10
ENDBRANCH   8   9
ENDBRANCH   1   8
TORSDOF 9
ENDMDL
MODEL 9
REMARK VINA RESULT:    -3.373     17.118     19.141
REMARK INTER + INTRA:          -5.869
REMARK INTER:                  -5.192
REMARK INTRA:                  -0.677
REMARK UNBOUND:                -0.721
REMARK SMILES O=C([O-])CCCCCCCCC(=O)[O-]
REMARK SMILES IDX 7 1 6 2 5 3 4 4 2 5 1 6 3 7 8 8 9 9 10 10 11 11 12 12 13 13
REMARK SMILES IDX 14 14
REMARK H PARENT
REMARK Flexibility Score: inf
ROOT
ATOM      1  C   UNL     1       3.589  -5.281   9.719  1.00  0.00     0.000 C 
ENDROOT
BRANCH   1   2
ATOM      2  C   UNL     1       4.981  -5.833  10.070  1.00  0.00     0.000 C 
BRANCH   2   3
ATOM      3  C   UNL     1       6.041  -5.518   8.997  1.00  0.00     0.006 C 
BRANCH   3   4
ATOM      4  C   UNL     1       7.088  -6.631   8.809  1.00  0.00     0.053 C 
BRANCH   4   5
ATOM      5  C   UNL     1       6.758  -7.548   7.671  1.00  0.00     0.041 C 
ATOM      6  O   UNL     1       7.291  -7.381   6.543  1.00  0.00    -0.550 OA
ATOM      7  O   UNL     1       5.884  -8.612   7.867  1.00  0.00    -0.550 OA
ENDBRANCH   4   5
ENDBRANCH   3   4
ENDBRANCH   2   3
ENDBRANCH   1   2
BRANCH   1   8
ATOM      8  C   UNL     1       2.519  -6.381   9.634  1.00  0.00     0.000 C 
BRANCH   8   9
ATOM      9  C   UNL     1       3.068  -7.768  10.010  1.00  0.00     0.000 C 
BRANCH   9  10
ATOM     10  C   UNL     1       2.484  -8.891   9.137  1.00  0.00     0.006 C 
BRANCH  10  11
ATOM     11  C   UNL     1       1.753  -8.359   7.898  1.00  0.00     0.053 C 
BRANCH  11  12
ATOM     12  C   UNL     1       2.108  -9.173   6.693  1.00  0.00     0.041 C 
ATOM     13  O   UNL     1       3.144  -9.890   6.697  1.00  0.00    -0.550 OA
ATOM     14  O   UNL     1       1.323  -9.102   5.550  1.00  0.00    -0.550 OA
ENDBRANCH  11  12
ENDBRANCH  10  11
ENDBRANCH   9  10
ENDBRANCH   8   9
ENDBRANCH   1   8
TORSDOF 9
ENDMDL
