MODEL 1
REMARK VINA RESULT:    -3.202      0.000      0.000
REMARK INTER + INTRA:          -8.201
REMARK INTER:                  -6.009
REMARK INTRA:                  -2.191
REMARK UNBOUND:                -2.191
REMARK SMILES O=C([O-])CCCCCCCCCCCCCCC(=O)[O-]
REMARK SMILES IDX 10 1 9 2 8 3 7 4 6 5 5 6 4 7 2 8 1 9 3 10 11 11 12 12 13 13
REMARK SMILES IDX 14 14 15 15 16 16 17 17 18 18 19 19 20 20
REMARK H PARENT
REMARK Flexibility Score: inf
ROOT
ATOM      1  C   UNL     1      70.890  15.513  79.982  1.00  0.00     0.000 C 
ENDROOT
BRANCH   1   2
ATOM      2  C   UNL     1      71.051  14.762  78.650  1.00  0.00     0.000 C 
BRANCH   2   3
ATOM      3  C   UNL     1      70.617  15.602  77.437  1.00  0.00     0.000 C 
BRANCH   3   4
ATOM      4  C   UNL     1      70.124  14.754  76.244  1.00  0.00     0.000 C 
BRANCH   4   5
ATOM      5  C   UNL     1      68.595  14.584  76.244  1.00  0.00     0.000 C 
BRANCH   5   6
ATOM      6  C   UNL     1      67.874  15.705  77.010  1.00  0.00     0.006 C 
BRANCH   6   7
ATOM      7  C   UNL     1      66.698  16.295  76.221  1.00  0.00     0.053 C 
BRANCH   7   8
ATOM      8  C   UNL     1      65.399  15.776  76.751  1.00  0.00     0.041 C 
ATOM      9  O   UNL     1      65.083  14.570  76.583  1.00  0.00    -0.550 OA
ATOM     10  O   UNL     1      64.555  16.614  77.471  1.00  0.00    -0.550 OA
ENDBRANCH   7   8
ENDBRANCH   6   7
ENDBRANCH   5   6
ENDBRANCH   4   5
ENDBRANCH   3   4
ENDBRANCH   2   3
ENDBRANCH   1   2
BRANCH   1  11
ATOM     11  C   UNL     1      69.417  15.736  80.359  1.00  0.00     0.000 C 
BRANCH  11  12
ATOM     12  C   UNL     1      69.009  17.219  80.290  1.00  0.00     0.000 C 
BRANCH  12  13
ATOM     13  C   UNL     1      70.203  18.170  80.464  1.00  0.00     0.000 C 
BRANCH  13  14
ATOM     14  C   UNL     1      70.460  19.032  79.219  1.00  0.00     0.000 C 
BRANCH  14  15
ATOM     15  C   UNL     1      69.287  18.940  78.237  1.00  0.00     0.000 C 
BRANCH  15  16
ATOM     16  C   UNL     1      69.786  18.824  76.792  1.00  0.00     0.006 C 
BRANCH  16  17
ATOM     17  C   UNL     1      69.065  19.820  75.879  1.00  0.00     0.053 C 
BRANCH  17  18
ATOM     18  C   UNL     1      69.426  21.225  76.246  1.00  0.00     0.041 C 
ATOM     19  O   UNL     1      70.628  21.598  76.217  1.00  0.00    -0.550 OA
ATOM     20  O   UNL     1      68.441  22.109  76.664  1.00  0.00    -0.550 OA
ENDBRANCH  17  18
ENDBRANCH  16  17
ENDBRANCH  15  16
ENDBRANCH  14  15
ENDBRANCH  13  14
ENDBRANCH  12  13
ENDBRANCH  11  12
ENDBRANCH   1  11
TORSDOF 15
ENDMDL
MODEL 2
REMARK VINA RESULT:    -3.200      1.840      5.352
REMARK INTER + INTRA:          -8.197
REMARK INTER:                  -5.983
REMARK INTRA:                  -2.214
REMARK UNBOUND:                -2.191
REMARK SMILES O=C([O-])CCCCCCCCCCCCCCC(=O)[O-]
REMARK SMILES IDX 10 1 9 2 8 3 7 4 6 5 5 6 4 7 2 8 1 9 3 10 11 11 12 12 13 13
REMARK SMILES IDX 14 14 15 15 16 16 17 17 18 18 19 19 20 20
REMARK H PARENT
REMARK Flexibility Score: inf
ROOT
ATOM      1  C   UNL     1      70.828  14.748  78.498  1.00  0.00     0.000 C 
ENDROOT
BRANCH   1   2
ATOM      2  C   UNL     1      70.992  15.694  79.699  1.00  0.00     0.000 C 
BRANCH   2   3
ATOM      3  C   UNL     1      71.642  17.034  79.318  1.00  0.00     0.000 C 
BRANCH   3   4
ATOM      4  C   UNL     1      70.862  18.266  79.826  1.00  0.00     0.000 C 
BRANCH   4   5
ATOM      5  C   UNL     1      70.555  19.266  78.697  1.00  0.00     0.000 C 
BRANCH   5   6
ATOM      6  C   UNL     1      69.426  18.787  77.771  1.00  0.00     0.006 C 
BRANCH   6   7
ATOM      7  C   UNL     1      69.609  19.263  76.325  1.00  0.00     0.053 C 
BRANCH   7   8
ATOM      8  C   UNL     1      69.562  20.757  76.255  1.00  0.00     0.041 C 
ATOM      9  O   UNL     1      68.514  21.372  76.578  1.00  0.00    -0.550 OA
ATOM     10  O   UNL     1      70.691  21.473  75.875  1.00  0.00    -0.550 OA
ENDBRANCH   7   8
ENDBRANCH   6   7
ENDBRANCH   5   6
ENDBRANCH   4   5
ENDBRANCH   3   4
ENDBRANCH   2   3
ENDBRANCH   1   2
BRANCH   1  11
ATOM     11  C   UNL     1      70.312  15.471  77.244  1.00  0.00     0.000 C 
BRANCH  11  12
ATOM     12  C   UNL     1      69.727  14.501  76.202  1.00  0.00     0.000 C 
BRANCH  12  13
ATOM     13  C   UNL     1      68.191  14.521  76.172  1.00  0.00     0.000 C 
BRANCH  13  14
ATOM     14  C   UNL     1      67.605  15.814  76.760  1.00  0.00     0.000 C 
BRANCH  14  15
ATOM     15  C   UNL     1      66.204  15.570  77.332  1.00  0.00     0.000 C 
BRANCH  15  16
ATOM     16  C   UNL     1      66.060  16.198  78.724  1.00  0.00     0.006 C 
BRANCH  16  17
ATOM     17  C   UNL     1      67.373  16.106  79.507  1.00  0.00     0.053 C 
BRANCH  17  18
ATOM     18  C   UNL     1      67.395  17.112  80.615  1.00  0.00     0.041 C 
ATOM     19  O   UNL     1      66.697  18.157  80.534  1.00  0.00    -0.550 OA
ATOM     20  O   UNL     1      68.220  16.919  81.713  1.00  0.00    -0.550 OA
ENDBRANCH  17  18
ENDBRANCH  16  17
ENDBRANCH  15  16
ENDBRANCH  14  15
ENDBRANCH  13  14
ENDBRANCH  12  13
ENDBRANCH  11  12
ENDBRANCH   1  11
TORSDOF 15
ENDMDL
MODEL 3
REMARK VINA RESULT:    -3.166      2.218      3.932
REMARK INTER + INTRA:          -8.133
REMARK INTER:                  -6.299
REMARK INTRA:                  -1.834
REMARK UNBOUND:                -2.191
REMARK SMILES O=C([O-])CCCCCCCCCCCCCCC(=O)[O-]
REMARK SMILES IDX 10 1 9 2 8 3 7 4 6 5 5 6 4 7 2 8 1 9 3 10 11 11 12 12 13 13
REMARK SMILES IDX 14 14 15 15 16 16 17 17 18 18 19 19 20 20
REMARK H PARENT
REMARK Flexibility Score: inf
ROOT
ATOM      1  C   UNL     1      69.677  14.762  76.295  1.00  0.00     0.000 C 
ENDROOT
BRANCH   1   2
ATOM      2  C   UNL     1      68.196  14.365  76.186  1.00  0.00     0.000 C 
BRANCH   2   3
ATOM      3  C   UNL     1      67.250  15.418  76.786  1.00  0.00     0.000 C 
BRANCH   3   4
ATOM      4  C   UNL     1      65.772  14.973  76.819  1.00  0.00     0.000 C 
BRANCH   4   5
ATOM      5  C   UNL     1      65.564  13.597  76.164  1.00  0.00     0.000 C 
BRANCH   5   6
ATOM      6  C   UNL     1      64.125  13.079  76.314  1.00  0.00     0.006 C 
BRANCH   6   7
ATOM      7  C   UNL     1      63.421  13.648  77.553  1.00  0.00     0.053 C 
BRANCH   7   8
ATOM      8  C   UNL     1      62.081  14.203  77.186  1.00  0.00     0.041 C 
ATOM      9  O   UNL     1      61.066  13.459  77.190  1.00  0.00    -0.550 OA
ATOM     10  O   UNL     1      61.944  15.552  76.883  1.00  0.00    -0.550 OA
ENDBRANCH   7   8
ENDBRANCH   6   7
ENDBRANCH   5   6
ENDBRANCH   4   5
ENDBRANCH   3   4
ENDBRANCH   2   3
ENDBRANCH   1   2
BRANCH   1  11
ATOM     11  C   UNL     1      69.868  16.175  76.870  1.00  0.00     0.000 C 
BRANCH  11  12
ATOM     12  C   UNL     1      70.788  16.190  78.104  1.00  0.00     0.000 C 
BRANCH  12  13
ATOM     13  C   UNL     1      70.348  15.188  79.183  1.00  0.00     0.000 C 
BRANCH  13  14
ATOM     14  C   UNL     1      69.842  15.877  80.459  1.00  0.00     0.000 C 
BRANCH  14  15
ATOM     15  C   UNL     1      68.375  15.524  80.729  1.00  0.00     0.000 C 
BRANCH  15  16
ATOM     16  C   UNL     1      67.441  16.627  80.219  1.00  0.00     0.006 C 
BRANCH  16  17
ATOM     17  C   UNL     1      68.197  17.945  80.027  1.00  0.00     0.053 C 
BRANCH  17  18
ATOM     18  C   UNL     1      67.641  18.705  78.865  1.00  0.00     0.041 C 
ATOM     19  O   UNL     1      68.317  19.620  78.325  1.00  0.00    -0.550 OA
ATOM     20  O   UNL     1      66.359  18.436  78.407  1.00  0.00    -0.550 OA
ENDBRANCH  17  18
ENDBRANCH  16  17
ENDBRANCH  15  16
ENDBRANCH  14  15
ENDBRANCH  13  14
ENDBRANCH  12  13
ENDBRANCH  11  12
ENDBRANCH   1  11
TORSDOF 15
ENDMDL
MODEL 4
REMARK VINA RESULT:    -3.145      2.592      4.013
REMARK INTER + INTRA:          -8.093
REMARK INTER:                  -5.694
REMARK INTRA:                  -2.399
REMARK UNBOUND:                -2.191
REMARK SMILES O=C([O-])CCCCCCCCCCCCCCC(=O)[O-]
REMARK SMILES IDX 10 1 9 2 8 3 7 4 6 5 5 6 4 7 2 8 1 9 3 10 11 11 12 12 13 13
REMARK SMILES IDX 14 14 15 15 16 16 17 17 18 18 19 19 20 20
REMARK H PARENT
REMARK Flexibility Score: inf
ROOT
ATOM      1  C   UNL     1      66.240  16.040  76.961  1.00  0.00     0.000 C 
ENDROOT
BRANCH   1   2
ATOM      2  C   UNL     1      67.222  15.563  75.879  1.00  0.00     0.000 C 
BRANCH   2   3
ATOM      3  C   UNL     1      68.026  14.324  76.307  1.00  0.00     0.000 C 
BRANCH   3   4
ATOM      4  C   UNL     1      69.552  14.558  76.337  1.00  0.00     0.000 C 
BRANCH   4   5
ATOM      5  C   UNL     1      69.909  16.045  76.511  1.00  0.00     0.000 C 
BRANCH   5   6
ATOM      6  C   UNL     1      70.592  16.337  77.857  1.00  0.00     0.006 C 
BRANCH   6   7
ATOM      7  C   UNL     1      70.594  15.121  78.792  1.00  0.00     0.053 C 
BRANCH   7   8
ATOM      8  C   UNL     1      70.599  15.561  80.222  1.00  0.00     0.041 C 
ATOM      9  O   UNL     1      69.521  15.633  80.866  1.00  0.00    -0.550 OA
ATOM     10  O   UNL     1      71.801  15.849  80.859  1.00  0.00    -0.550 OA
ENDBRANCH   7   8
ENDBRANCH   6   7
ENDBRANCH   5   6
ENDBRANCH   4   5
ENDBRANCH   3   4
ENDBRANCH   2   3
ENDBRANCH   1   2
BRANCH   1  11
ATOM     11  C   UNL     1      66.869  16.055  78.363  1.00  0.00     0.000 C 
BRANCH  11  12
ATOM     12  C   UNL     1      66.943  17.471  78.961  1.00  0.00     0.000 C 
BRANCH  12  13
ATOM     13  C   UNL     1      66.356  18.540  78.025  1.00  0.00     0.000 C 
BRANCH  13  14
ATOM     14  C   UNL     1      67.384  19.610  77.631  1.00  0.00     0.000 C 
BRANCH  14  15
ATOM     15  C   UNL     1      68.058  19.260  76.299  1.00  0.00     0.000 C 
BRANCH  15  16
ATOM     16  C   UNL     1      69.535  19.670  76.304  1.00  0.00     0.006 C 
BRANCH  16  17
ATOM     17  C   UNL     1      69.989  20.078  77.709  1.00  0.00     0.053 C 
BRANCH  17  18
ATOM     18  C   UNL     1      70.490  21.487  77.710  1.00  0.00     0.041 C 
ATOM     19  O   UNL     1      69.929  22.359  78.425  1.00  0.00    -0.550 OA
ATOM     20  O   UNL     1      71.546  21.850  76.886  1.00  0.00    -0.550 OA
ENDBRANCH  17  18
ENDBRANCH  16  17
ENDBRANCH  15  16
ENDBRANCH  14  15
ENDBRANCH  13  14
ENDBRANCH  12  13
ENDBRANCH  11  12
ENDBRANCH   1  11
TORSDOF 15
ENDMDL
MODEL 5
REMARK VINA RESULT:    -3.104      1.591      5.593
REMARK INTER + INTRA:          -8.017
REMARK INTER:                  -5.720
REMARK INTRA:                  -2.297
REMARK UNBOUND:                -2.191
REMARK SMILES O=C([O-])CCCCCCCCCCCCCCC(=O)[O-]
REMARK SMILES IDX 10 1 9 2 8 3 7 4 6 5 5 6 4 7 2 8 1 9 3 10 11 11 12 12 13 13
REMARK SMILES IDX 14 14 15 15 16 16 17 17 18 18 19 19 20 20
REMARK H PARENT
REMARK Flexibility Score: inf
ROOT
ATOM      1  C   UNL     1      69.962  16.739  79.758  1.00  0.00     0.000 C 
ENDROOT
BRANCH   1   2
ATOM      2  C   UNL     1      68.725  15.830  79.680  1.00  0.00     0.000 C 
BRANCH   2   3
ATOM      3  C   UNL     1      67.506  16.417  80.411  1.00  0.00     0.000 C 
BRANCH   3   4
ATOM      4  C   UNL     1      67.308  17.928  80.165  1.00  0.00     0.000 C 
BRANCH   4   5
ATOM      5  C   UNL     1      66.497  18.209  78.888  1.00  0.00     0.000 C 
BRANCH   5   6
ATOM      6  C   UNL     1      67.382  18.634  77.705  1.00  0.00     0.006 C 
BRANCH   6   7
ATOM      7  C   UNL     1      68.377  19.739  78.082  1.00  0.00     0.053 C 
BRANCH   7   8
ATOM      8  C   UNL     1      69.673  19.546  77.360  1.00  0.00     0.041 C 
ATOM      9  O   UNL     1      70.702  20.168  77.730  1.00  0.00    -0.550 OA
ATOM     10  O   UNL     1      69.756  18.645  76.306  1.00  0.00    -0.550 OA
ENDBRANCH   7   8
ENDBRANCH   6   7
ENDBRANCH   5   6
ENDBRANCH   4   5
ENDBRANCH   3   4
ENDBRANCH   2   3
ENDBRANCH   1   2
BRANCH   1  11
ATOM     11  C   UNL     1      71.065  16.321  78.774  1.00  0.00     0.000 C 
BRANCH  11  12
ATOM     12  C   UNL     1      71.035  14.814  78.459  1.00  0.00     0.000 C 
BRANCH  12  13
ATOM     13  C   UNL     1      71.043  14.524  76.950  1.00  0.00     0.000 C 
BRANCH  13  14
ATOM     14  C   UNL     1      69.906  15.238  76.204  1.00  0.00     0.000 C 
BRANCH  14  15
ATOM     15  C   UNL     1      68.618  14.407  76.243  1.00  0.00     0.000 C 
BRANCH  15  16
ATOM     16  C   UNL     1      67.393  15.275  75.937  1.00  0.00     0.006 C 
BRANCH  16  17
ATOM     17  C   UNL     1      66.303  15.083  76.996  1.00  0.00     0.053 C 
BRANCH  17  18
ATOM     18  C   UNL     1      65.130  14.357  76.418  1.00  0.00     0.041 C 
ATOM     19  O   UNL     1      65.168  13.107  76.273  1.00  0.00    -0.550 OA
ATOM     20  O   UNL     1      64.014  15.065  75.995  1.00  0.00    -0.550 OA
ENDBRANCH  17  18
ENDBRANCH  16  17
ENDBRANCH  15  16
ENDBRANCH  14  15
ENDBRANCH  13  14
ENDBRANCH  12  13
ENDBRANCH  11  12
ENDBRANCH   1  11
TORSDOF 15
ENDMDL
MODEL 6
REMARK VINA RESULT:    -3.082      1.717      5.035
REMARK INTER + INTRA:          -7.976
REMARK INTER:                  -5.520
REMARK INTRA:                  -2.456
REMARK UNBOUND:                -2.191
REMARK SMILES O=C([O-])CCCCCCCCCCCCCCC(=O)[O-]
REMARK SMILES IDX 10 1 9 2 8 3 7 4 6 5 5 6 4 7 2 8 1 9 3 10 11 11 12 12 13 13
REMARK SMILES IDX 14 14 15 15 16 16 17 17 18 18 19 19 20 20
REMARK H PARENT
REMARK Flexibility Score: inf
ROOT
ATOM      1  C   UNL     1      71.760  15.934  78.947  1.00  0.00     0.000 C 
ENDROOT
BRANCH   1   2
ATOM      2  C   UNL     1      71.150  14.693  78.277  1.00  0.00     0.000 C 
BRANCH   2   3
ATOM      3  C   UNL     1      70.675  14.964  76.839  1.00  0.00     0.000 C 
BRANCH   3   4
ATOM      4  C   UNL     1      69.149  14.818  76.655  1.00  0.00     0.000 C 
BRANCH   4   5
ATOM      5  C   UNL     1      68.426  16.175  76.704  1.00  0.00     0.000 C 
BRANCH   5   6
ATOM      6  C   UNL     1      69.394  17.367  76.634  1.00  0.00     0.006 C 
BRANCH   6   7
ATOM      7  C   UNL     1      68.716  18.698  76.981  1.00  0.00     0.053 C 
BRANCH   7   8
ATOM      8  C   UNL     1      69.333  19.297  78.206  1.00  0.00     0.041 C 
ATOM      9  O   UNL     1      68.640  19.477  79.240  1.00  0.00    -0.550 OA
ATOM     10  O   UNL     1      70.685  19.615  78.221  1.00  0.00    -0.550 OA
ENDBRANCH   7   8
ENDBRANCH   6   7
ENDBRANCH   5   6
ENDBRANCH   4   5
ENDBRANCH   3   4
ENDBRANCH   2   3
ENDBRANCH   1   2
BRANCH   1  11
ATOM     11  C   UNL     1      70.848  16.527  80.032  1.00  0.00     0.000 C 
BRANCH  11  12
ATOM     12  C   UNL     1      69.682  15.591  80.399  1.00  0.00     0.000 C 
BRANCH  12  13
ATOM     13  C   UNL     1      68.412  16.358  80.799  1.00  0.00     0.000 C 
BRANCH  13  14
ATOM     14  C   UNL     1      67.154  15.828  80.094  1.00  0.00     0.000 C 
BRANCH  14  15
ATOM     15  C   UNL     1      66.272  16.981  79.604  1.00  0.00     0.000 C 
BRANCH  15  16
ATOM     16  C   UNL     1      64.902  16.470  79.143  1.00  0.00     0.006 C 
BRANCH  16  17
ATOM     17  C   UNL     1      64.908  16.158  77.643  1.00  0.00     0.053 C 
BRANCH  17  18
ATOM     18  C   UNL     1      64.742  14.689  77.412  1.00  0.00     0.041 C 
ATOM     19  O   UNL     1      63.870  14.042  78.050  1.00  0.00    -0.550 OA
ATOM     20  O   UNL     1      65.580  14.025  76.527  1.00  0.00    -0.550 OA
ENDBRANCH  17  18
ENDBRANCH  16  17
ENDBRANCH  15  16
ENDBRANCH  14  15
ENDBRANCH  13  14
ENDBRANCH  12  13
ENDBRANCH  11  12
ENDBRANCH   1  11
TORSDOF 15
ENDMDL
MODEL 7
REMARK VINA RESULT:    -3.074      1.824      3.518
REMARK INTER + INTRA:          -7.961
REMARK INTER:                  -5.527
REMARK INTRA:                  -2.434
REMARK UNBOUND:                -2.191
REMARK SMILES O=C([O-])CCCCCCCCCCCCCCC(=O)[O-]
REMARK SMILES IDX 10 1 9 2 8 3 7 4 6 5 5 6 4 7 2 8 1 9 3 10 11 11 12 12 13 13
REMARK SMILES IDX 14 14 15 15 16 16 17 17 18 18 19 19 20 20
REMARK H PARENT
REMARK Flexibility Score: inf
ROOT
ATOM      1  C   UNL     1      72.125  15.875  78.884  1.00  0.00     0.000 C 
ENDROOT
BRANCH   1   2
ATOM      2  C   UNL     1      71.494  16.801  79.935  1.00  0.00     0.000 C 
BRANCH   2   3
ATOM      3  C   UNL     1      70.437  16.092  80.798  1.00  0.00     0.000 C 
BRANCH   3   4
ATOM      4  C   UNL     1      69.064  16.799  80.798  1.00  0.00     0.000 C 
BRANCH   4   5
ATOM      5  C   UNL     1      67.925  15.857  80.370  1.00  0.00     0.000 C 
BRANCH   5   6
ATOM      6  C   UNL     1      66.595  16.596  80.154  1.00  0.00     0.006 C 
BRANCH   6   7
ATOM      7  C   UNL     1      65.611  15.797  79.289  1.00  0.00     0.053 C 
BRANCH   7   8
ATOM      8  C   UNL     1      64.310  15.617  80.006  1.00  0.00     0.041 C 
ATOM      9  O   UNL     1      64.275  15.019  81.112  1.00  0.00    -0.550 OA
ATOM     10  O   UNL     1      63.142  16.150  79.475  1.00  0.00    -0.550 OA
ENDBRANCH   7   8
ENDBRANCH   6   7
ENDBRANCH   5   6
ENDBRANCH   4   5
ENDBRANCH   3   4
ENDBRANCH   2   3
ENDBRANCH   1   2
BRANCH   1  11
ATOM     11  C   UNL     1      71.176  14.750  78.443  1.00  0.00     0.000 C 
BRANCH  11  12
ATOM     12  C   UNL     1      71.334  14.394  76.954  1.00  0.00     0.000 C 
BRANCH  12  13
ATOM     13  C   UNL     1      70.098  14.768  76.121  1.00  0.00     0.000 C 
BRANCH  13  14
ATOM     14  C   UNL     1      68.857  15.027  76.988  1.00  0.00     0.000 C 
BRANCH  14  15
ATOM     15  C   UNL     1      68.240  16.393  76.670  1.00  0.00     0.000 C 
BRANCH  15  16
ATOM     16  C   UNL     1      69.279  17.512  76.805  1.00  0.00     0.006 C 
BRANCH  16  17
ATOM     17  C   UNL     1      68.734  18.671  77.646  1.00  0.00     0.053 C 
BRANCH  17  18
ATOM     18  C   UNL     1      68.975  19.977  76.957  1.00  0.00     0.041 C 
ATOM     19  O   UNL     1      68.005  20.717  76.646  1.00  0.00    -0.550 OA
ATOM     20  O   UNL     1      70.266  20.356  76.617  1.00  0.00    -0.550 OA
ENDBRANCH  17  18
ENDBRANCH  16  17
ENDBRANCH  15  16
ENDBRANCH  14  15
ENDBRANCH  13  14
ENDBRANCH  12  13
ENDBRANCH  11  12
ENDBRANCH   1  11
TORSDOF 15
ENDMDL
MODEL 8
REMARK VINA RESULT:    -3.069      1.621      3.299
REMARK INTER + INTRA:          -7.952
REMARK INTER:                  -5.819
REMARK INTRA:                  -2.132
REMARK UNBOUND:                -2.191
REMARK SMILES O=C([O-])CCCCCCCCCCCCCCC(=O)[O-]
REMARK SMILES IDX 10 1 9 2 8 3 7 4 6 5 5 6 4 7 2 8 1 9 3 10 11 11 12 12 13 13
REMARK SMILES IDX 14 14 15 15 16 16 17 17 18 18 19 19 20 20
REMARK H PARENT
REMARK Flexibility Score: inf
ROOT
ATOM      1  C   UNL     1      69.652  16.701  80.298  1.00  0.00     0.000 C 
ENDROOT
BRANCH   1   2
ATOM      2  C   UNL     1      68.452  16.044  80.999  1.00  0.00     0.000 C 
BRANCH   2   3
ATOM      3  C   UNL     1      67.243  15.862  80.066  1.00  0.00     0.000 C 
BRANCH   3   4
ATOM      4  C   UNL     1      66.531  17.185  79.711  1.00  0.00     0.000 C 
BRANCH   4   5
ATOM      5  C   UNL     1      65.209  16.951  78.959  1.00  0.00     0.000 C 
BRANCH   5   6
ATOM      6  C   UNL     1      64.955  15.466  78.656  1.00  0.00     0.006 C 
BRANCH   6   7
ATOM      7  C   UNL     1      65.027  15.150  77.157  1.00  0.00     0.053 C 
BRANCH   7   8
ATOM      8  C   UNL     1      64.310  13.872  76.855  1.00  0.00     0.041 C 
ATOM      9  O   UNL     1      64.931  12.901  76.353  1.00  0.00    -0.550 OA
ATOM     10  O   UNL     1      62.963  13.738  77.171  1.00  0.00    -0.550 OA
ENDBRANCH   7   8
ENDBRANCH   6   7
ENDBRANCH   5   6
ENDBRANCH   4   5
ENDBRANCH   3   4
ENDBRANCH   2   3
ENDBRANCH   1   2
BRANCH   1  11
ATOM     11  C   UNL     1      70.921  15.838  80.371  1.00  0.00     0.000 C 
BRANCH  11  12
ATOM     12  C   UNL     1      71.502  15.525  78.980  1.00  0.00     0.000 C 
BRANCH  12  13
ATOM     13  C   UNL     1      70.517  14.752  78.088  1.00  0.00     0.000 C 
BRANCH  13  14
ATOM     14  C   UNL     1      70.197  15.493  76.781  1.00  0.00     0.000 C 
BRANCH  14  15
ATOM     15  C   UNL     1      68.683  15.642  76.592  1.00  0.00     0.000 C 
BRANCH  15  16
ATOM     16  C   UNL     1      68.262  17.115  76.652  1.00  0.00     0.006 C 
BRANCH  16  17
ATOM     17  C   UNL     1      69.485  18.037  76.648  1.00  0.00     0.053 C 
BRANCH  17  18
ATOM     18  C   UNL     1      69.093  19.426  76.253  1.00  0.00     0.041 C 
ATOM     19  O   UNL     1      67.915  19.670  75.883  1.00  0.00    -0.550 OA
ATOM     20  O   UNL     1      70.040  20.441  76.248  1.00  0.00    -0.550 OA
ENDBRANCH  17  18
ENDBRANCH  16  17
ENDBRANCH  15  16
ENDBRANCH  14  15
ENDBRANCH  13  14
ENDBRANCH  12  13
ENDBRANCH  11  12
ENDBRANCH   1  11
TORSDOF 15
ENDMDL
MODEL 9
REMARK VINA RESULT:    -3.038      2.323      2.811
REMARK INTER + INTRA:          -7.893
REMARK INTER:                  -5.875
REMARK INTRA:                  -2.018
REMARK UNBOUND:                -2.191
REMARK SMILES O=C([O-])CCCCCCCCCCCCCCC(=O)[O-]
REMARK SMILES IDX 10 1 9 2 8 3 7 4 6 5 5 6 4 7 2 8 1 9 3 10 11 11 12 12 13 13
REMARK SMILES IDX 14 14 15 15 16 16 17 17 18 18 19 19 20 20
REMARK H PARENT
REMARK Flexibility Score: inf
ROOT
ATOM      1  C   UNL     1      71.117  15.841  78.648  1.00  0.00     0.000 C 
ENDROOT
BRANCH   1   2
ATOM      2  C   UNL     1      71.076  14.766  77.550  1.00  0.00     0.000 C 
BRANCH   2   3
ATOM      3  C   UNL     1      70.170  15.154  76.369  1.00  0.00     0.000 C 
BRANCH   3   4
ATOM      4  C   UNL     1      68.908  14.274  76.244  1.00  0.00     0.000 C 
BRANCH   4   5
ATOM      5  C   UNL     1      67.651  15.103  75.924  1.00  0.00     0.000 C 
BRANCH   5   6
ATOM      6  C   UNL     1      66.362  14.268  75.973  1.00  0.00     0.006 C 
BRANCH   6   7
ATOM      7  C   UNL     1      65.370  14.778  77.027  1.00  0.00     0.053 C 
BRANCH   7   8
ATOM      8  C   UNL     1      64.151  13.910  77.062  1.00  0.00     0.041 C 
ATOM      9  O   UNL     1      63.952  13.062  76.154  1.00  0.00    -0.550 OA
ATOM     10  O   UNL     1      63.258  14.006  78.121  1.00  0.00    -0.550 OA
ENDBRANCH   7   8
ENDBRANCH   6   7
ENDBRANCH   5   6
ENDBRANCH   4   5
ENDBRANCH   3   4
ENDBRANCH   2   3
ENDBRANCH   1   2
BRANCH   1  11
ATOM     11  C   UNL     1      70.206  15.503  79.838  1.00  0.00     0.000 C 
BRANCH  11  12
ATOM     12  C   UNL     1      68.740  15.904  79.592  1.00  0.00     0.000 C 
BRANCH  12  13
ATOM     13  C   UNL     1      68.537  17.427  79.583  1.00  0.00     0.000 C 
BRANCH  13  14
ATOM     14  C   UNL     1      67.674  17.902  78.404  1.00  0.00     0.000 C 
BRANCH  14  15
ATOM     15  C   UNL     1      68.549  18.332  77.221  1.00  0.00     0.000 C 
BRANCH  15  16
ATOM     16  C   UNL     1      67.694  18.890  76.078  1.00  0.00     0.006 C 
BRANCH  16  17
ATOM     17  C   UNL     1      66.619  19.843  76.609  1.00  0.00     0.053 C 
BRANCH  17  18
ATOM     18  C   UNL     1      65.255  19.360  76.229  1.00  0.00     0.041 C 
ATOM     19  O   UNL     1      64.271  20.145  76.270  1.00  0.00    -0.550 OA
ATOM     20  O   UNL     1      65.061  18.033  75.875  1.00  0.00    -0.550 OA
ENDBRANCH  17  18
ENDBRANCH  16  17
ENDBRANCH  15  16
ENDBRANCH  14  15
ENDBRANCH  13  14
ENDBRANCH  12  13
ENDBRANCH  11  12
ENDBRANCH   1  11
TORSDOF 15
ENDMDL
