MODEL 1
REMARK VINA RESULT:    -3.654      0.000      0.000
REMARK INTER + INTRA:          -9.723
REMARK INTER:                  -6.859
REMARK INTRA:                  -2.864
REMARK UNBOUND:                -2.864
REMARK SMILES CCCCCCCCC=CCCCCCCCC(=O)[O-]
REMARK SMILES IDX 10 1 9 2 11 3 12 4 13 5 14 6 15 7 16 8 17 9 18 10 19 11
REMARK SMILES IDX 20 12 8 13 7 14 6 15 5 16 4 17 3 18 2 19 1 20
REMARK H PARENT
REMARK Flexibility Score: inf
ROOT
ATOM      1  C   UNL     1     170.233 185.376  30.556  1.00  0.00    -0.031 C 
ATOM      2  C   UNL     1     171.244 185.698  31.384  1.00  0.00    -0.031 C 
ENDROOT
BRANCH   1   3
ATOM      3  C   UNL     1     168.890 186.061  30.538  1.00  0.00     0.027 C 
BRANCH   3   4
ATOM      4  C   UNL     1     167.876 185.292  31.393  1.00  0.00     0.004 C 
BRANCH   4   5
ATOM      5  C   UNL     1     167.246 186.208  32.453  1.00  0.00     0.000 C 
BRANCH   5   6
ATOM      6  C   UNL     1     166.517 185.426  33.556  1.00  0.00     0.000 C 
BRANCH   6   7
ATOM      7  C   UNL     1     166.370 183.932  33.230  1.00  0.00     0.000 C 
BRANCH   7   8
ATOM      8  C   UNL     1     164.912 183.582  32.908  1.00  0.00     0.006 C 
BRANCH   8   9
ATOM      9  C   UNL     1     164.633 183.709  31.408  1.00  0.00     0.053 C 
BRANCH   9  10
ATOM     10  C   UNL     1     164.414 182.360  30.799  1.00  0.00     0.041 C 
ATOM     11  O   UNL     1     164.955 181.340  31.306  1.00  0.00    -0.550 OA
ATOM     12  O   UNL     1     163.573 182.222  29.703  1.00  0.00    -0.550 OA
ENDBRANCH   9  10
ENDBRANCH   8   9
ENDBRANCH   7   8
ENDBRANCH   6   7
ENDBRANCH   5   6
ENDBRANCH   4   5
ENDBRANCH   3   4
ENDBRANCH   1   3
BRANCH   2  13
ATOM     13  C   UNL     1     171.159 186.729  32.484  1.00  0.00     0.027 C 
BRANCH  13  14
ATOM     14  C   UNL     1     171.429 186.116  33.866  1.00  0.00     0.004 C 
BRANCH  14  15
ATOM     15  C   UNL     1     170.195 185.391  34.425  1.00  0.00     0.000 C 
BRANCH  15  16
ATOM     16  C   UNL     1     170.495 183.904  34.670  1.00  0.00     0.000 C 
BRANCH  16  17
ATOM     17  C   UNL     1     170.012 183.017  33.509  1.00  0.00    -0.000 C 
BRANCH  17  18
ATOM     18  C   UNL     1     171.141 182.168  32.882  1.00  0.00    -0.000 C 
BRANCH  18  19
ATOM     19  C   UNL     1     172.516 182.404  33.531  1.00  0.00    -0.003 C 
ATOM     20  C   UNL     1     173.479 183.166  32.620  1.00  0.00     0.004 C 
ENDBRANCH  18  19
ENDBRANCH  17  18
ENDBRANCH  16  17
ENDBRANCH  15  16
ENDBRANCH  14  15
ENDBRANCH  13  14
ENDBRANCH   2  13
TORSDOF 15
ENDMDL
MODEL 2
REMARK VINA RESULT:    -3.579      3.105      6.341
REMARK INTER + INTRA:          -9.581
REMARK INTER:                  -7.172
REMARK INTRA:                  -2.409
REMARK UNBOUND:                -2.864
REMARK SMILES CCCCCCCCC=CCCCCCCCC(=O)[O-]
REMARK SMILES IDX 10 1 9 2 11 3 12 4 13 5 14 6 15 7 16 8 17 9 18 10 19 11
REMARK SMILES IDX 20 12 8 13 7 14 6 15 5 16 4 17 3 18 2 19 1 20
REMARK H PARENT
REMARK Flexibility Score: inf
ROOT
ATOM      1  C   UNL     1     170.883 185.528  31.323  1.00  0.00    -0.031 C 
ATOM      2  C   UNL     1     169.755 185.441  30.595  1.00  0.00    -0.031 C 
ENDROOT
BRANCH   1   3
ATOM      3  C   UNL     1     171.190 186.637  32.299  1.00  0.00     0.027 C 
BRANCH   3   4
ATOM      4  C   UNL     1     171.489 186.069  33.690  1.00  0.00     0.004 C 
BRANCH   4   5
ATOM      5  C   UNL     1     170.221 185.487  34.330  1.00  0.00     0.000 C 
BRANCH   5   6
ATOM      6  C   UNL     1     170.386 184.017  34.747  1.00  0.00     0.000 C 
BRANCH   6   7
ATOM      7  C   UNL     1     170.019 183.034  33.625  1.00  0.00     0.000 C 
BRANCH   7   8
ATOM      8  C   UNL     1     171.262 182.295  33.116  1.00  0.00     0.006 C 
BRANCH   8   9
ATOM      9  C   UNL     1     172.445 182.485  34.069  1.00  0.00     0.053 C 
BRANCH   9  10
ATOM     10  C   UNL     1     173.636 183.006  33.328  1.00  0.00     0.041 C 
ATOM     11  O   UNL     1     173.525 183.378  32.129  1.00  0.00    -0.550 OA
ATOM     12  O   UNL     1     174.858 183.127  33.977  1.00  0.00    -0.550 OA
ENDBRANCH   9  10
ENDBRANCH   8   9
ENDBRANCH   7   8
ENDBRANCH   6   7
ENDBRANCH   5   6
ENDBRANCH   4   5
ENDBRANCH   3   4
ENDBRANCH   1   3
BRANCH   2  13
ATOM     13  C   UNL     1     168.665 186.487  30.570  1.00  0.00     0.027 C 
BRANCH  13  14
ATOM     14  C   UNL     1     167.569 186.196  31.605  1.00  0.00     0.004 C 
BRANCH  14  15
ATOM     15  C   UNL     1     167.259 184.695  31.709  1.00  0.00     0.000 C 
BRANCH  15  16
ATOM     16  C   UNL     1     166.353 184.402  32.914  1.00  0.00     0.000 C 
BRANCH  16  17
ATOM     17  C   UNL     1     164.923 184.031  32.487  1.00  0.00    -0.000 C 
BRANCH  17  18
ATOM     18  C   UNL     1     164.775 183.834  30.961  1.00  0.00    -0.000 C 
BRANCH  18  19
ATOM     19  C   UNL     1     164.566 182.366  30.551  1.00  0.00    -0.003 C 
ATOM     20  C   UNL     1     164.474 181.422  31.750  1.00  0.00     0.004 C 
ENDBRANCH  18  19
ENDBRANCH  17  18
ENDBRANCH  16  17
ENDBRANCH  15  16
ENDBRANCH  14  15
ENDBRANCH  13  14
ENDBRANCH   2  13
TORSDOF 15
ENDMDL
MODEL 3
REMARK VINA RESULT:    -3.439      1.292      3.355
REMARK INTER + INTRA:          -9.319
REMARK INTER:                  -6.329
REMARK INTRA:                  -2.990
REMARK UNBOUND:                -2.864
REMARK SMILES CCCCCCCCC=CCCCCCCCC(=O)[O-]
REMARK SMILES IDX 10 1 9 2 11 3 12 4 13 5 14 6 15 7 16 8 17 9 18 10 19 11
REMARK SMILES IDX 20 12 8 13 7 14 6 15 5 16 4 17 3 18 2 19 1 20
REMARK H PARENT
REMARK Flexibility Score: inf
ROOT
ATOM      1  C   UNL     1     168.569 183.614  33.782  1.00  0.00    -0.031 C 
ATOM      2  C   UNL     1     169.818 183.131  33.653  1.00  0.00    -0.031 C 
ENDROOT
BRANCH   1   3
ATOM      3  C   UNL     1     168.056 184.353  34.993  1.00  0.00     0.027 C 
BRANCH   3   4
ATOM      4  C   UNL     1     168.268 185.863  34.837  1.00  0.00     0.004 C 
BRANCH   4   5
ATOM      5  C   UNL     1     167.101 186.505  34.073  1.00  0.00     0.000 C 
BRANCH   5   6
ATOM      6  C   UNL     1     165.735 185.938  34.488  1.00  0.00     0.000 C 
BRANCH   6   7
ATOM      7  C   UNL     1     164.779 185.757  33.299  1.00  0.00     0.000 C 
BRANCH   7   8
ATOM      8  C   UNL     1     164.677 184.281  32.897  1.00  0.00     0.006 C 
BRANCH   8   9
ATOM      9  C   UNL     1     165.557 183.980  31.680  1.00  0.00     0.053 C 
BRANCH   9  10
ATOM     10  C   UNL     1     164.980 182.852  30.883  1.00  0.00     0.041 C 
ATOM     11  O   UNL     1     165.064 181.668  31.307  1.00  0.00    -0.550 OA
ATOM     12  O   UNL     1     164.306 183.114  29.697  1.00  0.00    -0.550 OA
ENDBRANCH   9  10
ENDBRANCH   8   9
ENDBRANCH   7   8
ENDBRANCH   6   7
ENDBRANCH   5   6
ENDBRANCH   4   5
ENDBRANCH   3   4
ENDBRANCH   1   3
BRANCH   2  13
ATOM     13  C   UNL     1     170.870 183.170  34.737  1.00  0.00     0.027 C 
BRANCH  13  14
ATOM     14  C   UNL     1     171.694 184.465  34.688  1.00  0.00     0.004 C 
BRANCH  14  15
ATOM     15  C   UNL     1     171.990 184.905  33.246  1.00  0.00     0.000 C 
BRANCH  15  16
ATOM     16  C   UNL     1     171.712 186.405  33.061  1.00  0.00     0.000 C 
BRANCH  16  17
ATOM     17  C   UNL     1     170.478 186.660  32.177  1.00  0.00    -0.000 C 
BRANCH  17  18
ATOM     18  C   UNL     1     170.323 185.630  31.035  1.00  0.00    -0.000 C 
BRANCH  18  19
ATOM     19  C   UNL     1     168.867 185.437  30.579  1.00  0.00    -0.003 C 
ATOM     20  C   UNL     1     168.084 186.749  30.521  1.00  0.00     0.004 C 
ENDBRANCH  18  19
ENDBRANCH  17  18
ENDBRANCH  16  17
ENDBRANCH  15  16
ENDBRANCH  14  15
ENDBRANCH  13  14
ENDBRANCH   2  13
TORSDOF 15
ENDMDL
MODEL 4
REMARK VINA RESULT:    -3.427      1.019      1.913
REMARK INTER + INTRA:          -9.295
REMARK INTER:                  -6.578
REMARK INTRA:                  -2.717
REMARK UNBOUND:                -2.864
REMARK SMILES CCCCCCCCC=CCCCCCCCC(=O)[O-]
REMARK SMILES IDX 10 1 9 2 11 3 12 4 13 5 14 6 15 7 16 8 17 9 18 10 19 11
REMARK SMILES IDX 20 12 8 13 7 14 6 15 5 16 4 17 3 18 2 19 1 20
REMARK H PARENT
REMARK Flexibility Score: inf
ROOT
ATOM      1  C   UNL     1     167.884 187.055  30.844  1.00  0.00    -0.031 C 
ATOM      2  C   UNL     1     168.628 186.034  30.380  1.00  0.00    -0.031 C 
ENDROOT
BRANCH   1   3
ATOM      3  C   UNL     1     167.964 187.607  32.245  1.00  0.00     0.027 C 
BRANCH   3   4
ATOM      4  C   UNL     1     166.570 187.978  32.763  1.00  0.00     0.004 C 
BRANCH   4   5
ATOM      5  C   UNL     1     165.954 186.818  33.560  1.00  0.00     0.000 C 
BRANCH   5   6
ATOM      6  C   UNL     1     166.979 185.731  33.916  1.00  0.00     0.000 C 
BRANCH   6   7
ATOM      7  C   UNL     1     166.601 184.350  33.356  1.00  0.00     0.000 C 
BRANCH   7   8
ATOM      8  C   UNL     1     165.326 184.433  32.508  1.00  0.00     0.006 C 
BRANCH   8   9
ATOM      9  C   UNL     1     165.598 184.008  31.062  1.00  0.00     0.053 C 
BRANCH   9  10
ATOM     10  C   UNL     1     164.821 182.776  30.723  1.00  0.00     0.041 C 
ATOM     11  O   UNL     1     165.064 181.689  31.314  1.00  0.00    -0.550 OA
ATOM     12  O   UNL     1     163.794 182.838  29.790  1.00  0.00    -0.550 OA
ENDBRANCH   9  10
ENDBRANCH   8   9
ENDBRANCH   7   8
ENDBRANCH   6   7
ENDBRANCH   5   6
ENDBRANCH   4   5
ENDBRANCH   3   4
ENDBRANCH   1   3
BRANCH   2  13
ATOM     13  C   UNL     1     169.589 185.222  31.217  1.00  0.00     0.027 C 
BRANCH  13  14
ATOM     14  C   UNL     1     171.004 185.815  31.200  1.00  0.00     0.004 C 
BRANCH  14  15
ATOM     15  C   UNL     1     171.436 186.317  32.586  1.00  0.00     0.000 C 
BRANCH  15  16
ATOM     16  C   UNL     1     170.694 185.563  33.700  1.00  0.00     0.000 C 
BRANCH  16  17
ATOM     17  C   UNL     1     171.628 184.627  34.487  1.00  0.00    -0.000 C 
BRANCH  17  18
ATOM     18  C   UNL     1     171.401 183.131  34.167  1.00  0.00    -0.000 C 
BRANCH  18  19
ATOM     19  C   UNL     1     172.048 182.684  32.845  1.00  0.00    -0.003 C 
ATOM     20  C   UNL     1     173.507 183.123  32.720  1.00  0.00     0.004 C 
ENDBRANCH  18  19
ENDBRANCH  17  18
ENDBRANCH  16  17
ENDBRANCH  15  16
ENDBRANCH  14  15
ENDBRANCH  13  14
ENDBRANCH   2  13
TORSDOF 15
ENDMDL
MODEL 5
REMARK VINA RESULT:    -3.392      3.402      6.284
REMARK INTER + INTRA:          -9.231
REMARK INTER:                  -6.397
REMARK INTRA:                  -2.834
REMARK UNBOUND:                -2.864
REMARK SMILES CCCCCCCCC=CCCCCCCCC(=O)[O-]
REMARK SMILES IDX 10 1 9 2 11 3 12 4 13 5 14 6 15 7 16 8 17 9 18 10 19 11
REMARK SMILES IDX 20 12 8 13 7 14 6 15 5 16 4 17 3 18 2 19 1 20
REMARK H PARENT
REMARK Flexibility Score: inf
ROOT
ATOM      1  C   UNL     1     167.869 186.451  30.872  1.00  0.00    -0.031 C 
ATOM      2  C   UNL     1     167.479 187.572  31.506  1.00  0.00    -0.031 C 
ENDROOT
BRANCH   1   3
ATOM      3  C   UNL     1     168.866 185.460  31.419  1.00  0.00     0.027 C 
BRANCH   3   4
ATOM      4  C   UNL     1     170.115 185.402  30.532  1.00  0.00     0.004 C 
BRANCH   4   5
ATOM      5  C   UNL     1     171.391 185.573  31.369  1.00  0.00     0.000 C 
BRANCH   5   6
ATOM      6  C   UNL     1     171.153 186.373  32.659  1.00  0.00     0.000 C 
BRANCH   6   7
ATOM      7  C   UNL     1     171.592 185.613  33.921  1.00  0.00     0.000 C 
BRANCH   7   8
ATOM      8  C   UNL     1     171.640 184.103  33.662  1.00  0.00     0.006 C 
BRANCH   8   9
ATOM      9  C   UNL     1     172.743 183.437  34.489  1.00  0.00     0.053 C 
BRANCH   9  10
ATOM     10  C   UNL     1     173.940 183.156  33.636  1.00  0.00     0.041 C 
ATOM     11  O   UNL     1     173.835 183.144  32.380  1.00  0.00    -0.550 OA
ATOM     12  O   UNL     1     175.181 182.958  34.226  1.00  0.00    -0.550 OA
ENDBRANCH   9  10
ENDBRANCH   8   9
ENDBRANCH   7   8
ENDBRANCH   6   7
ENDBRANCH   5   6
ENDBRANCH   4   5
ENDBRANCH   3   4
ENDBRANCH   1   3
BRANCH   2  13
ATOM     13  C   UNL     1     168.050 188.061  32.816  1.00  0.00     0.027 C 
BRANCH  13  14
ATOM     14  C   UNL     1     167.268 187.514  34.020  1.00  0.00     0.004 C 
BRANCH  14  15
ATOM     15  C   UNL     1     168.168 186.719  34.978  1.00  0.00     0.000 C 
BRANCH  15  16
ATOM     16  C   UNL     1     167.782 185.232  34.989  1.00  0.00     0.000 C 
BRANCH  16  17
ATOM     17  C   UNL     1     166.308 185.014  34.602  1.00  0.00    -0.000 C 
BRANCH  17  18
ATOM     18  C   UNL     1     166.126 184.014  33.438  1.00  0.00    -0.000 C 
BRANCH  18  19
ATOM     19  C   UNL     1     165.102 184.479  32.388  1.00  0.00    -0.003 C 
ATOM     20  C   UNL     1     165.198 183.696  31.078  1.00  0.00     0.004 C 
ENDBRANCH  18  19
ENDBRANCH  17  18
ENDBRANCH  16  17
ENDBRANCH  15  16
ENDBRANCH  14  15
ENDBRANCH  13  14
ENDBRANCH   2  13
TORSDOF 15
ENDMDL
MODEL 6
REMARK VINA RESULT:    -3.370      2.722      6.270
REMARK INTER + INTRA:          -9.189
REMARK INTER:                  -6.696
REMARK INTRA:                  -2.493
REMARK UNBOUND:                -2.864
REMARK SMILES CCCCCCCCC=CCCCCCCCC(=O)[O-]
REMARK SMILES IDX 10 1 9 2 11 3 12 4 13 5 14 6 15 7 16 8 17 9 18 10 19 11
REMARK SMILES IDX 20 12 8 13 7 14 6 15 5 16 4 17 3 18 2 19 1 20
REMARK H PARENT
REMARK Flexibility Score: inf
ROOT
ATOM      1  C   UNL     1     167.685 184.816  32.283  1.00  0.00    -0.031 C 
ATOM      2  C   UNL     1     167.095 185.294  33.393  1.00  0.00    -0.031 C 
ENDROOT
BRANCH   1   3
ATOM      3  C   UNL     1     167.547 185.424  30.909  1.00  0.00     0.027 C 
BRANCH   3   4
ATOM      4  C   UNL     1     168.840 186.136  30.498  1.00  0.00     0.004 C 
BRANCH   4   5
ATOM      5  C   UNL     1     170.044 185.189  30.596  1.00  0.00     0.000 C 
BRANCH   5   6
ATOM      6  C   UNL     1     171.235 185.815  31.339  1.00  0.00     0.000 C 
BRANCH   6   7
ATOM      7  C   UNL     1     170.801 186.723  32.500  1.00  0.00     0.000 C 
BRANCH   7   8
ATOM      8  C   UNL     1     171.244 186.139  33.847  1.00  0.00     0.006 C 
BRANCH   8   9
ATOM      9  C   UNL     1     171.912 184.774  33.663  1.00  0.00     0.053 C 
BRANCH   9  10
ATOM     10  C   UNL     1     171.070 183.693  34.264  1.00  0.00     0.041 C 
ATOM     11  O   UNL     1     171.350 182.482  34.058  1.00  0.00    -0.550 OA
ATOM     12  O   UNL     1     170.005 184.023  35.093  1.00  0.00    -0.550 OA
ENDBRANCH   9  10
ENDBRANCH   8   9
ENDBRANCH   7   8
ENDBRANCH   6   7
ENDBRANCH   5   6
ENDBRANCH   4   5
ENDBRANCH   3   4
ENDBRANCH   1   3
BRANCH   2  13
ATOM     13  C   UNL     1     166.128 186.455  33.420  1.00  0.00     0.027 C 
BRANCH  13  14
ATOM     14  C   UNL     1     164.670 185.984  33.518  1.00  0.00     0.004 C 
BRANCH  14  15
ATOM     15  C   UNL     1     164.551 184.623  34.222  1.00  0.00     0.000 C 
BRANCH  15  16
ATOM     16  C   UNL     1     163.828 183.604  33.328  1.00  0.00     0.000 C 
BRANCH  16  17
ATOM     17  C   UNL     1     164.676 182.341  33.089  1.00  0.00    -0.000 C 
BRANCH  17  18
ATOM     18  C   UNL     1     165.141 182.190  31.623  1.00  0.00    -0.000 C 
BRANCH  18  19
ATOM     19  C   UNL     1     164.595 183.286  30.692  1.00  0.00    -0.003 C 
ATOM     20  C   UNL     1     163.688 182.733  29.592  1.00  0.00     0.004 C 
ENDBRANCH  18  19
ENDBRANCH  17  18
ENDBRANCH  16  17
ENDBRANCH  15  16
ENDBRANCH  14  15
ENDBRANCH  13  14
ENDBRANCH   2  13
TORSDOF 15
ENDMDL
MODEL 7
REMARK VINA RESULT:    -3.287      1.484      3.126
REMARK INTER + INTRA:          -9.033
REMARK INTER:                  -6.206
REMARK INTRA:                  -2.827
REMARK UNBOUND:                -2.864
REMARK SMILES CCCCCCCCC=CCCCCCCCC(=O)[O-]
REMARK SMILES IDX 10 1 9 2 11 3 12 4 13 5 14 6 15 7 16 8 17 9 18 10 19 11
REMARK SMILES IDX 20 12 8 13 7 14 6 15 5 16 4 17 3 18 2 19 1 20
REMARK H PARENT
REMARK Flexibility Score: inf
ROOT
ATOM      1  C   UNL     1     167.580 187.915  31.283  1.00  0.00    -0.031 C 
ATOM      2  C   UNL     1     167.822 186.710  30.734  1.00  0.00    -0.031 C 
ENDROOT
BRANCH   1   3
ATOM      3  C   UNL     1     168.216 188.421  32.553  1.00  0.00     0.027 C 
BRANCH   3   4
ATOM      4  C   UNL     1     167.420 187.962  33.780  1.00  0.00     0.004 C 
BRANCH   4   5
ATOM      5  C   UNL     1     165.935 188.330  33.639  1.00  0.00     0.000 C 
BRANCH   5   6
ATOM      6  C   UNL     1     165.003 187.128  33.851  1.00  0.00     0.000 C 
BRANCH   6   7
ATOM      7  C   UNL     1     165.717 185.780  33.668  1.00  0.00     0.000 C 
BRANCH   7   8
ATOM      8  C   UNL     1     164.932 184.868  32.718  1.00  0.00     0.006 C 
BRANCH   8   9
ATOM      9  C   UNL     1     165.699 183.573  32.436  1.00  0.00     0.053 C 
BRANCH   9  10
ATOM     10  C   UNL     1     165.110 182.860  31.261  1.00  0.00     0.041 C 
ATOM     11  O   UNL     1     164.763 183.506  30.235  1.00  0.00    -0.550 OA
ATOM     12  O   UNL     1     164.991 181.476  31.277  1.00  0.00    -0.550 OA
ENDBRANCH   9  10
ENDBRANCH   8   9
ENDBRANCH   7   8
ENDBRANCH   6   7
ENDBRANCH   5   6
ENDBRANCH   4   5
ENDBRANCH   3   4
ENDBRANCH   1   3
BRANCH   2  13
ATOM     13  C   UNL     1     168.693 185.643  31.355  1.00  0.00     0.027 C 
BRANCH  13  14
ATOM     14  C   UNL     1     169.944 185.364  30.510  1.00  0.00     0.004 C 
BRANCH  14  15
ATOM     15  C   UNL     1     171.225 185.368  31.359  1.00  0.00     0.000 C 
BRANCH  15  16
ATOM     16  C   UNL     1     171.183 186.485  32.413  1.00  0.00     0.000 C 
BRANCH  16  17
ATOM     17  C   UNL     1     171.609 185.984  33.805  1.00  0.00    -0.000 C 
BRANCH  17  18
ATOM     18  C   UNL     1     170.516 186.174  34.881  1.00  0.00    -0.000 C 
BRANCH  18  19
ATOM     19  C   UNL     1     169.400 185.117  34.813  1.00  0.00    -0.003 C 
ATOM     20  C   UNL     1     169.933 183.707  34.559  1.00  0.00     0.004 C 
ENDBRANCH  18  19
ENDBRANCH  17  18
ENDBRANCH  16  17
ENDBRANCH  15  16
ENDBRANCH  14  15
ENDBRANCH  13  14
ENDBRANCH   2  13
TORSDOF 15
ENDMDL
MODEL 8
REMARK VINA RESULT:    -3.285      2.832      6.156
REMARK INTER + INTRA:          -9.029
REMARK INTER:                  -6.278
REMARK INTRA:                  -2.751
REMARK UNBOUND:                -2.864
REMARK SMILES CCCCCCCCC=CCCCCCCCC(=O)[O-]
REMARK SMILES IDX 10 1 9 2 11 3 12 4 13 5 14 6 15 7 16 8 17 9 18 10 19 11
REMARK SMILES IDX 20 12 8 13 7 14 6 15 5 16 4 17 3 18 2 19 1 20
REMARK H PARENT
REMARK Flexibility Score: inf
ROOT
ATOM      1  C   UNL     1     167.487 185.532  30.815  1.00  0.00    -0.031 C 
ATOM      2  C   UNL     1     167.145 184.633  31.756  1.00  0.00    -0.031 C 
ENDROOT
BRANCH   1   3
ATOM      3  C   UNL     1     168.435 186.685  31.035  1.00  0.00     0.027 C 
BRANCH   3   4
ATOM      4  C   UNL     1     167.676 187.928  31.512  1.00  0.00     0.004 C 
BRANCH   4   5
ATOM      5  C   UNL     1     168.204 188.406  32.872  1.00  0.00     0.000 C 
BRANCH   5   6
ATOM      6  C   UNL     1     169.658 187.981  33.129  1.00  0.00     0.000 C 
BRANCH   6   7
ATOM      7  C   UNL     1     169.845 187.285  34.486  1.00  0.00     0.000 C 
BRANCH   7   8
ATOM      8  C   UNL     1     170.977 186.253  34.422  1.00  0.00     0.006 C 
BRANCH   8   9
ATOM      9  C   UNL     1     171.592 186.196  33.021  1.00  0.00     0.053 C 
BRANCH   9  10
ATOM     10  C   UNL     1     171.736 184.777  32.570  1.00  0.00     0.041 C 
ATOM     11  O   UNL     1     170.914 184.285  31.750  1.00  0.00    -0.550 OA
ATOM     12  O   UNL     1     172.807 184.013  33.014  1.00  0.00    -0.550 OA
ENDBRANCH   9  10
ENDBRANCH   8   9
ENDBRANCH   7   8
ENDBRANCH   6   7
ENDBRANCH   5   6
ENDBRANCH   4   5
ENDBRANCH   3   4
ENDBRANCH   1   3
BRANCH   2  13
ATOM     13  C   UNL     1     167.582 184.693  33.201  1.00  0.00     0.027 C 
BRANCH  13  14
ATOM     14  C   UNL     1     166.466 185.220  34.114  1.00  0.00     0.004 C 
BRANCH  14  15
ATOM     15  C   UNL     1     165.152 185.442  33.349  1.00  0.00     0.000 C 
BRANCH  15  16
ATOM     16  C   UNL     1     164.027 184.566  33.921  1.00  0.00     0.000 C 
BRANCH  16  17
ATOM     17  C   UNL     1     164.231 183.076  33.594  1.00  0.00    -0.000 C 
BRANCH  17  18
ATOM     18  C   UNL     1     163.503 182.631  32.305  1.00  0.00    -0.000 C 
BRANCH  18  19
ATOM     19  C   UNL     1     164.460 182.192  31.183  1.00  0.00    -0.003 C 
ATOM     20  C   UNL     1     164.289 183.010  29.903  1.00  0.00     0.004 C 
ENDBRANCH  18  19
ENDBRANCH  17  18
ENDBRANCH  16  17
ENDBRANCH  15  16
ENDBRANCH  14  15
ENDBRANCH  13  14
ENDBRANCH   2  13
TORSDOF 15
ENDMDL
MODEL 9
REMARK VINA RESULT:    -3.248      2.529      5.697
REMARK INTER + INTRA:          -8.960
REMARK INTER:                  -6.335
REMARK INTRA:                  -2.625
REMARK UNBOUND:                -2.864
REMARK SMILES CCCCCCCCC=CCCCCCCCC(=O)[O-]
REMARK SMILES IDX 10 1 9 2 11 3 12 4 13 5 14 6 15 7 16 8 17 9 18 10 19 11
REMARK SMILES IDX 20 12 8 13 7 14 6 15 5 16 4 17 3 18 2 19 1 20
REMARK H PARENT
REMARK Flexibility Score: inf
ROOT
ATOM      1  C   UNL     1     168.722 185.760  30.419  1.00  0.00    -0.031 C 
ATOM      2  C   UNL     1     167.859 186.768  30.643  1.00  0.00    -0.031 C 
ENDROOT
BRANCH   1   3
ATOM      3  C   UNL     1     169.675 185.203  31.447  1.00  0.00     0.027 C 
BRANCH   3   4
ATOM      4  C   UNL     1     171.053 185.862  31.323  1.00  0.00     0.004 C 
BRANCH   4   5
ATOM      5  C   UNL     1     171.518 186.421  32.675  1.00  0.00     0.000 C 
BRANCH   5   6
ATOM      6  C   UNL     1     170.565 186.062  33.826  1.00  0.00     0.000 C 
BRANCH   6   7
ATOM      7  C   UNL     1     171.307 185.622  35.098  1.00  0.00     0.000 C 
BRANCH   7   8
ATOM      8  C   UNL     1     171.805 184.178  34.970  1.00  0.00     0.006 C 
BRANCH   8   9
ATOM      9  C   UNL     1     170.730 183.276  34.358  1.00  0.00     0.053 C 
BRANCH   9  10
ATOM     10  C   UNL     1     171.326 182.381  33.318  1.00  0.00     0.041 C 
ATOM     11  O   UNL     1     172.214 182.818  32.538  1.00  0.00    -0.550 OA
ATOM     12  O   UNL     1     170.936 181.049  33.242  1.00  0.00    -0.550 OA
ENDBRANCH   9  10
ENDBRANCH   8   9
ENDBRANCH   7   8
ENDBRANCH   6   7
ENDBRANCH   5   6
ENDBRANCH   4   5
ENDBRANCH   3   4
ENDBRANCH   1   3
BRANCH   2  13
ATOM     13  C   UNL     1     167.779 187.560  31.926  1.00  0.00     0.027 C 
BRANCH  13  14
ATOM     14  C   UNL     1     166.615 187.096  32.813  1.00  0.00     0.004 C 
BRANCH  14  15
ATOM     15  C   UNL     1     167.105 186.355  34.066  1.00  0.00     0.000 C 
BRANCH  15  16
ATOM     16  C   UNL     1     167.003 184.833  33.881  1.00  0.00     0.000 C 
BRANCH  16  17
ATOM     17  C   UNL     1     165.625 184.406  33.347  1.00  0.00    -0.000 C 
BRANCH  17  18
ATOM     18  C   UNL     1     165.701 183.653  31.999  1.00  0.00    -0.000 C 
BRANCH  18  19
ATOM     19  C   UNL     1     164.329 183.441  31.338  1.00  0.00    -0.003 C 
ATOM     20  C   UNL     1     164.434 183.039  29.867  1.00  0.00     0.004 C 
ENDBRANCH  18  19
ENDBRANCH  17  18
ENDBRANCH  16  17
ENDBRANCH  15  16
ENDBRANCH  14  15
ENDBRANCH  13  14
ENDBRANCH   2  13
TORSDOF 15
ENDMDL
