MODEL 1
REMARK VINA RESULT:    -3.832      0.000      0.000
REMARK INTER + INTRA:         -10.340
REMARK INTER:                  -7.416
REMARK INTRA:                  -2.924
REMARK UNBOUND:                -2.924
REMARK SMILES CCCCCCCCCCCCCCCCCC(=O)[O-]
REMARK SMILES IDX 10 1 11 2 12 3 13 4 14 5 15 6 16 7 17 8 18 9 19 10 20 11
REMARK SMILES IDX 9 12 8 13 7 14 6 15 5 16 4 17 3 18 2 19 1 20
REMARK H PARENT
REMARK Flexibility Score: inf
ROOT
ATOM      1  C   UNL     1      -9.811  16.449   0.463  1.00  0.00     0.000 C 
ENDROOT
BRANCH   1   2
ATOM      2  C   UNL     1     -10.051  16.380  -1.053  1.00  0.00     0.000 C 
BRANCH   2   3
ATOM      3  C   UNL     1      -9.040  17.223  -1.850  1.00  0.00     0.000 C 
BRANCH   3   4
ATOM      4  C   UNL     1      -8.455  16.462  -3.051  1.00  0.00     0.000 C 
BRANCH   4   5
ATOM      5  C   UNL     1      -9.209  15.151  -3.341  1.00  0.00     0.000 C 
BRANCH   5   6
ATOM      6  C   UNL     1      -8.350  14.121  -4.098  1.00  0.00     0.000 C 
BRANCH   6   7
ATOM      7  C   UNL     1      -6.867  14.505  -4.264  1.00  0.00     0.006 C 
BRANCH   7   8
ATOM      8  C   UNL     1      -6.460  14.696  -5.730  1.00  0.00     0.053 C 
BRANCH   8   9
ATOM      9  C   UNL     1      -6.597  13.410  -6.483  1.00  0.00     0.041 C 
ATOM     10  O   UNL     1      -7.398  13.327  -7.452  1.00  0.00    -0.550 OA
ATOM     11  O   UNL     1      -5.805  12.320  -6.149  1.00  0.00    -0.550 OA
ENDBRANCH   8   9
ENDBRANCH   7   8
ENDBRANCH   6   7
ENDBRANCH   5   6
ENDBRANCH   4   5
ENDBRANCH   3   4
ENDBRANCH   2   3
ENDBRANCH   1   2
BRANCH   1  12
ATOM     12  C   UNL     1      -9.809  15.062   1.129  1.00  0.00     0.000 C 
BRANCH  12  13
ATOM     13  C   UNL     1      -9.284  13.961   0.194  1.00  0.00    -0.000 C 
BRANCH  13  14
ATOM     14  C   UNL     1      -7.829  13.568   0.506  1.00  0.00    -0.000 C 
BRANCH  14  15
ATOM     15  C   UNL     1      -6.861  13.941  -0.627  1.00  0.00    -0.000 C 
BRANCH  15  16
ATOM     16  C   UNL     1      -6.157  15.286  -0.384  1.00  0.00    -0.000 C 
BRANCH  16  17
ATOM     17  C   UNL     1      -5.959  15.539   1.115  1.00  0.00    -0.000 C 
BRANCH  17  18
ATOM     18  C   UNL     1      -6.315  16.988   1.479  1.00  0.00    -0.000 C 
BRANCH  18  19
ATOM     19  C   UNL     1      -6.971  17.104   2.864  1.00  0.00    -0.003 C 
ATOM     20  C   UNL     1      -6.602  18.400   3.586  1.00  0.00     0.004 C 
ENDBRANCH  18  19
ENDBRANCH  17  18
ENDBRANCH  16  17
ENDBRANCH  15  16
ENDBRANCH  14  15
ENDBRANCH  13  14
ENDBRANCH  12  13
ENDBRANCH   1  12
TORSDOF 16
ENDMDL
MODEL 2
REMARK VINA RESULT:    -3.792      1.734      2.965
REMARK INTER + INTRA:         -10.262
REMARK INTER:                  -7.836
REMARK INTRA:                  -2.426
REMARK UNBOUND:                -2.924
REMARK SMILES CCCCCCCCCCCCCCCCCC(=O)[O-]
REMARK SMILES IDX 10 1 11 2 12 3 13 4 14 5 15 6 16 7 17 8 18 9 19 10 20 11
REMARK SMILES IDX 9 12 8 13 7 14 6 15 5 16 4 17 3 18 2 19 1 20
REMARK H PARENT
REMARK Flexibility Score: inf
ROOT
ATOM      1  C   UNL     1      -8.744  16.062  -3.579  1.00  0.00     0.000 C 
ENDROOT
BRANCH   1   2
ATOM      2  C   UNL     1      -7.920  14.802  -3.270  1.00  0.00     0.000 C 
BRANCH   2   3
ATOM      3  C   UNL     1      -8.694  13.504  -3.564  1.00  0.00     0.000 C 
BRANCH   3   4
ATOM      4  C   UNL     1     -10.075  13.769  -4.184  1.00  0.00     0.000 C 
BRANCH   4   5
ATOM      5  C   UNL     1     -10.356  12.870  -5.401  1.00  0.00     0.000 C 
BRANCH   5   6
ATOM      6  C   UNL     1     -10.810  13.664  -6.641  1.00  0.00     0.000 C 
BRANCH   6   7
ATOM      7  C   UNL     1      -9.819  14.738  -7.125  1.00  0.00     0.006 C 
BRANCH   7   8
ATOM      8  C   UNL     1      -8.573  14.145  -7.795  1.00  0.00     0.053 C 
BRANCH   8   9
ATOM      9  C   UNL     1      -7.352  14.439  -6.982  1.00  0.00     0.041 C 
ATOM     10  O   UNL     1      -7.057  15.628  -6.690  1.00  0.00    -0.550 OA
ATOM     11  O   UNL     1      -6.567  13.398  -6.502  1.00  0.00    -0.550 OA
ENDBRANCH   8   9
ENDBRANCH   7   8
ENDBRANCH   6   7
ENDBRANCH   5   6
ENDBRANCH   4   5
ENDBRANCH   3   4
ENDBRANCH   2   3
ENDBRANCH   1   2
BRANCH   1  12
ATOM     12  C   UNL     1      -8.700  17.096  -2.441  1.00  0.00     0.000 C 
BRANCH  12  13
ATOM     13  C   UNL     1      -9.861  16.931  -1.449  1.00  0.00    -0.000 C 
BRANCH  13  14
ATOM     14  C   UNL     1      -9.377  16.598  -0.026  1.00  0.00    -0.000 C 
BRANCH  14  15
ATOM     15  C   UNL     1      -9.209  15.088   0.202  1.00  0.00    -0.000 C 
BRANCH  15  16
ATOM     16  C   UNL     1      -7.915  14.745   0.957  1.00  0.00    -0.000 C 
BRANCH  16  17
ATOM     17  C   UNL     1      -6.683  15.227   0.182  1.00  0.00    -0.000 C 
BRANCH  17  18
ATOM     18  C   UNL     1      -5.810  16.142   1.054  1.00  0.00    -0.000 C 
BRANCH  18  19
ATOM     19  C   UNL     1      -6.476  16.491   2.395  1.00  0.00    -0.003 C 
ATOM     20  C   UNL     1      -6.422  17.985   2.710  1.00  0.00     0.004 C 
ENDBRANCH  18  19
ENDBRANCH  17  18
ENDBRANCH  16  17
ENDBRANCH  15  16
ENDBRANCH  14  15
ENDBRANCH  13  14
ENDBRANCH  12  13
ENDBRANCH   1  12
TORSDOF 16
ENDMDL
MODEL 3
REMARK VINA RESULT:    -3.788      3.871      7.483
REMARK INTER + INTRA:         -10.254
REMARK INTER:                  -8.228
REMARK INTRA:                  -2.026
REMARK UNBOUND:                -2.924
REMARK SMILES CCCCCCCCCCCCCCCCCC(=O)[O-]
REMARK SMILES IDX 10 1 11 2 12 3 13 4 14 5 15 6 16 7 17 8 18 9 19 10 20 11
REMARK SMILES IDX 9 12 8 13 7 14 6 15 5 16 4 17 3 18 2 19 1 20
REMARK H PARENT
REMARK Flexibility Score: inf
ROOT
ATOM      1  C   UNL     1      -8.670  16.418  -3.375  1.00  0.00     0.000 C 
ENDROOT
BRANCH   1   2
ATOM      2  C   UNL     1      -9.008  17.272  -2.142  1.00  0.00     0.000 C 
BRANCH   2   3
ATOM      3  C   UNL     1      -9.913  16.531  -1.142  1.00  0.00     0.000 C 
BRANCH   3   4
ATOM      4  C   UNL     1      -9.337  16.528   0.283  1.00  0.00     0.000 C 
BRANCH   4   5
ATOM      5  C   UNL     1      -8.399  15.334   0.536  1.00  0.00     0.000 C 
BRANCH   5   6
ATOM      6  C   UNL     1      -6.937  15.627   0.150  1.00  0.00     0.000 C 
BRANCH   6   7
ATOM      7  C   UNL     1      -6.022  16.032   1.320  1.00  0.00     0.006 C 
BRANCH   7   8
ATOM      8  C   UNL     1      -6.299  17.450   1.834  1.00  0.00     0.053 C 
BRANCH   8   9
ATOM      9  C   UNL     1      -6.807  17.407   3.240  1.00  0.00     0.041 C 
ATOM     10  O   UNL     1      -6.499  16.447   3.996  1.00  0.00    -0.550 OA
ATOM     11  O   UNL     1      -7.579  18.450   3.734  1.00  0.00    -0.550 OA
ENDBRANCH   8   9
ENDBRANCH   7   8
ENDBRANCH   6   7
ENDBRANCH   5   6
ENDBRANCH   4   5
ENDBRANCH   3   4
ENDBRANCH   2   3
ENDBRANCH   1   2
BRANCH   1  12
ATOM     12  C   UNL     1      -9.245  14.994  -3.287  1.00  0.00     0.000 C 
BRANCH  12  13
ATOM     13  C   UNL     1      -8.216  13.919  -3.670  1.00  0.00    -0.000 C 
BRANCH  13  14
ATOM     14  C   UNL     1      -6.806  14.500  -3.877  1.00  0.00    -0.000 C 
BRANCH  14  15
ATOM     15  C   UNL     1      -6.268  14.252  -5.294  1.00  0.00    -0.000 C 
BRANCH  15  16
ATOM     16  C   UNL     1      -7.094  14.968  -6.374  1.00  0.00    -0.000 C 
BRANCH  16  17
ATOM     17  C   UNL     1      -7.415  14.022  -7.538  1.00  0.00    -0.000 C 
BRANCH  17  18
ATOM     18  C   UNL     1      -8.756  14.388  -8.189  1.00  0.00    -0.000 C 
BRANCH  18  19
ATOM     19  C   UNL     1      -9.839  14.736  -7.155  1.00  0.00    -0.003 C 
ATOM     20  C   UNL     1     -10.566  13.503  -6.621  1.00  0.00     0.004 C 
ENDBRANCH  18  19
ENDBRANCH  17  18
ENDBRANCH  16  17
ENDBRANCH  15  16
ENDBRANCH  14  15
ENDBRANCH  13  14
ENDBRANCH  12  13
ENDBRANCH   1  12
TORSDOF 16
ENDMDL
MODEL 4
REMARK VINA RESULT:    -3.759      1.371      3.366
REMARK INTER + INTRA:         -10.199
REMARK INTER:                  -7.822
REMARK INTRA:                  -2.378
REMARK UNBOUND:                -2.924
REMARK SMILES CCCCCCCCCCCCCCCCCC(=O)[O-]
REMARK SMILES IDX 10 1 11 2 12 3 13 4 14 5 15 6 16 7 17 8 18 9 19 10 20 11
REMARK SMILES IDX 9 12 8 13 7 14 6 15 5 16 4 17 3 18 2 19 1 20
REMARK H PARENT
REMARK Flexibility Score: inf
ROOT
ATOM      1  C   UNL     1     -10.420  16.307   2.194  1.00  0.00     0.000 C 
ENDROOT
BRANCH   1   2
ATOM      2  C   UNL     1      -9.905  15.785   0.843  1.00  0.00     0.000 C 
BRANCH   2   3
ATOM      3  C   UNL     1      -9.189  16.874   0.025  1.00  0.00     0.000 C 
BRANCH   3   4
ATOM      4  C   UNL     1      -9.527  16.803  -1.473  1.00  0.00     0.000 C 
BRANCH   4   5
ATOM      5  C   UNL     1     -10.348  15.552  -1.833  1.00  0.00     0.000 C 
BRANCH   5   6
ATOM      6  C   UNL     1      -9.735  14.746  -2.993  1.00  0.00     0.000 C 
BRANCH   6   7
ATOM      7  C   UNL     1      -8.666  15.492  -3.812  1.00  0.00     0.006 C 
BRANCH   7   8
ATOM      8  C   UNL     1      -8.658  15.092  -5.292  1.00  0.00     0.053 C 
BRANCH   8   9
ATOM      9  C   UNL     1      -7.254  15.008  -5.804  1.00  0.00     0.041 C 
ATOM     10  O   UNL     1      -6.881  15.750  -6.751  1.00  0.00    -0.550 OA
ATOM     11  O   UNL     1      -6.344  14.149  -5.202  1.00  0.00    -0.550 OA
ENDBRANCH   8   9
ENDBRANCH   7   8
ENDBRANCH   6   7
ENDBRANCH   5   6
ENDBRANCH   4   5
ENDBRANCH   3   4
ENDBRANCH   2   3
ENDBRANCH   1   2
BRANCH   1  12
ATOM     12  C   UNL     1      -9.765  17.636   2.607  1.00  0.00     0.000 C 
BRANCH  12  13
ATOM     13  C   UNL     1      -8.719  17.457   3.718  1.00  0.00    -0.000 C 
BRANCH  13  14
ATOM     14  C   UNL     1      -7.559  18.462   3.602  1.00  0.00    -0.000 C 
BRANCH  14  15
ATOM     15  C   UNL     1      -6.502  18.027   2.574  1.00  0.00    -0.000 C 
BRANCH  15  16
ATOM     16  C   UNL     1      -6.412  16.500   2.429  1.00  0.00    -0.000 C 
BRANCH  16  17
ATOM     17  C   UNL     1      -5.747  16.112   1.103  1.00  0.00    -0.000 C 
BRANCH  17  18
ATOM     18  C   UNL     1      -6.121  14.679   0.699  1.00  0.00    -0.000 C 
BRANCH  18  19
ATOM     19  C   UNL     1      -6.345  14.532  -0.815  1.00  0.00    -0.003 C 
ATOM     20  C   UNL     1      -7.070  13.238  -1.182  1.00  0.00     0.004 C 
ENDBRANCH  18  19
ENDBRANCH  17  18
ENDBRANCH  16  17
ENDBRANCH  15  16
ENDBRANCH  14  15
ENDBRANCH  13  14
ENDBRANCH  12  13
ENDBRANCH   1  12
TORSDOF 16
ENDMDL
MODEL 5
REMARK VINA RESULT:    -3.716      1.302      2.905
REMARK INTER + INTRA:         -10.116
REMARK INTER:                  -8.086
REMARK INTRA:                  -2.029
REMARK UNBOUND:                -2.924
REMARK SMILES CCCCCCCCCCCCCCCCCC(=O)[O-]
REMARK SMILES IDX 10 1 11 2 12 3 13 4 14 5 15 6 16 7 17 8 18 9 19 10 20 11
REMARK SMILES IDX 9 12 8 13 7 14 6 15 5 16 4 17 3 18 2 19 1 20
REMARK H PARENT
REMARK Flexibility Score: inf
ROOT
ATOM      1  C   UNL     1      -9.065  16.905  -0.027  1.00  0.00     0.000 C 
ENDROOT
BRANCH   1   2
ATOM      2  C   UNL     1      -9.757  16.911  -1.399  1.00  0.00     0.000 C 
BRANCH   2   3
ATOM      3  C   UNL     1      -8.760  16.767  -2.563  1.00  0.00     0.000 C 
BRANCH   3   4
ATOM      4  C   UNL     1      -7.826  15.558  -2.393  1.00  0.00     0.000 C 
BRANCH   4   5
ATOM      5  C   UNL     1      -7.942  14.557  -3.557  1.00  0.00     0.000 C 
BRANCH   5   6
ATOM      6  C   UNL     1      -6.581  14.221  -4.196  1.00  0.00     0.000 C 
BRANCH   6   7
ATOM      7  C   UNL     1      -6.420  14.671  -5.660  1.00  0.00     0.006 C 
BRANCH   7   8
ATOM      8  C   UNL     1      -7.734  15.154  -6.285  1.00  0.00     0.053 C 
BRANCH   8   9
ATOM      9  C   UNL     1      -8.105  14.294  -7.453  1.00  0.00     0.041 C 
ATOM     10  O   UNL     1      -8.301  13.060  -7.293  1.00  0.00    -0.550 OA
ATOM     11  O   UNL     1      -8.284  14.863  -8.707  1.00  0.00    -0.550 OA
ENDBRANCH   8   9
ENDBRANCH   7   8
ENDBRANCH   6   7
ENDBRANCH   5   6
ENDBRANCH   4   5
ENDBRANCH   3   4
ENDBRANCH   2   3
ENDBRANCH   1   2
BRANCH   1  12
ATOM     12  C   UNL     1      -9.992  16.425   1.104  1.00  0.00     0.000 C 
BRANCH  12  13
ATOM     13  C   UNL     1     -10.003  17.385   2.304  1.00  0.00    -0.000 C 
BRANCH  13  14
ATOM     14  C   UNL     1      -8.865  17.096   3.300  1.00  0.00    -0.000 C 
BRANCH  14  15
ATOM     15  C   UNL     1      -7.845  18.243   3.379  1.00  0.00    -0.000 C 
BRANCH  15  16
ATOM     16  C   UNL     1      -6.524  17.910   2.667  1.00  0.00    -0.000 C 
BRANCH  16  17
ATOM     17  C   UNL     1      -6.345  16.393   2.523  1.00  0.00    -0.000 C 
BRANCH  17  18
ATOM     18  C   UNL     1      -5.730  16.040   1.161  1.00  0.00    -0.000 C 
BRANCH  18  19
ATOM     19  C   UNL     1      -6.149  14.647   0.666  1.00  0.00    -0.003 C 
ATOM     20  C   UNL     1      -7.196  13.991   1.566  1.00  0.00     0.004 C 
ENDBRANCH  18  19
ENDBRANCH  17  18
ENDBRANCH  16  17
ENDBRANCH  15  16
ENDBRANCH  14  15
ENDBRANCH  13  14
ENDBRANCH  12  13
ENDBRANCH   1  12
TORSDOF 16
ENDMDL
MODEL 6
REMARK VINA RESULT:    -3.701      3.332      7.139
REMARK INTER + INTRA:         -10.087
REMARK INTER:                  -7.800
REMARK INTRA:                  -2.287
REMARK UNBOUND:                -2.924
REMARK SMILES CCCCCCCCCCCCCCCCCC(=O)[O-]
REMARK SMILES IDX 10 1 11 2 12 3 13 4 14 5 15 6 16 7 17 8 18 9 19 10 20 11
REMARK SMILES IDX 9 12 8 13 7 14 6 15 5 16 4 17 3 18 2 19 1 20
REMARK H PARENT
REMARK Flexibility Score: inf
ROOT
ATOM      1  C   UNL     1      -8.508  13.663  -3.052  1.00  0.00     0.000 C 
ENDROOT
BRANCH   1   2
ATOM      2  C   UNL     1      -7.784  14.992  -2.787  1.00  0.00     0.000 C 
BRANCH   2   3
ATOM      3  C   UNL     1      -8.617  16.214  -3.213  1.00  0.00     0.000 C 
BRANCH   3   4
ATOM      4  C   UNL     1      -8.818  17.219  -2.066  1.00  0.00     0.000 C 
BRANCH   4   5
ATOM      5  C   UNL     1     -10.037  16.877  -1.191  1.00  0.00     0.000 C 
BRANCH   5   6
ATOM      6  C   UNL     1      -9.666  16.065   0.064  1.00  0.00     0.000 C 
BRANCH   6   7
ATOM      7  C   UNL     1      -8.979  16.872   1.182  1.00  0.00     0.006 C 
BRANCH   7   8
ATOM      8  C   UNL     1      -7.838  16.103   1.859  1.00  0.00     0.053 C 
BRANCH   8   9
ATOM      9  C   UNL     1      -6.518  16.727   1.527  1.00  0.00     0.041 C 
ATOM     10  O   UNL     1      -5.740  16.165   0.712  1.00  0.00    -0.550 OA
ATOM     11  O   UNL     1      -6.170  17.953   2.078  1.00  0.00    -0.550 OA
ENDBRANCH   8   9
ENDBRANCH   7   8
ENDBRANCH   6   7
ENDBRANCH   5   6
ENDBRANCH   4   5
ENDBRANCH   3   4
ENDBRANCH   2   3
ENDBRANCH   1   2
BRANCH   1  12
ATOM     12  C   UNL     1      -9.837  13.851  -3.805  1.00  0.00     0.000 C 
BRANCH  12  13
ATOM     13  C   UNL     1     -10.001  12.859  -4.967  1.00  0.00    -0.000 C 
BRANCH  13  14
ATOM     14  C   UNL     1     -10.939  13.390  -6.066  1.00  0.00    -0.000 C 
BRANCH  14  15
ATOM     15  C   UNL     1     -10.284  13.379  -7.456  1.00  0.00    -0.000 C 
BRANCH  15  16
ATOM     16  C   UNL     1      -9.505  14.670  -7.752  1.00  0.00    -0.000 C 
BRANCH  16  17
ATOM     17  C   UNL     1      -7.994  14.407  -7.771  1.00  0.00    -0.000 C 
BRANCH  17  18
ATOM     18  C   UNL     1      -7.302  15.100  -6.588  1.00  0.00    -0.000 C 
BRANCH  18  19
ATOM     19  C   UNL     1      -6.218  14.222  -5.941  1.00  0.00    -0.003 C 
ATOM     20  C   UNL     1      -6.490  12.728  -6.109  1.00  0.00     0.004 C 
ENDBRANCH  18  19
ENDBRANCH  17  18
ENDBRANCH  16  17
ENDBRANCH  15  16
ENDBRANCH  14  15
ENDBRANCH  13  14
ENDBRANCH  12  13
ENDBRANCH   1  12
TORSDOF 16
ENDMDL
MODEL 7
REMARK VINA RESULT:    -3.665      2.929      6.667
REMARK INTER + INTRA:         -10.018
REMARK INTER:                  -7.167
REMARK INTRA:                  -2.851
REMARK UNBOUND:                -2.924
REMARK SMILES CCCCCCCCCCCCCCCCCC(=O)[O-]
REMARK SMILES IDX 10 1 11 2 12 3 13 4 14 5 15 6 16 7 17 8 18 9 19 10 20 11
REMARK SMILES IDX 9 12 8 13 7 14 6 15 5 16 4 17 3 18 2 19 1 20
REMARK H PARENT
REMARK Flexibility Score: inf
ROOT
ATOM      1  C   UNL     1      -7.758  13.717  -2.456  1.00  0.00     0.000 C 
ENDROOT
BRANCH   1   2
ATOM      2  C   UNL     1      -7.306  15.181  -2.573  1.00  0.00     0.000 C 
BRANCH   2   3
ATOM      3  C   UNL     1      -8.426  16.106  -3.082  1.00  0.00     0.000 C 
BRANCH   3   4
ATOM      4  C   UNL     1      -8.769  17.221  -2.082  1.00  0.00     0.000 C 
BRANCH   4   5
ATOM      5  C   UNL     1     -10.081  16.950  -1.324  1.00  0.00     0.000 C 
BRANCH   5   6
ATOM      6  C   UNL     1      -9.851  16.368   0.083  1.00  0.00     0.000 C 
BRANCH   6   7
ATOM      7  C   UNL     1      -8.422  16.535   0.632  1.00  0.00     0.006 C 
BRANCH   7   8
ATOM      8  C   UNL     1      -7.853  15.241   1.226  1.00  0.00     0.053 C 
BRANCH   8   9
ATOM      9  C   UNL     1      -6.384  15.144   0.959  1.00  0.00     0.041 C 
ATOM     10  O   UNL     1      -5.859  14.027   0.710  1.00  0.00    -0.550 OA
ATOM     11  O   UNL     1      -5.604  16.292   0.935  1.00  0.00    -0.550 OA
ENDBRANCH   8   9
ENDBRANCH   7   8
ENDBRANCH   6   7
ENDBRANCH   5   6
ENDBRANCH   4   5
ENDBRANCH   3   4
ENDBRANCH   2   3
ENDBRANCH   1   2
BRANCH   1  12
ATOM     12  C   UNL     1      -8.993  13.405  -3.319  1.00  0.00     0.000 C 
BRANCH  12  13
ATOM     13  C   UNL     1      -8.774  12.202  -4.248  1.00  0.00    -0.000 C 
BRANCH  13  14
ATOM     14  C   UNL     1      -7.284  11.937  -4.528  1.00  0.00    -0.000 C 
BRANCH  14  15
ATOM     15  C   UNL     1      -6.848  12.424  -5.918  1.00  0.00    -0.000 C 
BRANCH  15  16
ATOM     16  C   UNL     1      -6.059  13.741  -5.863  1.00  0.00    -0.000 C 
BRANCH  16  17
ATOM     17  C   UNL     1      -6.964  14.938  -6.182  1.00  0.00    -0.000 C 
BRANCH  17  18
ATOM     18  C   UNL     1      -7.868  14.637  -7.386  1.00  0.00    -0.000 C 
BRANCH  18  19
ATOM     19  C   UNL     1      -9.362  14.786  -7.054  1.00  0.00    -0.003 C 
ATOM     20  C   UNL     1     -10.169  13.532  -7.388  1.00  0.00     0.004 C 
ENDBRANCH  18  19
ENDBRANCH  17  18
ENDBRANCH  16  17
ENDBRANCH  15  16
ENDBRANCH  14  15
ENDBRANCH  13  14
ENDBRANCH  12  13
ENDBRANCH   1  12
TORSDOF 16
ENDMDL
MODEL 8
REMARK VINA RESULT:    -3.656      1.828      3.737
REMARK INTER + INTRA:         -10.000
REMARK INTER:                  -7.437
REMARK INTRA:                  -2.563
REMARK UNBOUND:                -2.924
REMARK SMILES CCCCCCCCCCCCCCCCCC(=O)[O-]
REMARK SMILES IDX 10 1 11 2 12 3 13 4 14 5 15 6 16 7 17 8 18 9 19 10 20 11
REMARK SMILES IDX 9 12 8 13 7 14 6 15 5 16 4 17 3 18 2 19 1 20
REMARK H PARENT
REMARK Flexibility Score: inf
ROOT
ATOM      1  C   UNL     1      -7.690  13.843   0.508  1.00  0.00     0.000 C 
ENDROOT
BRANCH   1   2
ATOM      2  C   UNL     1      -8.958  13.667   1.359  1.00  0.00     0.000 C 
BRANCH   2   3
ATOM      3  C   UNL     1     -10.166  14.426   0.783  1.00  0.00     0.000 C 
BRANCH   3   4
ATOM      4  C   UNL     1      -9.901  14.970  -0.631  1.00  0.00     0.000 C 
BRANCH   4   5
ATOM      5  C   UNL     1      -9.964  16.506  -0.693  1.00  0.00     0.000 C 
BRANCH   5   6
ATOM      6  C   UNL     1      -9.077  17.098  -1.804  1.00  0.00     0.000 C 
BRANCH   6   7
ATOM      7  C   UNL     1      -8.213  16.074  -2.564  1.00  0.00     0.006 C 
BRANCH   7   8
ATOM      8  C   UNL     1      -8.636  15.904  -4.028  1.00  0.00     0.053 C 
BRANCH   8   9
ATOM      9  C   UNL     1      -7.701  14.976  -4.738  1.00  0.00     0.041 C 
ATOM     10  O   UNL     1      -6.592  14.678  -4.221  1.00  0.00    -0.550 OA
ATOM     11  O   UNL     1      -8.075  14.400  -5.945  1.00  0.00    -0.550 OA
ENDBRANCH   8   9
ENDBRANCH   7   8
ENDBRANCH   6   7
ENDBRANCH   5   6
ENDBRANCH   4   5
ENDBRANCH   3   4
ENDBRANCH   2   3
ENDBRANCH   1   2
BRANCH   1  12
ATOM     12  C   UNL     1      -6.495  14.368   1.322  1.00  0.00     0.000 C 
BRANCH  12  13
ATOM     13  C   UNL     1      -5.984  15.724   0.811  1.00  0.00    -0.000 C 
BRANCH  13  14
ATOM     14  C   UNL     1      -6.940  16.881   1.154  1.00  0.00    -0.000 C 
BRANCH  14  15
ATOM     15  C   UNL     1      -6.520  17.637   2.424  1.00  0.00    -0.000 C 
BRANCH  15  16
ATOM     16  C   UNL     1      -7.668  17.776   3.436  1.00  0.00    -0.000 C 
BRANCH  16  17
ATOM     17  C   UNL     1      -8.697  16.653   3.256  1.00  0.00    -0.000 C 
BRANCH  17  18
ATOM     18  C   UNL     1     -10.104  17.131   3.646  1.00  0.00    -0.000 C 
BRANCH  18  19
ATOM     19  C   UNL     1     -10.649  18.204   2.689  1.00  0.00    -0.003 C 
ATOM     20  C   UNL     1     -11.711  19.090   3.338  1.00  0.00     0.004 C 
ENDBRANCH  18  19
ENDBRANCH  17  18
ENDBRANCH  16  17
ENDBRANCH  15  16
ENDBRANCH  14  15
ENDBRANCH  13  14
ENDBRANCH  12  13
ENDBRANCH   1  12
TORSDOF 16
ENDMDL
MODEL 9
REMARK VINA RESULT:    -3.641      2.559      6.631
REMARK INTER + INTRA:          -9.971
REMARK INTER:                  -7.579
REMARK INTRA:                  -2.392
REMARK UNBOUND:                -2.924
REMARK SMILES CCCCCCCCCCCCCCCCCC(=O)[O-]
REMARK SMILES IDX 10 1 11 2 12 3 13 4 14 5 15 6 16 7 17 8 18 9 19 10 20 11
REMARK SMILES IDX 9 12 8 13 7 14 6 15 5 16 4 17 3 18 2 19 1 20
REMARK H PARENT
REMARK Flexibility Score: inf
ROOT
ATOM      1  C   UNL     1      -8.703  16.105  -3.800  1.00  0.00     0.000 C 
ENDROOT
BRANCH   1   2
ATOM      2  C   UNL     1      -8.767  16.902  -2.486  1.00  0.00     0.000 C 
BRANCH   2   3
ATOM      3  C   UNL     1      -9.482  16.130  -1.363  1.00  0.00     0.000 C 
BRANCH   3   4
ATOM      4  C   UNL     1      -9.468  16.889  -0.026  1.00  0.00     0.000 C 
BRANCH   4   5
ATOM      5  C   UNL     1      -8.542  16.233   1.014  1.00  0.00     0.000 C 
BRANCH   5   6
ATOM      6  C   UNL     1      -7.106  16.786   0.971  1.00  0.00     0.000 C 
BRANCH   6   7
ATOM      7  C   UNL     1      -6.007  15.730   0.755  1.00  0.00     0.006 C 
BRANCH   7   8
ATOM      8  C   UNL     1      -6.127  15.008  -0.593  1.00  0.00     0.053 C 
BRANCH   8   9
ATOM      9  C   UNL     1      -6.466  13.565  -0.385  1.00  0.00     0.041 C 
ATOM     10  O   UNL     1      -7.656  13.170  -0.511  1.00  0.00    -0.550 OA
ATOM     11  O   UNL     1      -5.462  12.648  -0.103  1.00  0.00    -0.550 OA
ENDBRANCH   8   9
ENDBRANCH   7   8
ENDBRANCH   6   7
ENDBRANCH   5   6
ENDBRANCH   4   5
ENDBRANCH   3   4
ENDBRANCH   2   3
ENDBRANCH   1   2
BRANCH   1  12
ATOM     12  C   UNL     1      -9.194  14.656  -3.641  1.00  0.00     0.000 C 
BRANCH  12  13
ATOM     13  C   UNL     1      -8.103  13.625  -3.968  1.00  0.00    -0.000 C 
BRANCH  13  14
ATOM     14  C   UNL     1      -6.870  14.264  -4.633  1.00  0.00    -0.000 C 
BRANCH  14  15
ATOM     15  C   UNL     1      -6.774  13.941  -6.132  1.00  0.00    -0.000 C 
BRANCH  15  16
ATOM     16  C   UNL     1      -7.317  15.074  -7.017  1.00  0.00    -0.000 C 
BRANCH  16  17
ATOM     17  C   UNL     1      -8.305  14.532  -8.058  1.00  0.00    -0.000 C 
BRANCH  17  18
ATOM     18  C   UNL     1      -9.745  14.586  -7.528  1.00  0.00    -0.000 C 
BRANCH  18  19
ATOM     19  C   UNL     1     -10.364  13.189  -7.358  1.00  0.00    -0.003 C 
ATOM     20  C   UNL     1     -11.364  13.122  -6.205  1.00  0.00     0.004 C 
ENDBRANCH  18  19
ENDBRANCH  17  18
ENDBRANCH  16  17
ENDBRANCH  15  16
ENDBRANCH  14  15
ENDBRANCH  13  14
ENDBRANCH  12  13
ENDBRANCH   1  12
TORSDOF 16
ENDMDL
