MODEL 1
REMARK VINA RESULT:    30.881      0.000      0.000
REMARK INTER + INTRA:          33.589
REMARK INTER:                  33.589
REMARK INTRA:                   0.000
REMARK UNBOUND:                 0.000
REMARK SMILES Cc1cc(O)c2c(c1)C(=O)c1cc(O)cc(O)c1C2=O
REMARK SMILES IDX 1 1 2 2 8 3 7 4 6 5 4 6 3 7 19 8 20 9 18 10 11 11 9 12 10 13
REMARK SMILES IDX 12 14 13 15 15 16 16 17 5 18 17 20 14 22
REMARK H PARENT 5 19 17 21 14 23
REMARK Flexibility Score: inf
ROOT
ATOM      1  C   UNL     1      -0.869   1.902   5.846  1.00  0.00     0.044 C 
ATOM      2  C   UNL     1      -1.288   1.163   4.609  1.00  0.00    -0.047 A 
ATOM      3  C   UNL     1      -2.619   0.766   4.442  1.00  0.00     0.016 A 
ATOM      4  C   UNL     1      -3.029   0.113   3.268  1.00  0.00     0.038 A 
ATOM      5  C   UNL     1      -2.098  -0.126   2.233  1.00  0.00     0.076 A 
ATOM      6  C   UNL     1      -0.740   0.237   2.427  1.00  0.00     0.127 A 
ATOM      7  C   UNL     1      -0.359   0.904   3.595  1.00  0.00     0.050 A 
ATOM      8  C   UNL     1      -2.601  -0.685   0.951  1.00  0.00     0.201 C 
ATOM      9  O   UNL     1      -2.020  -0.398  -0.130  1.00  0.00    -0.288 OA
ATOM     10  C   UNL     1      -3.891  -1.421   0.924  1.00  0.00     0.076 A 
ATOM     11  C   UNL     1      -4.820  -1.180   1.961  1.00  0.00     0.041 A 
ATOM     12  C   UNL     1      -4.435  -0.331   3.113  1.00  0.00     0.194 C 
ATOM     13  O   UNL     1      -5.299  -0.007   3.975  1.00  0.00    -0.289 OA
ATOM     14  C   UNL     1      -6.103  -1.750   1.898  1.00  0.00     0.059 A 
ATOM     15  C   UNL     1      -6.463  -2.568   0.823  1.00  0.00     0.120 A 
ATOM     16  C   UNL     1      -5.536  -2.841  -0.182  1.00  0.00     0.093 A 
ATOM     17  C   UNL     1      -4.246  -2.302  -0.132  1.00  0.00     0.131 A 
ENDROOT
BRANCH   6  18
ATOM     18  O   UNL     1       0.264  -0.074   1.507  1.00  0.00    -0.507 OA
ATOM     19  H   UNL     1       0.139  -0.722   0.741  1.00  0.00     0.293 HD
ENDBRANCH   6  18
BRANCH  17  20
ATOM     20  O   UNL     1      -3.345  -2.694  -1.125  1.00  0.00    -0.507 OA
ATOM     21  H   UNL     1      -3.190  -3.656  -1.392  1.00  0.00     0.293 HD
ENDBRANCH  17  20
BRANCH  15  22
ATOM     22  O   UNL     1      -7.738  -3.125   0.750  1.00  0.00    -0.508 OA
ATOM     23  H   UNL     1      -8.232  -3.207  -0.132  1.00  0.00     0.293 HD
ENDBRANCH  15  22
TORSDOF 3
ENDMDL
