MODEL 1
REMARK VINA RESULT:    -3.631      0.000      0.000
REMARK INTER + INTRA:          -4.597
REMARK INTER:                  -4.374
REMARK INTRA:                  -0.223
REMARK UNBOUND:                -0.223
REMARK SMILES OCC(O)CO
REMARK SMILES IDX 3 1 5 2 6 3 2 5 1 6 4 8
REMARK H PARENT 6 4 1 7 4 9
REMARK Flexibility Score: inf
ROOT
ATOM      1  C   UNL     1      26.553 149.839 -42.158  1.00  0.00     0.165 C 
ENDROOT
BRANCH   1   2
ATOM      2  C   UNL     1      27.096 150.801 -41.094  1.00  0.00     0.190 C 
BRANCH   2   3
ATOM      3  O   UNL     1      26.333 151.976 -41.062  1.00  0.00    -0.394 OA
ATOM      4  H   UNL     1      26.975 152.734 -41.029  1.00  0.00     0.210 HD
ENDBRANCH   2   3
ENDBRANCH   1   2
BRANCH   1   5
ATOM      5  C   UNL     1      27.092 150.213 -43.547  1.00  0.00     0.190 C 
BRANCH   5   6
ATOM      6  O   UNL     1      27.849 151.392 -43.480  1.00  0.00    -0.394 OA
ATOM      7  H   UNL     1      27.209 152.148 -43.546  1.00  0.00     0.210 HD
ENDBRANCH   5   6
ENDBRANCH   1   5
BRANCH   1   8
ATOM      8  O   UNL     1      25.150 149.897 -42.159  1.00  0.00    -0.388 OA
ATOM      9  H   UNL     1      24.889 150.622 -42.785  1.00  0.00     0.211 HD
ENDBRANCH   1   8
TORSDOF 5
ENDMDL
MODEL 2
REMARK VINA RESULT:    -3.492      0.786      2.353
REMARK INTER + INTRA:          -4.430
REMARK INTER:                  -4.208
REMARK INTRA:                  -0.222
REMARK UNBOUND:                -0.223
REMARK SMILES OCC(O)CO
REMARK SMILES IDX 3 1 5 2 6 3 2 5 1 6 4 8
REMARK H PARENT 6 4 1 7 4 9
REMARK Flexibility Score: inf
ROOT
ATOM      1  C   UNL     1      26.220 150.219 -42.548  1.00  0.00     0.165 C 
ENDROOT
BRANCH   1   2
ATOM      2  C   UNL     1      26.921 150.822 -43.772  1.00  0.00     0.190 C 
BRANCH   2   3
ATOM      3  O   UNL     1      28.037 151.571 -43.376  1.00  0.00    -0.394 OA
ATOM      4  H   UNL     1      28.327 152.094 -44.169  1.00  0.00     0.210 HD
ENDBRANCH   2   3
ENDBRANCH   1   2
BRANCH   1   5
ATOM      5  C   UNL     1      26.893 150.699 -41.253  1.00  0.00     0.190 C 
BRANCH   5   6
ATOM      6  O   UNL     1      26.434 151.977 -40.904  1.00  0.00    -0.394 OA
ATOM      7  H   UNL     1      25.754 152.232 -41.581  1.00  0.00     0.210 HD
ENDBRANCH   5   6
ENDBRANCH   1   5
BRANCH   1   8
ATOM      8  O   UNL     1      26.279 148.818 -42.626  1.00  0.00    -0.388 OA
ATOM      9  H   UNL     1      25.862 148.463 -41.798  1.00  0.00     0.211 HD
ENDBRANCH   1   8
TORSDOF 5
ENDMDL
MODEL 3
REMARK VINA RESULT:    -3.447      1.145      2.391
REMARK INTER + INTRA:          -4.376
REMARK INTER:                  -4.157
REMARK INTRA:                  -0.219
REMARK UNBOUND:                -0.223
REMARK SMILES OCC(O)CO
REMARK SMILES IDX 3 1 5 2 6 3 2 5 1 6 4 8
REMARK H PARENT 6 4 1 7 4 9
REMARK Flexibility Score: inf
ROOT
ATOM      1  C   UNL     1      26.120 150.100 -42.333  1.00  0.00     0.165 C 
ENDROOT
BRANCH   1   2
ATOM      2  C   UNL     1      27.075 150.186 -43.530  1.00  0.00     0.190 C 
BRANCH   2   3
ATOM      3  O   UNL     1      27.838 151.360 -43.463  1.00  0.00    -0.394 OA
ATOM      4  H   UNL     1      27.262 152.052 -43.043  1.00  0.00     0.210 HD
ENDBRANCH   2   3
ENDBRANCH   1   2
BRANCH   1   5
ATOM      5  C   UNL     1      25.517 151.479 -42.026  1.00  0.00     0.190 C 
BRANCH   5   6
ATOM      6  O   UNL     1      26.252 152.125 -41.021  1.00  0.00    -0.394 OA
ATOM      7  H   UNL     1      26.846 152.778 -41.474  1.00  0.00     0.210 HD
ENDBRANCH   5   6
ENDBRANCH   1   5
BRANCH   1   8
ATOM      8  O   UNL     1      26.824 149.627 -41.214  1.00  0.00    -0.388 OA
ATOM      9  H   UNL     1      26.199 149.655 -40.444  1.00  0.00     0.211 HD
ENDBRANCH   1   8
TORSDOF 5
ENDMDL
MODEL 4
REMARK VINA RESULT:    -3.183      8.560      9.222
REMARK INTER + INTRA:          -4.058
REMARK INTER:                  -3.859
REMARK INTRA:                  -0.198
REMARK UNBOUND:                -0.223
REMARK SMILES OCC(O)CO
REMARK SMILES IDX 3 1 5 2 6 3 2 5 1 6 4 8
REMARK H PARENT 6 4 1 7 4 9
REMARK Flexibility Score: inf
ROOT
ATOM      1  C   UNL     1      30.644 143.400 -45.309  1.00  0.00     0.165 C 
ENDROOT
BRANCH   1   2
ATOM      2  C   UNL     1      31.834 144.240 -45.790  1.00  0.00     0.190 C 
BRANCH   2   3
ATOM      3  O   UNL     1      32.024 145.344 -44.948  1.00  0.00    -0.394 OA
ATOM      4  H   UNL     1      32.958 145.291 -44.612  1.00  0.00     0.210 HD
ENDBRANCH   2   3
ENDBRANCH   1   2
BRANCH   1   5
ATOM      5  C   UNL     1      31.130 142.216 -44.459  1.00  0.00     0.190 C 
BRANCH   5   6
ATOM      6  O   UNL     1      31.885 142.671 -43.368  1.00  0.00    -0.394 OA
ATOM      7  H   UNL     1      32.789 142.270 -43.456  1.00  0.00     0.210 HD
ENDBRANCH   5   6
ENDBRANCH   1   5
BRANCH   1   8
ATOM      8  O   UNL     1      29.933 142.926 -46.424  1.00  0.00    -0.388 OA
ATOM      9  H   UNL     1      29.894 141.938 -46.345  1.00  0.00     0.211 HD
ENDBRANCH   1   8
TORSDOF 5
ENDMDL
MODEL 5
REMARK VINA RESULT:    -3.035     11.069     11.619
REMARK INTER + INTRA:          -3.879
REMARK INTER:                  -3.660
REMARK INTRA:                  -0.219
REMARK UNBOUND:                -0.223
REMARK SMILES OCC(O)CO
REMARK SMILES IDX 3 1 5 2 6 3 2 5 1 6 4 8
REMARK H PARENT 6 4 1 7 4 9
REMARK Flexibility Score: inf
ROOT
ATOM      1  C   UNL     1      33.255 140.914 -44.113  1.00  0.00     0.165 C 
ENDROOT
BRANCH   1   2
ATOM      2  C   UNL     1      31.882 141.596 -44.147  1.00  0.00     0.190 C 
BRANCH   2   3
ATOM      3  O   UNL     1      31.855 142.684 -43.263  1.00  0.00    -0.394 OA
ATOM      4  H   UNL     1      32.587 143.296 -43.539  1.00  0.00     0.210 HD
ENDBRANCH   2   3
ENDBRANCH   1   2
BRANCH   1   5
ATOM      5  C   UNL     1      33.389 140.036 -42.859  1.00  0.00     0.190 C 
BRANCH   5   6
ATOM      6  O   UNL     1      32.224 140.110 -42.081  1.00  0.00    -0.394 OA
ATOM      7  H   UNL     1      32.276 140.957 -41.565  1.00  0.00     0.210 HD
ENDBRANCH   5   6
ENDBRANCH   1   5
BRANCH   1   8
ATOM      8  O   UNL     1      34.259 141.895 -44.117  1.00  0.00    -0.388 OA
ATOM      9  H   UNL     1      33.818 142.762 -44.315  1.00  0.00     0.211 HD
ENDBRANCH   1   8
TORSDOF 5
ENDMDL
MODEL 6
REMARK VINA RESULT:    -3.010      8.398      9.206
REMARK INTER + INTRA:          -3.850
REMARK INTER:                  -3.821
REMARK INTRA:                  -0.028
REMARK UNBOUND:                -0.223
REMARK SMILES OCC(O)CO
REMARK SMILES IDX 3 1 5 2 6 3 2 5 1 6 4 8
REMARK H PARENT 6 4 1 7 4 9
REMARK Flexibility Score: inf
ROOT
ATOM      1  C   UNL     1      31.722 143.621 -45.534  1.00  0.00     0.165 C 
ENDROOT
BRANCH   1   2
ATOM      2  C   UNL     1      31.177 145.053 -45.451  1.00  0.00     0.190 C 
BRANCH   2   3
ATOM      3  O   UNL     1      32.119 145.899 -44.850  1.00  0.00    -0.394 OA
ATOM      4  H   UNL     1      31.851 146.830 -45.073  1.00  0.00     0.210 HD
ENDBRANCH   2   3
ENDBRANCH   1   2
BRANCH   1   5
ATOM      5  C   UNL     1      31.028 142.721 -44.499  1.00  0.00     0.190 C 
BRANCH   5   6
ATOM      6  O   UNL     1      31.827 142.581 -43.356  1.00  0.00    -0.394 OA
ATOM      7  H   UNL     1      32.761 142.772 -43.632  1.00  0.00     0.210 HD
ENDBRANCH   5   6
ENDBRANCH   1   5
BRANCH   1   8
ATOM      8  O   UNL     1      33.106 143.639 -45.299  1.00  0.00    -0.388 OA
ATOM      9  H   UNL     1      33.275 143.058 -44.512  1.00  0.00     0.211 HD
ENDBRANCH   1   8
TORSDOF 5
ENDMDL
MODEL 7
REMARK VINA RESULT:    -2.976     11.040     11.529
REMARK INTER + INTRA:          -3.808
REMARK INTER:                  -3.593
REMARK INTRA:                  -0.215
REMARK UNBOUND:                -0.223
REMARK SMILES OCC(O)CO
REMARK SMILES IDX 3 1 5 2 6 3 2 5 1 6 4 8
REMARK H PARENT 6 4 1 7 4 9
REMARK Flexibility Score: inf
ROOT
ATOM      1  C   UNL     1      32.828 140.486 -43.652  1.00  0.00     0.165 C 
ENDROOT
BRANCH   1   2
ATOM      2  C   UNL     1      34.259 140.903 -44.014  1.00  0.00     0.190 C 
BRANCH   2   3
ATOM      3  O   UNL     1      34.272 142.204 -44.536  1.00  0.00    -0.394 OA
ATOM      4  H   UNL     1      34.346 142.117 -45.522  1.00  0.00     0.210 HD
ENDBRANCH   2   3
ENDBRANCH   1   2
BRANCH   1   5
ATOM      5  C   UNL     1      31.826 141.562 -44.097  1.00  0.00     0.190 C 
BRANCH   5   6
ATOM      6  O   UNL     1      31.817 142.631 -43.188  1.00  0.00    -0.394 OA
ATOM      7  H   UNL     1      32.673 142.589 -42.688  1.00  0.00     0.210 HD
ENDBRANCH   5   6
ENDBRANCH   1   5
BRANCH   1   8
ATOM      8  O   UNL     1      32.740 140.296 -42.264  1.00  0.00    -0.388 OA
ATOM      9  H   UNL     1      32.904 139.332 -42.091  1.00  0.00     0.211 HD
ENDBRANCH   1   8
TORSDOF 5
ENDMDL
MODEL 8
REMARK VINA RESULT:    -2.902     10.890     11.315
REMARK INTER + INTRA:          -3.719
REMARK INTER:                  -3.716
REMARK INTRA:                  -0.004
REMARK UNBOUND:                -0.223
REMARK SMILES OCC(O)CO
REMARK SMILES IDX 3 1 5 2 6 3 2 5 1 6 4 8
REMARK H PARENT 6 4 1 7 4 9
REMARK Flexibility Score: inf
ROOT
ATOM      1  C   UNL     1      32.326 141.455 -44.036  1.00  0.00     0.165 C 
ENDROOT
BRANCH   1   2
ATOM      2  C   UNL     1      31.901 140.180 -43.299  1.00  0.00     0.190 C 
BRANCH   2   3
ATOM      3  O   UNL     1      32.402 140.182 -41.990  1.00  0.00    -0.394 OA
ATOM      4  H   UNL     1      33.160 140.823 -41.974  1.00  0.00     0.210 HD
ENDBRANCH   2   3
ENDBRANCH   1   2
BRANCH   1   5
ATOM      5  C   UNL     1      33.847 141.470 -44.251  1.00  0.00     0.190 C 
BRANCH   5   6
ATOM      6  O   UNL     1      34.232 142.616 -44.962  1.00  0.00    -0.394 OA
ATOM      7  H   UNL     1      34.725 143.197 -44.325  1.00  0.00     0.210 HD
ENDBRANCH   5   6
ENDBRANCH   1   5
BRANCH   1   8
ATOM      8  O   UNL     1      31.940 142.575 -43.282  1.00  0.00    -0.388 OA
ATOM      9  H   UNL     1      32.509 142.589 -42.469  1.00  0.00     0.211 HD
ENDBRANCH   1   8
TORSDOF 5
ENDMDL
MODEL 9
REMARK VINA RESULT:    -2.810     15.814     16.197
REMARK INTER + INTRA:          -3.609
REMARK INTER:                  -3.584
REMARK INTRA:                  -0.025
REMARK UNBOUND:                -0.223
REMARK SMILES OCC(O)CO
REMARK SMILES IDX 3 1 5 2 6 3 2 5 1 6 4 8
REMARK H PARENT 6 4 1 7 4 9
REMARK Flexibility Score: inf
ROOT
ATOM      1  C   UNL     1      33.415 140.185 -30.990  1.00  0.00     0.165 C 
ENDROOT
BRANCH   1   2
ATOM      2  C   UNL     1      32.080 140.760 -30.500  1.00  0.00     0.190 C 
BRANCH   2   3
ATOM      3  O   UNL     1      31.020 140.255 -31.266  1.00  0.00    -0.394 OA
ATOM      4  H   UNL     1      30.181 140.550 -30.824  1.00  0.00     0.210 HD
ENDBRANCH   2   3
ENDBRANCH   1   2
BRANCH   1   5
ATOM      5  C   UNL     1      34.151 141.208 -31.869  1.00  0.00     0.190 C 
BRANCH   5   6
ATOM      6  O   UNL     1      34.126 140.810 -33.213  1.00  0.00    -0.394 OA
ATOM      7  H   UNL     1      33.481 140.058 -33.278  1.00  0.00     0.210 HD
ENDBRANCH   5   6
ENDBRANCH   1   5
BRANCH   1   8
ATOM      8  O   UNL     1      33.171 139.013 -31.724  1.00  0.00    -0.388 OA
ATOM      9  H   UNL     1      32.552 138.455 -31.185  1.00  0.00     0.211 HD
ENDBRANCH   1   8
TORSDOF 5
ENDMDL
