MODEL 1
REMARK VINA RESULT:    -3.304      0.000      0.000
REMARK INTER + INTRA:          -3.072
REMARK INTER:                  -4.076
REMARK INTRA:                   1.004
REMARK UNBOUND:                 1.004
REMARK SMILES C=C1[C@@H]2CC[C@H]3[C@@H]2C(C)(C)CCC[C@@]13C
REMARK SMILES IDX 14 1 6 2 7 3 3 4 2 5 1 6 4 7 5 8 15 9 8 10 9 11 10 12 11 13
REMARK SMILES IDX 13 15 12 16
REMARK H PARENT
REMARK Flexibility Score: 80.00
ROOT
ATOM      1  C   UNL     1      21.536  63.694  15.959  1.00  0.00    -0.008 C 
ATOM      2  C   UNL     1      21.364  62.748  14.708  1.00  0.00     0.003 C 
ATOM      3  C   UNL     1      22.483  63.184  13.734  1.00  0.00     0.006 C 
ATOM      4  C   UNL     1      22.097  64.657  13.779  1.00  0.00     0.019 C 
ATOM      5  C   UNL     1      22.068  64.923  15.257  1.00  0.00    -0.068 C 
ATOM      6  C   UNL     1      22.366  66.099  15.825  1.00  0.00     0.009 C 
ATOM      7  C   UNL     1      20.624  64.584  13.312  1.00  0.00     0.008 C 
ATOM      8  C   UNL     1      20.146  63.218  13.867  1.00  0.00     0.005 C 
ATOM      9  C   UNL     1      20.206  64.034  16.683  1.00  0.00     0.016 C 
ENDROOT
BRANCH   3  10
ATOM     10  C   UNL     1      23.983  62.784  14.003  1.00  0.00    -0.032 C 
ATOM     11  C   UNL     1      24.168  61.292  13.613  1.00  0.00     0.011 C 
ATOM     12  C   UNL     1      24.897  63.605  13.059  1.00  0.00     0.011 C 
BRANCH  10  13
ATOM     13  C   UNL     1      24.495  63.019  15.451  1.00  0.00     0.007 CG0
ATOM     14  G   UNL     1      23.686  62.305  16.534  1.00  0.00     0.000 G0
ENDBRANCH  10  13
ENDBRANCH   3  10
BRANCH   1  15
ATOM     15  C   UNL     1      22.514  63.139  17.037  1.00  0.00     0.011 C 
BRANCH  15  16
ATOM     16  C   UNL     1      23.694  62.307  16.541  1.00  0.00     0.001 CG0
ATOM     17  G   UNL     1      24.501  63.007  15.448  1.00  0.00     0.000 G0
ENDBRANCH  15  16
ENDBRANCH   1  15
TORSDOF 0
ENDMDL
MODEL 2
REMARK VINA RESULT:    -3.300      1.895      4.171
REMARK INTER + INTRA:          -3.068
REMARK INTER:                  -4.089
REMARK INTRA:                   1.022
REMARK UNBOUND:                 1.004
REMARK SMILES C=C1[C@@H]2CC[C@H]3[C@@H]2C(C)(C)CCC[C@@]13C
REMARK SMILES IDX 14 1 6 2 7 3 3 4 2 5 1 6 4 7 5 8 15 9 8 10 9 11 10 12 11 13
REMARK SMILES IDX 13 15 12 16
REMARK H PARENT
REMARK Flexibility Score: 80.00
ROOT
ATOM      1  C   UNL     1      23.478  64.311  13.695  1.00  0.00    -0.008 C 
ATOM      2  C   UNL     1      22.863  62.866  13.844  1.00  0.00     0.003 C 
ATOM      3  C   UNL     1      21.861  62.988  15.015  1.00  0.00     0.006 C 
ATOM      4  C   UNL     1      22.879  63.609  15.963  1.00  0.00     0.019 C 
ATOM      5  C   UNL     1      23.409  64.749  15.141  1.00  0.00    -0.068 C 
ATOM      6  C   UNL     1      23.846  65.912  15.642  1.00  0.00     0.009 C 
ATOM      7  C   UNL     1      23.974  62.517  15.968  1.00  0.00     0.008 C 
ATOM      8  C   UNL     1      23.895  61.933  14.535  1.00  0.00     0.005 C 
ATOM      9  C   UNL     1      24.952  64.325  13.208  1.00  0.00     0.016 C 
ENDROOT
BRANCH   3  10
ATOM     10  C   UNL     1      20.473  63.706  14.814  1.00  0.00    -0.032 C 
ATOM     11  C   UNL     1      19.533  62.744  14.038  1.00  0.00     0.011 C 
ATOM     12  C   UNL     1      19.823  63.938  16.201  1.00  0.00     0.011 C 
BRANCH  10  13
ATOM     13  C   UNL     1      20.525  65.085  14.099  1.00  0.00     0.007 CG0
ATOM     14  G   UNL     1      21.143  65.052  12.701  1.00  0.00     0.000 G0
ENDBRANCH  10  13
ENDBRANCH   3  10
BRANCH   1  15
ATOM     15  C   UNL     1      22.672  65.241  12.740  1.00  0.00     0.011 C 
BRANCH  15  16
ATOM     16  C   UNL     1      21.156  65.064  12.713  1.00  0.00     0.001 CG0
ATOM     17  G   UNL     1      20.527  65.084  14.106  1.00  0.00     0.000 G0
ENDBRANCH  15  16
ENDBRANCH   1  15
TORSDOF 0
ENDMDL
MODEL 3
REMARK VINA RESULT:    -3.225      1.519      3.371
REMARK INTER + INTRA:          -2.975
REMARK INTER:                  -4.002
REMARK INTRA:                   1.027
REMARK UNBOUND:                 1.004
REMARK SMILES C=C1[C@@H]2CC[C@H]3[C@@H]2C(C)(C)CCC[C@@]13C
REMARK SMILES IDX 14 1 6 2 7 3 3 4 2 5 1 6 4 7 5 8 15 9 8 10 9 11 10 12 11 13
REMARK SMILES IDX 13 15 12 16
REMARK H PARENT
REMARK Flexibility Score: 80.00
ROOT
ATOM      1  C   UNL     1      22.647  63.461  16.778  1.00  0.00    -0.008 C 
ATOM      2  C   UNL     1      21.126  63.044  16.847  1.00  0.00     0.003 C 
ATOM      3  C   UNL     1      20.390  64.120  16.016  1.00  0.00     0.006 C 
ATOM      4  C   UNL     1      21.014  65.286  16.773  1.00  0.00     0.019 C 
ATOM      5  C   UNL     1      22.478  64.961  16.686  1.00  0.00    -0.068 C 
ATOM      6  C   UNL     1      23.460  65.871  16.645  1.00  0.00     0.009 C 
ATOM      7  C   UNL     1      20.572  64.961  18.219  1.00  0.00     0.008 C 
ATOM      8  C   UNL     1      20.550  63.412  18.241  1.00  0.00     0.005 C 
ATOM      9  C   UNL     1      23.460  63.098  18.050  1.00  0.00     0.016 C 
ENDROOT
BRANCH   3  10
ATOM     10  C   UNL     1      20.464  64.110  14.442  1.00  0.00    -0.032 C 
ATOM     11  C   UNL     1      19.536  62.983  13.916  1.00  0.00     0.011 C 
ATOM     12  C   UNL     1      19.888  65.445  13.905  1.00  0.00     0.011 C 
BRANCH  10  13
ATOM     13  C   UNL     1      21.886  63.951  13.834  1.00  0.00     0.007 CG0
ATOM     14  G   UNL     1      22.619  62.679  14.262  1.00  0.00     0.000 G0
ENDBRANCH  10  13
ENDBRANCH   3  10
BRANCH   1  15
ATOM     15  C   UNL     1      23.409  62.859  15.561  1.00  0.00     0.011 C 
BRANCH  15  16
ATOM     16  C   UNL     1      22.623  62.690  14.263  1.00  0.00     0.001 CG0
ATOM     17  G   UNL     1      21.888  63.963  13.840  1.00  0.00     0.000 G0
ENDBRANCH  15  16
ENDBRANCH   1  15
TORSDOF 0
ENDMDL
MODEL 4
REMARK VINA RESULT:    -3.189      1.748      3.561
REMARK INTER + INTRA:          -2.931
REMARK INTER:                  -3.959
REMARK INTRA:                   1.028
REMARK UNBOUND:                 1.004
REMARK SMILES C=C1[C@@H]2CC[C@H]3[C@@H]2C(C)(C)CCC[C@@]13C
REMARK SMILES IDX 14 1 6 2 7 3 3 4 2 5 1 6 4 7 5 8 15 9 8 10 9 11 10 12 11 13
REMARK SMILES IDX 13 15 12 16
REMARK H PARENT
REMARK Flexibility Score: 80.00
ROOT
ATOM      1  C   UNL     1      20.051  65.090  14.734  1.00  0.00    -0.008 C 
ATOM      2  C   UNL     1      20.949  65.390  15.996  1.00  0.00     0.003 C 
ATOM      3  C   UNL     1      21.897  64.173  16.097  1.00  0.00     0.006 C 
ATOM      4  C   UNL     1      20.768  63.152  16.049  1.00  0.00     0.019 C 
ATOM      5  C   UNL     1      20.019  63.581  14.819  1.00  0.00    -0.068 C 
ATOM      6  C   UNL     1      19.348  62.752  14.008  1.00  0.00     0.009 C 
ATOM      7  C   UNL     1      19.921  63.600  17.263  1.00  0.00     0.008 C 
ATOM      8  C   UNL     1      20.128  65.136  17.289  1.00  0.00     0.005 C 
ATOM      9  C   UNL     1      18.609  65.656  14.836  1.00  0.00     0.016 C 
ENDROOT
BRANCH   3  10
ATOM     10  C   UNL     1      23.109  64.013  15.102  1.00  0.00    -0.032 C 
ATOM     11  C   UNL     1      24.229  64.998  15.533  1.00  0.00     0.011 C 
ATOM     12  C   UNL     1      23.693  62.586  15.249  1.00  0.00     0.011 C 
BRANCH  10  13
ATOM     13  C   UNL     1      22.777  64.217  13.597  1.00  0.00     0.007 CG0
ATOM     14  G   UNL     1      22.165  65.577  13.261  1.00  0.00     0.000 G0
ENDBRANCH  10  13
ENDBRANCH   3  10
BRANCH   1  15
ATOM     15  C   UNL     1      20.653  65.611  13.396  1.00  0.00     0.011 C 
BRANCH  15  16
ATOM     16  C   UNL     1      22.173  65.579  13.259  1.00  0.00     0.001 CG0
ATOM     17  G   UNL     1      22.776  64.215  13.599  1.00  0.00     0.000 G0
ENDBRANCH  15  16
ENDBRANCH   1  15
TORSDOF 0
ENDMDL
MODEL 5
REMARK VINA RESULT:    -3.126      1.826      3.881
REMARK INTER + INTRA:          -2.853
REMARK INTER:                  -3.875
REMARK INTRA:                   1.022
REMARK UNBOUND:                 1.004
REMARK SMILES C=C1[C@@H]2CC[C@H]3[C@@H]2C(C)(C)CCC[C@@]13C
REMARK SMILES IDX 14 1 6 2 7 3 3 4 2 5 1 6 4 7 5 8 15 9 8 10 9 11 10 12 11 13
REMARK SMILES IDX 13 15 12 16
REMARK H PARENT
REMARK Flexibility Score: 80.00
ROOT
ATOM      1  C   UNL     1      21.508  65.158  14.475  1.00  0.00    -0.008 C 
ATOM      2  C   UNL     1      20.239  65.435  15.371  1.00  0.00     0.003 C 
ATOM      3  C   UNL     1      20.280  64.333  16.454  1.00  0.00     0.006 C 
ATOM      4  C   UNL     1      20.410  63.197  15.447  1.00  0.00     0.019 C 
ATOM      5  C   UNL     1      21.576  63.654  14.617  1.00  0.00    -0.068 C 
ATOM      6  C   UNL     1      22.454  62.837  14.022  1.00  0.00     0.009 C 
ATOM      7  C   UNL     1      19.141  63.422  14.592  1.00  0.00     0.008 C 
ATOM      8  C   UNL     1      18.964  64.961  14.624  1.00  0.00     0.005 C 
ATOM      9  C   UNL     1      21.323  65.539  12.981  1.00  0.00     0.016 C 
ENDROOT
BRANCH   3  10
ATOM     10  C   UNL     1      21.309  64.413  17.645  1.00  0.00    -0.032 C 
ATOM     11  C   UNL     1      20.797  65.469  18.662  1.00  0.00     0.011 C 
ATOM     12  C   UNL     1      21.323  63.053  18.387  1.00  0.00     0.011 C 
BRANCH  10  13
ATOM     13  C   UNL     1      22.777  64.731  17.248  1.00  0.00     0.007 CG0
ATOM     14  G   UNL     1      22.957  66.044  16.485  1.00  0.00     0.000 G0
ENDBRANCH  10  13
ENDBRANCH   3  10
BRANCH   1  15
ATOM     15  C   UNL     1      22.798  65.875  14.973  1.00  0.00     0.011 C 
BRANCH  15  16
ATOM     16  C   UNL     1      22.963  66.038  16.482  1.00  0.00     0.001 CG0
ATOM     17  G   UNL     1      22.784  64.727  17.249  1.00  0.00     0.000 G0
ENDBRANCH  15  16
ENDBRANCH   1  15
TORSDOF 0
ENDMDL
MODEL 6
REMARK VINA RESULT:    -3.089      2.475      4.242
REMARK INTER + INTRA:          -2.807
REMARK INTER:                  -3.835
REMARK INTRA:                   1.028
REMARK UNBOUND:                 1.004
REMARK SMILES C=C1[C@@H]2CC[C@H]3[C@@H]2C(C)(C)CCC[C@@]13C
REMARK SMILES IDX 14 1 6 2 7 3 3 4 2 5 1 6 4 7 5 8 15 9 8 10 9 11 10 12 11 13
REMARK SMILES IDX 13 15 12 16
REMARK H PARENT
REMARK Flexibility Score: 80.00
ROOT
ATOM      1  C   UNL     1      21.574  65.227  17.275  1.00  0.00    -0.008 C 
ATOM      2  C   UNL     1      22.430  65.222  15.949  1.00  0.00     0.003 C 
ATOM      3  C   UNL     1      21.868  64.038  15.128  1.00  0.00     0.006 C 
ATOM      4  C   UNL     1      22.013  63.038  16.268  1.00  0.00     0.019 C 
ATOM      5  C   UNL     1      21.303  63.743  17.388  1.00  0.00    -0.068 C 
ATOM      6  C   UNL     1      20.637  63.128  18.374  1.00  0.00     0.009 C 
ATOM      7  C   UNL     1      23.528  63.151  16.561  1.00  0.00     0.008 C 
ATOM      8  C   UNL     1      23.838  64.636  16.243  1.00  0.00     0.005 C 
ATOM      9  C   UNL     1      22.350  65.718  18.527  1.00  0.00     0.016 C 
ENDROOT
BRANCH   3  10
ATOM     10  C   UNL     1      20.479  64.157  14.394  1.00  0.00    -0.032 C 
ATOM     11  C   UNL     1      20.672  65.023  13.120  1.00  0.00     0.011 C 
ATOM     12  C   UNL     1      20.046  62.750  13.911  1.00  0.00     0.011 C 
BRANCH  10  13
ATOM     13  C   UNL     1      19.312  64.725  15.247  1.00  0.00     0.007 CG0
ATOM     14  G   UNL     1      19.567  66.119  15.823  1.00  0.00     0.000 G0
ENDBRANCH  10  13
ENDBRANCH   3  10
BRANCH   1  15
ATOM     15  C   UNL     1      20.273  66.077  17.180  1.00  0.00     0.011 C 
BRANCH  15  16
ATOM     16  C   UNL     1      19.566  66.117  15.828  1.00  0.00     0.001 CG0
ATOM     17  G   UNL     1      19.307  64.726  15.247  1.00  0.00     0.000 G0
ENDBRANCH  15  16
ENDBRANCH   1  15
TORSDOF 0
ENDMDL
MODEL 7
REMARK VINA RESULT:    -2.985      1.744      3.792
REMARK INTER + INTRA:          -2.678
REMARK INTER:                  -3.725
REMARK INTRA:                   1.047
REMARK UNBOUND:                 1.004
REMARK SMILES C=C1[C@@H]2CC[C@H]3[C@@H]2C(C)(C)CCC[C@@]13C
REMARK SMILES IDX 14 1 6 2 7 3 3 4 2 5 1 6 4 7 5 8 15 9 8 10 9 11 10 12 11 13
REMARK SMILES IDX 13 15 12 16
REMARK H PARENT
REMARK Flexibility Score: 80.00
ROOT
ATOM      1  C   UNL     1      23.458  64.452  16.171  1.00  0.00    -0.008 C 
ATOM      2  C   UNL     1      23.038  65.007  14.755  1.00  0.00     0.003 C 
ATOM      3  C   UNL     1      22.027  63.969  14.215  1.00  0.00     0.006 C 
ATOM      4  C   UNL     1      22.954  62.783  14.451  1.00  0.00     0.019 C 
ATOM      5  C   UNL     1      23.331  62.971  15.893  1.00  0.00    -0.068 C 
ATOM      6  C   UNL     1      23.612  61.974  16.743  1.00  0.00     0.009 C 
ATOM      7  C   UNL     1      24.182  63.204  13.611  1.00  0.00     0.008 C 
ATOM      8  C   UNL     1      24.182  64.749  13.737  1.00  0.00     0.005 C 
ATOM      9  C   UNL     1      24.919  64.790  16.575  1.00  0.00     0.016 C 
ENDROOT
BRANCH   3  10
ATOM     10  C   UNL     1      20.557  63.909  14.780  1.00  0.00    -0.032 C 
ATOM     11  C   UNL     1      19.758  65.102  14.190  1.00  0.00     0.011 C 
ATOM     12  C   UNL     1      19.874  62.619  14.262  1.00  0.00     0.011 C 
BRANCH  10  13
ATOM     13  C   UNL     1      20.430  63.902  16.328  1.00  0.00     0.007 CG0
ATOM     14  G   UNL     1      21.051  65.116  17.021  1.00  0.00     0.000 G0
ENDBRANCH  10  13
ENDBRANCH   3  10
BRANCH   1  15
ATOM     15  C   UNL     1      22.540  64.933  17.332  1.00  0.00     0.011 C 
BRANCH  15  16
ATOM     16  C   UNL     1      21.058  65.118  17.015  1.00  0.00     0.001 CG0
ATOM     17  G   UNL     1      20.436  63.899  16.332  1.00  0.00     0.000 G0
ENDBRANCH  15  16
ENDBRANCH   1  15
TORSDOF 0
ENDMDL
MODEL 8
REMARK VINA RESULT:    -2.824      1.714      3.081
REMARK INTER + INTRA:          -2.480
REMARK INTER:                  -3.485
REMARK INTRA:                   1.005
REMARK UNBOUND:                 1.004
REMARK SMILES C=C1[C@@H]2CC[C@H]3[C@@H]2C(C)(C)CCC[C@@]13C
REMARK SMILES IDX 14 1 6 2 7 3 3 4 2 5 1 6 4 7 5 8 15 9 8 10 9 11 10 12 11 13
REMARK SMILES IDX 13 15 12 16
REMARK H PARENT
REMARK Flexibility Score: 80.00
ROOT
ATOM      1  C   UNL     1      21.217  63.589  15.023  1.00  0.00    -0.008 C 
ATOM      2  C   UNL     1      22.540  62.757  15.241  1.00  0.00     0.003 C 
ATOM      3  C   UNL     1      23.544  63.772  15.834  1.00  0.00     0.006 C 
ATOM      4  C   UNL     1      23.327  64.797  14.729  1.00  0.00     0.019 C 
ATOM      5  C   UNL     1      21.831  64.940  14.732  1.00  0.00    -0.068 C 
ATOM      6  C   UNL     1      21.172  66.063  14.418  1.00  0.00     0.009 C 
ATOM      7  C   UNL     1      23.691  63.960  13.481  1.00  0.00     0.008 C 
ATOM      8  C   UNL     1      23.241  62.530  13.874  1.00  0.00     0.005 C 
ATOM      9  C   UNL     1      20.369  63.122  13.809  1.00  0.00     0.016 C 
ENDROOT
BRANCH   3  10
ATOM     10  C   UNL     1      23.426  64.236  17.336  1.00  0.00    -0.032 C 
ATOM     11  C   UNL     1      23.972  63.100  18.242  1.00  0.00     0.011 C 
ATOM     12  C   UNL     1      24.348  65.461  17.556  1.00  0.00     0.011 C 
BRANCH  10  13
ATOM     13  C   UNL     1      22.002  64.647  17.804  1.00  0.00     0.007 CG0
ATOM     14  G   UNL     1      20.942  63.558  17.642  1.00  0.00     0.000 G0
ENDBRANCH  10  13
ENDBRANCH   3  10
BRANCH   1  15
ATOM     15  C   UNL     1      20.273  63.604  16.261  1.00  0.00     0.011 C 
BRANCH  15  16
ATOM     16  C   UNL     1      20.932  63.571  17.637  1.00  0.00     0.001 CG0
ATOM     17  G   UNL     1      22.013  64.640  17.809  1.00  0.00     0.000 G0
ENDBRANCH  15  16
ENDBRANCH   1  15
TORSDOF 0
ENDMDL
MODEL 9
REMARK VINA RESULT:    -2.819      1.894      4.236
REMARK INTER + INTRA:          -2.474
REMARK INTER:                  -3.490
REMARK INTRA:                   1.016
REMARK UNBOUND:                 1.004
REMARK SMILES C=C1[C@@H]2CC[C@H]3[C@@H]2C(C)(C)CCC[C@@]13C
REMARK SMILES IDX 14 1 6 2 7 3 3 4 2 5 1 6 4 7 5 8 15 9 8 10 9 11 10 12 11 13
REMARK SMILES IDX 13 15 12 16
REMARK H PARENT
REMARK Flexibility Score: 80.00
ROOT
ATOM      1  C   UNL     1      22.698  63.181  14.838  1.00  0.00    -0.008 C 
ATOM      2  C   UNL     1      22.789  62.717  16.343  1.00  0.00     0.003 C 
ATOM      3  C   UNL     1      22.498  63.995  17.162  1.00  0.00     0.006 C 
ATOM      4  C   UNL     1      23.547  64.829  16.438  1.00  0.00     0.019 C 
ATOM      5  C   UNL     1      23.177  64.607  14.999  1.00  0.00    -0.068 C 
ATOM      6  C   UNL     1      23.354  65.503  14.020  1.00  0.00     0.009 C 
ATOM      7  C   UNL     1      24.818  63.989  16.705  1.00  0.00     0.008 C 
ATOM      8  C   UNL     1      24.279  62.537  16.741  1.00  0.00     0.005 C 
ATOM      9  C   UNL     1      23.647  62.411  13.880  1.00  0.00     0.016 C 
ENDROOT
BRANCH   3  10
ATOM     10  C   UNL     1      21.030  64.558  17.281  1.00  0.00    -0.032 C 
ATOM     11  C   UNL     1      20.248  63.672  18.288  1.00  0.00     0.011 C 
ATOM     12  C   UNL     1      21.087  65.980  17.892  1.00  0.00     0.011 C 
BRANCH  10  13
ATOM     13  C   UNL     1      20.240  64.666  15.947  1.00  0.00     0.007 CG0
ATOM     14  G   UNL     1      20.102  63.349  15.183  1.00  0.00     0.000 G0
ENDBRANCH  10  13
ENDBRANCH   3  10
BRANCH   1  15
ATOM     15  C   UNL     1      21.265  63.086  14.236  1.00  0.00     0.011 C 
BRANCH  15  16
ATOM     16  C   UNL     1      20.096  63.362  15.178  1.00  0.00     0.001 CG0
ATOM     17  G   UNL     1      20.247  64.673  15.951  1.00  0.00     0.000 G0
ENDBRANCH  15  16
ENDBRANCH   1  15
TORSDOF 0
ENDMDL
