MODEL 1
REMARK VINA RESULT:    -4.769      0.000      0.000
REMARK INTER + INTRA:          -5.492
REMARK INTER:                  -5.187
REMARK INTRA:                  -0.305
REMARK UNBOUND:                -0.305
REMARK SMILES CC(=O)c1cc(C)ccc1O
REMARK SMILES IDX 7 1 6 2 5 3 4 4 10 5 9 6 8 7 2 8 3 9 1 10 11 11
REMARK H PARENT 11 12
REMARK Flexibility Score: inf
ROOT
ATOM      1  C   UNL     1     -13.380   2.191 -16.133  1.00  0.00     0.044 C 
ATOM      2  C   UNL     1     -12.867   3.595 -16.007  1.00  0.00    -0.050 A 
ATOM      3  C   UNL     1     -13.719   4.682 -16.252  1.00  0.00     0.019 A 
ATOM      4  C   UNL     1     -13.261   6.007 -16.112  1.00  0.00     0.059 A 
ATOM      5  C   UNL     1     -11.931   6.228 -15.682  1.00  0.00     0.126 A 
ATOM      6  C   UNL     1     -11.090   5.135 -15.428  1.00  0.00     0.047 A 
ATOM      7  C   UNL     1     -11.554   3.829 -15.583  1.00  0.00     0.007 A 
ENDROOT
BRANCH   4   8
ATOM      8  C   UNL     1     -14.200   7.123 -16.406  1.00  0.00     0.163 C 
ATOM      9  O   UNL     1     -14.302   8.076 -15.587  1.00  0.00    -0.294 OA
ATOM     10  C   UNL     1     -15.037   7.164 -17.648  1.00  0.00     0.093 C 
ENDBRANCH   4   8
BRANCH   5  11
ATOM     11  O   UNL     1     -11.449   7.521 -15.480  1.00  0.00    -0.507 OA
ATOM     12  H   UNL     1     -10.682   7.711 -14.846  1.00  0.00     0.293 HD
ENDBRANCH   5  11
TORSDOF 2
ENDMDL
MODEL 2
REMARK VINA RESULT:    -4.685      2.601      4.682
REMARK INTER + INTRA:          -5.400
REMARK INTER:                  -5.137
REMARK INTRA:                  -0.263
REMARK UNBOUND:                -0.305
REMARK SMILES CC(=O)c1cc(C)ccc1O
REMARK SMILES IDX 7 1 6 2 5 3 4 4 10 5 9 6 8 7 2 8 3 9 1 10 11 11
REMARK H PARENT 11 12
REMARK Flexibility Score: inf
ROOT
ATOM      1  C   UNL     1     -12.716   8.509 -15.072  1.00  0.00     0.044 C 
ATOM      2  C   UNL     1     -12.383   7.114 -15.513  1.00  0.00    -0.050 A 
ATOM      3  C   UNL     1     -11.450   6.351 -14.795  1.00  0.00     0.019 A 
ATOM      4  C   UNL     1     -11.146   5.031 -15.179  1.00  0.00     0.059 A 
ATOM      5  C   UNL     1     -11.827   4.467 -16.283  1.00  0.00     0.126 A 
ATOM      6  C   UNL     1     -12.767   5.232 -16.988  1.00  0.00     0.047 A 
ATOM      7  C   UNL     1     -13.048   6.543 -16.603  1.00  0.00     0.007 A 
ENDROOT
BRANCH   4   8
ATOM      8  C   UNL     1     -10.131   4.274 -14.397  1.00  0.00     0.163 C 
ATOM      9  O   UNL     1      -9.531   3.307 -14.938  1.00  0.00    -0.294 OA
ATOM     10  C   UNL     1      -9.790   4.615 -12.979  1.00  0.00     0.093 C 
ENDBRANCH   4   8
BRANCH   5  11
ATOM     11  O   UNL     1     -11.596   3.147 -16.669  1.00  0.00    -0.507 OA
ATOM     12  H   UNL     1     -11.075   2.919 -17.508  1.00  0.00     0.293 HD
ENDBRANCH   5  11
TORSDOF 2
ENDMDL
MODEL 3
REMARK VINA RESULT:    -4.684      2.515      4.011
REMARK INTER + INTRA:          -5.400
REMARK INTER:                  -5.095
REMARK INTRA:                  -0.305
REMARK UNBOUND:                -0.305
REMARK SMILES CC(=O)c1cc(C)ccc1O
REMARK SMILES IDX 7 1 6 2 5 3 4 4 10 5 9 6 8 7 2 8 3 9 1 10 11 11
REMARK H PARENT 11 12
REMARK Flexibility Score: inf
ROOT
ATOM      1  C   UNL     1     -14.807   7.086 -16.906  1.00  0.00     0.044 C 
ATOM      2  C   UNL     1     -13.770   6.061 -16.554  1.00  0.00    -0.050 A 
ATOM      3  C   UNL     1     -14.156   4.763 -16.186  1.00  0.00     0.019 A 
ATOM      4  C   UNL     1     -13.195   3.781 -15.879  1.00  0.00     0.059 A 
ATOM      5  C   UNL     1     -11.823   4.112 -15.984  1.00  0.00     0.126 A 
ATOM      6  C   UNL     1     -11.445   5.408 -16.364  1.00  0.00     0.047 A 
ATOM      7  C   UNL     1     -12.410   6.373 -16.652  1.00  0.00     0.007 A 
ENDROOT
BRANCH   4   8
ATOM      8  C   UNL     1     -13.659   2.427 -15.472  1.00  0.00     0.163 C 
ATOM      9  O   UNL     1     -13.226   1.415 -16.086  1.00  0.00    -0.294 OA
ATOM     10  C   UNL     1     -14.631   2.213 -14.352  1.00  0.00     0.093 C 
ENDBRANCH   4   8
BRANCH   5  11
ATOM     11  O   UNL     1     -10.835   3.158 -15.739  1.00  0.00    -0.507 OA
ATOM     12  H   UNL     1     -11.055   2.251 -15.344  1.00  0.00     0.293 HD
ENDBRANCH   5  11
TORSDOF 2
ENDMDL
MODEL 4
REMARK VINA RESULT:    -4.649      1.761      3.772
REMARK INTER + INTRA:          -5.361
REMARK INTER:                  -5.125
REMARK INTRA:                  -0.236
REMARK UNBOUND:                -0.305
REMARK SMILES CC(=O)c1cc(C)ccc1O
REMARK SMILES IDX 7 1 6 2 5 3 4 4 10 5 9 6 8 7 2 8 3 9 1 10 11 11
REMARK H PARENT 11 12
REMARK Flexibility Score: inf
ROOT
ATOM      1  C   UNL     1     -14.893   7.296 -17.387  1.00  0.00     0.044 C 
ATOM      2  C   UNL     1     -13.763   6.819 -16.522  1.00  0.00    -0.050 A 
ATOM      3  C   UNL     1     -13.410   5.461 -16.507  1.00  0.00     0.019 A 
ATOM      4  C   UNL     1     -12.335   5.001 -15.722  1.00  0.00     0.059 A 
ATOM      5  C   UNL     1     -11.586   5.940 -14.973  1.00  0.00     0.126 A 
ATOM      6  C   UNL     1     -11.938   7.297 -15.003  1.00  0.00     0.047 A 
ATOM      7  C   UNL     1     -13.014   7.735 -15.775  1.00  0.00     0.007 A 
ENDROOT
BRANCH   4   8
ATOM      8  C   UNL     1     -12.017   3.548 -15.724  1.00  0.00     0.163 C 
ATOM      9  O   UNL     1     -10.854   3.170 -15.418  1.00  0.00    -0.294 OA
ATOM     10  C   UNL     1     -13.031   2.503 -16.079  1.00  0.00     0.093 C 
ENDBRANCH   4   8
BRANCH   5  11
ATOM     11  O   UNL     1     -10.482   5.539 -14.221  1.00  0.00    -0.507 OA
ATOM     12  H   UNL     1      -9.542   5.842 -14.449  1.00  0.00     0.293 HD
ENDBRANCH   5  11
TORSDOF 2
ENDMDL
MODEL 5
REMARK VINA RESULT:    -4.507      1.952      3.459
REMARK INTER + INTRA:          -5.207
REMARK INTER:                  -4.912
REMARK INTRA:                  -0.295
REMARK UNBOUND:                -0.305
REMARK SMILES CC(=O)c1cc(C)ccc1O
REMARK SMILES IDX 7 1 6 2 5 3 4 4 10 5 9 6 8 7 2 8 3 9 1 10 11 11
REMARK H PARENT 11 12
REMARK Flexibility Score: inf
ROOT
ATOM      1  C   UNL     1     -15.201   7.173 -17.292  1.00  0.00     0.044 C 
ATOM      2  C   UNL     1     -13.915   6.814 -16.605  1.00  0.00    -0.050 A 
ATOM      3  C   UNL     1     -13.274   7.747 -15.776  1.00  0.00     0.019 A 
ATOM      4  C   UNL     1     -12.082   7.417 -15.103  1.00  0.00     0.059 A 
ATOM      5  C   UNL     1     -11.556   6.111 -15.244  1.00  0.00     0.126 A 
ATOM      6  C   UNL     1     -12.210   5.181 -16.065  1.00  0.00     0.047 A 
ATOM      7  C   UNL     1     -13.383   5.527 -16.736  1.00  0.00     0.007 A 
ENDROOT
BRANCH   4   8
ATOM      8  C   UNL     1     -11.430   8.451 -14.255  1.00  0.00     0.163 C 
ATOM      9  O   UNL     1     -10.918   8.113 -13.153  1.00  0.00    -0.294 OA
ATOM     10  C   UNL     1     -11.355   9.892 -14.658  1.00  0.00     0.093 C 
ENDBRANCH   4   8
BRANCH   5  11
ATOM     11  O   UNL     1     -10.406   5.723 -14.558  1.00  0.00    -0.507 OA
ATOM     12  H   UNL     1     -10.029   6.274 -13.795  1.00  0.00     0.293 HD
ENDBRANCH   5  11
TORSDOF 2
ENDMDL
MODEL 6
REMARK VINA RESULT:    -4.452      1.375      3.276
REMARK INTER + INTRA:          -5.147
REMARK INTER:                  -4.882
REMARK INTRA:                  -0.266
REMARK UNBOUND:                -0.305
REMARK SMILES CC(=O)c1cc(C)ccc1O
REMARK SMILES IDX 7 1 6 2 5 3 4 4 10 5 9 6 8 7 2 8 3 9 1 10 11 11
REMARK H PARENT 11 12
REMARK Flexibility Score: inf
ROOT
ATOM      1  C   UNL     1     -12.997   2.122 -15.761  1.00  0.00     0.044 C 
ATOM      2  C   UNL     1     -12.686   3.590 -15.764  1.00  0.00    -0.050 A 
ATOM      3  C   UNL     1     -11.777   4.120 -14.836  1.00  0.00     0.019 A 
ATOM      4  C   UNL     1     -11.453   5.490 -14.842  1.00  0.00     0.059 A 
ATOM      5  C   UNL     1     -12.030   6.324 -15.829  1.00  0.00     0.126 A 
ATOM      6  C   UNL     1     -12.928   5.784 -16.760  1.00  0.00     0.047 A 
ATOM      7  C   UNL     1     -13.249   4.427 -16.733  1.00  0.00     0.007 A 
ENDROOT
BRANCH   4   8
ATOM      8  C   UNL     1     -10.501   6.006 -13.820  1.00  0.00     0.163 C 
ATOM      9  O   UNL     1     -10.536   7.226 -13.504  1.00  0.00    -0.294 OA
ATOM     10  C   UNL     1      -9.492   5.128 -13.145  1.00  0.00     0.093 C 
ENDBRANCH   4   8
BRANCH   5  11
ATOM     11  O   UNL     1     -11.700   7.677 -15.906  1.00  0.00    -0.507 OA
ATOM     12  H   UNL     1     -10.929   8.006 -16.475  1.00  0.00     0.293 HD
ENDBRANCH   5  11
TORSDOF 2
ENDMDL
MODEL 7
REMARK VINA RESULT:    -4.259      3.501      4.704
REMARK INTER + INTRA:          -4.938
REMARK INTER:                  -4.660
REMARK INTRA:                  -0.278
REMARK UNBOUND:                -0.305
REMARK SMILES CC(=O)c1cc(C)ccc1O
REMARK SMILES IDX 7 1 6 2 5 3 4 4 10 5 9 6 8 7 2 8 3 9 1 10 11 11
REMARK H PARENT 11 12
REMARK Flexibility Score: inf
ROOT
ATOM      1  C   UNL     1     -12.029   2.153 -10.658  1.00  0.00     0.044 C 
ATOM      2  C   UNL     1     -11.237   2.234 -11.930  1.00  0.00    -0.050 A 
ATOM      3  C   UNL     1     -11.776   2.870 -13.058  1.00  0.00     0.019 A 
ATOM      4  C   UNL     1     -11.036   2.979 -14.251  1.00  0.00     0.059 A 
ATOM      5  C   UNL     1      -9.716   2.468 -14.285  1.00  0.00     0.126 A 
ATOM      6  C   UNL     1      -9.180   1.844 -13.149  1.00  0.00     0.047 A 
ATOM      7  C   UNL     1      -9.931   1.733 -11.979  1.00  0.00     0.007 A 
ENDROOT
BRANCH   4   8
ATOM      8  C   UNL     1     -11.664   3.642 -15.426  1.00  0.00     0.163 C 
ATOM      9  O   UNL     1     -11.184   4.728 -15.850  1.00  0.00    -0.294 OA
ATOM     10  C   UNL     1     -12.854   3.069 -16.132  1.00  0.00     0.093 C 
ENDBRANCH   4   8
BRANCH   5  11
ATOM     11  O   UNL     1      -8.927   2.597 -15.427  1.00  0.00    -0.507 OA
ATOM     12  H   UNL     1      -8.868   3.470 -15.939  1.00  0.00     0.293 HD
ENDBRANCH   5  11
TORSDOF 2
ENDMDL
MODEL 8
REMARK VINA RESULT:    -4.128      2.361      4.413
REMARK INTER + INTRA:          -4.794
REMARK INTER:                  -4.520
REMARK INTRA:                  -0.275
REMARK UNBOUND:                -0.305
REMARK SMILES CC(=O)c1cc(C)ccc1O
REMARK SMILES IDX 7 1 6 2 5 3 4 4 10 5 9 6 8 7 2 8 3 9 1 10 11 11
REMARK H PARENT 11 12
REMARK Flexibility Score: inf
ROOT
ATOM      1  C   UNL     1     -13.365   2.009 -16.113  1.00  0.00     0.044 C 
ATOM      2  C   UNL     1     -12.515   3.125 -15.579  1.00  0.00    -0.050 A 
ATOM      3  C   UNL     1     -11.455   2.847 -14.703  1.00  0.00     0.019 A 
ATOM      4  C   UNL     1     -10.631   3.878 -14.213  1.00  0.00     0.059 A 
ATOM      5  C   UNL     1     -10.863   5.204 -14.651  1.00  0.00     0.126 A 
ATOM      6  C   UNL     1     -11.917   5.471 -15.537  1.00  0.00     0.047 A 
ATOM      7  C   UNL     1     -12.733   4.440 -16.002  1.00  0.00     0.007 A 
ENDROOT
BRANCH   4   8
ATOM      8  C   UNL     1      -9.535   3.532 -13.268  1.00  0.00     0.163 C 
ATOM      9  O   UNL     1      -9.140   4.396 -12.439  1.00  0.00    -0.294 OA
ATOM     10  C   UNL     1      -8.875   2.188 -13.259  1.00  0.00     0.093 C 
ENDBRANCH   4   8
BRANCH   5  11
ATOM     11  O   UNL     1     -10.042   6.251 -14.234  1.00  0.00    -0.507 OA
ATOM     12  H   UNL     1     -10.154   7.192 -14.593  1.00  0.00     0.293 HD
ENDBRANCH   5  11
TORSDOF 2
ENDMDL
