MODEL 1
REMARK VINA RESULT:    -2.580      0.000      0.000
REMARK INTER + INTRA:          -2.580
REMARK INTER:                  -2.580
REMARK INTRA:                   0.000
REMARK UNBOUND:                 0.000
REMARK SMILES CC(=O)[O-]
REMARK SMILES IDX 1 1 2 2 3 3 4 4
REMARK H PARENT
REMARK Flexibility Score: inf
ROOT
ATOM      1  C   UNL     1       3.912 -33.868  21.722  1.00  0.00     0.063 C 
ATOM      2  C   UNL     1       4.895 -34.256  22.775  1.00  0.00     0.038 C 
ATOM      3  O   UNL     1       5.655 -33.390  23.279  1.00  0.00    -0.550 OA
ATOM      4  O   UNL     1       5.010 -35.585  23.163  1.00  0.00    -0.550 OA
ENDROOT
TORSDOF 0
ENDMDL
MODEL 2
REMARK VINA RESULT:    -2.544      2.127      2.362
REMARK INTER + INTRA:          -2.544
REMARK INTER:                  -2.544
REMARK INTRA:                   0.000
REMARK UNBOUND:                 0.000
REMARK SMILES CC(=O)[O-]
REMARK SMILES IDX 1 1 2 2 3 3 4 4
REMARK H PARENT
REMARK Flexibility Score: inf
ROOT
ATOM      1  C   UNL     1       5.177 -34.090  22.875  1.00  0.00     0.063 C 
ATOM      2  C   UNL     1       4.384 -34.084  21.611  1.00  0.00     0.038 C 
ATOM      3  O   UNL     1       3.172 -33.748  21.628  1.00  0.00    -0.550 OA
ATOM      4  O   UNL     1       4.969 -34.501  20.422  1.00  0.00    -0.550 OA
ENDROOT
TORSDOF 0
ENDMDL
MODEL 3
REMARK VINA RESULT:    -2.511      1.667      1.786
REMARK INTER + INTRA:          -2.511
REMARK INTER:                  -2.511
REMARK INTRA:                   0.000
REMARK UNBOUND:                 0.000
REMARK SMILES CC(=O)[O-]
REMARK SMILES IDX 1 1 2 2 3 3 4 4
REMARK H PARENT
REMARK Flexibility Score: inf
ROOT
ATOM      1  C   UNL     1       5.564 -35.197  21.390  1.00  0.00     0.063 C 
ATOM      2  C   UNL     1       4.798 -34.146  22.120  1.00  0.00     0.038 C 
ATOM      3  O   UNL     1       5.290 -33.600  23.141  1.00  0.00    -0.550 OA
ATOM      4  O   UNL     1       3.516 -33.807  21.706  1.00  0.00    -0.550 OA
ENDROOT
TORSDOF 0
ENDMDL
MODEL 4
REMARK VINA RESULT:    -2.461      2.514      2.657
REMARK INTER + INTRA:          -2.461
REMARK INTER:                  -2.461
REMARK INTRA:                   0.000
REMARK UNBOUND:                 0.000
REMARK SMILES CC(=O)[O-]
REMARK SMILES IDX 1 1 2 2 3 3 4 4
REMARK H PARENT
REMARK Flexibility Score: inf
ROOT
ATOM      1  C   UNL     1       3.888 -33.983  21.439  1.00  0.00     0.063 C 
ATOM      2  C   UNL     1       4.773 -34.701  20.477  1.00  0.00     0.038 C 
ATOM      3  O   UNL     1       4.921 -34.263  19.307  1.00  0.00    -0.550 OA
ATOM      4  O   UNL     1       5.393 -35.885  20.854  1.00  0.00    -0.550 OA
ENDROOT
TORSDOF 0
ENDMDL
MODEL 5
REMARK VINA RESULT:    -2.433      3.408      3.543
REMARK INTER + INTRA:          -2.433
REMARK INTER:                  -2.433
REMARK INTRA:                   0.000
REMARK UNBOUND:                 0.000
REMARK SMILES CC(=O)[O-]
REMARK SMILES IDX 1 1 2 2 3 3 4 4
REMARK H PARENT
REMARK Flexibility Score: inf
ROOT
ATOM      1  C   UNL     1       5.010 -36.270  20.146  1.00  0.00     0.063 C 
ATOM      2  C   UNL     1       4.829 -34.825  19.828  1.00  0.00     0.038 C 
ATOM      3  O   UNL     1       4.280 -34.058  20.660  1.00  0.00    -0.550 OA
ATOM      4  O   UNL     1       5.218 -34.332  18.588  1.00  0.00    -0.550 OA
ENDROOT
TORSDOF 0
ENDMDL
MODEL 6
REMARK VINA RESULT:    -2.432      3.026      3.526
REMARK INTER + INTRA:          -2.432
REMARK INTER:                  -2.432
REMARK INTRA:                   0.000
REMARK UNBOUND:                 0.000
REMARK SMILES CC(=O)[O-]
REMARK SMILES IDX 1 1 2 2 3 3 4 4
REMARK H PARENT
REMARK Flexibility Score: inf
ROOT
ATOM      1  C   UNL     1       5.136 -34.487  18.840  1.00  0.00     0.063 C 
ATOM      2  C   UNL     1       5.313 -35.527  19.894  1.00  0.00     0.038 C 
ATOM      3  O   UNL     1       4.829 -36.677  19.734  1.00  0.00    -0.550 OA
ATOM      4  O   UNL     1       5.967 -35.213  21.078  1.00  0.00    -0.550 OA
ENDROOT
TORSDOF 0
ENDMDL
MODEL 7
REMARK VINA RESULT:    -2.430      1.831      2.031
REMARK INTER + INTRA:          -2.430
REMARK INTER:                  -2.430
REMARK INTRA:                   0.000
REMARK UNBOUND:                 0.000
REMARK SMILES CC(=O)[O-]
REMARK SMILES IDX 1 1 2 2 3 3 4 4
REMARK H PARENT
REMARK Flexibility Score: inf
ROOT
ATOM      1  C   UNL     1       5.221 -34.000  22.974  1.00  0.00     0.063 C 
ATOM      2  C   UNL     1       5.293 -35.477  23.165  1.00  0.00     0.038 C 
ATOM      3  O   UNL     1       5.308 -36.243  22.167  1.00  0.00    -0.550 OA
ATOM      4  O   UNL     1       5.289 -36.013  24.446  1.00  0.00    -0.550 OA
ENDROOT
TORSDOF 0
ENDMDL
MODEL 8
REMARK VINA RESULT:    -2.408      3.396      3.537
REMARK INTER + INTRA:          -2.408
REMARK INTER:                  -2.408
REMARK INTRA:                   0.000
REMARK UNBOUND:                 0.000
REMARK SMILES CC(=O)[O-]
REMARK SMILES IDX 1 1 2 2 3 3 4 4
REMARK H PARENT
REMARK Flexibility Score: inf
ROOT
ATOM      1  C   UNL     1       4.992 -36.413  20.001  1.00  0.00     0.063 C 
ATOM      2  C   UNL     1       4.962 -34.939  19.778  1.00  0.00     0.038 C 
ATOM      3  O   UNL     1       5.578 -34.435  18.803  1.00  0.00    -0.550 OA
ATOM      4  O   UNL     1       4.299 -34.113  20.677  1.00  0.00    -0.550 OA
ENDROOT
TORSDOF 0
ENDMDL
MODEL 9
REMARK VINA RESULT:    -2.304      1.355      1.973
REMARK INTER + INTRA:          -2.304
REMARK INTER:                  -2.304
REMARK INTRA:                   0.000
REMARK UNBOUND:                 0.000
REMARK SMILES CC(=O)[O-]
REMARK SMILES IDX 1 1 2 2 3 3 4 4
REMARK H PARENT
REMARK Flexibility Score: inf
ROOT
ATOM      1  C   UNL     1       5.782 -35.598  24.307  1.00  0.00     0.063 C 
ATOM      2  C   UNL     1       5.299 -34.894  23.084  1.00  0.00     0.038 C 
ATOM      3  O   UNL     1       5.204 -33.639  23.074  1.00  0.00    -0.550 OA
ATOM      4  O   UNL     1       4.900 -35.625  21.972  1.00  0.00    -0.550 OA
ENDROOT
TORSDOF 0
ENDMDL
