MODEL 1
REMARK VINA RESULT:    -3.945      0.000      0.000
REMARK INTER + INTRA:          -4.485
REMARK INTER:                  -4.291
REMARK INTRA:                  -0.195
REMARK UNBOUND:                -0.195
REMARK SMILES C=C(C)[C@@H]1CC[C@@H](C)C[C@H]1O
REMARK SMILES IDX 8 1 7 2 6 3 5 4 4 5 10 6 9 7 11 8 2 10 1 11 3 12
REMARK H PARENT 11 9
REMARK Flexibility Score: inf
ROOT
ATOM      1  C   UNL     1     -40.120  27.020   2.973  1.00  0.00     0.008 C 
ATOM      2  C   UNL     1     -40.125  25.875   3.990  1.00  0.00    -0.012 C 
ATOM      3  C   UNL     1     -39.991  26.425   5.423  1.00  0.00     0.004 C 
ATOM      4  C   UNL     1     -39.982  25.285   6.448  1.00  0.00     0.011 C 
ATOM      5  C   UNL     1     -38.851  24.279   6.148  1.00  0.00     0.043 C 
ATOM      6  C   UNL     1     -38.970  23.725   4.705  1.00  0.00     0.121 C 
ATOM      7  C   UNL     1     -38.990  24.878   3.688  1.00  0.00     0.035 C 
ENDROOT
BRANCH   6   8
ATOM      8  O   UNL     1     -37.877  22.893   4.417  1.00  0.00    -0.392 OA
ATOM      9  H   UNL     1     -37.860  22.184   5.112  1.00  0.00     0.210 HD
ENDBRANCH   6   8
BRANCH   5  10
ATOM     10  C   UNL     1     -38.830  23.162   7.186  1.00  0.00    -0.075 C 
ATOM     11  C   UNL     1     -37.785  23.000   8.016  1.00  0.00     0.008 C 
ATOM     12  C   UNL     1     -39.995  22.215   7.301  1.00  0.00     0.039 C 
ENDBRANCH   5  10
TORSDOF 2
ENDMDL
MODEL 2
REMARK VINA RESULT:    -1.482      1.613      4.553
REMARK INTER + INTRA:          -1.807
REMARK INTER:                  -2.242
REMARK INTRA:                   0.435
REMARK UNBOUND:                -0.195
REMARK SMILES C=C(C)[C@@H]1CC[C@@H](C)C[C@H]1O
REMARK SMILES IDX 8 1 7 2 6 3 5 4 4 5 10 6 9 7 11 8 2 10 1 11 3 12
REMARK H PARENT 11 9
REMARK Flexibility Score: inf
ROOT
ATOM      1  C   UNL     1     -38.989  21.432   8.109  1.00  0.00     0.008 C 
ATOM      2  C   UNL     1     -39.537  22.594   7.274  1.00  0.00    -0.012 C 
ATOM      3  C   UNL     1     -39.501  22.244   5.774  1.00  0.00     0.004 C 
ATOM      4  C   UNL     1     -40.035  23.406   4.929  1.00  0.00     0.011 C 
ATOM      5  C   UNL     1     -39.241  24.701   5.201  1.00  0.00     0.043 C 
ATOM      6  C   UNL     1     -39.263  25.057   6.709  1.00  0.00     0.121 C 
ATOM      7  C   UNL     1     -38.735  23.881   7.547  1.00  0.00     0.035 C 
ENDROOT
BRANCH   6   8
ATOM      8  O   UNL     1     -38.451  26.177   6.951  1.00  0.00    -0.392 OA
ATOM      9  H   UNL     1     -38.094  26.473   6.073  1.00  0.00     0.210 HD
ENDBRANCH   6   8
BRANCH   5  10
ATOM     10  C   UNL     1     -39.760  25.846   4.338  1.00  0.00    -0.075 C 
ATOM     11  C   UNL     1     -39.906  25.708   3.009  1.00  0.00     0.008 C 
ATOM     12  C   UNL     1     -40.124  27.163   4.971  1.00  0.00     0.039 C 
ENDBRANCH   5  10
TORSDOF 2
ENDMDL
MODEL 3
REMARK VINA RESULT:    -1.377      1.075      4.132
REMARK INTER + INTRA:          -1.692
REMARK INTER:                  -1.819
REMARK INTRA:                   0.127
REMARK UNBOUND:                -0.195
REMARK SMILES C=C(C)[C@@H]1CC[C@@H](C)C[C@H]1O
REMARK SMILES IDX 8 1 7 2 6 3 5 4 4 5 10 6 9 7 11 8 2 10 1 11 3 12
REMARK H PARENT 11 9
REMARK Flexibility Score: inf
ROOT
ATOM      1  C   UNL     1     -38.184  21.596   8.058  1.00  0.00     0.008 C 
ATOM      2  C   UNL     1     -38.412  22.955   7.388  1.00  0.00    -0.012 C 
ATOM      3  C   UNL     1     -39.880  23.394   7.546  1.00  0.00     0.004 C 
ATOM      4  C   UNL     1     -40.122  24.747   6.866  1.00  0.00     0.011 C 
ATOM      5  C   UNL     1     -39.731  24.696   5.375  1.00  0.00     0.043 C 
ATOM      6  C   UNL     1     -38.258  24.247   5.203  1.00  0.00     0.121 C 
ATOM      7  C   UNL     1     -38.025  22.895   5.898  1.00  0.00     0.035 C 
ENDROOT
BRANCH   6   8
ATOM      8  O   UNL     1     -37.952  24.107   3.840  1.00  0.00    -0.392 OA
ATOM      9  H   UNL     1     -37.010  23.795   3.784  1.00  0.00     0.210 HD
ENDBRANCH   6   8
BRANCH   5  10
ATOM     10  C   UNL     1     -39.998  26.037   4.699  1.00  0.00    -0.075 C 
ATOM     11  C   UNL     1     -40.125  27.167   5.415  1.00  0.00     0.008 C 
ATOM     12  C   UNL     1     -40.121  26.116   3.200  1.00  0.00     0.039 C 
ENDBRANCH   5  10
TORSDOF 2
ENDMDL
