MODEL 1
REMARK VINA RESULT:    -4.438      0.000      0.000
REMARK INTER + INTRA:          -6.258
REMARK INTER:                  -5.995
REMARK INTRA:                  -0.263
REMARK UNBOUND:                -0.263
REMARK SMILES CCCCCCC=CC(=O)[O-]
REMARK SMILES IDX 5 1 6 2 7 3 8 4 9 5 10 6 11 7 4 8 3 9 2 10 1 11
REMARK H PARENT
REMARK Flexibility Score: inf
ROOT
ATOM      1  C   UNL     1      -1.869  -5.790  -0.547  1.00  0.00     0.004 C 
ENDROOT
BRANCH   1   2
ATOM      2  C   UNL     1      -1.174  -5.209  -1.784  1.00  0.00     0.027 C 
BRANCH   2   3
ATOM      3  C   UNL     1      -2.169  -4.847  -2.850  1.00  0.00    -0.025 C 
ATOM      4  C   UNL     1      -2.423  -5.666  -3.875  1.00  0.00     0.020 C 
BRANCH   4   5
ATOM      5  C   UNL     1      -3.384  -5.319  -4.932  1.00  0.00     0.064 C 
ATOM      6  O   UNL     1      -4.335  -6.104  -5.189  1.00  0.00    -0.545 OA
ATOM      7  O   UNL     1      -3.260  -4.137  -5.653  1.00  0.00    -0.545 OA
ENDBRANCH   4   5
ENDBRANCH   2   3
ENDBRANCH   1   2
BRANCH   1   8
ATOM      8  C   UNL     1      -1.423  -5.062   0.727  1.00  0.00     0.000 C 
BRANCH   8   9
ATOM      9  C   UNL     1      -0.617  -3.800   0.386  1.00  0.00    -0.000 C 
BRANCH   9  10
ATOM     10  C   UNL     1      -0.250  -2.980   1.633  1.00  0.00    -0.003 C 
ATOM     11  C   UNL     1      -0.448  -1.478   1.431  1.00  0.00     0.004 C 
ENDBRANCH   9  10
ENDBRANCH   8   9
ENDBRANCH   1   8
TORSDOF 6
ENDMDL
MODEL 2
REMARK VINA RESULT:    -4.323     14.284     15.045
REMARK INTER + INTRA:          -6.102
REMARK INTER:                  -5.502
REMARK INTRA:                  -0.600
REMARK UNBOUND:                -0.263
REMARK SMILES CCCCCCC=CC(=O)[O-]
REMARK SMILES IDX 5 1 6 2 7 3 8 4 9 5 10 6 11 7 4 8 3 9 2 10 1 11
REMARK H PARENT
REMARK Flexibility Score: inf
ROOT
ATOM      1  C   UNL     1      -9.351   2.566   7.102  1.00  0.00     0.004 C 
ENDROOT
BRANCH   1   2
ATOM      2  C   UNL     1      -9.818   3.537   6.011  1.00  0.00     0.027 C 
BRANCH   2   3
ATOM      3  C   UNL     1      -8.958   4.768   5.972  1.00  0.00    -0.025 C 
ATOM      4  C   UNL     1      -9.483   5.981   5.774  1.00  0.00     0.020 C 
BRANCH   4   5
ATOM      5  C   UNL     1      -8.652   7.193   5.720  1.00  0.00     0.064 C 
ATOM      6  O   UNL     1      -8.171   7.664   6.785  1.00  0.00    -0.545 OA
ATOM      7  O   UNL     1      -8.388   7.827   4.513  1.00  0.00    -0.545 OA
ENDBRANCH   4   5
ENDBRANCH   2   3
ENDBRANCH   1   2
BRANCH   1   8
ATOM      8  C   UNL     1      -9.309   3.254   8.471  1.00  0.00     0.000 C 
BRANCH   8   9
ATOM      9  C   UNL     1      -8.118   2.753   9.301  1.00  0.00    -0.000 C 
BRANCH   9  10
ATOM     10  C   UNL     1      -6.993   3.795   9.409  1.00  0.00    -0.003 C 
ATOM     11  C   UNL     1      -7.517   5.231   9.410  1.00  0.00     0.004 C 
ENDBRANCH   9  10
ENDBRANCH   8   9
ENDBRANCH   1   8
TORSDOF 6
ENDMDL
MODEL 3
REMARK VINA RESULT:    -4.220      1.392      1.961
REMARK INTER + INTRA:          -5.963
REMARK INTER:                  -5.711
REMARK INTRA:                  -0.252
REMARK UNBOUND:                -0.263
REMARK SMILES CCCCCCC=CC(=O)[O-]
REMARK SMILES IDX 5 1 6 2 7 3 8 4 9 5 10 6 11 7 4 8 3 9 2 10 1 11
REMARK H PARENT
REMARK Flexibility Score: inf
ROOT
ATOM      1  C   UNL     1      -0.245  -4.597   0.046  1.00  0.00     0.004 C 
ENDROOT
BRANCH   1   2
ATOM      2  C   UNL     1      -0.986  -5.938  -0.028  1.00  0.00     0.027 C 
BRANCH   2   3
ATOM      3  C   UNL     1      -2.155  -5.864  -0.969  1.00  0.00    -0.025 C 
ATOM      4  C   UNL     1      -2.197  -4.969  -1.961  1.00  0.00     0.020 C 
BRANCH   4   5
ATOM      5  C   UNL     1      -3.340  -4.877  -2.881  1.00  0.00     0.064 C 
ATOM      6  O   UNL     1      -3.969  -5.921  -3.197  1.00  0.00    -0.545 OA
ATOM      7  O   UNL     1      -3.738  -3.654  -3.408  1.00  0.00    -0.545 OA
ENDBRANCH   4   5
ENDBRANCH   2   3
ENDBRANCH   1   2
BRANCH   1   8
ATOM      8  C   UNL     1      -0.810  -3.717   1.168  1.00  0.00     0.000 C 
BRANCH   8   9
ATOM      9  C   UNL     1       0.171  -2.592   1.529  1.00  0.00    -0.000 C 
BRANCH   9  10
ATOM     10  C   UNL     1      -0.509  -1.215   1.594  1.00  0.00    -0.003 C 
ATOM     11  C   UNL     1      -0.201  -0.346   0.374  1.00  0.00     0.004 C 
ENDBRANCH   9  10
ENDBRANCH   8   9
ENDBRANCH   1   8
TORSDOF 6
ENDMDL
MODEL 4
REMARK VINA RESULT:    -4.161      2.469      4.074
REMARK INTER + INTRA:          -5.883
REMARK INTER:                  -5.579
REMARK INTRA:                  -0.304
REMARK UNBOUND:                -0.263
REMARK SMILES CCCCCCC=CC(=O)[O-]
REMARK SMILES IDX 5 1 6 2 7 3 8 4 9 5 10 6 11 7 4 8 3 9 2 10 1 11
REMARK H PARENT
REMARK Flexibility Score: inf
ROOT
ATOM      1  C   UNL     1       0.037  -2.360   1.644  1.00  0.00     0.004 C 
ENDROOT
BRANCH   1   2
ATOM      2  C   UNL     1      -0.650  -3.706   1.382  1.00  0.00     0.027 C 
BRANCH   2   3
ATOM      3  C   UNL     1      -0.511  -4.119  -0.055  1.00  0.00    -0.025 C 
ATOM      4  C   UNL     1      -0.898  -5.327  -0.476  1.00  0.00     0.020 C 
BRANCH   4   5
ATOM      5  C   UNL     1      -0.756  -5.749  -1.877  1.00  0.00     0.064 C 
ATOM      6  O   UNL     1      -1.127  -4.976  -2.799  1.00  0.00    -0.545 OA
ATOM      7  O   UNL     1      -0.217  -6.988  -2.200  1.00  0.00    -0.545 OA
ENDBRANCH   4   5
ENDBRANCH   2   3
ENDBRANCH   1   2
BRANCH   1   8
ATOM      8  C   UNL     1      -0.617  -1.240   0.827  1.00  0.00     0.000 C 
BRANCH   8   9
ATOM      9  C   UNL     1       0.155   0.079   0.987  1.00  0.00    -0.000 C 
BRANCH   9  10
ATOM     10  C   UNL     1       0.120   0.940  -0.286  1.00  0.00    -0.003 C 
ATOM     11  C   UNL     1      -0.496   0.208  -1.478  1.00  0.00     0.004 C 
ENDBRANCH   9  10
ENDBRANCH   8   9
ENDBRANCH   1   8
TORSDOF 6
ENDMDL
MODEL 5
REMARK VINA RESULT:    -4.093      3.884      4.671
REMARK INTER + INTRA:          -5.791
REMARK INTER:                  -5.517
REMARK INTRA:                  -0.274
REMARK UNBOUND:                -0.263
REMARK SMILES CCCCCCC=CC(=O)[O-]
REMARK SMILES IDX 5 1 6 2 7 3 8 4 9 5 10 6 11 7 4 8 3 9 2 10 1 11
REMARK H PARENT
REMARK Flexibility Score: inf
ROOT
ATOM      1  C   UNL     1      -0.428  -4.122  -0.196  1.00  0.00     0.004 C 
ENDROOT
BRANCH   1   2
ATOM      2  C   UNL     1      -1.500  -5.098  -0.696  1.00  0.00     0.027 C 
BRANCH   2   3
ATOM      3  C   UNL     1      -1.580  -6.316   0.180  1.00  0.00    -0.025 C 
ATOM      4  C   UNL     1      -2.733  -6.705   0.732  1.00  0.00     0.020 C 
BRANCH   4   5
ATOM      5  C   UNL     1      -2.823  -7.888   1.602  1.00  0.00     0.064 C 
ATOM      6  O   UNL     1      -3.793  -8.680   1.474  1.00  0.00    -0.545 OA
ATOM      7  O   UNL     1      -1.853  -8.144   2.563  1.00  0.00    -0.545 OA
ENDBRANCH   4   5
ENDBRANCH   2   3
ENDBRANCH   1   2
BRANCH   1   8
ATOM      8  C   UNL     1      -0.734  -3.652   1.232  1.00  0.00     0.000 C 
BRANCH   8   9
ATOM      9  C   UNL     1       0.121  -2.431   1.603  1.00  0.00    -0.000 C 
BRANCH   9  10
ATOM     10  C   UNL     1      -0.650  -1.109   1.468  1.00  0.00    -0.003 C 
ATOM     11  C   UNL     1      -0.178  -0.269   0.281  1.00  0.00     0.004 C 
ENDBRANCH   9  10
ENDBRANCH   8   9
ENDBRANCH   1   8
TORSDOF 6
ENDMDL
MODEL 6
REMARK VINA RESULT:    -4.081      3.755      6.254
REMARK INTER + INTRA:          -5.776
REMARK INTER:                  -5.508
REMARK INTRA:                  -0.268
REMARK UNBOUND:                -0.263
REMARK SMILES CCCCCCC=CC(=O)[O-]
REMARK SMILES IDX 5 1 6 2 7 3 8 4 9 5 10 6 11 7 4 8 3 9 2 10 1 11
REMARK H PARENT
REMARK Flexibility Score: inf
ROOT
ATOM      1  C   UNL     1      -1.908  -5.475  -0.920  1.00  0.00     0.004 C 
ENDROOT
BRANCH   1   2
ATOM      2  C   UNL     1      -1.157  -5.198   0.387  1.00  0.00     0.027 C 
BRANCH   2   3
ATOM      3  C   UNL     1      -0.651  -3.785   0.437  1.00  0.00    -0.025 C 
ATOM      4  C   UNL     1      -0.514  -3.133   1.596  1.00  0.00     0.020 C 
BRANCH   4   5
ATOM      5  C   UNL     1      -0.032  -1.745   1.659  1.00  0.00     0.064 C 
ATOM      6  O   UNL     1       0.746  -1.399   2.587  1.00  0.00    -0.545 OA
ATOM      7  O   UNL     1      -0.421  -0.809   0.709  1.00  0.00    -0.545 OA
ENDBRANCH   4   5
ENDBRANCH   2   3
ENDBRANCH   1   2
BRANCH   1   8
ATOM      8  C   UNL     1      -1.524  -4.458  -2.002  1.00  0.00     0.000 C 
BRANCH   8   9
ATOM      9  C   UNL     1      -1.858  -4.992  -3.402  1.00  0.00    -0.000 C 
BRANCH   9  10
ATOM     10  C   UNL     1      -3.296  -4.660  -3.833  1.00  0.00    -0.003 C 
ATOM     11  C   UNL     1      -3.868  -5.681  -4.817  1.00  0.00     0.004 C 
ENDBRANCH   9  10
ENDBRANCH   8   9
ENDBRANCH   1   8
TORSDOF 6
ENDMDL
MODEL 7
REMARK VINA RESULT:    -4.059      5.177      6.419
REMARK INTER + INTRA:          -5.746
REMARK INTER:                  -5.404
REMARK INTRA:                  -0.342
REMARK UNBOUND:                -0.263
REMARK SMILES CCCCCCC=CC(=O)[O-]
REMARK SMILES IDX 5 1 6 2 7 3 8 4 9 5 10 6 11 7 4 8 3 9 2 10 1 11
REMARK H PARENT
REMARK Flexibility Score: inf
ROOT
ATOM      1  C   UNL     1      -2.339  -5.968   0.391  1.00  0.00     0.004 C 
ENDROOT
BRANCH   1   2
ATOM      2  C   UNL     1      -2.184  -7.471   0.658  1.00  0.00     0.027 C 
BRANCH   2   3
ATOM      3  C   UNL     1      -1.779  -7.733   2.080  1.00  0.00    -0.025 C 
ATOM      4  C   UNL     1      -2.489  -8.544   2.871  1.00  0.00     0.020 C 
BRANCH   4   5
ATOM      5  C   UNL     1      -2.111  -8.799   4.269  1.00  0.00     0.064 C 
ATOM      6  O   UNL     1      -2.918  -9.394   5.031  1.00  0.00    -0.545 OA
ATOM      7  O   UNL     1      -0.877  -8.395   4.762  1.00  0.00    -0.545 OA
ENDBRANCH   4   5
ENDBRANCH   2   3
ENDBRANCH   1   2
BRANCH   1   8
ATOM      8  C   UNL     1      -1.390  -5.506  -0.721  1.00  0.00     0.000 C 
BRANCH   8   9
ATOM      9  C   UNL     1      -0.654  -4.220  -0.315  1.00  0.00    -0.000 C 
BRANCH   9  10
ATOM     10  C   UNL     1      -0.734  -3.946   1.195  1.00  0.00    -0.003 C 
ATOM     11  C   UNL     1      -0.268  -2.538   1.565  1.00  0.00     0.004 C 
ENDBRANCH   9  10
ENDBRANCH   8   9
ENDBRANCH   1   8
TORSDOF 6
ENDMDL
MODEL 8
REMARK VINA RESULT:    -3.895      1.660      2.358
REMARK INTER + INTRA:          -5.525
REMARK INTER:                  -4.797
REMARK INTRA:                  -0.728
REMARK UNBOUND:                -0.263
REMARK SMILES CCCCCCC=CC(=O)[O-]
REMARK SMILES IDX 5 1 6 2 7 3 8 4 9 5 10 6 11 7 4 8 3 9 2 10 1 11
REMARK H PARENT
REMARK Flexibility Score: inf
ROOT
ATOM      1  C   UNL     1      -2.944  -6.333  -0.244  1.00  0.00     0.004 C 
ENDROOT
BRANCH   1   2
ATOM      2  C   UNL     1      -2.744  -7.518  -1.197  1.00  0.00     0.027 C 
BRANCH   2   3
ATOM      3  C   UNL     1      -2.957  -7.110  -2.627  1.00  0.00    -0.025 C 
ATOM      4  C   UNL     1      -3.594  -5.979  -2.943  1.00  0.00     0.020 C 
BRANCH   4   5
ATOM      5  C   UNL     1      -3.822  -5.574  -4.338  1.00  0.00     0.064 C 
ATOM      6  O   UNL     1      -3.286  -4.521  -4.774  1.00  0.00    -0.545 OA
ATOM      7  O   UNL     1      -4.619  -6.336  -5.183  1.00  0.00    -0.545 OA
ENDBRANCH   4   5
ENDBRANCH   2   3
ENDBRANCH   1   2
BRANCH   1   8
ATOM      8  C   UNL     1      -1.697  -6.102   0.616  1.00  0.00     0.000 C 
BRANCH   8   9
ATOM      9  C   UNL     1      -1.022  -4.769   0.258  1.00  0.00    -0.000 C 
BRANCH   9  10
ATOM     10  C   UNL     1      -0.105  -4.884  -0.969  1.00  0.00    -0.003 C 
ATOM     11  C   UNL     1      -0.587  -4.037  -2.148  1.00  0.00     0.004 C 
ENDBRANCH   9  10
ENDBRANCH   8   9
ENDBRANCH   1   8
TORSDOF 6
ENDMDL
MODEL 9
REMARK VINA RESULT:    -3.853      1.661      2.844
REMARK INTER + INTRA:          -5.468
REMARK INTER:                  -4.729
REMARK INTRA:                  -0.739
REMARK UNBOUND:                -0.263
REMARK SMILES CCCCCCC=CC(=O)[O-]
REMARK SMILES IDX 5 1 6 2 7 3 8 4 9 5 10 6 11 7 4 8 3 9 2 10 1 11
REMARK H PARENT
REMARK Flexibility Score: inf
ROOT
ATOM      1  C   UNL     1      -0.362  -5.117  -1.473  1.00  0.00     0.004 C 
ENDROOT
BRANCH   1   2
ATOM      2  C   UNL     1      -1.153  -4.408  -2.579  1.00  0.00     0.027 C 
BRANCH   2   3
ATOM      3  C   UNL     1      -2.018  -5.374  -3.337  1.00  0.00    -0.025 C 
ATOM      4  C   UNL     1      -3.339  -5.429  -3.143  1.00  0.00     0.020 C 
BRANCH   4   5
ATOM      5  C   UNL     1      -4.196  -6.380  -3.868  1.00  0.00     0.064 C 
ATOM      6  O   UNL     1      -4.680  -7.369  -3.258  1.00  0.00    -0.545 OA
ATOM      7  O   UNL     1      -4.479  -6.203  -5.217  1.00  0.00    -0.545 OA
ENDBRANCH   4   5
ENDBRANCH   2   3
ENDBRANCH   1   2
BRANCH   1   8
ATOM      8  C   UNL     1      -0.669  -4.508  -0.099  1.00  0.00     0.000 C 
BRANCH   8   9
ATOM      9  C   UNL     1      -1.750  -5.319   0.631  1.00  0.00    -0.000 C 
BRANCH   9  10
ATOM     10  C   UNL     1      -1.644  -6.827   0.352  1.00  0.00    -0.003 C 
ATOM     11  C   UNL     1      -2.980  -7.446  -0.061  1.00  0.00     0.004 C 
ENDBRANCH   9  10
ENDBRANCH   8   9
ENDBRANCH   1   8
TORSDOF 6
ENDMDL
