MODEL 1
REMARK VINA RESULT:    -3.538      0.000      0.000
REMARK INTER + INTRA:          -7.898
REMARK INTER:                  -6.227
REMARK INTRA:                  -1.671
REMARK UNBOUND:                -1.671
REMARK SMILES CCCCCCC=CCCCCCCCC(=O)[O-]
REMARK SMILES IDX 10 1 11 2 12 3 13 4 14 5 15 6 16 7 17 8 18 9 9 10 8 11 7 12
REMARK SMILES IDX 6 13 5 14 4 15 3 16 2 17 1 18
REMARK H PARENT
REMARK Flexibility Score: inf
ROOT
ATOM      1  C   UNL     1      62.160  27.896  51.516  1.00  0.00     0.004 C 
ENDROOT
BRANCH   1   2
ATOM      2  C   UNL     1      62.435  29.383  51.223  1.00  0.00     0.000 C 
BRANCH   2   3
ATOM      3  C   UNL     1      61.612  30.329  52.115  1.00  0.00     0.000 C 
BRANCH   3   4
ATOM      4  C   UNL     1      61.481  31.739  51.517  1.00  0.00     0.000 C 
BRANCH   4   5
ATOM      5  C   UNL     1      61.958  31.809  50.055  1.00  0.00     0.006 C 
BRANCH   5   6
ATOM      6  C   UNL     1      63.141  32.771  49.879  1.00  0.00     0.053 C 
BRANCH   6   7
ATOM      7  C   UNL     1      62.692  34.132  49.446  1.00  0.00     0.041 C 
ATOM      8  O   UNL     1      61.716  34.258  48.659  1.00  0.00    -0.550 OA
ATOM      9  O   UNL     1      63.369  35.261  49.888  1.00  0.00    -0.550 OA
ENDBRANCH   6   7
ENDBRANCH   5   6
ENDBRANCH   4   5
ENDBRANCH   3   4
ENDBRANCH   2   3
ENDBRANCH   1   2
BRANCH   1  10
ATOM     10  C   UNL     1      61.792  27.063  50.276  1.00  0.00     0.027 C 
BRANCH  10  11
ATOM     11  C   UNL     1      60.372  26.554  50.330  1.00  0.00    -0.031 C 
ATOM     12  C   UNL     1      59.297  27.235  49.893  1.00  0.00    -0.031 C 
BRANCH  12  13
ATOM     13  C   UNL     1      59.331  28.649  49.372  1.00  0.00     0.027 C 
BRANCH  13  14
ATOM     14  C   UNL     1      58.353  29.537  50.148  1.00  0.00     0.004 C 
BRANCH  14  15
ATOM     15  C   UNL     1      57.382  28.690  50.979  1.00  0.00     0.000 C 
BRANCH  15  16
ATOM     16  C   UNL     1      55.923  29.161  50.858  1.00  0.00    -0.000 C 
BRANCH  16  17
ATOM     17  C   UNL     1      54.942  28.036  50.466  1.00  0.00    -0.003 C 
ATOM     18  C   UNL     1      55.616  26.663  50.432  1.00  0.00     0.004 C 
ENDBRANCH  16  17
ENDBRANCH  15  16
ENDBRANCH  14  15
ENDBRANCH  13  14
ENDBRANCH  12  13
ENDBRANCH  10  11
ENDBRANCH   1  10
TORSDOF 13
ENDMDL
MODEL 2
REMARK VINA RESULT:    -3.532      3.795      5.238
REMARK INTER + INTRA:          -7.887
REMARK INTER:                  -5.618
REMARK INTRA:                  -2.269
REMARK UNBOUND:                -1.671
REMARK SMILES CCCCCCC=CCCCCCCCC(=O)[O-]
REMARK SMILES IDX 10 1 11 2 12 3 13 4 14 5 15 6 16 7 17 8 18 9 9 10 8 11 7 12
REMARK SMILES IDX 6 13 5 14 4 15 3 16 2 17 1 18
REMARK H PARENT
REMARK Flexibility Score: inf
ROOT
ATOM      1  C   UNL     1      58.369  28.960  52.982  1.00  0.00     0.004 C 
ENDROOT
BRANCH   1   2
ATOM      2  C   UNL     1      58.234  30.080  51.934  1.00  0.00     0.000 C 
BRANCH   2   3
ATOM      3  C   UNL     1      59.335  30.028  50.859  1.00  0.00     0.000 C 
BRANCH   3   4
ATOM      4  C   UNL     1      58.909  29.230  49.616  1.00  0.00     0.000 C 
BRANCH   4   5
ATOM      5  C   UNL     1      59.615  27.866  49.517  1.00  0.00     0.006 C 
BRANCH   5   6
ATOM      6  C   UNL     1      60.838  27.780  50.441  1.00  0.00     0.053 C 
BRANCH   6   7
ATOM      7  C   UNL     1      61.253  26.362  50.683  1.00  0.00     0.041 C 
ATOM      8  O   UNL     1      62.447  26.008  50.491  1.00  0.00    -0.550 OA
ATOM      9  O   UNL     1      60.315  25.423  51.093  1.00  0.00    -0.550 OA
ENDBRANCH   6   7
ENDBRANCH   5   6
ENDBRANCH   4   5
ENDBRANCH   3   4
ENDBRANCH   2   3
ENDBRANCH   1   2
BRANCH   1  10
ATOM     10  C   UNL     1      57.111  28.089  53.147  1.00  0.00     0.027 C 
BRANCH  10  11
ATOM     11  C   UNL     1      57.299  26.701  52.586  1.00  0.00    -0.031 C 
ATOM     12  C   UNL     1      56.859  26.294  51.381  1.00  0.00    -0.031 C 
BRANCH  12  13
ATOM     13  C   UNL     1      56.025  27.132  50.446  1.00  0.00     0.027 C 
BRANCH  13  14
ATOM     14  C   UNL     1      54.668  26.468  50.187  1.00  0.00     0.004 C 
BRANCH  14  15
ATOM     15  C   UNL     1      53.529  27.491  50.276  1.00  0.00     0.000 C 
BRANCH  15  16
ATOM     16  C   UNL     1      54.034  28.939  50.402  1.00  0.00    -0.000 C 
BRANCH  16  17
ATOM     17  C   UNL     1      53.440  29.697  51.609  1.00  0.00    -0.003 C 
ATOM     18  C   UNL     1      54.496  30.502  52.367  1.00  0.00     0.004 C 
ENDBRANCH  16  17
ENDBRANCH  15  16
ENDBRANCH  14  15
ENDBRANCH  13  14
ENDBRANCH  12  13
ENDBRANCH  10  11
ENDBRANCH   1  10
TORSDOF 13
ENDMDL
MODEL 3
REMARK VINA RESULT:    -3.478      3.382      5.753
REMARK INTER + INTRA:          -7.792
REMARK INTER:                  -5.587
REMARK INTRA:                  -2.205
REMARK UNBOUND:                -1.671
REMARK SMILES CCCCCCC=CCCCCCCCC(=O)[O-]
REMARK SMILES IDX 10 1 11 2 12 3 13 4 14 5 15 6 16 7 17 8 18 9 9 10 8 11 7 12
REMARK SMILES IDX 6 13 5 14 4 15 3 16 2 17 1 18
REMARK H PARENT
REMARK Flexibility Score: inf
ROOT
ATOM      1  C   UNL     1      54.892  29.610  51.976  1.00  0.00     0.004 C 
ENDROOT
BRANCH   1   2
ATOM      2  C   UNL     1      56.427  29.673  52.085  1.00  0.00     0.000 C 
BRANCH   2   3
ATOM      3  C   UNL     1      57.129  29.516  50.724  1.00  0.00     0.000 C 
BRANCH   3   4
ATOM      4  C   UNL     1      58.645  29.303  50.863  1.00  0.00     0.000 C 
BRANCH   4   5
ATOM      5  C   UNL     1      59.279  28.712  49.591  1.00  0.00     0.006 C 
BRANCH   5   6
ATOM      6  C   UNL     1      60.011  27.392  49.870  1.00  0.00     0.053 C 
BRANCH   6   7
ATOM      7  C   UNL     1      61.486  27.598  50.030  1.00  0.00     0.041 C 
ATOM      8  O   UNL     1      61.987  28.745  49.883  1.00  0.00    -0.550 OA
ATOM      9  O   UNL     1      62.312  26.518  50.314  1.00  0.00    -0.550 OA
ENDBRANCH   6   7
ENDBRANCH   5   6
ENDBRANCH   4   5
ENDBRANCH   3   4
ENDBRANCH   2   3
ENDBRANCH   1   2
BRANCH   1  10
ATOM     10  C   UNL     1      54.362  29.495  50.537  1.00  0.00     0.027 C 
BRANCH  10  11
ATOM     11  C   UNL     1      53.365  28.372  50.383  1.00  0.00    -0.031 C 
ATOM     12  C   UNL     1      53.686  27.072  50.258  1.00  0.00    -0.031 C 
BRANCH  12  13
ATOM     13  C   UNL     1      55.094  26.544  50.153  1.00  0.00     0.027 C 
BRANCH  13  14
ATOM     14  C   UNL     1      55.581  26.023  51.510  1.00  0.00     0.004 C 
BRANCH  14  15
ATOM     15  C   UNL     1      57.109  25.891  51.532  1.00  0.00     0.000 C 
BRANCH  15  16
ATOM     16  C   UNL     1      57.733  26.373  52.852  1.00  0.00    -0.000 C 
BRANCH  16  17
ATOM     17  C   UNL     1      56.907  25.991  54.100  1.00  0.00    -0.003 C 
ATOM     18  C   UNL     1      56.496  27.215  54.920  1.00  0.00     0.004 C 
ENDBRANCH  16  17
ENDBRANCH  15  16
ENDBRANCH  14  15
ENDBRANCH  13  14
ENDBRANCH  12  13
ENDBRANCH  10  11
ENDBRANCH   1  10
TORSDOF 13
ENDMDL
MODEL 4
REMARK VINA RESULT:    -3.460      3.124      5.832
REMARK INTER + INTRA:          -7.761
REMARK INTER:                  -5.496
REMARK INTRA:                  -2.265
REMARK UNBOUND:                -1.671
REMARK SMILES CCCCCCC=CCCCCCCCC(=O)[O-]
REMARK SMILES IDX 10 1 11 2 12 3 13 4 14 5 15 6 16 7 17 8 18 9 9 10 8 11 7 12
REMARK SMILES IDX 6 13 5 14 4 15 3 16 2 17 1 18
REMARK H PARENT
REMARK Flexibility Score: inf
ROOT
ATOM      1  C   UNL     1      55.100  26.986  50.367  1.00  0.00     0.004 C 
ENDROOT
BRANCH   1   2
ATOM      2  C   UNL     1      56.182  27.159  51.449  1.00  0.00     0.000 C 
BRANCH   2   3
ATOM      3  C   UNL     1      57.544  27.582  50.869  1.00  0.00     0.000 C 
BRANCH   3   4
ATOM      4  C   UNL     1      57.540  29.029  50.349  1.00  0.00     0.000 C 
BRANCH   4   5
ATOM      5  C   UNL     1      58.824  29.385  49.580  1.00  0.00     0.006 C 
BRANCH   5   6
ATOM      6  C   UNL     1      59.810  28.210  49.524  1.00  0.00     0.053 C 
BRANCH   6   7
ATOM      7  C   UNL     1      61.150  28.580  50.082  1.00  0.00     0.041 C 
ATOM      8  O   UNL     1      62.201  28.095  49.584  1.00  0.00    -0.550 OA
ATOM      9  O   UNL     1      61.236  29.438  51.170  1.00  0.00    -0.550 OA
ENDBRANCH   6   7
ENDBRANCH   5   6
ENDBRANCH   4   5
ENDBRANCH   3   4
ENDBRANCH   2   3
ENDBRANCH   1   2
BRANCH   1  10
ATOM     10  C   UNL     1      53.790  27.739  50.653  1.00  0.00     0.027 C 
BRANCH  10  11
ATOM     11  C   UNL     1      53.921  29.224  50.415  1.00  0.00    -0.031 C 
ATOM     12  C   UNL     1      54.000  30.152  51.386  1.00  0.00    -0.031 C 
BRANCH  12  13
ATOM     13  C   UNL     1      53.872  29.864  52.860  1.00  0.00     0.027 C 
BRANCH  13  14
ATOM     14  C   UNL     1      54.848  30.725  53.669  1.00  0.00     0.004 C 
BRANCH  14  15
ATOM     15  C   UNL     1      56.289  30.227  53.501  1.00  0.00     0.000 C 
BRANCH  15  16
ATOM     16  C   UNL     1      57.290  31.366  53.245  1.00  0.00    -0.000 C 
BRANCH  16  17
ATOM     17  C   UNL     1      58.765  30.913  53.294  1.00  0.00    -0.003 C 
ATOM     18  C   UNL     1      58.918  29.489  53.831  1.00  0.00     0.004 C 
ENDBRANCH  16  17
ENDBRANCH  15  16
ENDBRANCH  14  15
ENDBRANCH  13  14
ENDBRANCH  12  13
ENDBRANCH  10  11
ENDBRANCH   1  10
TORSDOF 13
ENDMDL
MODEL 5
REMARK VINA RESULT:    -3.446      4.860      6.367
REMARK INTER + INTRA:          -7.736
REMARK INTER:                  -5.619
REMARK INTRA:                  -2.117
REMARK UNBOUND:                -1.671
REMARK SMILES CCCCCCC=CCCCCCCCC(=O)[O-]
REMARK SMILES IDX 10 1 11 2 12 3 13 4 14 5 15 6 16 7 17 8 18 9 9 10 8 11 7 12
REMARK SMILES IDX 6 13 5 14 4 15 3 16 2 17 1 18
REMARK H PARENT
REMARK Flexibility Score: inf
ROOT
ATOM      1  C   UNL     1      58.863  29.381  49.637  1.00  0.00     0.004 C 
ENDROOT
BRANCH   1   2
ATOM      2  C   UNL     1      59.494  27.981  49.513  1.00  0.00     0.000 C 
BRANCH   2   3
ATOM      3  C   UNL     1      61.011  27.986  49.770  1.00  0.00     0.000 C 
BRANCH   3   4
ATOM      4  C   UNL     1      61.445  26.892  50.759  1.00  0.00     0.000 C 
BRANCH   4   5
ATOM      5  C   UNL     1      60.667  25.578  50.568  1.00  0.00     0.006 C 
BRANCH   5   6
ATOM      6  C   UNL     1      61.577  24.347  50.677  1.00  0.00     0.053 C 
BRANCH   6   7
ATOM      7  C   UNL     1      60.860  23.090  50.291  1.00  0.00     0.041 C 
ATOM      8  O   UNL     1      60.142  22.484  51.131  1.00  0.00    -0.550 OA
ATOM      9  O   UNL     1      61.007  22.571  49.011  1.00  0.00    -0.550 OA
ENDBRANCH   6   7
ENDBRANCH   5   6
ENDBRANCH   4   5
ENDBRANCH   3   4
ENDBRANCH   2   3
ENDBRANCH   1   2
BRANCH   1  10
ATOM     10  C   UNL     1      57.946  29.558  50.859  1.00  0.00     0.027 C 
BRANCH  10  11
ATOM     11  C   UNL     1      58.725  29.821  52.125  1.00  0.00    -0.031 C 
ATOM     12  C   UNL     1      59.010  28.894  53.057  1.00  0.00    -0.031 C 
BRANCH  12  13
ATOM     13  C   UNL     1      58.512  27.471  53.032  1.00  0.00     0.027 C 
BRANCH  13  14
ATOM     14  C   UNL     1      57.180  27.350  53.779  1.00  0.00     0.004 C 
BRANCH  14  15
ATOM     15  C   UNL     1      56.051  26.935  52.827  1.00  0.00     0.000 C 
BRANCH  15  16
ATOM     16  C   UNL     1      56.555  26.138  51.612  1.00  0.00    -0.000 C 
BRANCH  16  17
ATOM     17  C   UNL     1      55.944  26.603  50.273  1.00  0.00    -0.003 C 
ATOM     18  C   UNL     1      54.512  26.100  50.082  1.00  0.00     0.004 C 
ENDBRANCH  16  17
ENDBRANCH  15  16
ENDBRANCH  14  15
ENDBRANCH  13  14
ENDBRANCH  12  13
ENDBRANCH  10  11
ENDBRANCH   1  10
TORSDOF 13
ENDMDL
MODEL 6
REMARK VINA RESULT:    -3.438      3.307      5.480
REMARK INTER + INTRA:          -7.722
REMARK INTER:                  -5.215
REMARK INTRA:                  -2.507
REMARK UNBOUND:                -1.671
REMARK SMILES CCCCCCC=CCCCCCCCC(=O)[O-]
REMARK SMILES IDX 10 1 11 2 12 3 13 4 14 5 15 6 16 7 17 8 18 9 9 10 8 11 7 12
REMARK SMILES IDX 6 13 5 14 4 15 3 16 2 17 1 18
REMARK H PARENT
REMARK Flexibility Score: inf
ROOT
ATOM      1  C   UNL     1      56.798  26.510  53.730  1.00  0.00     0.004 C 
ENDROOT
BRANCH   1   2
ATOM      2  C   UNL     1      57.933  26.977  52.799  1.00  0.00     0.000 C 
BRANCH   2   3
ATOM      3  C   UNL     1      58.201  25.994  51.645  1.00  0.00     0.000 C 
BRANCH   3   4
ATOM      4  C   UNL     1      58.217  26.686  50.272  1.00  0.00     0.000 C 
BRANCH   4   5
ATOM      5  C   UNL     1      57.873  28.184  50.360  1.00  0.00     0.006 C 
BRANCH   5   6
ATOM      6  C   UNL     1      58.949  29.063  49.707  1.00  0.00     0.053 C 
BRANCH   6   7
ATOM      7  C   UNL     1      60.287  28.877  50.354  1.00  0.00     0.041 C 
ATOM      8  O   UNL     1      60.510  29.353  51.499  1.00  0.00    -0.550 OA
ATOM      9  O   UNL     1      61.297  28.203  49.680  1.00  0.00    -0.550 OA
ENDBRANCH   6   7
ENDBRANCH   5   6
ENDBRANCH   4   5
ENDBRANCH   3   4
ENDBRANCH   2   3
ENDBRANCH   1   2
BRANCH   1  10
ATOM     10  C   UNL     1      55.389  26.922  53.269  1.00  0.00     0.027 C 
BRANCH  10  11
ATOM     11  C   UNL     1      54.668  25.799  52.564  1.00  0.00    -0.031 C 
ATOM     12  C   UNL     1      54.293  25.819  51.273  1.00  0.00    -0.031 C 
BRANCH  12  13
ATOM     13  C   UNL     1      54.446  27.005  50.354  1.00  0.00     0.027 C 
BRANCH  13  14
ATOM     14  C   UNL     1      53.087  27.659  50.081  1.00  0.00     0.004 C 
BRANCH  14  15
ATOM     15  C   UNL     1      53.088  29.130  50.513  1.00  0.00     0.000 C 
BRANCH  15  16
ATOM     16  C   UNL     1      54.499  29.666  50.811  1.00  0.00    -0.000 C 
BRANCH  16  17
ATOM     17  C   UNL     1      54.609  30.392  52.169  1.00  0.00    -0.003 C 
ATOM     18  C   UNL     1      56.037  30.385  52.717  1.00  0.00     0.004 C 
ENDBRANCH  16  17
ENDBRANCH  15  16
ENDBRANCH  14  15
ENDBRANCH  13  14
ENDBRANCH  12  13
ENDBRANCH  10  11
ENDBRANCH   1  10
TORSDOF 13
ENDMDL
MODEL 7
REMARK VINA RESULT:    -3.424      4.139      7.088
REMARK INTER + INTRA:          -7.697
REMARK INTER:                  -5.642
REMARK INTRA:                  -2.055
REMARK UNBOUND:                -1.671
REMARK SMILES CCCCCCC=CCCCCCCCC(=O)[O-]
REMARK SMILES IDX 10 1 11 2 12 3 13 4 14 5 15 6 16 7 17 8 18 9 9 10 8 11 7 12
REMARK SMILES IDX 6 13 5 14 4 15 3 16 2 17 1 18
REMARK H PARENT
REMARK Flexibility Score: inf
ROOT
ATOM      1  C   UNL     1      56.981  29.629  52.158  1.00  0.00     0.004 C 
ENDROOT
BRANCH   1   2
ATOM      2  C   UNL     1      55.856  29.497  51.114  1.00  0.00     0.000 C 
BRANCH   2   3
ATOM      3  C   UNL     1      55.008  28.228  51.308  1.00  0.00     0.000 C 
BRANCH   3   4
ATOM      4  C   UNL     1      55.339  27.133  50.280  1.00  0.00     0.000 C 
BRANCH   4   5
ATOM      5  C   UNL     1      56.539  26.267  50.704  1.00  0.00     0.006 C 
BRANCH   5   6
ATOM      6  C   UNL     1      56.511  25.934  52.202  1.00  0.00     0.053 C 
BRANCH   6   7
ATOM      7  C   UNL     1      57.876  25.608  52.725  1.00  0.00     0.041 C 
ATOM      8  O   UNL     1      58.674  26.533  53.037  1.00  0.00    -0.550 OA
ATOM      9  O   UNL     1      58.278  24.284  52.841  1.00  0.00    -0.550 OA
ENDBRANCH   6   7
ENDBRANCH   5   6
ENDBRANCH   4   5
ENDBRANCH   3   4
ENDBRANCH   2   3
ENDBRANCH   1   2
BRANCH   1  10
ATOM     10  C   UNL     1      58.393  29.741  51.559  1.00  0.00     0.027 C 
BRANCH  10  11
ATOM     11  C   UNL     1      58.383  29.660  50.052  1.00  0.00    -0.031 C 
ATOM     12  C   UNL     1      59.019  28.719  49.330  1.00  0.00    -0.031 C 
BRANCH  12  13
ATOM     13  C   UNL     1      59.921  27.659  49.909  1.00  0.00     0.027 C 
BRANCH  13  14
ATOM     14  C   UNL     1      61.373  28.146  49.952  1.00  0.00     0.004 C 
BRANCH  14  15
ATOM     15  C   UNL     1      62.330  26.992  50.274  1.00  0.00     0.000 C 
BRANCH  15  16
ATOM     16  C   UNL     1      61.749  25.999  51.295  1.00  0.00    -0.000 C 
BRANCH  16  17
ATOM     17  C   UNL     1      61.918  24.521  50.882  1.00  0.00    -0.003 C 
ATOM     18  C   UNL     1      60.636  23.932  50.292  1.00  0.00     0.004 C 
ENDBRANCH  16  17
ENDBRANCH  15  16
ENDBRANCH  14  15
ENDBRANCH  13  14
ENDBRANCH  12  13
ENDBRANCH  10  11
ENDBRANCH   1  10
TORSDOF 13
ENDMDL
MODEL 8
REMARK VINA RESULT:    -3.408      3.492      5.411
REMARK INTER + INTRA:          -7.669
REMARK INTER:                  -5.408
REMARK INTRA:                  -2.261
REMARK UNBOUND:                -1.671
REMARK SMILES CCCCCCC=CCCCCCCCC(=O)[O-]
REMARK SMILES IDX 10 1 11 2 12 3 13 4 14 5 15 6 16 7 17 8 18 9 9 10 8 11 7 12
REMARK SMILES IDX 6 13 5 14 4 15 3 16 2 17 1 18
REMARK H PARENT
REMARK Flexibility Score: inf
ROOT
ATOM      1  C   UNL     1      57.222  26.816  51.658  1.00  0.00     0.004 C 
ENDROOT
BRANCH   1   2
ATOM      2  C   UNL     1      57.532  27.499  50.313  1.00  0.00     0.000 C 
BRANCH   2   3
ATOM      3  C   UNL     1      57.597  29.033  50.424  1.00  0.00     0.000 C 
BRANCH   3   4
ATOM      4  C   UNL     1      58.771  29.633  49.634  1.00  0.00     0.000 C 
BRANCH   4   5
ATOM      5  C   UNL     1      60.081  29.649  50.441  1.00  0.00     0.006 C 
BRANCH   5   6
ATOM      6  C   UNL     1      61.068  28.575  49.964  1.00  0.00     0.053 C 
BRANCH   6   7
ATOM      7  C   UNL     1      61.084  27.388  50.878  1.00  0.00     0.041 C 
ATOM      8  O   UNL     1      61.412  26.254  50.439  1.00  0.00    -0.550 OA
ATOM      9  O   UNL     1      60.707  27.530  52.207  1.00  0.00    -0.550 OA
ENDBRANCH   6   7
ENDBRANCH   5   6
ENDBRANCH   4   5
ENDBRANCH   3   4
ENDBRANCH   2   3
ENDBRANCH   1   2
BRANCH   1  10
ATOM     10  C   UNL     1      55.755  26.384  51.827  1.00  0.00     0.027 C 
BRANCH  10  11
ATOM     11  C   UNL     1      55.053  26.214  50.502  1.00  0.00    -0.031 C 
ATOM     12  C   UNL     1      54.031  26.976  50.072  1.00  0.00    -0.031 C 
BRANCH  12  13
ATOM     13  C   UNL     1      53.363  28.054  50.887  1.00  0.00     0.027 C 
BRANCH  13  14
ATOM     14  C   UNL     1      53.838  29.442  50.443  1.00  0.00     0.004 C 
BRANCH  14  15
ATOM     15  C   UNL     1      54.130  30.336  51.654  1.00  0.00     0.000 C 
BRANCH  15  16
ATOM     16  C   UNL     1      54.338  29.537  52.952  1.00  0.00    -0.000 C 
BRANCH  16  17
ATOM     17  C   UNL     1      55.755  29.681  53.545  1.00  0.00    -0.003 C 
ATOM     18  C   UNL     1      56.288  31.111  53.436  1.00  0.00     0.004 C 
ENDBRANCH  16  17
ENDBRANCH  15  16
ENDBRANCH  14  15
ENDBRANCH  13  14
ENDBRANCH  12  13
ENDBRANCH  10  11
ENDBRANCH   1  10
TORSDOF 13
ENDMDL
MODEL 9
REMARK VINA RESULT:    -3.400      3.022      4.653
REMARK INTER + INTRA:          -7.654
REMARK INTER:                  -5.982
REMARK INTRA:                  -1.672
REMARK UNBOUND:                -1.671
REMARK SMILES CCCCCCC=CCCCCCCCC(=O)[O-]
REMARK SMILES IDX 10 1 11 2 12 3 13 4 14 5 15 6 16 7 17 8 18 9 9 10 8 11 7 12
REMARK SMILES IDX 6 13 5 14 4 15 3 16 2 17 1 18
REMARK H PARENT
REMARK Flexibility Score: inf
ROOT
ATOM      1  C   UNL     1      57.946  28.764  51.761  1.00  0.00     0.004 C 
ENDROOT
BRANCH   1   2
ATOM      2  C   UNL     1      57.793  29.391  50.362  1.00  0.00     0.000 C 
BRANCH   2   3
ATOM      3  C   UNL     1      59.043  29.201  49.484  1.00  0.00     0.000 C 
BRANCH   3   4
ATOM      4  C   UNL     1      60.295  28.858  50.307  1.00  0.00     0.000 C 
BRANCH   4   5
ATOM      5  C   UNL     1      60.886  27.484  49.941  1.00  0.00     0.006 C 
BRANCH   5   6
ATOM      6  C   UNL     1      62.359  27.360  50.355  1.00  0.00     0.053 C 
BRANCH   6   7
ATOM      7  C   UNL     1      63.197  28.453  49.767  1.00  0.00     0.041 C 
ATOM      8  O   UNL     1      63.379  28.513  48.521  1.00  0.00    -0.550 OA
ATOM      9  O   UNL     1      63.801  29.389  50.596  1.00  0.00    -0.550 OA
ENDBRANCH   6   7
ENDBRANCH   5   6
ENDBRANCH   4   5
ENDBRANCH   3   4
ENDBRANCH   2   3
ENDBRANCH   1   2
BRANCH   1  10
ATOM     10  C   UNL     1      57.048  27.540  52.009  1.00  0.00     0.027 C 
BRANCH  10  11
ATOM     11  C   UNL     1      56.675  26.835  50.727  1.00  0.00    -0.031 C 
ATOM     12  C   UNL     1      55.418  26.674  50.278  1.00  0.00    -0.031 C 
BRANCH  12  13
ATOM     13  C   UNL     1      54.179  27.085  51.033  1.00  0.00     0.027 C 
BRANCH  13  14
ATOM     14  C   UNL     1      53.487  28.264  50.339  1.00  0.00     0.004 C 
BRANCH  14  15
ATOM     15  C   UNL     1      54.211  29.581  50.641  1.00  0.00     0.000 C 
BRANCH  15  16
ATOM     16  C   UNL     1      53.299  30.628  51.303  1.00  0.00    -0.000 C 
BRANCH  16  17
ATOM     17  C   UNL     1      53.834  31.145  52.656  1.00  0.00    -0.003 C 
ATOM     18  C   UNL     1      54.837  30.180  53.291  1.00  0.00     0.004 C 
ENDBRANCH  16  17
ENDBRANCH  15  16
ENDBRANCH  14  15
ENDBRANCH  13  14
ENDBRANCH  12  13
ENDBRANCH  10  11
ENDBRANCH   1  10
TORSDOF 13
ENDMDL
