MODEL 1
REMARK VINA RESULT:    -5.208      0.000      0.000
REMARK INTER + INTRA:         -10.178
REMARK INTER:                  -7.947
REMARK INTRA:                  -2.231
REMARK UNBOUND:                -2.231
REMARK SMILES CC(=O)CCC=C(C)CCC=C(C)CCC=C(C)C
REMARK SMILES IDX 10 1 11 2 12 3 13 4 14 5 15 6 16 7 18 8 17 9 19 10 9 11 7 12
REMARK SMILES IDX 6 13 8 14 5 15 4 16 2 17 3 18 1 19
REMARK H PARENT
REMARK Flexibility Score: inf
ROOT
ATOM      1  C   UNL     1       6.212 -18.123  23.685  1.00  0.00     0.032 C 
ENDROOT
BRANCH   1   2
ATOM      2  C   UNL     1       6.760 -16.736  23.920  1.00  0.00    -0.028 C 
ATOM      3  C   UNL     1       7.204 -15.909  22.947  1.00  0.00    -0.077 C 
ATOM      4  C   UNL     1       7.260 -16.336  21.498  1.00  0.00     0.039 C 
BRANCH   3   5
ATOM      5  C   UNL     1       7.677 -14.521  23.322  1.00  0.00     0.034 C 
BRANCH   5   6
ATOM      6  C   UNL     1       8.660 -14.579  24.496  1.00  0.00     0.032 C 
BRANCH   6   7
ATOM      7  C   UNL     1      10.002 -15.099  24.044  1.00  0.00    -0.028 C 
ATOM      8  C   UNL     1      11.974 -16.566  24.040  1.00  0.00     0.039 C 
ATOM      9  C   UNL     1      10.656 -16.129  24.626  1.00  0.00    -0.080 C 
ATOM     10  C   UNL     1      10.115 -16.833  25.848  1.00  0.00     0.039 C 
ENDBRANCH   6   7
ENDBRANCH   5   6
ENDBRANCH   3   5
ENDBRANCH   1   2
BRANCH   1  11
ATOM     11  C   UNL     1       7.221 -19.213  24.074  1.00  0.00     0.034 C 
BRANCH  11  12
ATOM     12  C   UNL     1       8.074 -19.634  22.896  1.00  0.00    -0.077 C 
ATOM     13  C   UNL     1       7.547 -20.454  21.958  1.00  0.00    -0.028 C 
ATOM     14  C   UNL     1       9.513 -19.179  22.842  1.00  0.00     0.039 C 
BRANCH  13  15
ATOM     15  C   UNL     1       8.279 -20.931  20.727  1.00  0.00     0.035 C 
BRANCH  15  16
ATOM     16  C   UNL     1       8.965 -22.282  20.964  1.00  0.00     0.079 C 
BRANCH  16  17
ATOM     17  C   UNL     1      10.464 -22.136  21.050  1.00  0.00     0.130 C 
ATOM     18  O   UNL     1      11.079 -22.744  21.913  1.00  0.00    -0.300 OA
ATOM     19  C   UNL     1      11.217 -21.258  20.095  1.00  0.00     0.087 C 
ENDBRANCH  16  17
ENDBRANCH  15  16
ENDBRANCH  13  15
ENDBRANCH  11  12
ENDBRANCH   1  11
TORSDOF 9
ENDMDL
MODEL 2
REMARK VINA RESULT:    -4.984      1.546      2.369
REMARK INTER + INTRA:          -9.837
REMARK INTER:                  -7.492
REMARK INTRA:                  -2.345
REMARK UNBOUND:                -2.231
REMARK SMILES CC(=O)CCC=C(C)CCC=C(C)CCC=C(C)C
REMARK SMILES IDX 10 1 11 2 12 3 13 4 14 5 15 6 16 7 18 8 17 9 19 10 9 11 7 12
REMARK SMILES IDX 6 13 8 14 5 15 4 16 2 17 3 18 1 19
REMARK H PARENT
REMARK Flexibility Score: inf
ROOT
ATOM      1  C   UNL     1       6.485 -16.286  23.090  1.00  0.00     0.032 C 
ENDROOT
BRANCH   1   2
ATOM      2  C   UNL     1       7.733 -15.626  23.624  1.00  0.00    -0.028 C 
ATOM      3  C   UNL     1       8.937 -15.646  23.009  1.00  0.00    -0.077 C 
ATOM      4  C   UNL     1       9.168 -16.411  21.727  1.00  0.00     0.039 C 
BRANCH   3   5
ATOM      5  C   UNL     1      10.092 -14.894  23.634  1.00  0.00     0.034 C 
BRANCH   5   6
ATOM      6  C   UNL     1      11.245 -15.847  23.969  1.00  0.00     0.032 C 
BRANCH   6   7
ATOM      7  C   UNL     1      10.939 -16.639  25.215  1.00  0.00    -0.028 C 
ATOM      8  C   UNL     1      10.565 -18.644  26.586  1.00  0.00     0.039 C 
ATOM      9  C   UNL     1      10.836 -17.986  25.258  1.00  0.00    -0.080 C 
ATOM     10  C   UNL     1      10.968 -18.838  24.018  1.00  0.00     0.039 C 
ENDBRANCH   6   7
ENDBRANCH   5   6
ENDBRANCH   3   5
ENDBRANCH   1   2
BRANCH   1  11
ATOM     11  C   UNL     1       6.003 -17.427  23.997  1.00  0.00     0.034 C 
BRANCH  11  12
ATOM     12  C   UNL     1       6.763 -18.710  23.735  1.00  0.00    -0.077 C 
ATOM     13  C   UNL     1       6.823 -19.196  22.473  1.00  0.00    -0.028 C 
ATOM     14  C   UNL     1       7.374 -19.445  24.904  1.00  0.00     0.039 C 
BRANCH  13  15
ATOM     15  C   UNL     1       7.563 -20.451  22.072  1.00  0.00     0.035 C 
BRANCH  15  16
ATOM     16  C   UNL     1       8.828 -20.129  21.267  1.00  0.00     0.079 C 
BRANCH  16  17
ATOM     17  C   UNL     1       8.866 -20.889  19.966  1.00  0.00     0.130 C 
ATOM     18  O   UNL     1       8.183 -21.893  19.835  1.00  0.00    -0.300 OA
ATOM     19  C   UNL     1       9.729 -20.437  18.825  1.00  0.00     0.087 C 
ENDBRANCH  16  17
ENDBRANCH  15  16
ENDBRANCH  13  15
ENDBRANCH  11  12
ENDBRANCH   1  11
TORSDOF 9
ENDMDL
MODEL 3
REMARK VINA RESULT:    -4.974      1.803      1.982
REMARK INTER + INTRA:          -9.821
REMARK INTER:                  -7.473
REMARK INTRA:                  -2.348
REMARK UNBOUND:                -2.231
REMARK SMILES CC(=O)CCC=C(C)CCC=C(C)CCC=C(C)C
REMARK SMILES IDX 10 1 11 2 12 3 13 4 14 5 15 6 16 7 18 8 17 9 19 10 9 11 7 12
REMARK SMILES IDX 6 13 8 14 5 15 4 16 2 17 3 18 1 19
REMARK H PARENT
REMARK Flexibility Score: inf
ROOT
ATOM      1  C   UNL     1       6.374 -18.480  23.249  1.00  0.00     0.032 C 
ENDROOT
BRANCH   1   2
ATOM      2  C   UNL     1       6.744 -17.060  23.604  1.00  0.00    -0.028 C 
ATOM      3  C   UNL     1       7.226 -16.149  22.729  1.00  0.00    -0.077 C 
ATOM      4  C   UNL     1       7.513 -16.498  21.287  1.00  0.00     0.039 C 
BRANCH   3   5
ATOM      5  C   UNL     1       7.503 -14.742  23.213  1.00  0.00     0.034 C 
BRANCH   5   6
ATOM      6  C   UNL     1       8.539 -14.749  24.343  1.00  0.00     0.032 C 
BRANCH   6   7
ATOM      7  C   UNL     1       9.917 -15.036  23.802  1.00  0.00    -0.028 C 
ATOM      8  C   UNL     1      12.118 -16.124  23.681  1.00  0.00     0.039 C 
ATOM      9  C   UNL     1      10.788 -15.909  24.356  1.00  0.00    -0.080 C 
ATOM     10  C   UNL     1      10.472 -16.654  25.632  1.00  0.00     0.039 C 
ENDBRANCH   6   7
ENDBRANCH   5   6
ENDBRANCH   3   5
ENDBRANCH   1   2
BRANCH   1  11
ATOM     11  C   UNL     1       7.412 -19.490  23.759  1.00  0.00     0.034 C 
BRANCH  11  12
ATOM     12  C   UNL     1       8.469 -19.783  22.716  1.00  0.00    -0.077 C 
ATOM     13  C   UNL     1       8.210 -20.694  21.750  1.00  0.00    -0.028 C 
ATOM     14  C   UNL     1       9.810 -19.096  22.828  1.00  0.00     0.039 C 
BRANCH  13  15
ATOM     15  C   UNL     1       9.166 -21.063  20.640  1.00  0.00     0.035 C 
BRANCH  15  16
ATOM     16  C   UNL     1       8.553 -20.810  19.257  1.00  0.00     0.079 C 
BRANCH  16  17
ATOM     17  C   UNL     1       8.614 -19.351  18.882  1.00  0.00     0.130 C 
ATOM     18  O   UNL     1       7.634 -18.816  18.388  1.00  0.00    -0.300 OA
ATOM     19  C   UNL     1       9.857 -18.541  19.103  1.00  0.00     0.087 C 
ENDBRANCH  16  17
ENDBRANCH  15  16
ENDBRANCH  13  15
ENDBRANCH  11  12
ENDBRANCH   1  11
TORSDOF 9
ENDMDL
MODEL 4
REMARK VINA RESULT:    -4.934      1.415      2.139
REMARK INTER + INTRA:          -9.761
REMARK INTER:                  -7.442
REMARK INTRA:                  -2.319
REMARK UNBOUND:                -2.231
REMARK SMILES CC(=O)CCC=C(C)CCC=C(C)CCC=C(C)C
REMARK SMILES IDX 10 1 11 2 12 3 13 4 14 5 15 6 16 7 18 8 17 9 19 10 9 11 7 12
REMARK SMILES IDX 6 13 8 14 5 15 4 16 2 17 3 18 1 19
REMARK H PARENT
REMARK Flexibility Score: inf
ROOT
ATOM      1  C   UNL     1       6.680 -18.146  25.609  1.00  0.00     0.032 C 
ENDROOT
BRANCH   1   2
ATOM      2  C   UNL     1       7.677 -17.017  25.711  1.00  0.00    -0.028 C 
ATOM      3  C   UNL     1       7.820 -16.032  24.797  1.00  0.00    -0.077 C 
ATOM      4  C   UNL     1       7.019 -16.007  23.515  1.00  0.00     0.039 C 
BRANCH   3   5
ATOM      5  C   UNL     1       8.825 -14.930  25.055  1.00  0.00     0.034 C 
BRANCH   5   6
ATOM      6  C   UNL     1       9.707 -14.697  23.824  1.00  0.00     0.032 C 
BRANCH   6   7
ATOM      7  C   UNL     1      10.836 -15.696  23.777  1.00  0.00    -0.028 C 
ATOM      8  C   UNL     1      12.338 -17.367  22.781  1.00  0.00     0.039 C 
ATOM      9  C   UNL     1      11.156 -16.437  22.693  1.00  0.00    -0.080 C 
ATOM     10  C   UNL     1      10.357 -16.367  21.413  1.00  0.00     0.039 C 
ENDBRANCH   6   7
ENDBRANCH   5   6
ENDBRANCH   3   5
ENDBRANCH   1   2
BRANCH   1  11
ATOM     11  C   UNL     1       7.348 -19.470  25.212  1.00  0.00     0.034 C 
BRANCH  11  12
ATOM     12  C   UNL     1       7.407 -19.640  23.709  1.00  0.00    -0.077 C 
ATOM     13  C   UNL     1       8.576 -19.420  23.064  1.00  0.00    -0.028 C 
ATOM     14  C   UNL     1       6.138 -19.987  22.967  1.00  0.00     0.039 C 
BRANCH  13  15
ATOM     15  C   UNL     1       8.776 -19.574  21.575  1.00  0.00     0.035 C 
BRANCH  15  16
ATOM     16  C   UNL     1       9.984 -20.464  21.256  1.00  0.00     0.079 C 
BRANCH  16  17
ATOM     17  C   UNL     1       9.598 -21.920  21.185  1.00  0.00     0.130 C 
ATOM     18  O   UNL     1      10.424 -22.776  21.459  1.00  0.00    -0.300 OA
ATOM     19  C   UNL     1       8.214 -22.340  20.784  1.00  0.00     0.087 C 
ENDBRANCH  16  17
ENDBRANCH  15  16
ENDBRANCH  13  15
ENDBRANCH  11  12
ENDBRANCH   1  11
TORSDOF 9
ENDMDL
MODEL 5
REMARK VINA RESULT:    -4.896      1.683      2.287
REMARK INTER + INTRA:          -9.702
REMARK INTER:                  -6.998
REMARK INTRA:                  -2.704
REMARK UNBOUND:                -2.231
REMARK SMILES CC(=O)CCC=C(C)CCC=C(C)CCC=C(C)C
REMARK SMILES IDX 10 1 11 2 12 3 13 4 14 5 15 6 16 7 18 8 17 9 19 10 9 11 7 12
REMARK SMILES IDX 6 13 8 14 5 15 4 16 2 17 3 18 1 19
REMARK H PARENT
REMARK Flexibility Score: inf
ROOT
ATOM      1  C   UNL     1       6.074 -17.989  23.657  1.00  0.00     0.032 C 
ENDROOT
BRANCH   1   2
ATOM      2  C   UNL     1       6.771 -16.676  23.920  1.00  0.00    -0.028 C 
ATOM      3  C   UNL     1       7.294 -15.878  22.963  1.00  0.00    -0.077 C 
ATOM      4  C   UNL     1       7.294 -16.272  21.504  1.00  0.00     0.039 C 
BRANCH   3   5
ATOM      5  C   UNL     1       7.917 -14.559  23.367  1.00  0.00     0.034 C 
BRANCH   5   6
ATOM      6  C   UNL     1       8.745 -14.716  24.647  1.00  0.00     0.032 C 
BRANCH   6   7
ATOM      7  C   UNL     1      10.078 -15.354  24.346  1.00  0.00    -0.028 C 
ATOM      8  C   UNL     1      11.871 -17.028  24.501  1.00  0.00     0.039 C 
ATOM      9  C   UNL     1      10.534 -16.484  24.932  1.00  0.00    -0.080 C 
ATOM     10  C   UNL     1       9.753 -17.196  26.011  1.00  0.00     0.039 C 
ENDBRANCH   6   7
ENDBRANCH   5   6
ENDBRANCH   3   5
ENDBRANCH   1   2
BRANCH   1  11
ATOM     11  C   UNL     1       6.912 -19.188  24.125  1.00  0.00     0.034 C 
BRANCH  11  12
ATOM     12  C   UNL     1       7.807 -19.712  23.022  1.00  0.00    -0.077 C 
ATOM     13  C   UNL     1       9.083 -19.271  22.942  1.00  0.00    -0.028 C 
ATOM     14  C   UNL     1       7.224 -20.662  22.003  1.00  0.00     0.039 C 
BRANCH  13  15
ATOM     15  C   UNL     1      10.085 -19.727  21.908  1.00  0.00     0.035 C 
BRANCH  15  16
ATOM     16  C   UNL     1       9.962 -18.923  20.608  1.00  0.00     0.079 C 
BRANCH  16  17
ATOM     17  C   UNL     1      11.090 -17.934  20.458  1.00  0.00     0.130 C 
ATOM     18  O   UNL     1      12.134 -18.287  19.933  1.00  0.00    -0.300 OA
ATOM     19  C   UNL     1      10.955 -16.520  20.942  1.00  0.00     0.087 C 
ENDBRANCH  16  17
ENDBRANCH  15  16
ENDBRANCH  13  15
ENDBRANCH  11  12
ENDBRANCH   1  11
TORSDOF 9
ENDMDL
MODEL 6
REMARK VINA RESULT:    -4.880      2.633      6.075
REMARK INTER + INTRA:          -9.678
REMARK INTER:                  -7.541
REMARK INTRA:                  -2.137
REMARK UNBOUND:                -2.231
REMARK SMILES CC(=O)CCC=C(C)CCC=C(C)CCC=C(C)C
REMARK SMILES IDX 10 1 11 2 12 3 13 4 14 5 15 6 16 7 18 8 17 9 19 10 9 11 7 12
REMARK SMILES IDX 6 13 8 14 5 15 4 16 2 17 3 18 1 19
REMARK H PARENT
REMARK Flexibility Score: inf
ROOT
ATOM      1  C   UNL     1       6.988 -20.025  23.557  1.00  0.00     0.032 C 
ENDROOT
BRANCH   1   2
ATOM      2  C   UNL     1       7.614 -20.607  22.313  1.00  0.00    -0.028 C 
ATOM      3  C   UNL     1       8.873 -20.351  21.893  1.00  0.00    -0.077 C 
ATOM      4  C   UNL     1       9.773 -19.374  22.614  1.00  0.00     0.039 C 
BRANCH   3   5
ATOM      5  C   UNL     1       9.390 -21.049  20.654  1.00  0.00     0.034 C 
BRANCH   5   6
ATOM      6  C   UNL     1       8.394 -20.913  19.497  1.00  0.00     0.032 C 
BRANCH   6   7
ATOM      7  C   UNL     1       8.797 -19.789  18.575  1.00  0.00    -0.028 C 
ATOM      8  C   UNL     1       8.771 -17.522  17.628  1.00  0.00     0.039 C 
ATOM      9  C   UNL     1       8.237 -18.559  18.582  1.00  0.00    -0.080 C 
ATOM     10  C   UNL     1       7.091 -18.206  19.500  1.00  0.00     0.039 C 
ENDBRANCH   6   7
ENDBRANCH   5   6
ENDBRANCH   3   5
ENDBRANCH   1   2
BRANCH   1  11
ATOM     11  C   UNL     1       6.153 -18.773  23.250  1.00  0.00     0.034 C 
BRANCH  11  12
ATOM     12  C   UNL     1       6.737 -17.537  23.899  1.00  0.00    -0.077 C 
ATOM     13  C   UNL     1       7.336 -17.645  25.107  1.00  0.00    -0.028 C 
ATOM     14  C   UNL     1       6.571 -16.205  23.205  1.00  0.00     0.039 C 
BRANCH  13  15
ATOM     15  C   UNL     1       7.975 -16.498  25.853  1.00  0.00     0.035 C 
BRANCH  15  16
ATOM     16  C   UNL     1       9.505 -16.600  25.846  1.00  0.00     0.079 C 
BRANCH  16  17
ATOM     17  C   UNL     1      10.112 -15.772  24.741  1.00  0.00     0.130 C 
ATOM     18  O   UNL     1       9.580 -14.723  24.413  1.00  0.00    -0.300 OA
ATOM     19  C   UNL     1      11.359 -16.213  24.033  1.00  0.00     0.087 C 
ENDBRANCH  16  17
ENDBRANCH  15  16
ENDBRANCH  13  15
ENDBRANCH  11  12
ENDBRANCH   1  11
TORSDOF 9
ENDMDL
MODEL 7
REMARK VINA RESULT:    -4.867      1.482      5.169
REMARK INTER + INTRA:          -9.659
REMARK INTER:                  -7.341
REMARK INTRA:                  -2.318
REMARK UNBOUND:                -2.231
REMARK SMILES CC(=O)CCC=C(C)CCC=C(C)CCC=C(C)C
REMARK SMILES IDX 10 1 11 2 12 3 13 4 14 5 15 6 16 7 18 8 17 9 19 10 9 11 7 12
REMARK SMILES IDX 6 13 8 14 5 15 4 16 2 17 3 18 1 19
REMARK H PARENT
REMARK Flexibility Score: inf
ROOT
ATOM      1  C   UNL     1       7.565 -15.322  23.888  1.00  0.00     0.032 C 
ENDROOT
BRANCH   1   2
ATOM      2  C   UNL     1       7.108 -16.757  23.986  1.00  0.00    -0.028 C 
ATOM      3  C   UNL     1       7.268 -17.683  23.015  1.00  0.00    -0.077 C 
ATOM      4  C   UNL     1       7.874 -17.340  21.674  1.00  0.00     0.039 C 
BRANCH   3   5
ATOM      5  C   UNL     1       6.808 -19.102  23.271  1.00  0.00     0.034 C 
BRANCH   5   6
ATOM      6  C   UNL     1       6.693 -19.883  21.957  1.00  0.00     0.032 C 
BRANCH   6   7
ATOM      7  C   UNL     1       7.651 -21.048  21.942  1.00  0.00    -0.028 C 
ATOM      8  C   UNL     1       9.427 -22.503  21.067  1.00  0.00     0.039 C 
ATOM      9  C   UNL     1       8.497 -21.327  20.925  1.00  0.00    -0.080 C 
ATOM     10  C   UNL     1       8.521 -20.508  19.656  1.00  0.00     0.039 C 
ENDBRANCH   6   7
ENDBRANCH   5   6
ENDBRANCH   3   5
ENDBRANCH   1   2
BRANCH   1  11
ATOM     11  C   UNL     1       8.545 -14.952  25.012  1.00  0.00     0.034 C 
BRANCH  11  12
ATOM     12  C   UNL     1       9.903 -15.587  24.804  1.00  0.00    -0.077 C 
ATOM     13  C   UNL     1      10.571 -15.356  23.651  1.00  0.00    -0.028 C 
ATOM     14  C   UNL     1      10.439 -16.517  25.866  1.00  0.00     0.039 C 
BRANCH  13  15
ATOM     15  C   UNL     1      11.939 -15.909  23.327  1.00  0.00     0.035 C 
BRANCH  15  16
ATOM     16  C   UNL     1      11.866 -17.007  22.259  1.00  0.00     0.079 C 
BRANCH  16  17
ATOM     17  C   UNL     1      12.005 -18.381  22.864  1.00  0.00     0.130 C 
ATOM     18  O   UNL     1      13.118 -18.858  23.027  1.00  0.00    -0.300 OA
ATOM     19  C   UNL     1      10.801 -19.177  23.273  1.00  0.00     0.087 C 
ENDBRANCH  16  17
ENDBRANCH  15  16
ENDBRANCH  13  15
ENDBRANCH  11  12
ENDBRANCH   1  11
TORSDOF 9
ENDMDL
MODEL 8
REMARK VINA RESULT:    -4.856      2.845      5.754
REMARK INTER + INTRA:          -9.642
REMARK INTER:                  -7.406
REMARK INTRA:                  -2.236
REMARK UNBOUND:                -2.231
REMARK SMILES CC(=O)CCC=C(C)CCC=C(C)CCC=C(C)C
REMARK SMILES IDX 10 1 11 2 12 3 13 4 14 5 15 6 16 7 18 8 17 9 19 10 9 11 7 12
REMARK SMILES IDX 6 13 8 14 5 15 4 16 2 17 3 18 1 19
REMARK H PARENT
REMARK Flexibility Score: inf
ROOT
ATOM      1  C   UNL     1       8.945 -15.493  25.589  1.00  0.00     0.032 C 
ENDROOT
BRANCH   1   2
ATOM      2  C   UNL     1       7.850 -16.528  25.503  1.00  0.00    -0.028 C 
ATOM      3  C   UNL     1       8.040 -17.861  25.626  1.00  0.00    -0.077 C 
ATOM      4  C   UNL     1       9.416 -18.460  25.797  1.00  0.00     0.039 C 
BRANCH   3   5
ATOM      5  C   UNL     1       6.840 -18.781  25.573  1.00  0.00     0.034 C 
BRANCH   5   6
ATOM      6  C   UNL     1       7.054 -19.898  24.546  1.00  0.00     0.032 C 
BRANCH   6   7
ATOM      7  C   UNL     1       6.781 -19.399  23.149  1.00  0.00    -0.028 C 
ATOM      8  C   UNL     1       7.243 -18.946  20.779  1.00  0.00     0.039 C 
ATOM      9  C   UNL     1       7.672 -19.446  22.134  1.00  0.00    -0.080 C 
ATOM     10  C   UNL     1       9.077 -19.964  22.325  1.00  0.00     0.039 C 
ENDBRANCH   6   7
ENDBRANCH   5   6
ENDBRANCH   3   5
ENDBRANCH   1   2
BRANCH   1  11
ATOM     11  C   UNL     1       9.240 -14.851  24.226  1.00  0.00     0.034 C 
BRANCH  11  12
ATOM     12  C   UNL     1      10.190 -15.695  23.402  1.00  0.00    -0.077 C 
ATOM     13  C   UNL     1      11.459 -15.875  23.836  1.00  0.00    -0.028 C 
ATOM     14  C   UNL     1       9.708 -16.255  22.085  1.00  0.00     0.039 C 
BRANCH  13  15
ATOM     15  C   UNL     1      12.498 -16.708  23.124  1.00  0.00     0.035 C 
BRANCH  15  16
ATOM     16  C   UNL     1      13.740 -15.881  22.769  1.00  0.00     0.079 C 
BRANCH  16  17
ATOM     17  C   UNL     1      13.409 -14.767  21.807  1.00  0.00     0.130 C 
ATOM     18  O   UNL     1      13.544 -13.606  22.160  1.00  0.00    -0.300 OA
ATOM     19  C   UNL     1      12.916 -15.058  20.420  1.00  0.00     0.087 C 
ENDBRANCH  16  17
ENDBRANCH  15  16
ENDBRANCH  13  15
ENDBRANCH  11  12
ENDBRANCH   1  11
TORSDOF 9
ENDMDL
MODEL 9
REMARK VINA RESULT:    -4.840      2.509      4.426
REMARK INTER + INTRA:          -9.617
REMARK INTER:                  -6.957
REMARK INTRA:                  -2.660
REMARK UNBOUND:                -2.231
REMARK SMILES CC(=O)CCC=C(C)CCC=C(C)CCC=C(C)C
REMARK SMILES IDX 10 1 11 2 12 3 13 4 14 5 15 6 16 7 18 8 17 9 19 10 9 11 7 12
REMARK SMILES IDX 6 13 8 14 5 15 4 16 2 17 3 18 1 19
REMARK H PARENT
REMARK Flexibility Score: inf
ROOT
ATOM      1  C   UNL     1      10.109 -16.591  26.130  1.00  0.00     0.032 C 
ENDROOT
BRANCH   1   2
ATOM      2  C   UNL     1       8.999 -15.886  25.390  1.00  0.00    -0.028 C 
ATOM      3  C   UNL     1       9.159 -15.197  24.237  1.00  0.00    -0.077 C 
ATOM      4  C   UNL     1      10.516 -15.005  23.602  1.00  0.00     0.039 C 
BRANCH   3   5
ATOM      5  C   UNL     1       7.944 -14.585  23.574  1.00  0.00     0.034 C 
BRANCH   5   6
ATOM      6  C   UNL     1       6.911 -15.662  23.227  1.00  0.00     0.032 C 
BRANCH   6   7
ATOM      7  C   UNL     1       7.442 -16.587  22.160  1.00  0.00    -0.028 C 
ATOM      8  C   UNL     1       8.054 -18.731  21.125  1.00  0.00     0.039 C 
ATOM      9  C   UNL     1       7.541 -17.929  22.293  1.00  0.00    -0.080 C 
ATOM     10  C   UNL     1       7.171 -18.635  23.576  1.00  0.00     0.039 C 
ENDBRANCH   6   7
ENDBRANCH   5   6
ENDBRANCH   3   5
ENDBRANCH   1   2
BRANCH   1  11
ATOM     11  C   UNL     1      10.119 -18.101  25.851  1.00  0.00     0.034 C 
BRANCH  11  12
ATOM     12  C   UNL     1      11.225 -18.488  24.893  1.00  0.00    -0.077 C 
ATOM     13  C   UNL     1      10.949 -18.594  23.573  1.00  0.00    -0.028 C 
ATOM     14  C   UNL     1      12.591 -18.809  25.452  1.00  0.00     0.039 C 
BRANCH  13  15
ATOM     15  C   UNL     1      11.962 -18.950  22.510  1.00  0.00     0.035 C 
BRANCH  15  16
ATOM     16  C   UNL     1      12.490 -17.703  21.791  1.00  0.00     0.079 C 
BRANCH  16  17
ATOM     17  C   UNL     1      13.813 -17.254  22.356  1.00  0.00     0.130 C 
ATOM     18  O   UNL     1      13.944 -16.102  22.741  1.00  0.00    -0.300 OA
ATOM     19  C   UNL     1      14.977 -18.196  22.457  1.00  0.00     0.087 C 
ENDBRANCH  16  17
ENDBRANCH  15  16
ENDBRANCH  13  15
ENDBRANCH  11  12
ENDBRANCH   1  11
TORSDOF 9
ENDMDL
