MODEL 1
REMARK VINA RESULT:    -5.146      0.000      0.000
REMARK INTER + INTRA:          -5.911
REMARK INTER:                  -5.898
REMARK INTRA:                  -0.013
REMARK UNBOUND:                -0.013
REMARK SMILES COc1ccc(C(C)=O)cc1O
REMARK SMILES IDX 6 1 10 2 11 3 3 4 4 5 5 6 7 7 8 8 9 9 12 10 2 12 1 13
REMARK H PARENT 12 11
REMARK Flexibility Score: inf
ROOT
ATOM      1  C   UNL     1      31.268   8.846 105.869  1.00  0.00     0.021 A 
ATOM      2  C   UNL     1      31.948   8.512 107.053  1.00  0.00     0.062 A 
ATOM      3  C   UNL     1      32.039   7.182 107.482  1.00  0.00     0.158 A 
ATOM      4  C   UNL     1      31.447   6.155 106.727  1.00  0.00     0.160 A 
ATOM      5  C   UNL     1      30.765   6.484 105.540  1.00  0.00     0.051 A 
ATOM      6  C   UNL     1      30.677   7.814 105.118  1.00  0.00     0.016 A 
ENDROOT
BRANCH   1   7
ATOM      7  C   UNL     1      31.184  10.266 105.434  1.00  0.00     0.159 C 
ATOM      8  C   UNL     1      29.886  11.016 105.420  1.00  0.00     0.093 C 
ATOM      9  O   UNL     1      32.227  10.870 105.063  1.00  0.00    -0.295 OA
ENDBRANCH   1   7
BRANCH   3  10
ATOM     10  O   UNL     1      32.726   6.901 108.663  1.00  0.00    -0.504 OA
ATOM     11  H   UNL     1      32.258   6.850 109.560  1.00  0.00     0.293 HD
ENDBRANCH   3  10
BRANCH   4  12
ATOM     12  O   UNL     1      31.554   4.831 107.179  1.00  0.00    -0.493 OA
ATOM     13  C   UNL     1      32.736   4.042 107.094  1.00  0.00     0.278 C 
ENDBRANCH   4  12
TORSDOF 3
ENDMDL
MODEL 2
REMARK VINA RESULT:    -4.845      2.493      5.017
REMARK INTER + INTRA:          -5.567
REMARK INTER:                  -5.464
REMARK INTRA:                  -0.103
REMARK UNBOUND:                -0.013
REMARK SMILES COc1ccc(C(C)=O)cc1O
REMARK SMILES IDX 6 1 10 2 11 3 3 4 4 5 5 6 7 7 8 8 9 9 12 10 2 12 1 13
REMARK H PARENT 12 11
REMARK Flexibility Score: inf
ROOT
ATOM      1  C   UNL     1      32.716   8.131 107.501  1.00  0.00     0.021 A 
ATOM      2  C   UNL     1      34.030   8.511 107.828  1.00  0.00     0.062 A 
ATOM      3  C   UNL     1      34.724   9.445 107.050  1.00  0.00     0.158 A 
ATOM      4  C   UNL     1      34.111  10.021 105.925  1.00  0.00     0.160 A 
ATOM      5  C   UNL     1      32.796   9.645 105.593  1.00  0.00     0.051 A 
ATOM      6  C   UNL     1      32.109   8.711 106.373  1.00  0.00     0.016 A 
ENDROOT
BRANCH   1   7
ATOM      7  C   UNL     1      31.998   7.135 108.341  1.00  0.00     0.159 C 
ATOM      8  C   UNL     1      32.169   5.658 108.142  1.00  0.00     0.093 C 
ATOM      9  O   UNL     1      31.219   7.529 109.252  1.00  0.00    -0.295 OA
ENDBRANCH   1   7
BRANCH   3  10
ATOM     10  O   UNL     1      36.025   9.791 107.416  1.00  0.00    -0.504 OA
ATOM     11  H   UNL     1      36.523  10.556 106.980  1.00  0.00     0.293 HD
ENDBRANCH   3  10
BRANCH   4  12
ATOM     12  O   UNL     1      34.830  10.956 105.164  1.00  0.00    -0.493 OA
ATOM     13  C   UNL     1      34.335  12.234 104.777  1.00  0.00     0.278 C 
ENDBRANCH   4  12
TORSDOF 3
ENDMDL
MODEL 3
REMARK VINA RESULT:    -4.839      0.840      1.939
REMARK INTER + INTRA:          -5.560
REMARK INTER:                  -5.454
REMARK INTRA:                  -0.105
REMARK UNBOUND:                -0.013
REMARK SMILES COc1ccc(C(C)=O)cc1O
REMARK SMILES IDX 6 1 10 2 11 3 3 4 4 5 5 6 7 7 8 8 9 9 12 10 2 12 1 13
REMARK H PARENT 12 11
REMARK Flexibility Score: inf
ROOT
ATOM      1  C   UNL     1      31.482   8.668 106.084  1.00  0.00     0.021 A 
ATOM      2  C   UNL     1      30.980   7.564 105.371  1.00  0.00     0.062 A 
ATOM      3  C   UNL     1      31.129   6.262 105.862  1.00  0.00     0.158 A 
ATOM      4  C   UNL     1      31.787   6.039 107.084  1.00  0.00     0.160 A 
ATOM      5  C   UNL     1      32.290   7.140 107.801  1.00  0.00     0.051 A 
ATOM      6  C   UNL     1      32.140   8.438 107.306  1.00  0.00     0.016 A 
ENDROOT
BRANCH   1   7
ATOM      7  C   UNL     1      31.313  10.044 105.543  1.00  0.00     0.159 C 
ATOM      8  C   UNL     1      29.967  10.698 105.448  1.00  0.00     0.093 C 
ATOM      9  O   UNL     1      32.321  10.691 105.150  1.00  0.00    -0.295 OA
ENDBRANCH   1   7
BRANCH   3  10
ATOM     10  O   UNL     1      30.613   5.200 105.119  1.00  0.00    -0.504 OA
ATOM     11  H   UNL     1      31.208   4.505 104.686  1.00  0.00     0.293 HD
ENDBRANCH   3  10
BRANCH   4  12
ATOM     12  O   UNL     1      31.921   4.722 107.552  1.00  0.00    -0.493 OA
ATOM     13  C   UNL     1      33.039   3.881 107.286  1.00  0.00     0.278 C 
ENDBRANCH   4  12
TORSDOF 3
ENDMDL
MODEL 4
REMARK VINA RESULT:    -4.833      2.351      5.631
REMARK INTER + INTRA:          -5.552
REMARK INTER:                  -5.448
REMARK INTRA:                  -0.104
REMARK UNBOUND:                -0.013
REMARK SMILES COc1ccc(C(C)=O)cc1O
REMARK SMILES IDX 6 1 10 2 11 3 3 4 4 5 5 6 7 7 8 8 9 9 12 10 2 12 1 13
REMARK H PARENT 12 11
REMARK Flexibility Score: inf
ROOT
ATOM      1  C   UNL     1      31.538   9.297 105.474  1.00  0.00     0.021 A 
ATOM      2  C   UNL     1      30.636  10.359 105.289  1.00  0.00     0.062 A 
ATOM      3  C   UNL     1      31.093  11.670 105.110  1.00  0.00     0.158 A 
ATOM      4  C   UNL     1      32.471  11.943 105.113  1.00  0.00     0.160 A 
ATOM      5  C   UNL     1      33.379  10.884 105.298  1.00  0.00     0.051 A 
ATOM      6  C   UNL     1      32.916   9.577 105.476  1.00  0.00     0.016 A 
ENDROOT
BRANCH   1   7
ATOM      7  C   UNL     1      31.029   7.911 105.662  1.00  0.00     0.159 C 
ATOM      8  C   UNL     1      31.339   7.113 106.893  1.00  0.00     0.093 C 
ATOM      9  O   UNL     1      30.315   7.380 104.769  1.00  0.00    -0.295 OA
ENDBRANCH   1   7
BRANCH   3  10
ATOM     10  O   UNL     1      30.158  12.690 104.930  1.00  0.00    -0.504 OA
ATOM     11  H   UNL     1      29.232  12.513 104.561  1.00  0.00     0.293 HD
ENDBRANCH   3  10
BRANCH   4  12
ATOM     12  O   UNL     1      32.902  13.267 104.932  1.00  0.00    -0.493 OA
ATOM     13  C   UNL     1      34.255  13.653 104.715  1.00  0.00     0.278 C 
ENDBRANCH   4  12
TORSDOF 3
ENDMDL
MODEL 5
REMARK VINA RESULT:    -4.628      2.869      3.966
REMARK INTER + INTRA:          -5.318
REMARK INTER:                  -5.193
REMARK INTRA:                  -0.125
REMARK UNBOUND:                -0.013
REMARK SMILES COc1ccc(C(C)=O)cc1O
REMARK SMILES IDX 6 1 10 2 11 3 3 4 4 5 5 6 7 7 8 8 9 9 12 10 2 12 1 13
REMARK H PARENT 12 11
REMARK Flexibility Score: inf
ROOT
ATOM      1  C   UNL     1      34.535   9.780 106.678  1.00  0.00     0.021 A 
ATOM      2  C   UNL     1      33.519   9.911 105.716  1.00  0.00     0.062 A 
ATOM      3  C   UNL     1      32.362   9.125 105.778  1.00  0.00     0.158 A 
ATOM      4  C   UNL     1      32.201   8.187 106.812  1.00  0.00     0.160 A 
ATOM      5  C   UNL     1      33.216   8.052 107.778  1.00  0.00     0.051 A 
ATOM      6  C   UNL     1      34.369   8.840 107.710  1.00  0.00     0.016 A 
ENDROOT
BRANCH   1   7
ATOM      7  C   UNL     1      35.756  10.627 106.592  1.00  0.00     0.159 C 
ATOM      8  C   UNL     1      36.250  11.429 107.760  1.00  0.00     0.093 C 
ATOM      9  O   UNL     1      36.406  10.681 105.513  1.00  0.00    -0.295 OA
ENDBRANCH   1   7
BRANCH   3  10
ATOM     10  O   UNL     1      31.382   9.293 104.800  1.00  0.00    -0.504 OA
ATOM     11  H   UNL     1      30.856  10.153 104.705  1.00  0.00     0.293 HD
ENDBRANCH   3  10
BRANCH   4  12
ATOM     12  O   UNL     1      31.032   7.413 106.850  1.00  0.00    -0.493 OA
ATOM     13  C   UNL     1      30.911   6.105 106.299  1.00  0.00     0.278 C 
ENDBRANCH   4  12
TORSDOF 3
ENDMDL
MODEL 6
REMARK VINA RESULT:    -4.602      2.710      3.396
REMARK INTER + INTRA:          -5.288
REMARK INTER:                  -5.175
REMARK INTRA:                  -0.113
REMARK UNBOUND:                -0.013
REMARK SMILES COc1ccc(C(C)=O)cc1O
REMARK SMILES IDX 6 1 10 2 11 3 3 4 4 5 5 6 7 7 8 8 9 9 12 10 2 12 1 13
REMARK H PARENT 12 11
REMARK Flexibility Score: inf
ROOT
ATOM      1  C   UNL     1      34.406   9.634 106.799  1.00  0.00     0.021 A 
ATOM      2  C   UNL     1      34.290   8.689 107.833  1.00  0.00     0.062 A 
ATOM      3  C   UNL     1      33.166   7.860 107.929  1.00  0.00     0.158 A 
ATOM      4  C   UNL     1      32.131   7.962 106.984  1.00  0.00     0.160 A 
ATOM      5  C   UNL     1      32.243   8.907 105.946  1.00  0.00     0.051 A 
ATOM      6  C   UNL     1      33.367   9.732 105.857  1.00  0.00     0.016 A 
ENDROOT
BRANCH   1   7
ATOM      7  C   UNL     1      35.610  10.505 106.717  1.00  0.00     0.159 C 
ATOM      8  C   UNL     1      36.020  11.399 107.849  1.00  0.00     0.093 C 
ATOM      9  O   UNL     1      36.317  10.501 105.673  1.00  0.00    -0.295 OA
ENDBRANCH   1   7
BRANCH   3  10
ATOM     10  O   UNL     1      33.098   6.937 108.973  1.00  0.00    -0.504 OA
ATOM     11  H   UNL     1      33.467   7.137 109.894  1.00  0.00     0.293 HD
ENDBRANCH   3  10
BRANCH   4  12
ATOM     12  O   UNL     1      31.016   7.118 107.103  1.00  0.00    -0.493 OA
ATOM     13  C   UNL     1      30.841   5.905 106.379  1.00  0.00     0.278 C 
ENDBRANCH   4  12
TORSDOF 3
ENDMDL
MODEL 7
REMARK VINA RESULT:    -4.596      2.718      5.236
REMARK INTER + INTRA:          -5.281
REMARK INTER:                  -5.169
REMARK INTRA:                  -0.113
REMARK UNBOUND:                -0.013
REMARK SMILES COc1ccc(C(C)=O)cc1O
REMARK SMILES IDX 6 1 10 2 11 3 3 4 4 5 5 6 7 7 8 8 9 9 12 10 2 12 1 13
REMARK H PARENT 12 11
REMARK Flexibility Score: inf
ROOT
ATOM      1  C   UNL     1      32.830   8.298 107.307  1.00  0.00     0.021 A 
ATOM      2  C   UNL     1      32.739   9.087 106.147  1.00  0.00     0.062 A 
ATOM      3  C   UNL     1      33.784   9.939 105.771  1.00  0.00     0.158 A 
ATOM      4  C   UNL     1      34.948  10.016 106.554  1.00  0.00     0.160 A 
ATOM      5  C   UNL     1      35.045   9.228 107.716  1.00  0.00     0.051 A 
ATOM      6  C   UNL     1      33.997   8.380 108.087  1.00  0.00     0.016 A 
ENDROOT
BRANCH   1   7
ATOM      7  C   UNL     1      31.706   7.399 107.687  1.00  0.00     0.159 C 
ATOM      8  C   UNL     1      30.970   6.576 106.673  1.00  0.00     0.093 C 
ATOM      9  O   UNL     1      31.352   7.317 108.895  1.00  0.00    -0.295 OA
ENDBRANCH   1   7
BRANCH   3  10
ATOM     10  O   UNL     1      33.646  10.701 104.610  1.00  0.00    -0.504 OA
ATOM     11  H   UNL     1      34.433  10.920 104.012  1.00  0.00     0.293 HD
ENDBRANCH   3  10
BRANCH   4  12
ATOM     12  O   UNL     1      35.980  10.878 106.153  1.00  0.00    -0.493 OA
ATOM     13  C   UNL     1      36.301  12.107 106.796  1.00  0.00     0.278 C 
ENDBRANCH   4  12
TORSDOF 3
ENDMDL
MODEL 8
REMARK VINA RESULT:    -4.539      1.931      5.265
REMARK INTER + INTRA:          -5.215
REMARK INTER:                  -5.103
REMARK INTRA:                  -0.112
REMARK UNBOUND:                -0.013
REMARK SMILES COc1ccc(C(C)=O)cc1O
REMARK SMILES IDX 6 1 10 2 11 3 3 4 4 5 5 6 7 7 8 8 9 9 12 10 2 12 1 13
REMARK H PARENT 12 11
REMARK Flexibility Score: inf
ROOT
ATOM      1  C   UNL     1      32.774   8.054 107.495  1.00  0.00     0.021 A 
ATOM      2  C   UNL     1      31.858   8.592 106.574  1.00  0.00     0.062 A 
ATOM      3  C   UNL     1      32.241   9.600 105.682  1.00  0.00     0.158 A 
ATOM      4  C   UNL     1      33.558  10.091 105.695  1.00  0.00     0.160 A 
ATOM      5  C   UNL     1      34.478   9.556 106.615  1.00  0.00     0.051 A 
ATOM      6  C   UNL     1      34.089   8.550 107.504  1.00  0.00     0.016 A 
ENDROOT
BRANCH   1   7
ATOM      7  C   UNL     1      32.344   6.983 108.434  1.00  0.00     0.159 C 
ATOM      8  C   UNL     1      32.783   5.559 108.267  1.00  0.00     0.093 C 
ATOM      9  O   UNL     1      31.589   7.266 109.404  1.00  0.00    -0.295 OA
ENDBRANCH   1   7
BRANCH   3  10
ATOM     10  O   UNL     1      31.296  10.101 104.786  1.00  0.00    -0.504 OA
ATOM     11  H   UNL     1      31.389  11.013 104.357  1.00  0.00     0.293 HD
ENDBRANCH   3  10
BRANCH   4  12
ATOM     12  O   UNL     1      33.915  11.102 104.789  1.00  0.00    -0.493 OA
ATOM     13  C   UNL     1      33.845  12.497 105.068  1.00  0.00     0.278 C 
ENDBRANCH   4  12
TORSDOF 3
ENDMDL
MODEL 9
REMARK VINA RESULT:    -4.296      3.048      4.993
REMARK INTER + INTRA:          -4.938
REMARK INTER:                  -4.978
REMARK INTRA:                   0.040
REMARK UNBOUND:                -0.013
REMARK SMILES COc1ccc(C(C)=O)cc1O
REMARK SMILES IDX 6 1 10 2 11 3 3 4 4 5 5 6 7 7 8 8 9 9 12 10 2 12 1 13
REMARK H PARENT 12 11
REMARK Flexibility Score: inf
ROOT
ATOM      1  C   UNL     1      32.886   8.512 106.924  1.00  0.00     0.021 A 
ATOM      2  C   UNL     1      34.118   8.677 107.581  1.00  0.00     0.062 A 
ATOM      3  C   UNL     1      35.045   9.630 107.144  1.00  0.00     0.158 A 
ATOM      4  C   UNL     1      34.754  10.442 106.034  1.00  0.00     0.160 A 
ATOM      5  C   UNL     1      33.521  10.281 105.374  1.00  0.00     0.051 A 
ATOM      6  C   UNL     1      32.600   9.327 105.814  1.00  0.00     0.016 A 
ENDROOT
BRANCH   1   7
ATOM      7  C   UNL     1      31.915   7.492 107.406  1.00  0.00     0.159 C 
ATOM      8  C   UNL     1      31.728   7.203 108.866  1.00  0.00     0.093 C 
ATOM      9  O   UNL     1      31.222   6.845 106.575  1.00  0.00    -0.295 OA
ENDBRANCH   1   7
BRANCH   3  10
ATOM     10  O   UNL     1      36.254   9.756 107.829  1.00  0.00    -0.504 OA
ATOM     11  H   UNL     1      37.136   9.885 107.348  1.00  0.00     0.293 HD
ENDBRANCH   3  10
BRANCH   4  12
ATOM     12  O   UNL     1      35.701  11.389 105.618  1.00  0.00    -0.493 OA
ATOM     13  C   UNL     1      36.945  11.070 105.002  1.00  0.00     0.278 C 
ENDBRANCH   4  12
TORSDOF 3
ENDMDL
