MODEL 1
REMARK VINA RESULT:    -2.519      0.000      0.000
REMARK INTER + INTRA:          -4.633
REMARK INTER:                  -3.992
REMARK INTRA:                  -0.642
REMARK UNBOUND:                -0.642
REMARK SMILES CCCCCCCCCCCC(=O)[O-]
REMARK SMILES IDX 7 1 8 2 9 3 10 4 11 5 12 6 13 7 14 8 6 9 5 10 4 11 3 12 2 13
REMARK SMILES IDX 1 14
REMARK H PARENT
REMARK Flexibility Score: inf
ROOT
ATOM      1  C   UNL     1      23.659  54.453  31.140  1.00  0.00     0.000 C 
ENDROOT
BRANCH   1   2
ATOM      2  C   UNL     1      22.331  55.006  30.599  1.00  0.00     0.000 C 
BRANCH   2   3
ATOM      3  C   UNL     1      22.037  54.544  29.163  1.00  0.00     0.000 C 
BRANCH   3   4
ATOM      4  C   UNL     1      22.770  53.245  28.797  1.00  0.00     0.006 C 
BRANCH   4   5
ATOM      5  C   UNL     1      23.693  53.458  27.593  1.00  0.00     0.053 C 
BRANCH   5   6
ATOM      6  C   UNL     1      23.929  52.166  26.878  1.00  0.00     0.041 C 
ATOM      7  O   UNL     1      23.682  51.071  27.449  1.00  0.00    -0.550 OA
ATOM      8  O   UNL     1      24.377  52.170  25.563  1.00  0.00    -0.550 OA
ENDBRANCH   5   6
ENDBRANCH   4   5
ENDBRANCH   3   4
ENDBRANCH   2   3
ENDBRANCH   1   2
BRANCH   1   9
ATOM      9  C   UNL     1      24.031  55.125  32.469  1.00  0.00     0.000 C 
BRANCH   9  10
ATOM     10  C   UNL     1      24.406  54.110  33.561  1.00  0.00    -0.000 C 
BRANCH  10  11
ATOM     11  C   UNL     1      24.293  54.698  34.979  1.00  0.00    -0.000 C 
BRANCH  11  12
ATOM     12  C   UNL     1      22.834  54.855  35.437  1.00  0.00    -0.000 C 
BRANCH  12  13
ATOM     13  C   UNL     1      21.950  53.676  35.002  1.00  0.00    -0.003 C 
ATOM     14  C   UNL     1      20.886  54.126  34.006  1.00  0.00     0.004 C 
ENDBRANCH  12  13
ENDBRANCH  11  12
ENDBRANCH  10  11
ENDBRANCH   9  10
ENDBRANCH   1   9
TORSDOF 10
ENDMDL
MODEL 2
REMARK VINA RESULT:    -2.349      3.777      7.049
REMARK INTER + INTRA:          -4.364
REMARK INTER:                  -3.938
REMARK INTRA:                  -0.426
REMARK UNBOUND:                -0.642
REMARK SMILES CCCCCCCCCCCC(=O)[O-]
REMARK SMILES IDX 7 1 8 2 9 3 10 4 11 5 12 6 13 7 14 8 6 9 5 10 4 11 3 12 2 13
REMARK SMILES IDX 1 14
REMARK H PARENT
REMARK Flexibility Score: inf
ROOT
ATOM      1  C   UNL     1      23.608  54.388  30.707  1.00  0.00     0.000 C 
ENDROOT
BRANCH   1   2
ATOM      2  C   UNL     1      23.971  55.117  32.010  1.00  0.00     0.000 C 
BRANCH   2   3
ATOM      3  C   UNL     1      24.687  54.207  33.020  1.00  0.00     0.000 C 
BRANCH   3   4
ATOM      4  C   UNL     1      24.250  54.471  34.469  1.00  0.00     0.006 C 
BRANCH   4   5
ATOM      5  C   UNL     1      22.865  55.125  34.512  1.00  0.00     0.053 C 
BRANCH   5   6
ATOM      6  C   UNL     1      21.987  54.428  35.502  1.00  0.00     0.041 C 
ATOM      7  O   UNL     1      22.275  53.268  35.900  1.00  0.00    -0.550 OA
ATOM      8  O   UNL     1      20.875  55.078  36.023  1.00  0.00    -0.550 OA
ENDBRANCH   5   6
ENDBRANCH   4   5
ENDBRANCH   3   4
ENDBRANCH   2   3
ENDBRANCH   1   2
BRANCH   1   9
ATOM      9  C   UNL     1      22.209  54.793  30.223  1.00  0.00     0.000 C 
BRANCH   9  10
ATOM     10  C   UNL     1      22.046  54.659  28.701  1.00  0.00    -0.000 C 
BRANCH  10  11
ATOM     11  C   UNL     1      23.128  53.764  28.068  1.00  0.00    -0.000 C 
BRANCH  11  12
ATOM     12  C   UNL     1      22.800  52.268  28.188  1.00  0.00    -0.000 C 
BRANCH  12  13
ATOM     13  C   UNL     1      23.851  51.377  27.510  1.00  0.00    -0.003 C 
ATOM     14  C   UNL     1      24.269  51.951  26.160  1.00  0.00     0.004 C 
ENDBRANCH  12  13
ENDBRANCH  11  12
ENDBRANCH  10  11
ENDBRANCH   9  10
ENDBRANCH   1   9
TORSDOF 10
ENDMDL
MODEL 3
REMARK VINA RESULT:    -2.289      1.189      2.300
REMARK INTER + INTRA:          -4.269
REMARK INTER:                  -3.550
REMARK INTRA:                  -0.719
REMARK UNBOUND:                -0.642
REMARK SMILES CCCCCCCCCCCC(=O)[O-]
REMARK SMILES IDX 7 1 8 2 9 3 10 4 11 5 12 6 13 7 14 8 6 9 5 10 4 11 3 12 2 13
REMARK SMILES IDX 1 14
REMARK H PARENT
REMARK Flexibility Score: inf
ROOT
ATOM      1  C   UNL     1      21.958  55.113  31.970  1.00  0.00     0.000 C 
ENDROOT
BRANCH   1   2
ATOM      2  C   UNL     1      20.977  54.995  30.793  1.00  0.00     0.000 C 
BRANCH   2   3
ATOM      3  C   UNL     1      21.669  55.125  29.428  1.00  0.00     0.000 C 
BRANCH   3   4
ATOM      4  C   UNL     1      22.898  54.213  29.298  1.00  0.00     0.006 C 
BRANCH   4   5
ATOM      5  C   UNL     1      22.501  52.832  28.766  1.00  0.00     0.053 C 
BRANCH   5   6
ATOM      6  C   UNL     1      23.437  52.400  27.681  1.00  0.00     0.041 C 
ATOM      7  O   UNL     1      24.032  53.259  26.977  1.00  0.00    -0.550 OA
ATOM      8  O   UNL     1      23.689  51.049  27.478  1.00  0.00    -0.550 OA
ENDBRANCH   5   6
ENDBRANCH   4   5
ENDBRANCH   3   4
ENDBRANCH   2   3
ENDBRANCH   1   2
BRANCH   1   9
ATOM      9  C   UNL     1      21.698  54.016  33.012  1.00  0.00     0.000 C 
BRANCH   9  10
ATOM     10  C   UNL     1      21.038  54.558  34.290  1.00  0.00    -0.000 C 
BRANCH  10  11
ATOM     11  C   UNL     1      22.067  55.082  35.309  1.00  0.00    -0.000 C 
BRANCH  11  12
ATOM     12  C   UNL     1      23.279  54.149  35.456  1.00  0.00    -0.000 C 
BRANCH  12  13
ATOM     13  C   UNL     1      24.616  54.897  35.342  1.00  0.00    -0.003 C 
ATOM     14  C   UNL     1      25.041  55.042  33.884  1.00  0.00     0.004 C 
ENDBRANCH  12  13
ENDBRANCH  11  12
ENDBRANCH  10  11
ENDBRANCH   9  10
ENDBRANCH   1   9
TORSDOF 10
ENDMDL
MODEL 4
REMARK VINA RESULT:    -2.164     23.191     26.244
REMARK INTER + INTRA:          -4.071
REMARK INTER:                  -3.115
REMARK INTRA:                  -0.956
REMARK UNBOUND:                -0.642
REMARK SMILES CCCCCCCCCCCC(=O)[O-]
REMARK SMILES IDX 7 1 8 2 9 3 10 4 11 5 12 6 13 7 14 8 6 9 5 10 4 11 3 12 2 13
REMARK SMILES IDX 1 14
REMARK H PARENT
REMARK Flexibility Score: inf
ROOT
ATOM      1  C   UNL     1      41.125  38.364  16.604  1.00  0.00     0.000 C 
ENDROOT
BRANCH   1   2
ATOM      2  C   UNL     1      40.127  39.513  16.817  1.00  0.00     0.000 C 
BRANCH   2   3
ATOM      3  C   UNL     1      40.463  40.371  18.046  1.00  0.00     0.000 C 
BRANCH   3   4
ATOM      4  C   UNL     1      39.285  40.490  19.025  1.00  0.00     0.006 C 
BRANCH   4   5
ATOM      5  C   UNL     1      38.542  39.156  19.151  1.00  0.00     0.053 C 
BRANCH   5   6
ATOM      6  C   UNL     1      37.510  39.231  20.231  1.00  0.00     0.041 C 
ATOM      7  O   UNL     1      36.322  39.545  19.953  1.00  0.00    -0.550 OA
ATOM      8  O   UNL     1      37.848  38.906  21.539  1.00  0.00    -0.550 OA
ENDBRANCH   5   6
ENDBRANCH   4   5
ENDBRANCH   3   4
ENDBRANCH   2   3
ENDBRANCH   1   2
BRANCH   1   9
ATOM      9  C   UNL     1      40.460  37.188  15.875  1.00  0.00     0.000 C 
BRANCH   9  10
ATOM     10  C   UNL     1      40.580  35.866  16.650  1.00  0.00    -0.000 C 
BRANCH  10  11
ATOM     11  C   UNL     1      39.236  35.123  16.763  1.00  0.00    -0.000 C 
BRANCH  11  12
ATOM     12  C   UNL     1      38.410  35.581  17.975  1.00  0.00    -0.000 C 
BRANCH  12  13
ATOM     13  C   UNL     1      39.165  35.409  19.302  1.00  0.00    -0.003 C 
ATOM     14  C   UNL     1      38.214  35.502  20.491  1.00  0.00     0.004 C 
ENDBRANCH  12  13
ENDBRANCH  11  12
ENDBRANCH  10  11
ENDBRANCH   9  10
ENDBRANCH   1   9
TORSDOF 10
ENDMDL
MODEL 5
REMARK VINA RESULT:    -2.051     23.776     26.171
REMARK INTER + INTRA:          -3.892
REMARK INTER:                  -3.577
REMARK INTRA:                  -0.314
REMARK UNBOUND:                -0.642
REMARK SMILES CCCCCCCCCCCC(=O)[O-]
REMARK SMILES IDX 7 1 8 2 9 3 10 4 11 5 12 6 13 7 14 8 6 9 5 10 4 11 3 12 2 13
REMARK SMILES IDX 1 14
REMARK H PARENT
REMARK Flexibility Score: inf
ROOT
ATOM      1  C   UNL     1      37.240  39.389  19.975  1.00  0.00     0.000 C 
ENDROOT
BRANCH   1   2
ATOM      2  C   UNL     1      38.026  38.387  20.833  1.00  0.00     0.000 C 
BRANCH   2   3
ATOM      3  C   UNL     1      37.582  36.933  20.604  1.00  0.00     0.000 C 
BRANCH   3   4
ATOM      4  C   UNL     1      37.935  36.421  19.199  1.00  0.00     0.006 C 
BRANCH   4   5
ATOM      5  C   UNL     1      39.341  35.814  19.175  1.00  0.00     0.053 C 
BRANCH   5   6
ATOM      6  C   UNL     1      39.764  35.526  17.769  1.00  0.00     0.041 C 
ATOM      7  O   UNL     1      40.946  35.170  17.523  1.00  0.00    -0.550 OA
ATOM      8  O   UNL     1      38.838  35.605  16.736  1.00  0.00    -0.550 OA
ENDBRANCH   5   6
ENDBRANCH   4   5
ENDBRANCH   3   4
ENDBRANCH   2   3
ENDBRANCH   1   2
BRANCH   1   9
ATOM      9  C   UNL     1      38.186  40.208  19.084  1.00  0.00     0.000 C 
BRANCH   9  10
ATOM     10  C   UNL     1      39.259  39.341  18.406  1.00  0.00    -0.000 C 
BRANCH  10  11
ATOM     11  C   UNL     1      40.653  39.995  18.438  1.00  0.00    -0.000 C 
BRANCH  11  12
ATOM     12  C   UNL     1      40.938  40.836  17.184  1.00  0.00    -0.000 C 
BRANCH  12  13
ATOM     13  C   UNL     1      40.614  40.085  15.883  1.00  0.00    -0.003 C 
ATOM     14  C   UNL     1      41.052  38.626  15.969  1.00  0.00     0.004 C 
ENDBRANCH  12  13
ENDBRANCH  11  12
ENDBRANCH  10  11
ENDBRANCH   9  10
ENDBRANCH   1   9
TORSDOF 10
ENDMDL
MODEL 6
REMARK VINA RESULT:    -1.430      3.976      7.035
REMARK INTER + INTRA:          -2.908
REMARK INTER:                  -2.581
REMARK INTRA:                  -0.327
REMARK UNBOUND:                -0.642
REMARK SMILES CCCCCCCCCCCC(=O)[O-]
REMARK SMILES IDX 7 1 8 2 9 3 10 4 11 5 12 6 13 7 14 8 6 9 5 10 4 11 3 12 2 13
REMARK SMILES IDX 1 14
REMARK H PARENT
REMARK Flexibility Score: inf
ROOT
ATOM      1  C   UNL     1      21.550  54.245  30.146  1.00  0.00     0.000 C 
ENDROOT
BRANCH   1   2
ATOM      2  C   UNL     1      21.681  55.033  31.458  1.00  0.00     0.000 C 
BRANCH   2   3
ATOM      3  C   UNL     1      23.133  55.118  31.956  1.00  0.00     0.000 C 
BRANCH   3   4
ATOM      4  C   UNL     1      23.268  54.771  33.447  1.00  0.00     0.006 C 
BRANCH   4   5
ATOM      5  C   UNL     1      24.741  54.723  33.866  1.00  0.00     0.053 C 
BRANCH   5   6
ATOM      6  C   UNL     1      24.859  54.643  35.355  1.00  0.00     0.041 C 
ATOM      7  O   UNL     1      23.912  54.179  36.043  1.00  0.00    -0.550 OA
ATOM      8  O   UNL     1      26.036  55.037  35.980  1.00  0.00    -0.550 OA
ENDBRANCH   5   6
ENDBRANCH   4   5
ENDBRANCH   3   4
ENDBRANCH   2   3
ENDBRANCH   1   2
BRANCH   1   9
ATOM      9  C   UNL     1      22.201  55.007  28.982  1.00  0.00     0.000 C 
BRANCH   9  10
ATOM     10  C   UNL     1      22.971  54.082  28.026  1.00  0.00    -0.000 C 
BRANCH  10  11
ATOM     11  C   UNL     1      22.780  52.592  28.363  1.00  0.00    -0.000 C 
BRANCH  11  12
ATOM     12  C   UNL     1      24.054  51.766  28.125  1.00  0.00    -0.000 C 
BRANCH  12  13
ATOM     13  C   UNL     1      24.111  51.163  26.713  1.00  0.00    -0.003 C 
ATOM     14  C   UNL     1      24.479  52.223  25.679  1.00  0.00     0.004 C 
ENDBRANCH  12  13
ENDBRANCH  11  12
ENDBRANCH  10  11
ENDBRANCH   9  10
ENDBRANCH   1   9
TORSDOF 10
ENDMDL
MODEL 7
REMARK VINA RESULT:     0.323     23.835     26.602
REMARK INTER + INTRA:          -0.130
REMARK INTER:                   0.512
REMARK INTRA:                  -0.642
REMARK UNBOUND:                -0.642
REMARK SMILES CCCCCCCCCCCC(=O)[O-]
REMARK SMILES IDX 7 1 8 2 9 3 10 4 11 5 12 6 13 7 14 8 6 9 5 10 4 11 3 12 2 13
REMARK SMILES IDX 1 14
REMARK H PARENT
REMARK Flexibility Score: inf
ROOT
ATOM      1  C   UNL     1      39.852  39.336  18.653  1.00  0.00     0.000 C 
ENDROOT
BRANCH   1   2
ATOM      2  C   UNL     1      38.676  40.175  19.175  1.00  0.00     0.000 C 
BRANCH   2   3
ATOM      3  C   UNL     1      37.482  39.314  19.616  1.00  0.00     0.000 C 
BRANCH   3   4
ATOM      4  C   UNL     1      37.892  38.169  20.555  1.00  0.00     0.006 C 
BRANCH   4   5
ATOM      5  C   UNL     1      37.381  36.822  20.032  1.00  0.00     0.053 C 
BRANCH   5   6
ATOM      6  C   UNL     1      38.201  35.700  20.586  1.00  0.00     0.041 C 
ATOM      7  O   UNL     1      37.973  35.260  21.744  1.00  0.00    -0.550 OA
ATOM      8  O   UNL     1      39.184  35.107  19.805  1.00  0.00    -0.550 OA
ENDBRANCH   5   6
ENDBRANCH   4   5
ENDBRANCH   3   4
ENDBRANCH   2   3
ENDBRANCH   1   2
BRANCH   1   9
ATOM      9  C   UNL     1      39.874  39.319  17.118  1.00  0.00     0.000 C 
BRANCH   9  10
ATOM     10  C   UNL     1      41.125  38.628  16.551  1.00  0.00    -0.000 C 
BRANCH  10  11
ATOM     11  C   UNL     1      40.808  37.262  15.914  1.00  0.00    -0.000 C 
BRANCH  11  12
ATOM     12  C   UNL     1      41.058  36.091  16.878  1.00  0.00    -0.000 C 
BRANCH  12  13
ATOM     13  C   UNL     1      39.944  35.035  16.823  1.00  0.00    -0.003 C 
ATOM     14  C   UNL     1      38.670  35.611  16.213  1.00  0.00     0.004 C 
ENDBRANCH  12  13
ENDBRANCH  11  12
ENDBRANCH  10  11
ENDBRANCH   9  10
ENDBRANCH   1   9
TORSDOF 10
ENDMDL
