MODEL 1
REMARK VINA RESULT:    -3.513      0.000      0.000
REMARK INTER + INTRA:          -4.734
REMARK INTER:                  -4.540
REMARK INTRA:                  -0.194
REMARK UNBOUND:                -0.194
REMARK SMILES CCCCCCC(=O)[O-]
REMARK SMILES IDX 5 1 6 2 7 3 8 4 9 5 4 6 3 7 2 8 1 9
REMARK H PARENT
REMARK Flexibility Score: inf
ROOT
ATOM      1  C   UNL     1      -5.218  35.217  22.270  1.00  0.00     0.006 C 
ENDROOT
BRANCH   1   2
ATOM      2  C   UNL     1      -6.065  35.377  20.993  1.00  0.00     0.053 C 
BRANCH   2   3
ATOM      3  C   UNL     1      -5.321  36.066  19.888  1.00  0.00     0.041 C 
ATOM      4  O   UNL     1      -4.616  35.400  19.085  1.00  0.00    -0.550 OA
ATOM      5  O   UNL     1      -5.373  37.449  19.772  1.00  0.00    -0.550 OA
ENDBRANCH   2   3
ENDBRANCH   1   2
BRANCH   1   6
ATOM      6  C   UNL     1      -5.806  34.227  23.294  1.00  0.00     0.000 C 
BRANCH   6   7
ATOM      7  C   UNL     1      -6.125  34.824  24.675  1.00  0.00    -0.000 C 
BRANCH   7   8
ATOM      8  C   UNL     1      -6.062  36.358  24.692  1.00  0.00    -0.003 C 
ATOM      9  C   UNL     1      -5.032  36.853  25.704  1.00  0.00     0.004 C 
ENDBRANCH   7   8
ENDBRANCH   6   7
ENDBRANCH   1   6
TORSDOF 5
ENDMDL
MODEL 2
REMARK VINA RESULT:    -3.132      2.957      5.106
REMARK INTER + INTRA:          -4.240
REMARK INTER:                  -4.100
REMARK INTRA:                  -0.140
REMARK UNBOUND:                -0.194
REMARK SMILES CCCCCCC(=O)[O-]
REMARK SMILES IDX 5 1 6 2 7 3 8 4 9 5 4 6 3 7 2 8 1 9
REMARK H PARENT
REMARK Flexibility Score: inf
ROOT
ATOM      1  C   UNL     1      -4.874  35.476  21.745  1.00  0.00     0.006 C 
ENDROOT
BRANCH   1   2
ATOM      2  C   UNL     1      -6.090  35.779  22.640  1.00  0.00     0.053 C 
BRANCH   2   3
ATOM      3  C   UNL     1      -6.040  35.048  23.949  1.00  0.00     0.041 C 
ATOM      4  O   UNL     1      -6.124  33.792  23.978  1.00  0.00    -0.550 OA
ATOM      5  O   UNL     1      -5.943  35.757  25.139  1.00  0.00    -0.550 OA
ENDBRANCH   2   3
ENDBRANCH   1   2
BRANCH   1   6
ATOM      6  C   UNL     1      -5.080  35.838  20.261  1.00  0.00     0.000 C 
BRANCH   6   7
ATOM      7  C   UNL     1      -6.084  34.952  19.503  1.00  0.00    -0.000 C 
BRANCH   7   8
ATOM      8  C   UNL     1      -5.417  34.068  18.440  1.00  0.00    -0.003 C 
ATOM      9  C   UNL     1      -4.320  34.830  17.702  1.00  0.00     0.004 C 
ENDBRANCH   7   8
ENDBRANCH   6   7
ENDBRANCH   1   6
TORSDOF 5
ENDMDL
MODEL 3
REMARK VINA RESULT:    -3.115      1.254      1.672
REMARK INTER + INTRA:          -4.219
REMARK INTER:                  -4.192
REMARK INTRA:                  -0.027
REMARK UNBOUND:                -0.194
REMARK SMILES CCCCCCC(=O)[O-]
REMARK SMILES IDX 5 1 6 2 7 3 8 4 9 5 4 6 3 7 2 8 1 9
REMARK H PARENT
REMARK Flexibility Score: inf
ROOT
ATOM      1  C   UNL     1      -4.975  36.042  21.425  1.00  0.00     0.006 C 
ENDROOT
BRANCH   1   2
ATOM      2  C   UNL     1      -5.347  36.450  19.986  1.00  0.00     0.053 C 
BRANCH   2   3
ATOM      3  C   UNL     1      -5.257  35.306  19.020  1.00  0.00     0.041 C 
ATOM      4  O   UNL     1      -6.055  34.337  19.108  1.00  0.00    -0.550 OA
ATOM      5  O   UNL     1      -4.265  35.293  18.049  1.00  0.00    -0.550 OA
ENDBRANCH   2   3
ENDBRANCH   1   2
BRANCH   1   6
ATOM      6  C   UNL     1      -6.124  35.376  22.206  1.00  0.00     0.000 C 
BRANCH   6   7
ATOM      7  C   UNL     1      -5.687  34.484  23.381  1.00  0.00    -0.000 C 
BRANCH   7   8
ATOM      8  C   UNL     1      -6.118  35.040  24.746  1.00  0.00    -0.003 C 
ATOM      9  C   UNL     1      -5.751  36.516  24.878  1.00  0.00     0.004 C 
ENDBRANCH   7   8
ENDBRANCH   6   7
ENDBRANCH   1   6
TORSDOF 5
ENDMDL
MODEL 4
REMARK VINA RESULT:    -2.813      3.014      4.493
REMARK INTER + INTRA:          -3.828
REMARK INTER:                  -3.767
REMARK INTRA:                  -0.062
REMARK UNBOUND:                -0.194
REMARK SMILES CCCCCCC(=O)[O-]
REMARK SMILES IDX 5 1 6 2 7 3 8 4 9 5 4 6 3 7 2 8 1 9
REMARK H PARENT
REMARK Flexibility Score: inf
ROOT
ATOM      1  C   UNL     1      -5.143  35.388  21.663  1.00  0.00     0.006 C 
ENDROOT
BRANCH   1   2
ATOM      2  C   UNL     1      -6.125  35.836  22.762  1.00  0.00     0.053 C 
BRANCH   2   3
ATOM      3  C   UNL     1      -6.065  34.964  23.981  1.00  0.00     0.041 C 
ATOM      4  O   UNL     1      -6.089  35.477  25.131  1.00  0.00    -0.550 OA
ATOM      5  O   UNL     1      -5.941  33.588  23.846  1.00  0.00    -0.550 OA
ENDBRANCH   2   3
ENDBRANCH   1   2
BRANCH   1   6
ATOM      6  C   UNL     1      -5.537  35.844  20.245  1.00  0.00     0.000 C 
BRANCH   6   7
ATOM      7  C   UNL     1      -4.940  37.190  19.800  1.00  0.00    -0.000 C 
BRANCH   7   8
ATOM      8  C   UNL     1      -5.800  38.392  20.215  1.00  0.00    -0.003 C 
ATOM      9  C   UNL     1      -5.330  38.967  21.549  1.00  0.00     0.004 C 
ENDBRANCH   7   8
ENDBRANCH   6   7
ENDBRANCH   1   6
TORSDOF 5
ENDMDL
MODEL 5
REMARK VINA RESULT:    -2.538     12.318     13.630
REMARK INTER + INTRA:          -3.473
REMARK INTER:                  -3.286
REMARK INTRA:                  -0.187
REMARK UNBOUND:                -0.194
REMARK SMILES CCCCCCC(=O)[O-]
REMARK SMILES IDX 5 1 6 2 7 3 8 4 9 5 4 6 3 7 2 8 1 9
REMARK H PARENT
REMARK Flexibility Score: inf
ROOT
ATOM      1  C   UNL     1      -5.738  25.493  29.019  1.00  0.00     0.006 C 
ENDROOT
BRANCH   1   2
ATOM      2  C   UNL     1      -5.015  26.849  29.136  1.00  0.00     0.053 C 
BRANCH   2   3
ATOM      3  C   UNL     1      -5.111  27.438  30.512  1.00  0.00     0.041 C 
ATOM      4  O   UNL     1      -6.125  28.104  30.848  1.00  0.00    -0.550 OA
ATOM      5  O   UNL     1      -4.061  27.285  31.408  1.00  0.00    -0.550 OA
ENDBRANCH   2   3
ENDBRANCH   1   2
BRANCH   1   6
ATOM      6  C   UNL     1      -4.936  24.303  29.579  1.00  0.00     0.000 C 
BRANCH   6   7
ATOM      7  C   UNL     1      -5.762  23.258  30.348  1.00  0.00    -0.000 C 
BRANCH   7   8
ATOM      8  C   UNL     1      -5.746  21.875  29.682  1.00  0.00    -0.003 C 
ATOM      9  C   UNL     1      -4.977  21.910  28.364  1.00  0.00     0.004 C 
ENDBRANCH   7   8
ENDBRANCH   6   7
ENDBRANCH   1   6
TORSDOF 5
ENDMDL
MODEL 6
REMARK VINA RESULT:    -2.144      2.287      2.973
REMARK INTER + INTRA:          -2.964
REMARK INTER:                  -3.028
REMARK INTRA:                   0.064
REMARK UNBOUND:                -0.194
REMARK SMILES CCCCCCC(=O)[O-]
REMARK SMILES IDX 5 1 6 2 7 3 8 4 9 5 4 6 3 7 2 8 1 9
REMARK H PARENT
REMARK Flexibility Score: inf
ROOT
ATOM      1  C   UNL     1      -5.978  35.338  20.708  1.00  0.00     0.006 C 
ENDROOT
BRANCH   1   2
ATOM      2  C   UNL     1      -4.925  35.552  19.605  1.00  0.00     0.053 C 
BRANCH   2   3
ATOM      3  C   UNL     1      -5.122  34.638  18.432  1.00  0.00     0.041 C 
ATOM      4  O   UNL     1      -6.072  33.811  18.424  1.00  0.00    -0.550 OA
ATOM      5  O   UNL     1      -4.232  34.670  17.367  1.00  0.00    -0.550 OA
ENDBRANCH   2   3
ENDBRANCH   1   2
BRANCH   1   6
ATOM      6  C   UNL     1      -5.502  35.739  22.118  1.00  0.00     0.000 C 
BRANCH   6   7
ATOM      7  C   UNL     1      -5.839  37.180  22.539  1.00  0.00    -0.000 C 
BRANCH   7   8
ATOM      8  C   UNL     1      -5.473  38.216  21.467  1.00  0.00    -0.003 C 
ATOM      9  C   UNL     1      -5.393  39.619  22.065  1.00  0.00     0.004 C 
ENDBRANCH   7   8
ENDBRANCH   6   7
ENDBRANCH   1   6
TORSDOF 5
ENDMDL
MODEL 7
REMARK VINA RESULT:    -1.939     12.146     13.394
REMARK INTER + INTRA:          -2.700
REMARK INTER:                  -2.447
REMARK INTRA:                  -0.253
REMARK UNBOUND:                -0.194
REMARK SMILES CCCCCCC(=O)[O-]
REMARK SMILES IDX 5 1 6 2 7 3 8 4 9 5 4 6 3 7 2 8 1 9
REMARK H PARENT
REMARK Flexibility Score: inf
ROOT
ATOM      1  C   UNL     1      -5.803  25.213  28.878  1.00  0.00     0.006 C 
ENDROOT
BRANCH   1   2
ATOM      2  C   UNL     1      -5.193  24.165  29.828  1.00  0.00     0.053 C 
BRANCH   2   3
ATOM      3  C   UNL     1      -5.311  22.767  29.298  1.00  0.00     0.041 C 
ATOM      4  O   UNL     1      -5.881  21.875  29.981  1.00  0.00    -0.550 OA
ATOM      5  O   UNL     1      -4.756  22.439  28.069  1.00  0.00    -0.550 OA
ENDBRANCH   2   3
ENDBRANCH   1   2
BRANCH   1   6
ATOM      6  C   UNL     1      -5.179  26.616  29.006  1.00  0.00     0.000 C 
BRANCH   6   7
ATOM      7  C   UNL     1      -6.079  27.678  29.660  1.00  0.00    -0.000 C 
BRANCH   7   8
ATOM      8  C   UNL     1      -5.801  27.856  31.159  1.00  0.00    -0.003 C 
ATOM      9  C   UNL     1      -4.359  27.485  31.497  1.00  0.00     0.004 C 
ENDBRANCH   7   8
ENDBRANCH   6   7
ENDBRANCH   1   6
TORSDOF 5
ENDMDL
