MODEL 1
REMARK VINA RESULT:    -3.216      0.000      0.000
REMARK INTER + INTRA:          -7.914
REMARK INTER:                  -5.660
REMARK INTRA:                  -2.254
REMARK UNBOUND:                -2.254
REMARK SMILES CCCCCCC=CCCCCCCCC(=O)[O-]
REMARK SMILES IDX 10 1 11 2 12 3 13 4 14 5 15 6 16 7 17 8 18 9 9 10 8 11 7 12
REMARK SMILES IDX 6 13 5 14 4 15 3 16 2 17 1 18
REMARK H PARENT
REMARK Flexibility Score: inf
ROOT
ATOM      1  C   UNL     1      61.811  29.574  60.932  1.00  0.00     0.004 C 
ENDROOT
BRANCH   1   2
ATOM      2  C   UNL     1      62.863  30.002  61.970  1.00  0.00     0.000 C 
BRANCH   2   3
ATOM      3  C   UNL     1      64.182  30.455  61.323  1.00  0.00     0.000 C 
BRANCH   3   4
ATOM      4  C   UNL     1      64.311  31.984  61.247  1.00  0.00     0.000 C 
BRANCH   4   5
ATOM      5  C   UNL     1      64.748  32.428  59.843  1.00  0.00     0.006 C 
BRANCH   5   6
ATOM      6  C   UNL     1      64.657  31.290  58.819  1.00  0.00     0.053 C 
BRANCH   6   7
ATOM      7  C   UNL     1      65.991  30.971  58.218  1.00  0.00     0.041 C 
ATOM      8  O   UNL     1      66.182  31.126  56.983  1.00  0.00    -0.550 OA
ATOM      9  O   UNL     1      67.034  30.537  59.026  1.00  0.00    -0.550 OA
ENDBRANCH   6   7
ENDBRANCH   5   6
ENDBRANCH   4   5
ENDBRANCH   3   4
ENDBRANCH   2   3
ENDBRANCH   1   2
BRANCH   1  10
ATOM     10  C   UNL     1      60.525  30.408  61.035  1.00  0.00     0.027 C 
BRANCH  10  11
ATOM     11  C   UNL     1      60.783  31.882  60.869  1.00  0.00    -0.031 C 
ATOM     12  C   UNL     1      61.044  32.421  59.670  1.00  0.00    -0.031 C 
BRANCH  12  13
ATOM     13  C   UNL     1      61.296  33.898  59.531  1.00  0.00     0.027 C 
BRANCH  13  14
ATOM     14  C   UNL     1      61.450  34.565  60.906  1.00  0.00     0.004 C 
BRANCH  14  15
ATOM     15  C   UNL     1      62.044  35.980  60.815  1.00  0.00     0.000 C 
BRANCH  15  16
ATOM     16  C   UNL     1      63.421  36.000  60.133  1.00  0.00    -0.000 C 
BRANCH  16  17
ATOM     17  C   UNL     1      64.520  36.574  61.041  1.00  0.00    -0.003 C 
ATOM     18  C   UNL     1      65.035  35.561  62.064  1.00  0.00     0.004 C 
ENDBRANCH  16  17
ENDBRANCH  15  16
ENDBRANCH  14  15
ENDBRANCH  13  14
ENDBRANCH  12  13
ENDBRANCH  10  11
ENDBRANCH   1  10
TORSDOF 13
ENDMDL
MODEL 2
REMARK VINA RESULT:    -3.204      2.215      4.406
REMARK INTER + INTRA:          -7.893
REMARK INTER:                  -5.538
REMARK INTRA:                  -2.356
REMARK UNBOUND:                -2.254
REMARK SMILES CCCCCCC=CCCCCCCCC(=O)[O-]
REMARK SMILES IDX 10 1 11 2 12 3 13 4 14 5 15 6 16 7 17 8 18 9 9 10 8 11 7 12
REMARK SMILES IDX 6 13 5 14 4 15 3 16 2 17 1 18
REMARK H PARENT
REMARK Flexibility Score: inf
ROOT
ATOM      1  C   UNL     1      63.430  31.884  58.009  1.00  0.00     0.004 C 
ENDROOT
BRANCH   1   2
ATOM      2  C   UNL     1      62.136  32.665  58.297  1.00  0.00     0.000 C 
BRANCH   2   3
ATOM      3  C   UNL     1      61.104  31.832  59.073  1.00  0.00     0.000 C 
BRANCH   3   4
ATOM      4  C   UNL     1      60.674  32.498  60.390  1.00  0.00     0.000 C 
BRANCH   4   5
ATOM      5  C   UNL     1      61.139  31.671  61.598  1.00  0.00     0.006 C 
BRANCH   5   6
ATOM      6  C   UNL     1      61.052  30.161  61.338  1.00  0.00     0.053 C 
BRANCH   6   7
ATOM      7  C   UNL     1      62.296  29.448  61.770  1.00  0.00     0.041 C 
ATOM      8  O   UNL     1      63.344  30.099  62.020  1.00  0.00    -0.550 OA
ATOM      9  O   UNL     1      62.289  28.069  61.929  1.00  0.00    -0.550 OA
ENDBRANCH   6   7
ENDBRANCH   5   6
ENDBRANCH   4   5
ENDBRANCH   3   4
ENDBRANCH   2   3
ENDBRANCH   1   2
BRANCH   1  10
ATOM     10  C   UNL     1      64.385  31.882  59.213  1.00  0.00     0.027 C 
BRANCH  10  11
ATOM     11  C   UNL     1      64.479  33.233  59.871  1.00  0.00    -0.031 C 
ATOM     12  C   UNL     1      64.334  33.383  61.196  1.00  0.00    -0.031 C 
BRANCH  12  13
ATOM     13  C   UNL     1      64.436  34.743  61.830  1.00  0.00     0.027 C 
BRANCH  13  14
ATOM     14  C   UNL     1      63.755  35.811  60.961  1.00  0.00     0.004 C 
BRANCH  14  15
ATOM     15  C   UNL     1      62.221  35.729  61.013  1.00  0.00     0.000 C 
BRANCH  15  16
ATOM     16  C   UNL     1      61.560  36.184  59.702  1.00  0.00    -0.000 C 
BRANCH  16  17
ATOM     17  C   UNL     1      60.033  36.302  59.822  1.00  0.00    -0.003 C 
ATOM     18  C   UNL     1      59.291  35.637  58.663  1.00  0.00     0.004 C 
ENDBRANCH  16  17
ENDBRANCH  15  16
ENDBRANCH  14  15
ENDBRANCH  13  14
ENDBRANCH  12  13
ENDBRANCH  10  11
ENDBRANCH   1  10
TORSDOF 13
ENDMDL
MODEL 3
REMARK VINA RESULT:    -3.197      2.408      3.749
REMARK INTER + INTRA:          -7.880
REMARK INTER:                  -6.130
REMARK INTRA:                  -1.749
REMARK UNBOUND:                -2.254
REMARK SMILES CCCCCCC=CCCCCCCCC(=O)[O-]
REMARK SMILES IDX 10 1 11 2 12 3 13 4 14 5 15 6 16 7 17 8 18 9 9 10 8 11 7 12
REMARK SMILES IDX 6 13 5 14 4 15 3 16 2 17 1 18
REMARK H PARENT
REMARK Flexibility Score: inf
ROOT
ATOM      1  C   UNL     1      61.524  32.406  58.532  1.00  0.00     0.004 C 
ENDROOT
BRANCH   1   2
ATOM      2  C   UNL     1      61.699  31.354  59.640  1.00  0.00     0.000 C 
BRANCH   2   3
ATOM      3  C   UNL     1      60.578  31.408  60.690  1.00  0.00     0.000 C 
BRANCH   3   4
ATOM      4  C   UNL     1      61.020  30.863  62.057  1.00  0.00     0.000 C 
BRANCH   4   5
ATOM      5  C   UNL     1      62.266  29.975  61.917  1.00  0.00     0.006 C 
BRANCH   5   6
ATOM      6  C   UNL     1      61.918  28.481  61.907  1.00  0.00     0.053 C 
BRANCH   6   7
ATOM      7  C   UNL     1      62.763  27.718  60.934  1.00  0.00     0.041 C 
ATOM      8  O   UNL     1      62.533  27.799  59.698  1.00  0.00    -0.550 OA
ATOM      9  O   UNL     1      63.823  26.945  61.387  1.00  0.00    -0.550 OA
ENDBRANCH   6   7
ENDBRANCH   5   6
ENDBRANCH   4   5
ENDBRANCH   3   4
ENDBRANCH   2   3
ENDBRANCH   1   2
BRANCH   1  10
ATOM     10  C   UNL     1      60.546  33.519  58.940  1.00  0.00     0.027 C 
BRANCH  10  11
ATOM     11  C   UNL     1      61.254  34.732  59.482  1.00  0.00    -0.031 C 
ATOM     12  C   UNL     1      60.811  35.379  60.569  1.00  0.00    -0.031 C 
BRANCH  12  13
ATOM     13  C   UNL     1      61.538  36.587  61.093  1.00  0.00     0.027 C 
BRANCH  13  14
ATOM     14  C   UNL     1      63.005  36.591  60.637  1.00  0.00     0.004 C 
BRANCH  14  15
ATOM     15  C   UNL     1      63.990  36.728  61.809  1.00  0.00     0.000 C 
BRANCH  15  16
ATOM     16  C   UNL     1      64.870  35.480  61.991  1.00  0.00    -0.000 C 
BRANCH  16  17
ATOM     17  C   UNL     1      64.707  34.474  60.841  1.00  0.00    -0.003 C 
ATOM     18  C   UNL     1      64.153  33.126  61.304  1.00  0.00     0.004 C 
ENDBRANCH  16  17
ENDBRANCH  15  16
ENDBRANCH  14  15
ENDBRANCH  13  14
ENDBRANCH  12  13
ENDBRANCH  10  11
ENDBRANCH   1  10
TORSDOF 13
ENDMDL
MODEL 4
REMARK VINA RESULT:    -3.147     12.303     14.362
REMARK INTER + INTRA:          -7.792
REMARK INTER:                  -6.282
REMARK INTRA:                  -1.510
REMARK UNBOUND:                -2.254
REMARK SMILES CCCCCCC=CCCCCCCCC(=O)[O-]
REMARK SMILES IDX 10 1 11 2 12 3 13 4 14 5 15 6 16 7 17 8 18 9 9 10 8 11 7 12
REMARK SMILES IDX 6 13 5 14 4 15 3 16 2 17 1 18
REMARK H PARENT
REMARK Flexibility Score: inf
ROOT
ATOM      1  C   UNL     1      57.540  29.150  50.612  1.00  0.00     0.004 C 
ENDROOT
BRANCH   1   2
ATOM      2  C   UNL     1      56.474  28.065  50.385  1.00  0.00     0.000 C 
BRANCH   2   3
ATOM      3  C   UNL     1      55.042  28.619  50.451  1.00  0.00     0.000 C 
BRANCH   3   4
ATOM      4  C   UNL     1      54.001  27.643  49.882  1.00  0.00     0.000 C 
BRANCH   4   5
ATOM      5  C   UNL     1      54.566  26.215  49.819  1.00  0.00     0.006 C 
BRANCH   5   6
ATOM      6  C   UNL     1      53.538  25.163  50.253  1.00  0.00     0.053 C 
BRANCH   6   7
ATOM      7  C   UNL     1      53.781  24.690  51.653  1.00  0.00     0.041 C 
ATOM      8  O   UNL     1      54.338  25.449  52.489  1.00  0.00    -0.550 OA
ATOM      9  O   UNL     1      53.363  23.425  52.044  1.00  0.00    -0.550 OA
ENDBRANCH   6   7
ENDBRANCH   5   6
ENDBRANCH   4   5
ENDBRANCH   3   4
ENDBRANCH   2   3
ENDBRANCH   1   2
BRANCH   1  10
ATOM     10  C   UNL     1      58.526  29.247  49.438  1.00  0.00     0.027 C 
BRANCH  10  11
ATOM     11  C   UNL     1      59.884  28.695  49.784  1.00  0.00    -0.031 C 
ATOM     12  C   UNL     1      60.379  27.609  49.174  1.00  0.00    -0.031 C 
BRANCH  12  13
ATOM     13  C   UNL     1      61.739  27.079  49.534  1.00  0.00     0.027 C 
BRANCH  13  14
ATOM     14  C   UNL     1      61.632  25.880  50.488  1.00  0.00     0.004 C 
BRANCH  14  15
ATOM     15  C   UNL     1      60.890  24.688  49.861  1.00  0.00     0.000 C 
BRANCH  15  16
ATOM     16  C   UNL     1      59.768  24.149  50.764  1.00  0.00    -0.000 C 
BRANCH  16  17
ATOM     17  C   UNL     1      58.528  25.057  50.767  1.00  0.00    -0.003 C 
ATOM     18  C   UNL     1      57.845  25.127  52.132  1.00  0.00     0.004 C 
ENDBRANCH  16  17
ENDBRANCH  15  16
ENDBRANCH  14  15
ENDBRANCH  13  14
ENDBRANCH  12  13
ENDBRANCH  10  11
ENDBRANCH   1  10
TORSDOF 13
ENDMDL
MODEL 5
REMARK VINA RESULT:    -3.119     12.959     14.554
REMARK INTER + INTRA:          -7.742
REMARK INTER:                  -6.502
REMARK INTRA:                  -1.241
REMARK UNBOUND:                -2.254
REMARK SMILES CCCCCCC=CCCCCCCCC(=O)[O-]
REMARK SMILES IDX 10 1 11 2 12 3 13 4 14 5 15 6 16 7 17 8 18 9 9 10 8 11 7 12
REMARK SMILES IDX 6 13 5 14 4 15 3 16 2 17 1 18
REMARK H PARENT
REMARK Flexibility Score: inf
ROOT
ATOM      1  C   UNL     1      59.575  24.311  50.565  1.00  0.00     0.004 C 
ENDROOT
BRANCH   1   2
ATOM      2  C   UNL     1      60.513  23.126  50.853  1.00  0.00     0.000 C 
BRANCH   2   3
ATOM      3  C   UNL     1      61.317  22.694  49.617  1.00  0.00     0.000 C 
BRANCH   3   4
ATOM      4  C   UNL     1      60.725  21.455  48.926  1.00  0.00     0.000 C 
BRANCH   4   5
ATOM      5  C   UNL     1      60.326  20.390  49.960  1.00  0.00     0.006 C 
BRANCH   5   6
ATOM      6  C   UNL     1      59.332  19.371  49.390  1.00  0.00     0.053 C 
BRANCH   6   7
ATOM      7  C   UNL     1      59.409  18.057  50.105  1.00  0.00     0.041 C 
ATOM      8  O   UNL     1      58.354  17.460  50.445  1.00  0.00    -0.550 OA
ATOM      9  O   UNL     1      60.643  17.476  50.366  1.00  0.00    -0.550 OA
ENDBRANCH   6   7
ENDBRANCH   5   6
ENDBRANCH   4   5
ENDBRANCH   3   4
ENDBRANCH   2   3
ENDBRANCH   1   2
BRANCH   1  10
ATOM     10  C   UNL     1      60.307  25.473  49.876  1.00  0.00     0.027 C 
BRANCH  10  11
ATOM     11  C   UNL     1      59.613  26.792  50.087  1.00  0.00    -0.031 C 
ATOM     12  C   UNL     1      59.581  27.732  49.132  1.00  0.00    -0.031 C 
BRANCH  12  13
ATOM     13  C   UNL     1      58.877  29.041  49.365  1.00  0.00     0.027 C 
BRANCH  13  14
ATOM     14  C   UNL     1      58.694  29.310  50.866  1.00  0.00     0.004 C 
BRANCH  14  15
ATOM     15  C   UNL     1      57.215  29.362  51.284  1.00  0.00     0.000 C 
BRANCH  15  16
ATOM     16  C   UNL     1      56.311  28.529  50.359  1.00  0.00    -0.000 C 
BRANCH  16  17
ATOM     17  C   UNL     1      55.951  27.163  50.964  1.00  0.00    -0.003 C 
ATOM     18  C   UNL     1      55.940  26.038  49.928  1.00  0.00     0.004 C 
ENDBRANCH  16  17
ENDBRANCH  15  16
ENDBRANCH  14  15
ENDBRANCH  13  14
ENDBRANCH  12  13
ENDBRANCH  10  11
ENDBRANCH   1  10
TORSDOF 13
ENDMDL
MODEL 6
REMARK VINA RESULT:    -3.118     11.060     13.028
REMARK INTER + INTRA:          -7.742
REMARK INTER:                  -5.806
REMARK INTRA:                  -1.936
REMARK UNBOUND:                -2.254
REMARK SMILES CCCCCCC=CCCCCCCCC(=O)[O-]
REMARK SMILES IDX 10 1 11 2 12 3 13 4 14 5 15 6 16 7 17 8 18 9 9 10 8 11 7 12
REMARK SMILES IDX 6 13 5 14 4 15 3 16 2 17 1 18
REMARK H PARENT
REMARK Flexibility Score: inf
ROOT
ATOM      1  C   UNL     1      56.282  30.430  53.588  1.00  0.00     0.004 C 
ENDROOT
BRANCH   1   2
ATOM      2  C   UNL     1      56.894  29.030  53.763  1.00  0.00     0.000 C 
BRANCH   2   3
ATOM      3  C   UNL     1      57.795  28.626  52.586  1.00  0.00     0.000 C 
BRANCH   3   4
ATOM      4  C   UNL     1      57.739  29.631  51.424  1.00  0.00     0.000 C 
BRANCH   4   5
ATOM      5  C   UNL     1      57.688  28.903  50.072  1.00  0.00     0.006 C 
BRANCH   5   6
ATOM      6  C   UNL     1      59.010  29.014  49.302  1.00  0.00     0.053 C 
BRANCH   6   7
ATOM      7  C   UNL     1      59.753  27.713  49.281  1.00  0.00     0.041 C 
ATOM      8  O   UNL     1      60.977  27.689  48.988  1.00  0.00    -0.550 OA
ATOM      9  O   UNL     1      59.103  26.533  49.617  1.00  0.00    -0.550 OA
ENDBRANCH   6   7
ENDBRANCH   5   6
ENDBRANCH   4   5
ENDBRANCH   3   4
ENDBRANCH   2   3
ENDBRANCH   1   2
BRANCH   1  10
ATOM     10  C   UNL     1      54.747  30.403  53.653  1.00  0.00     0.027 C 
BRANCH  10  11
ATOM     11  C   UNL     1      54.141  29.602  52.531  1.00  0.00    -0.031 C 
ATOM     12  C   UNL     1      53.774  30.173  51.375  1.00  0.00    -0.031 C 
BRANCH  12  13
ATOM     13  C   UNL     1      53.174  29.350  50.268  1.00  0.00     0.027 C 
BRANCH  13  14
ATOM     14  C   UNL     1      54.071  28.153  49.921  1.00  0.00     0.004 C 
BRANCH  14  15
ATOM     15  C   UNL     1      53.299  26.824  49.884  1.00  0.00     0.000 C 
BRANCH  15  16
ATOM     16  C   UNL     1      54.209  25.621  49.582  1.00  0.00    -0.000 C 
BRANCH  16  17
ATOM     17  C   UNL     1      55.673  25.880  49.968  1.00  0.00    -0.003 C 
ATOM     18  C   UNL     1      55.957  25.603  51.445  1.00  0.00     0.004 C 
ENDBRANCH  16  17
ENDBRANCH  15  16
ENDBRANCH  14  15
ENDBRANCH  13  14
ENDBRANCH  12  13
ENDBRANCH  10  11
ENDBRANCH   1  10
TORSDOF 13
ENDMDL
MODEL 7
REMARK VINA RESULT:    -3.102     10.915     12.715
REMARK INTER + INTRA:          -7.713
REMARK INTER:                  -5.434
REMARK INTRA:                  -2.280
REMARK UNBOUND:                -2.254
REMARK SMILES CCCCCCC=CCCCCCCCC(=O)[O-]
REMARK SMILES IDX 10 1 11 2 12 3 13 4 14 5 15 6 16 7 17 8 18 9 9 10 8 11 7 12
REMARK SMILES IDX 6 13 5 14 4 15 3 16 2 17 1 18
REMARK H PARENT
REMARK Flexibility Score: inf
ROOT
ATOM      1  C   UNL     1      57.555  26.781  53.456  1.00  0.00     0.004 C 
ENDROOT
BRANCH   1   2
ATOM      2  C   UNL     1      58.385  28.071  53.340  1.00  0.00     0.000 C 
BRANCH   2   3
ATOM      3  C   UNL     1      57.696  29.142  52.480  1.00  0.00     0.000 C 
BRANCH   3   4
ATOM      4  C   UNL     1      58.570  29.613  51.306  1.00  0.00     0.000 C 
BRANCH   4   5
ATOM      5  C   UNL     1      58.000  29.121  49.967  1.00  0.00     0.006 C 
BRANCH   5   6
ATOM      6  C   UNL     1      59.089  28.946  48.901  1.00  0.00     0.053 C 
BRANCH   6   7
ATOM      7  C   UNL     1      60.004  27.804  49.221  1.00  0.00     0.041 C 
ATOM      8  O   UNL     1      59.588  26.618  49.139  1.00  0.00    -0.550 OA
ATOM      9  O   UNL     1      61.324  28.046  49.576  1.00  0.00    -0.550 OA
ENDBRANCH   6   7
ENDBRANCH   5   6
ENDBRANCH   4   5
ENDBRANCH   3   4
ENDBRANCH   2   3
ENDBRANCH   1   2
BRANCH   1  10
ATOM     10  C   UNL     1      57.731  25.868  52.233  1.00  0.00     0.027 C 
BRANCH  10  11
ATOM     11  C   UNL     1      56.434  25.628  51.507  1.00  0.00    -0.031 C 
ATOM     12  C   UNL     1      56.200  26.145  50.292  1.00  0.00    -0.031 C 
BRANCH  12  13
ATOM     13  C   UNL     1      54.898  25.887  49.586  1.00  0.00     0.027 C 
BRANCH  13  14
ATOM     14  C   UNL     1      53.849  26.946  49.956  1.00  0.00     0.004 C 
BRANCH  14  15
ATOM     15  C   UNL     1      54.455  28.349  50.125  1.00  0.00     0.000 C 
BRANCH  15  16
ATOM     16  C   UNL     1      53.964  29.054  51.400  1.00  0.00    -0.000 C 
BRANCH  16  17
ATOM     17  C   UNL     1      54.121  28.180  52.654  1.00  0.00    -0.003 C 
ATOM     18  C   UNL     1      53.008  28.401  53.678  1.00  0.00     0.004 C 
ENDBRANCH  16  17
ENDBRANCH  15  16
ENDBRANCH  14  15
ENDBRANCH  13  14
ENDBRANCH  12  13
ENDBRANCH  10  11
ENDBRANCH   1  10
TORSDOF 13
ENDMDL
MODEL 8
REMARK VINA RESULT:    -3.096      3.000      5.291
REMARK INTER + INTRA:          -7.702
REMARK INTER:                  -5.326
REMARK INTRA:                  -2.376
REMARK UNBOUND:                -2.254
REMARK SMILES CCCCCCC=CCCCCCCCC(=O)[O-]
REMARK SMILES IDX 10 1 11 2 12 3 13 4 14 5 15 6 16 7 17 8 18 9 9 10 8 11 7 12
REMARK SMILES IDX 6 13 5 14 4 15 3 16 2 17 1 18
REMARK H PARENT
REMARK Flexibility Score: inf
ROOT
ATOM      1  C   UNL     1      64.649  31.578  57.996  1.00  0.00     0.004 C 
ENDROOT
BRANCH   1   2
ATOM      2  C   UNL     1      64.883  30.863  59.338  1.00  0.00     0.000 C 
BRANCH   2   3
ATOM      3  C   UNL     1      64.831  31.823  60.537  1.00  0.00     0.000 C 
BRANCH   3   4
ATOM      4  C   UNL     1      64.512  33.269  60.126  1.00  0.00     0.000 C 
BRANCH   4   5
ATOM      5  C   UNL     1      63.611  33.949  61.168  1.00  0.00     0.006 C 
BRANCH   5   6
ATOM      6  C   UNL     1      62.671  34.984  60.537  1.00  0.00     0.053 C 
BRANCH   6   7
ATOM      7  C   UNL     1      62.671  36.274  61.298  1.00  0.00     0.041 C 
ATOM      8  O   UNL     1      63.723  36.676  61.860  1.00  0.00    -0.550 OA
ATOM      9  O   UNL     1      61.520  37.049  61.357  1.00  0.00    -0.550 OA
ENDBRANCH   6   7
ENDBRANCH   5   6
ENDBRANCH   4   5
ENDBRANCH   3   4
ENDBRANCH   2   3
ENDBRANCH   1   2
BRANCH   1  10
ATOM     10  C   UNL     1      63.323  31.161  57.343  1.00  0.00     0.027 C 
BRANCH  10  11
ATOM     11  C   UNL     1      62.244  30.892  58.358  1.00  0.00    -0.031 C 
ATOM     12  C   UNL     1      61.338  31.824  58.688  1.00  0.00    -0.031 C 
BRANCH  12  13
ATOM     13  C   UNL     1      60.268  31.529  59.702  1.00  0.00     0.027 C 
BRANCH  13  14
ATOM     14  C   UNL     1      60.720  31.928  61.115  1.00  0.00     0.004 C 
BRANCH  14  15
ATOM     15  C   UNL     1      60.800  30.728  62.073  1.00  0.00     0.000 C 
BRANCH  15  16
ATOM     16  C   UNL     1      62.172  30.034  62.036  1.00  0.00    -0.000 C 
BRANCH  16  17
ATOM     17  C   UNL     1      62.062  28.525  61.768  1.00  0.00    -0.003 C 
ATOM     18  C   UNL     1      63.061  28.033  60.721  1.00  0.00     0.004 C 
ENDBRANCH  16  17
ENDBRANCH  15  16
ENDBRANCH  14  15
ENDBRANCH  13  14
ENDBRANCH  12  13
ENDBRANCH  10  11
ENDBRANCH   1  10
TORSDOF 13
ENDMDL
MODEL 9
REMARK VINA RESULT:    -3.059      1.688      3.344
REMARK INTER + INTRA:          -7.637
REMARK INTER:                  -5.795
REMARK INTRA:                  -1.842
REMARK UNBOUND:                -2.254
REMARK SMILES CCCCCCC=CCCCCCCCC(=O)[O-]
REMARK SMILES IDX 10 1 11 2 12 3 13 4 14 5 15 6 16 7 17 8 18 9 9 10 8 11 7 12
REMARK SMILES IDX 6 13 5 14 4 15 3 16 2 17 1 18
REMARK H PARENT
REMARK Flexibility Score: inf
ROOT
ATOM      1  C   UNL     1      61.306  32.473  60.174  1.00  0.00     0.004 C 
ENDROOT
BRANCH   1   2
ATOM      2  C   UNL     1      60.764  31.278  60.977  1.00  0.00     0.000 C 
BRANCH   2   3
ATOM      3  C   UNL     1      61.764  30.768  62.027  1.00  0.00     0.000 C 
BRANCH   3   4
ATOM      4  C   UNL     1      62.046  29.263  61.895  1.00  0.00     0.000 C 
BRANCH   4   5
ATOM      5  C   UNL     1      63.422  29.018  61.254  1.00  0.00     0.006 C 
BRANCH   5   6
ATOM      6  C   UNL     1      63.315  28.283  59.912  1.00  0.00     0.053 C 
BRANCH   6   7
ATOM      7  C   UNL     1      64.184  28.908  58.864  1.00  0.00     0.041 C 
ATOM      8  O   UNL     1      65.099  29.706  59.195  1.00  0.00    -0.550 OA
ATOM      9  O   UNL     1      64.005  28.583  57.525  1.00  0.00    -0.550 OA
ENDBRANCH   6   7
ENDBRANCH   5   6
ENDBRANCH   4   5
ENDBRANCH   3   4
ENDBRANCH   2   3
ENDBRANCH   1   2
BRANCH   1  10
ATOM     10  C   UNL     1      62.690  32.185  59.572  1.00  0.00     0.027 C 
BRANCH  10  11
ATOM     11  C   UNL     1      63.730  33.173  60.029  1.00  0.00    -0.031 C 
ATOM     12  C   UNL     1      63.603  33.848  61.180  1.00  0.00    -0.031 C 
BRANCH  12  13
ATOM     13  C   UNL     1      64.658  34.827  61.616  1.00  0.00     0.027 C 
BRANCH  13  14
ATOM     14  C   UNL     1      64.037  36.186  61.975  1.00  0.00     0.004 C 
BRANCH  14  15
ATOM     15  C   UNL     1      63.212  36.784  60.824  1.00  0.00     0.000 C 
BRANCH  15  16
ATOM     16  C   UNL     1      61.773  37.125  61.245  1.00  0.00    -0.000 C 
BRANCH  16  17
ATOM     17  C   UNL     1      60.750  36.104  60.723  1.00  0.00    -0.003 C 
ATOM     18  C   UNL     1      60.788  35.949  59.202  1.00  0.00     0.004 C 
ENDBRANCH  16  17
ENDBRANCH  15  16
ENDBRANCH  14  15
ENDBRANCH  13  14
ENDBRANCH  12  13
ENDBRANCH  10  11
ENDBRANCH   1  10
TORSDOF 13
ENDMDL
