MODEL 1
REMARK VINA RESULT:    -5.603      0.000      0.000
REMARK INTER + INTRA:          -9.453
REMARK INTER:                  -8.224
REMARK INTRA:                  -1.229
REMARK UNBOUND:                -1.229
REMARK SMILES Cc1cc2c(C(C)C)c(O)c(O)c(C=O)c2c(O)c1-c1c(C)cc2c(C(C)C)c(O)c(O)c(C=O)c2c1O
REMARK SMILES IDX 1 1 2 2 3 3 4 4 16 5 13 6 11 7 9 8 5 9 17 10 19 11 20 12
REMARK SMILES IDX 37 13 21 14 36 15 23 16 22 17 24 18 33 19 25 20 31 21 29 22
REMARK SMILES IDX 38 23 34 25 35 26 26 27 27 28 28 29 32 30 30 32 18 34 6 36
REMARK SMILES IDX 7 37 8 38 14 39 15 40 10 41 12 43
REMARK H PARENT 38 24 32 31 30 33 18 35 10 42 12 44
REMARK Flexibility Score: inf
ROOT
ATOM      1  C   UNL     1      65.074  25.466  50.139  1.00  0.00     0.045 C 
ATOM      2  C   UNL     1      63.661  25.982  50.011  1.00  0.00    -0.039 A 
ATOM      3  C   UNL     1      62.594  25.146  50.341  1.00  0.00     0.013 A 
ATOM      4  C   UNL     1      61.250  25.564  50.220  1.00  0.00    -0.006 A 
ATOM      5  C   UNL     1      60.982  26.910  49.820  1.00  0.00     0.039 A 
ATOM      6  C   UNL     1      59.627  27.354  49.762  1.00  0.00     0.072 A 
ATOM      7  C   UNL     1      58.600  26.532  50.264  1.00  0.00     0.169 A 
ATOM      8  C   UNL     1      58.876  25.224  50.672  1.00  0.00     0.162 A 
ATOM      9  C   UNL     1      60.170  24.680  50.528  1.00  0.00     0.008 A 
ATOM     10  C   UNL     1      62.079  27.781  49.544  1.00  0.00     0.132 A 
ATOM     11  C   UNL     1      63.408  27.306  49.617  1.00  0.00     0.031 A 
ENDROOT
BRANCH  11  12
ATOM     12  C   UNL     1      64.544  28.218  49.320  1.00  0.00     0.031 A 
ATOM     13  C   UNL     1      65.129  28.225  48.035  1.00  0.00     0.132 A 
ATOM     14  C   UNL     1      65.037  29.072  50.321  1.00  0.00    -0.039 A 
ATOM     15  C   UNL     1      66.247  29.064  47.760  1.00  0.00     0.039 A 
ATOM     16  C   UNL     1      66.050  29.981  50.011  1.00  0.00     0.013 A 
ATOM     17  C   UNL     1      64.467  29.045  51.718  1.00  0.00     0.045 C 
ATOM     18  C   UNL     1      66.615  30.052  48.719  1.00  0.00    -0.006 A 
ATOM     19  C   UNL     1      66.994  28.966  46.549  1.00  0.00     0.072 A 
ATOM     20  C   UNL     1      67.554  31.070  48.374  1.00  0.00     0.008 A 
ATOM     21  C   UNL     1      68.023  29.892  46.282  1.00  0.00     0.169 A 
ATOM     22  C   UNL     1      68.297  30.929  47.182  1.00  0.00     0.162 A 
BRANCH  13  23
ATOM     23  O   UNL     1      64.577  27.433  47.022  1.00  0.00    -0.507 OA
ATOM     24  H   UNL     1      64.482  26.426  47.083  1.00  0.00     0.293 HD
ENDBRANCH  13  23
BRANCH  19  25
ATOM     25  C   UNL     1      66.814  27.847  45.600  1.00  0.00     0.264 C 
ATOM     26  O   UNL     1      67.775  27.078  45.328  1.00  0.00    -0.298 OA
ENDBRANCH  19  25
BRANCH  20  27
ATOM     27  C   UNL     1      67.762  32.310  49.261  1.00  0.00     0.017 C 
ATOM     28  C   UNL     1      69.139  32.279  49.932  1.00  0.00     0.012 C 
ATOM     29  C   UNL     1      67.527  33.643  48.526  1.00  0.00     0.012 C 
ENDBRANCH  20  27
BRANCH  21  30
ATOM     30  O   UNL     1      68.811  29.797  45.128  1.00  0.00    -0.504 OA
ATOM     31  H   UNL     1      69.162  28.926  44.753  1.00  0.00     0.293 HD
ENDBRANCH  21  30
BRANCH  22  32
ATOM     32  O   UNL     1      69.339  31.816  46.902  1.00  0.00    -0.504 OA
ATOM     33  H   UNL     1      70.316  31.577  47.021  1.00  0.00     0.293 HD
ENDBRANCH  22  32
ENDBRANCH  11  12
BRANCH  10  34
ATOM     34  O   UNL     1      61.854  29.127  49.235  1.00  0.00    -0.507 OA
ATOM     35  H   UNL     1      62.139  29.566  48.368  1.00  0.00     0.293 HD
ENDBRANCH  10  34
BRANCH   9  36
ATOM     36  C   UNL     1      60.391  23.171  50.736  1.00  0.00     0.017 C 
ATOM     37  C   UNL     1      61.001  22.531  49.485  1.00  0.00     0.012 C 
ATOM     38  C   UNL     1      61.210  22.828  51.994  1.00  0.00     0.012 C 
ENDBRANCH   9  36
BRANCH   6  39
ATOM     39  C   UNL     1      59.241  28.645  49.157  1.00  0.00     0.264 C 
ATOM     40  O   UNL     1      58.818  29.585  49.880  1.00  0.00    -0.298 OA
ENDBRANCH   6  39
BRANCH   8  41
ATOM     41  O   UNL     1      57.851  24.449  51.222  1.00  0.00    -0.504 OA
ATOM     42  H   UNL     1      57.830  23.439  51.164  1.00  0.00     0.293 HD
ENDBRANCH   8  41
BRANCH   7  43
ATOM     43  O   UNL     1      57.276  26.979  50.340  1.00  0.00    -0.504 OA
ATOM     44  H   UNL     1      56.632  26.985  49.560  1.00  0.00     0.293 HD
ENDBRANCH   7  43
TORSDOF 11
ENDMDL
MODEL 2
REMARK VINA RESULT:    -5.427     10.857     15.786
REMARK INTER + INTRA:          -9.194
REMARK INTER:                  -8.006
REMARK INTRA:                  -1.188
REMARK UNBOUND:                -1.229
REMARK SMILES Cc1cc2c(C(C)C)c(O)c(O)c(C=O)c2c(O)c1-c1c(C)cc2c(C(C)C)c(O)c(O)c(C=O)c2c1O
REMARK SMILES IDX 1 1 2 2 3 3 4 4 16 5 13 6 11 7 9 8 5 9 17 10 19 11 20 12
REMARK SMILES IDX 37 13 21 14 36 15 23 16 22 17 24 18 33 19 25 20 31 21 29 22
REMARK SMILES IDX 38 23 34 25 35 26 26 27 27 28 28 29 32 30 30 32 18 34 6 36
REMARK SMILES IDX 7 37 8 38 14 39 15 40 10 41 12 43
REMARK H PARENT 38 24 32 31 30 33 18 35 10 42 12 44
REMARK Flexibility Score: inf
ROOT
ATOM      1  C   UNL     1      62.724  24.184  60.617  1.00  0.00     0.045 C 
ATOM      2  C   UNL     1      62.696  25.681  60.811  1.00  0.00    -0.039 A 
ATOM      3  C   UNL     1      63.859  26.421  60.599  1.00  0.00     0.013 A 
ATOM      4  C   UNL     1      63.901  27.821  60.787  1.00  0.00    -0.006 A 
ATOM      5  C   UNL     1      62.694  28.505  61.131  1.00  0.00     0.039 A 
ATOM      6  C   UNL     1      62.721  29.926  61.256  1.00  0.00     0.072 A 
ATOM      7  C   UNL     1      63.871  30.641  60.869  1.00  0.00     0.169 A 
ATOM      8  C   UNL     1      65.040  29.962  60.513  1.00  0.00     0.162 A 
ATOM      9  C   UNL     1      65.113  28.555  60.600  1.00  0.00     0.008 A 
ATOM     10  C   UNL     1      61.492  27.751  61.286  1.00  0.00     0.132 A 
ATOM     11  C   UNL     1      61.505  26.345  61.149  1.00  0.00     0.031 A 
ENDROOT
BRANCH  11  12
ATOM     12  C   UNL     1      60.249  25.567  61.321  1.00  0.00     0.031 A 
ATOM     13  C   UNL     1      59.990  24.901  62.538  1.00  0.00     0.132 A 
ATOM     14  C   UNL     1      59.322  25.493  60.267  1.00  0.00    -0.039 A 
ATOM     15  C   UNL     1      58.809  24.117  62.690  1.00  0.00     0.039 A 
ATOM     16  C   UNL     1      58.110  24.827  60.464  1.00  0.00     0.013 A 
ATOM     17  C   UNL     1      59.601  26.149  58.937  1.00  0.00     0.045 C 
ATOM     18  C   UNL     1      57.797  24.201  61.690  1.00  0.00    -0.006 A 
ATOM     19  C   UNL     1      58.597  23.270  63.817  1.00  0.00     0.072 A 
ATOM     20  C   UNL     1      56.507  23.640  61.928  1.00  0.00     0.008 A 
ATOM     21  C   UNL     1      57.366  22.600  63.969  1.00  0.00     0.169 A 
ATOM     22  C   UNL     1      56.337  22.784  63.038  1.00  0.00     0.162 A 
BRANCH  13  23
ATOM     23  O   UNL     1      60.879  25.050  63.608  1.00  0.00    -0.507 OA
ATOM     24  H   UNL     1      61.203  25.946  63.950  1.00  0.00     0.293 HD
ENDBRANCH  13  23
BRANCH  19  25
ATOM     25  C   UNL     1      59.668  22.966  64.788  1.00  0.00     0.264 C 
ATOM     26  O   UNL     1      60.068  21.782  64.949  1.00  0.00    -0.298 OA
ENDBRANCH  19  25
BRANCH  20  27
ATOM     27  C   UNL     1      55.309  23.954  61.015  1.00  0.00     0.017 C 
ATOM     28  C   UNL     1      54.945  22.741  60.153  1.00  0.00     0.012 C 
ATOM     29  C   UNL     1      54.080  24.493  61.771  1.00  0.00     0.012 C 
ENDBRANCH  20  27
BRANCH  21  30
ATOM     30  O   UNL     1      57.138  21.722  65.036  1.00  0.00    -0.504 OA
ATOM     31  H   UNL     1      57.297  20.724  64.992  1.00  0.00     0.293 HD
ENDBRANCH  21  30
BRANCH  22  32
ATOM     32  O   UNL     1      55.137  22.087  63.202  1.00  0.00    -0.504 OA
ATOM     33  H   UNL     1      54.460  21.970  62.458  1.00  0.00     0.293 HD
ENDBRANCH  22  32
ENDBRANCH  11  12
BRANCH  10  34
ATOM     34  O   UNL     1      60.278  28.399  61.537  1.00  0.00    -0.507 OA
ATOM     35  H   UNL     1      59.849  28.467  62.451  1.00  0.00     0.293 HD
ENDBRANCH  10  34
BRANCH   9  36
ATOM     36  C   UNL     1      66.475  27.853  60.459  1.00  0.00     0.017 C 
ATOM     37  C   UNL     1      66.929  27.829  58.996  1.00  0.00     0.012 C 
ATOM     38  C   UNL     1      67.572  28.430  61.374  1.00  0.00     0.012 C 
ENDBRANCH   9  36
BRANCH   6  39
ATOM     39  C   UNL     1      61.590  30.694  61.816  1.00  0.00     0.264 C 
ATOM     40  O   UNL     1      60.870  31.404  61.065  1.00  0.00    -0.298 OA
ENDBRANCH   6  39
BRANCH   8  41
ATOM     41  O   UNL     1      66.148  30.693  60.076  1.00  0.00    -0.504 OA
ATOM     42  H   UNL     1      66.664  30.464  59.236  1.00  0.00     0.293 HD
ENDBRANCH   8  41
BRANCH   7  43
ATOM     43  O   UNL     1      63.894  32.041  60.857  1.00  0.00    -0.504 OA
ATOM     44  H   UNL     1      63.213  32.623  61.326  1.00  0.00     0.293 HD
ENDBRANCH   7  43
TORSDOF 11
ENDMDL
MODEL 3
REMARK VINA RESULT:    -5.238      2.486      3.399
REMARK INTER + INTRA:          -8.917
REMARK INTER:                  -7.812
REMARK INTRA:                  -1.106
REMARK UNBOUND:                -1.229
REMARK SMILES Cc1cc2c(C(C)C)c(O)c(O)c(C=O)c2c(O)c1-c1c(C)cc2c(C(C)C)c(O)c(O)c(C=O)c2c1O
REMARK SMILES IDX 1 1 2 2 3 3 4 4 16 5 13 6 11 7 9 8 5 9 17 10 19 11 20 12
REMARK SMILES IDX 37 13 21 14 36 15 23 16 22 17 24 18 33 19 25 20 31 21 29 22
REMARK SMILES IDX 38 23 34 25 35 26 26 27 27 28 28 29 32 30 30 32 18 34 6 36
REMARK SMILES IDX 7 37 8 38 14 39 15 40 10 41 12 43
REMARK H PARENT 38 24 32 31 30 33 18 35 10 42 12 44
REMARK Flexibility Score: inf
ROOT
ATOM      1  C   UNL     1      65.274  28.349  51.125  1.00  0.00     0.045 C 
ATOM      2  C   UNL     1      63.822  28.212  50.734  1.00  0.00    -0.039 A 
ATOM      3  C   UNL     1      63.212  26.959  50.798  1.00  0.00     0.013 A 
ATOM      4  C   UNL     1      61.863  26.763  50.423  1.00  0.00    -0.006 A 
ATOM      5  C   UNL     1      61.084  27.899  50.042  1.00  0.00     0.039 A 
ATOM      6  C   UNL     1      59.705  27.712  49.728  1.00  0.00     0.072 A 
ATOM      7  C   UNL     1      59.095  26.466  49.969  1.00  0.00     0.169 A 
ATOM      8  C   UNL     1      59.863  25.367  50.362  1.00  0.00     0.162 A 
ATOM      9  C   UNL     1      61.268  25.464  50.461  1.00  0.00     0.008 A 
ATOM     10  C   UNL     1      61.697  29.189  50.039  1.00  0.00     0.132 A 
ATOM     11  C   UNL     1      63.064  29.334  50.361  1.00  0.00     0.031 A 
ENDROOT
BRANCH  11  12
ATOM     12  C   UNL     1      63.696  30.680  50.347  1.00  0.00     0.031 A 
ATOM     13  C   UNL     1      64.369  31.134  49.193  1.00  0.00     0.132 A 
ATOM     14  C   UNL     1      63.624  31.498  51.487  1.00  0.00    -0.039 A 
ATOM     15  C   UNL     1      65.014  32.405  49.191  1.00  0.00     0.039 A 
ATOM     16  C   UNL     1      64.150  32.791  51.438  1.00  0.00     0.013 A 
ATOM     17  C   UNL     1      62.959  31.015  52.753  1.00  0.00     0.045 C 
ATOM     18  C   UNL     1      64.778  33.295  50.278  1.00  0.00    -0.006 A 
ATOM     19  C   UNL     1      65.869  32.824  48.130  1.00  0.00     0.072 A 
ATOM     20  C   UNL     1      65.192  34.658  50.192  1.00  0.00     0.008 A 
ATOM     21  C   UNL     1      66.395  34.132  48.128  1.00  0.00     0.169 A 
ATOM     22  C   UNL     1      66.061  35.034  49.144  1.00  0.00     0.162 A 
BRANCH  13  23
ATOM     23  O   UNL     1      64.362  30.347  48.036  1.00  0.00    -0.507 OA
ATOM     24  H   UNL     1      64.255  30.720  47.101  1.00  0.00     0.293 HD
ENDBRANCH  13  23
BRANCH  19  25
ATOM     25  C   UNL     1      66.330  31.897  47.075  1.00  0.00     0.264 C 
ATOM     26  O   UNL     1      67.558  31.649  46.934  1.00  0.00    -0.298 OA
ENDBRANCH  19  25
BRANCH  20  27
ATOM     27  C   UNL     1      64.709  35.715  51.201  1.00  0.00     0.017 C 
ATOM     28  C   UNL     1      63.190  35.639  51.387  1.00  0.00     0.012 C 
ATOM     29  C   UNL     1      65.443  35.659  52.553  1.00  0.00     0.012 C 
ENDBRANCH  20  27
BRANCH  21  30
ATOM     30  O   UNL     1      67.278  34.563  47.130  1.00  0.00    -0.504 OA
ATOM     31  H   UNL     1      68.251  34.292  47.078  1.00  0.00     0.293 HD
ENDBRANCH  21  30
BRANCH  22  32
ATOM     32  O   UNL     1      66.618  36.316  49.129  1.00  0.00    -0.504 OA
ATOM     33  H   UNL     1      66.721  36.883  49.961  1.00  0.00     0.293 HD
ENDBRANCH  22  32
ENDBRANCH  11  12
BRANCH  10  34
ATOM     34  O   UNL     1      60.940  30.331  49.755  1.00  0.00    -0.507 OA
ATOM     35  H   UNL     1      60.789  31.089  50.409  1.00  0.00     0.293 HD
ENDBRANCH  10  34
BRANCH   9  36
ATOM     36  C   UNL     1      62.110  24.189  50.636  1.00  0.00     0.017 C 
ATOM     37  C   UNL     1      62.217  23.804  52.115  1.00  0.00     0.012 C 
ATOM     38  C   UNL     1      61.627  23.000  49.784  1.00  0.00     0.012 C 
ENDBRANCH   9  36
BRANCH   6  39
ATOM     39  C   UNL     1      58.879  28.776  49.119  1.00  0.00     0.264 C 
ATOM     40  O   UNL     1      57.986  29.353  49.794  1.00  0.00    -0.298 OA
ENDBRANCH   6  39
BRANCH   8  41
ATOM     41  O   UNL     1      59.226  24.157  50.651  1.00  0.00    -0.504 OA
ATOM     42  H   UNL     1      59.662  23.418  51.188  1.00  0.00     0.293 HD
ENDBRANCH   8  41
BRANCH   7  43
ATOM     43  O   UNL     1      57.719  26.278  49.793  1.00  0.00    -0.504 OA
ATOM     44  H   UNL     1      57.072  27.016  49.548  1.00  0.00     0.293 HD
ENDBRANCH   7  43
TORSDOF 11
ENDMDL
MODEL 4
REMARK VINA RESULT:    -5.172     10.581     15.203
REMARK INTER + INTRA:          -8.820
REMARK INTER:                  -7.341
REMARK INTRA:                  -1.479
REMARK UNBOUND:                -1.229
REMARK SMILES Cc1cc2c(C(C)C)c(O)c(O)c(C=O)c2c(O)c1-c1c(C)cc2c(C(C)C)c(O)c(O)c(C=O)c2c1O
REMARK SMILES IDX 1 1 2 2 3 3 4 4 16 5 13 6 11 7 9 8 5 9 17 10 19 11 20 12
REMARK SMILES IDX 37 13 21 14 36 15 23 16 22 17 24 18 33 19 25 20 31 21 29 22
REMARK SMILES IDX 38 23 34 25 35 26 26 27 27 28 28 29 32 30 30 32 18 34 6 36
REMARK SMILES IDX 7 37 8 38 14 39 15 40 10 41 12 43
REMARK H PARENT 38 24 32 31 30 33 18 35 10 42 12 44
REMARK Flexibility Score: inf
ROOT
ATOM      1  C   UNL     1      62.882  24.055  60.911  1.00  0.00     0.045 C 
ATOM      2  C   UNL     1      62.783  25.558  61.019  1.00  0.00    -0.039 A 
ATOM      3  C   UNL     1      63.912  26.338  60.767  1.00  0.00     0.013 A 
ATOM      4  C   UNL     1      63.888  27.747  60.874  1.00  0.00    -0.006 A 
ATOM      5  C   UNL     1      62.649  28.392  61.176  1.00  0.00     0.039 A 
ATOM      6  C   UNL     1      62.609  29.818  61.219  1.00  0.00     0.072 A 
ATOM      7  C   UNL     1      63.726  30.562  60.794  1.00  0.00     0.169 A 
ATOM      8  C   UNL     1      64.927  29.920  60.481  1.00  0.00     0.162 A 
ATOM      9  C   UNL     1      65.066  28.525  60.648  1.00  0.00     0.008 A 
ATOM     10  C   UNL     1      61.482  27.592  61.371  1.00  0.00     0.132 A 
ATOM     11  C   UNL     1      61.561  26.183  61.315  1.00  0.00     0.031 A 
ENDROOT
BRANCH  11  12
ATOM     12  C   UNL     1      60.342  25.359  61.528  1.00  0.00     0.031 A 
ATOM     13  C   UNL     1      59.461  25.108  60.455  1.00  0.00     0.132 A 
ATOM     14  C   UNL     1      60.068  24.831  62.802  1.00  0.00    -0.039 A 
ATOM     15  C   UNL     1      58.268  24.357  60.666  1.00  0.00     0.039 A 
ATOM     16  C   UNL     1      58.965  23.992  62.974  1.00  0.00     0.013 A 
ATOM     17  C   UNL     1      60.965  25.130  63.979  1.00  0.00     0.045 C 
ATOM     18  C   UNL     1      58.097  23.676  61.906  1.00  0.00    -0.006 A 
ATOM     19  C   UNL     1      57.252  24.244  59.671  1.00  0.00     0.072 A 
ATOM     20  C   UNL     1      57.053  22.715  62.058  1.00  0.00     0.008 A 
ATOM     21  C   UNL     1      56.145  23.401  59.893  1.00  0.00     0.169 A 
ATOM     22  C   UNL     1      56.048  22.648  61.068  1.00  0.00     0.162 A 
BRANCH  13  23
ATOM     23  O   UNL     1      59.786  25.568  59.174  1.00  0.00    -0.507 OA
ATOM     24  H   UNL     1      59.840  24.970  58.359  1.00  0.00     0.293 HD
ENDBRANCH  13  23
BRANCH  19  25
ATOM     25  C   UNL     1      57.250  25.074  58.449  1.00  0.00     0.264 C 
ATOM     26  O   UNL     1      57.491  24.558  57.325  1.00  0.00    -0.298 OA
ENDBRANCH  19  25
BRANCH  20  27
ATOM     27  C   UNL     1      57.007  21.756  63.260  1.00  0.00     0.017 C 
ATOM     28  C   UNL     1      55.832  22.093  64.185  1.00  0.00     0.012 C 
ATOM     29  C   UNL     1      56.999  20.268  62.863  1.00  0.00     0.012 C 
ENDBRANCH  20  27
BRANCH  21  30
ATOM     30  O   UNL     1      55.103  23.303  58.961  1.00  0.00    -0.504 OA
ATOM     31  H   UNL     1      55.039  23.864  58.122  1.00  0.00     0.293 HD
ENDBRANCH  21  30
BRANCH  22  32
ATOM     32  O   UNL     1      54.925  21.841  61.271  1.00  0.00    -0.504 OA
ATOM     33  H   UNL     1      54.159  22.102  61.880  1.00  0.00     0.293 HD
ENDBRANCH  22  32
ENDBRANCH  11  12
BRANCH  10  34
ATOM     34  O   UNL     1      60.238  28.196  61.581  1.00  0.00    -0.507 OA
ATOM     35  H   UNL     1      59.959  28.635  62.450  1.00  0.00     0.293 HD
ENDBRANCH  10  34
BRANCH   9  36
ATOM     36  C   UNL     1      66.459  27.880  60.551  1.00  0.00     0.017 C 
ATOM     37  C   UNL     1      66.935  27.823  59.096  1.00  0.00     0.012 C 
ATOM     38  C   UNL     1      67.515  28.540  61.458  1.00  0.00     0.012 C 
ENDBRANCH   9  36
BRANCH   6  39
ATOM     39  C   UNL     1      61.440  30.563  61.731  1.00  0.00     0.264 C 
ATOM     40  O   UNL     1      60.712  31.223  60.943  1.00  0.00    -0.298 OA
ENDBRANCH   6  39
BRANCH   8  41
ATOM     41  O   UNL     1      66.002  30.675  60.005  1.00  0.00    -0.504 OA
ATOM     42  H   UNL     1      65.978  31.177  59.127  1.00  0.00     0.293 HD
ENDBRANCH   8  41
BRANCH   7  43
ATOM     43  O   UNL     1      63.683  31.959  60.702  1.00  0.00    -0.504 OA
ATOM     44  H   UNL     1      64.143  32.494  59.977  1.00  0.00     0.293 HD
ENDBRANCH   7  43
TORSDOF 11
ENDMDL
MODEL 5
REMARK VINA RESULT:    -5.128      1.128      9.242
REMARK INTER + INTRA:          -8.756
REMARK INTER:                  -7.576
REMARK INTRA:                  -1.180
REMARK UNBOUND:                -1.229
REMARK SMILES Cc1cc2c(C(C)C)c(O)c(O)c(C=O)c2c(O)c1-c1c(C)cc2c(C(C)C)c(O)c(O)c(C=O)c2c1O
REMARK SMILES IDX 1 1 2 2 3 3 4 4 16 5 13 6 11 7 9 8 5 9 17 10 19 11 20 12
REMARK SMILES IDX 37 13 21 14 36 15 23 16 22 17 24 18 33 19 25 20 31 21 29 22
REMARK SMILES IDX 38 23 34 25 35 26 26 27 27 28 28 29 32 30 30 32 18 34 6 36
REMARK SMILES IDX 7 37 8 38 14 39 15 40 10 41 12 43
REMARK H PARENT 38 24 32 31 30 33 18 35 10 42 12 44
REMARK Flexibility Score: inf
ROOT
ATOM      1  C   UNL     1      63.616  30.000  50.935  1.00  0.00     0.045 C 
ATOM      2  C   UNL     1      64.470  29.703  49.726  1.00  0.00    -0.039 A 
ATOM      3  C   UNL     1      65.249  30.719  49.172  1.00  0.00     0.013 A 
ATOM      4  C   UNL     1      66.050  30.508  48.027  1.00  0.00    -0.006 A 
ATOM      5  C   UNL     1      66.121  29.194  47.470  1.00  0.00     0.039 A 
ATOM      6  C   UNL     1      66.982  28.965  46.355  1.00  0.00     0.072 A 
ATOM      7  C   UNL     1      67.871  29.975  45.939  1.00  0.00     0.169 A 
ATOM      8  C   UNL     1      67.807  31.251  46.505  1.00  0.00     0.162 A 
ATOM      9  C   UNL     1      66.812  31.572  47.453  1.00  0.00     0.008 A 
ATOM     10  C   UNL     1      65.371  28.143  48.080  1.00  0.00     0.132 A 
ATOM     11  C   UNL     1      64.533  28.408  49.185  1.00  0.00     0.031 A 
ENDROOT
BRANCH  11  12
ATOM     12  C   UNL     1      63.749  27.309  49.808  1.00  0.00     0.031 A 
ATOM     13  C   UNL     1      62.377  27.161  49.512  1.00  0.00     0.132 A 
ATOM     14  C   UNL     1      64.376  26.418  50.696  1.00  0.00    -0.039 A 
ATOM     15  C   UNL     1      61.612  26.137  50.142  1.00  0.00     0.039 A 
ATOM     16  C   UNL     1      63.652  25.341  51.214  1.00  0.00     0.013 A 
ATOM     17  C   UNL     1      65.828  26.586  51.074  1.00  0.00     0.045 C 
ATOM     18  C   UNL     1      62.294  25.134  50.890  1.00  0.00    -0.006 A 
ATOM     19  C   UNL     1      60.192  26.069  50.030  1.00  0.00     0.072 A 
ATOM     20  C   UNL     1      61.600  23.961  51.315  1.00  0.00     0.008 A 
ATOM     21  C   UNL     1      59.497  24.975  50.584  1.00  0.00     0.169 A 
ATOM     22  C   UNL     1      60.192  23.937  51.216  1.00  0.00     0.162 A 
BRANCH  13  23
ATOM     23  O   UNL     1      61.783  28.001  48.563  1.00  0.00    -0.507 OA
ATOM     24  H   UNL     1      61.048  28.663  48.779  1.00  0.00     0.293 HD
ENDBRANCH  13  23
BRANCH  19  25
ATOM     25  C   UNL     1      59.393  27.170  49.453  1.00  0.00     0.264 C 
ATOM     26  O   UNL     1      58.546  27.782  50.158  1.00  0.00    -0.298 OA
ENDBRANCH  19  25
BRANCH  20  27
ATOM     27  C   UNL     1      62.349  22.735  51.863  1.00  0.00     0.017 C 
ATOM     28  C   UNL     1      62.063  22.540  53.355  1.00  0.00     0.012 C 
ATOM     29  C   UNL     1      62.084  21.442  51.068  1.00  0.00     0.012 C 
ENDBRANCH  20  27
BRANCH  21  30
ATOM     30  O   UNL     1      58.099  24.898  50.539  1.00  0.00    -0.504 OA
ATOM     31  H   UNL     1      57.567  24.766  49.689  1.00  0.00     0.293 HD
ENDBRANCH  21  30
BRANCH  22  32
ATOM     32  O   UNL     1      59.474  22.878  51.778  1.00  0.00    -0.504 OA
ATOM     33  H   UNL     1      58.582  22.562  51.416  1.00  0.00     0.293 HD
ENDBRANCH  22  32
ENDBRANCH  11  12
BRANCH  10  34
ATOM     34  O   UNL     1      65.486  26.829  47.613  1.00  0.00    -0.507 OA
ATOM     35  H   UNL     1      66.238  26.500  47.020  1.00  0.00     0.293 HD
ENDBRANCH  10  34
BRANCH   9  36
ATOM     36  C   UNL     1      66.596  33.040  47.863  1.00  0.00     0.017 C 
ATOM     37  C   UNL     1      67.730  33.525  48.772  1.00  0.00     0.012 C 
ATOM     38  C   UNL     1      66.386  33.995  46.674  1.00  0.00     0.012 C 
ENDBRANCH   9  36
BRANCH   6  39
ATOM     39  C   UNL     1      66.958  27.707  45.581  1.00  0.00     0.264 C 
ATOM     40  O   UNL     1      67.896  26.873  45.694  1.00  0.00    -0.298 OA
ENDBRANCH   6  39
BRANCH   8  41
ATOM     41  O   UNL     1      68.739  32.217  46.117  1.00  0.00    -0.504 OA
ATOM     42  H   UNL     1      68.833  32.542  45.163  1.00  0.00     0.293 HD
ENDBRANCH   8  41
BRANCH   7  43
ATOM     43  O   UNL     1      68.817  29.748  44.932  1.00  0.00    -0.504 OA
ATOM     44  H   UNL     1      69.637  29.167  45.045  1.00  0.00     0.293 HD
ENDBRANCH   7  43
TORSDOF 11
ENDMDL
MODEL 6
REMARK VINA RESULT:    -5.067      2.285      3.615
REMARK INTER + INTRA:          -8.666
REMARK INTER:                  -7.218
REMARK INTRA:                  -1.449
REMARK UNBOUND:                -1.229
REMARK SMILES Cc1cc2c(C(C)C)c(O)c(O)c(C=O)c2c(O)c1-c1c(C)cc2c(C(C)C)c(O)c(O)c(C=O)c2c1O
REMARK SMILES IDX 1 1 2 2 3 3 4 4 16 5 13 6 11 7 9 8 5 9 17 10 19 11 20 12
REMARK SMILES IDX 37 13 21 14 36 15 23 16 22 17 24 18 33 19 25 20 31 21 29 22
REMARK SMILES IDX 38 23 34 25 35 26 26 27 27 28 28 29 32 30 30 32 18 34 6 36
REMARK SMILES IDX 7 37 8 38 14 39 15 40 10 41 12 43
REMARK H PARENT 38 24 32 31 30 33 18 35 10 42 12 44
REMARK Flexibility Score: inf
ROOT
ATOM      1  C   UNL     1      65.644  26.717  50.023  1.00  0.00     0.045 C 
ATOM      2  C   UNL     1      64.147  26.892  49.926  1.00  0.00    -0.039 A 
ATOM      3  C   UNL     1      63.313  25.796  50.147  1.00  0.00     0.013 A 
ATOM      4  C   UNL     1      61.907  25.892  50.048  1.00  0.00    -0.006 A 
ATOM      5  C   UNL     1      61.322  27.170  49.788  1.00  0.00     0.039 A 
ATOM      6  C   UNL     1      59.900  27.281  49.754  1.00  0.00     0.072 A 
ATOM      7  C   UNL     1      59.103  26.189  50.149  1.00  0.00     0.169 A 
ATOM      8  C   UNL     1      59.688  24.949  50.422  1.00  0.00     0.162 A 
ATOM      9  C   UNL     1      61.073  24.748  50.243  1.00  0.00     0.008 A 
ATOM     10  C   UNL     1      62.177  28.301  49.624  1.00  0.00     0.132 A 
ATOM     11  C   UNL     1      63.581  28.152  49.669  1.00  0.00     0.031 A 
ENDROOT
BRANCH  11  12
ATOM     12  C   UNL     1      64.464  29.335  49.489  1.00  0.00     0.031 A 
ATOM     13  C   UNL     1      64.730  30.192  50.578  1.00  0.00     0.132 A 
ATOM     14  C   UNL     1      65.030  29.600  48.230  1.00  0.00    -0.039 A 
ATOM     15  C   UNL     1      65.539  31.352  50.398  1.00  0.00     0.039 A 
ATOM     16  C   UNL     1      65.921  30.667  48.090  1.00  0.00     0.013 A 
ATOM     17  C   UNL     1      64.717  28.732  47.036  1.00  0.00     0.045 C 
ATOM     18  C   UNL     1      66.252  31.507  49.175  1.00  0.00    -0.006 A 
ATOM     19  C   UNL     1      65.675  32.350  51.408  1.00  0.00     0.072 A 
ATOM     20  C   UNL     1      67.262  32.509  49.056  1.00  0.00     0.008 A 
ATOM     21  C   UNL     1      66.572  33.421  51.218  1.00  0.00     0.169 A 
ATOM     22  C   UNL     1      67.353  33.498  50.060  1.00  0.00     0.162 A 
BRANCH  13  23
ATOM     23  O   UNL     1      64.230  29.873  51.845  1.00  0.00    -0.507 OA
ATOM     24  H   UNL     1      64.793  29.864  52.687  1.00  0.00     0.293 HD
ENDBRANCH  13  23
BRANCH  19  25
ATOM     25  C   UNL     1      64.820  32.375  52.613  1.00  0.00     0.264 C 
ATOM     26  O   UNL     1      65.302  32.097  53.745  1.00  0.00    -0.298 OA
ENDBRANCH  19  25
BRANCH  20  27
ATOM     27  C   UNL     1      68.247  32.526  47.874  1.00  0.00     0.017 C 
ATOM     28  C   UNL     1      67.938  33.684  46.920  1.00  0.00     0.012 C 
ATOM     29  C   UNL     1      69.726  32.533  48.304  1.00  0.00     0.012 C 
ENDBRANCH  20  27
BRANCH  21  30
ATOM     30  O   UNL     1      66.696  34.446  52.165  1.00  0.00    -0.504 OA
ATOM     31  H   UNL     1      67.538  34.989  52.305  1.00  0.00     0.293 HD
ENDBRANCH  21  30
BRANCH  22  32
ATOM     32  O   UNL     1      68.214  34.586  49.888  1.00  0.00    -0.504 OA
ATOM     33  H   UNL     1      67.991  35.522  50.204  1.00  0.00     0.293 HD
ENDBRANCH  22  32
ENDBRANCH  11  12
BRANCH  10  34
ATOM     34  O   UNL     1      61.634  29.580  49.455  1.00  0.00    -0.507 OA
ATOM     35  H   UNL     1      61.776  30.153  48.632  1.00  0.00     0.293 HD
ENDBRANCH  10  34
BRANCH   9  36
ATOM     36  C   UNL     1      61.649  23.322  50.294  1.00  0.00     0.017 C 
ATOM     37  C   UNL     1      61.622  22.772  51.724  1.00  0.00     0.012 C 
ATOM     38  C   UNL     1      60.982  22.344  49.308  1.00  0.00     0.012 C 
ENDBRANCH   9  36
BRANCH   6  39
ATOM     39  C   UNL     1      59.211  28.500  49.281  1.00  0.00     0.264 C 
ATOM     40  O   UNL     1      58.627  29.257  50.100  1.00  0.00    -0.298 OA
ENDBRANCH   6  39
BRANCH   8  41
ATOM     41  O   UNL     1      58.882  23.898  50.868  1.00  0.00    -0.504 OA
ATOM     42  H   UNL     1      59.256  23.051  51.278  1.00  0.00     0.293 HD
ENDBRANCH   8  41
BRANCH   7  43
ATOM     43  O   UNL     1      57.711  26.297  50.249  1.00  0.00    -0.504 OA
ATOM     44  H   UNL     1      57.062  25.604  49.901  1.00  0.00     0.293 HD
ENDBRANCH   7  43
TORSDOF 11
ENDMDL
MODEL 7
REMARK VINA RESULT:    -5.047      3.896     10.489
REMARK INTER + INTRA:          -8.637
REMARK INTER:                  -7.497
REMARK INTRA:                  -1.140
REMARK UNBOUND:                -1.229
REMARK SMILES Cc1cc2c(C(C)C)c(O)c(O)c(C=O)c2c(O)c1-c1c(C)cc2c(C(C)C)c(O)c(O)c(C=O)c2c1O
REMARK SMILES IDX 1 1 2 2 3 3 4 4 16 5 13 6 11 7 9 8 5 9 17 10 19 11 20 12
REMARK SMILES IDX 37 13 21 14 36 15 23 16 22 17 24 18 33 19 25 20 31 21 29 22
REMARK SMILES IDX 38 23 34 25 35 26 26 27 27 28 28 29 32 30 30 32 18 34 6 36
REMARK SMILES IDX 7 37 8 38 14 39 15 40 10 41 12 43
REMARK H PARENT 38 24 32 31 30 33 18 35 10 42 12 44
REMARK Flexibility Score: inf
ROOT
ATOM      1  C   UNL     1      63.098  23.607  51.241  1.00  0.00     0.045 C 
ATOM      2  C   UNL     1      61.954  24.579  51.080  1.00  0.00    -0.039 A 
ATOM      3  C   UNL     1      62.227  25.912  50.774  1.00  0.00     0.013 A 
ATOM      4  C   UNL     1      61.200  26.874  50.634  1.00  0.00    -0.006 A 
ATOM      5  C   UNL     1      59.841  26.446  50.734  1.00  0.00     0.039 A 
ATOM      6  C   UNL     1      58.802  27.402  50.527  1.00  0.00     0.072 A 
ATOM      7  C   UNL     1      59.121  28.691  50.056  1.00  0.00     0.169 A 
ATOM      8  C   UNL     1      60.455  29.091  49.941  1.00  0.00     0.162 A 
ATOM      9  C   UNL     1      61.504  28.242  50.356  1.00  0.00     0.008 A 
ATOM     10  C   UNL     1      59.565  25.068  50.986  1.00  0.00     0.132 A 
ATOM     11  C   UNL     1      60.621  24.150  51.181  1.00  0.00     0.031 A 
ENDROOT
BRANCH  11  12
ATOM     12  C   UNL     1      60.324  22.718  51.451  1.00  0.00     0.031 A 
ATOM     13  C   UNL     1      60.001  22.296  52.758  1.00  0.00     0.132 A 
ATOM     14  C   UNL     1      60.370  21.784  50.401  1.00  0.00    -0.039 A 
ATOM     15  C   UNL     1      59.762  20.917  53.030  1.00  0.00     0.039 A 
ATOM     16  C   UNL     1      60.012  20.457  50.648  1.00  0.00     0.013 A 
ATOM     17  C   UNL     1      60.767  22.199  49.006  1.00  0.00     0.045 C 
ATOM     18  C   UNL     1      59.628  20.017  51.934  1.00  0.00    -0.006 A 
ATOM     19  C   UNL     1      59.628  20.414  54.357  1.00  0.00     0.072 A 
ATOM     20  C   UNL     1      59.137  18.694  52.149  1.00  0.00     0.008 A 
ATOM     21  C   UNL     1      59.285  19.062  54.563  1.00  0.00     0.169 A 
ATOM     22  C   UNL     1      59.043  18.216  53.475  1.00  0.00     0.162 A 
BRANCH  13  23
ATOM     23  O   UNL     1      59.877  23.246  53.778  1.00  0.00    -0.507 OA
ATOM     24  H   UNL     1      59.046  23.357  54.346  1.00  0.00     0.293 HD
ENDBRANCH  13  23
BRANCH  19  25
ATOM     25  C   UNL     1      59.953  21.229  55.546  1.00  0.00     0.264 C 
ATOM     26  O   UNL     1      59.037  21.638  56.310  1.00  0.00    -0.298 OA
ENDBRANCH  19  25
BRANCH  20  27
ATOM     27  C   UNL     1      58.705  17.793  50.979  1.00  0.00     0.017 C 
ATOM     28  C   UNL     1      57.484  18.375  50.262  1.00  0.00     0.012 C 
ATOM     29  C   UNL     1      59.842  17.480  49.988  1.00  0.00     0.012 C 
ENDBRANCH  20  27
BRANCH  21  30
ATOM     30  O   UNL     1      59.194  18.520  55.851  1.00  0.00    -0.504 OA
ATOM     31  H   UNL     1      59.220  19.068  56.700  1.00  0.00     0.293 HD
ENDBRANCH  21  30
BRANCH  22  32
ATOM     32  O   UNL     1      58.729  16.875  53.710  1.00  0.00    -0.504 OA
ATOM     33  H   UNL     1      58.446  16.525  54.617  1.00  0.00     0.293 HD
ENDBRANCH  22  32
ENDBRANCH  11  12
BRANCH  10  34
ATOM     34  O   UNL     1      58.246  24.602  51.004  1.00  0.00    -0.507 OA
ATOM     35  H   UNL     1      57.437  25.180  50.816  1.00  0.00     0.293 HD
ENDBRANCH  10  34
BRANCH   9  36
ATOM     36  C   UNL     1      62.935  28.796  50.467  1.00  0.00     0.017 C 
ATOM     37  C   UNL     1      63.504  28.562  51.870  1.00  0.00     0.012 C 
ATOM     38  C   UNL     1      63.893  28.270  49.382  1.00  0.00     0.012 C 
ENDBRANCH   9  36
BRANCH   6  39
ATOM     39  C   UNL     1      57.384  27.110  50.822  1.00  0.00     0.264 C 
ATOM     40  O   UNL     1      56.569  26.906  49.884  1.00  0.00    -0.298 OA
ENDBRANCH   6  39
BRANCH   8  41
ATOM     41  O   UNL     1      60.746  30.353  49.415  1.00  0.00    -0.504 OA
ATOM     42  H   UNL     1      61.108  30.492  48.480  1.00  0.00     0.293 HD
ENDBRANCH   8  41
BRANCH   7  43
ATOM     43  O   UNL     1      58.125  29.615  49.720  1.00  0.00    -0.504 OA
ATOM     44  H   UNL     1      57.852  30.393  50.307  1.00  0.00     0.293 HD
ENDBRANCH   7  43
TORSDOF 11
ENDMDL
MODEL 8
REMARK VINA RESULT:    -5.037      3.429      7.387
REMARK INTER + INTRA:          -8.622
REMARK INTER:                  -7.255
REMARK INTRA:                  -1.367
REMARK UNBOUND:                -1.229
REMARK SMILES Cc1cc2c(C(C)C)c(O)c(O)c(C=O)c2c(O)c1-c1c(C)cc2c(C(C)C)c(O)c(O)c(C=O)c2c1O
REMARK SMILES IDX 1 1 2 2 3 3 4 4 16 5 13 6 11 7 9 8 5 9 17 10 19 11 20 12
REMARK SMILES IDX 37 13 21 14 36 15 23 16 22 17 24 18 33 19 25 20 31 21 29 22
REMARK SMILES IDX 38 23 34 25 35 26 26 27 27 28 28 29 32 30 30 32 18 34 6 36
REMARK SMILES IDX 7 37 8 38 14 39 15 40 10 41 12 43
REMARK H PARENT 38 24 32 31 30 33 18 35 10 42 12 44
REMARK Flexibility Score: inf
ROOT
ATOM      1  C   UNL     1      60.753  21.725  48.968  1.00  0.00     0.045 C 
ATOM      2  C   UNL     1      60.388  21.441  50.405  1.00  0.00    -0.039 A 
ATOM      3  C   UNL     1      59.916  20.175  50.754  1.00  0.00     0.013 A 
ATOM      4  C   UNL     1      59.536  19.857  52.078  1.00  0.00    -0.006 A 
ATOM      5  C   UNL     1      59.715  20.839  53.100  1.00  0.00     0.039 A 
ATOM      6  C   UNL     1      59.395  20.496  54.447  1.00  0.00     0.072 A 
ATOM      7  C   UNL     1      59.084  19.162  54.774  1.00  0.00     0.169 A 
ATOM      8  C   UNL     1      58.932  18.204  53.768  1.00  0.00     0.162 A 
ATOM      9  C   UNL     1      59.019  18.565  52.407  1.00  0.00     0.008 A 
ATOM     10  C   UNL     1      60.258  22.112  52.748  1.00  0.00     0.132 A 
ATOM     11  C   UNL     1      60.567  22.413  51.403  1.00  0.00     0.031 A 
ENDROOT
BRANCH  11  12
ATOM     12  C   UNL     1      61.124  23.744  51.045  1.00  0.00     0.031 A 
ATOM     13  C   UNL     1      60.258  24.821  50.759  1.00  0.00     0.132 A 
ATOM     14  C   UNL     1      62.517  23.928  50.989  1.00  0.00    -0.039 A 
ATOM     15  C   UNL     1      60.788  26.086  50.371  1.00  0.00     0.039 A 
ATOM     16  C   UNL     1      63.031  25.201  50.731  1.00  0.00     0.013 A 
ATOM     17  C   UNL     1      63.465  22.780  51.236  1.00  0.00     0.045 C 
ATOM     18  C   UNL     1      62.189  26.310  50.498  1.00  0.00    -0.006 A 
ATOM     19  C   UNL     1      59.962  27.141  49.882  1.00  0.00     0.072 A 
ATOM     20  C   UNL     1      62.718  27.629  50.367  1.00  0.00     0.008 A 
ATOM     21  C   UNL     1      60.524  28.405  49.615  1.00  0.00     0.169 A 
ATOM     22  C   UNL     1      61.882  28.645  49.855  1.00  0.00     0.162 A 
BRANCH  13  23
ATOM     23  O   UNL     1      58.876  24.649  50.899  1.00  0.00    -0.507 OA
ATOM     24  H   UNL     1      58.404  23.762  50.779  1.00  0.00     0.293 HD
ENDBRANCH  13  23
BRANCH  19  25
ATOM     25  C   UNL     1      58.543  26.931  49.527  1.00  0.00     0.264 C 
ATOM     26  O   UNL     1      57.626  27.423  50.238  1.00  0.00    -0.298 OA
ENDBRANCH  19  25
BRANCH  20  27
ATOM     27  C   UNL     1      64.163  27.963  50.778  1.00  0.00     0.017 C 
ATOM     28  C   UNL     1      65.017  28.301  49.552  1.00  0.00     0.012 C 
ATOM     29  C   UNL     1      64.261  29.065  51.850  1.00  0.00     0.012 C 
ENDBRANCH  20  27
BRANCH  21  30
ATOM     30  O   UNL     1      59.755  29.450  49.088  1.00  0.00    -0.504 OA
ATOM     31  H   UNL     1      59.737  30.388  49.467  1.00  0.00     0.293 HD
ENDBRANCH  21  30
BRANCH  22  32
ATOM     32  O   UNL     1      62.416  29.901  49.557  1.00  0.00    -0.504 OA
ATOM     33  H   UNL     1      63.324  30.027  49.125  1.00  0.00     0.293 HD
ENDBRANCH  22  32
ENDBRANCH  11  12
BRANCH  10  34
ATOM     34  O   UNL     1      60.527  23.064  53.737  1.00  0.00    -0.507 OA
ATOM     35  H   UNL     1      60.106  23.061  54.658  1.00  0.00     0.293 HD
ENDBRANCH  10  34
BRANCH   9  36
ATOM     36  C   UNL     1      58.592  17.560  51.322  1.00  0.00     0.017 C 
ATOM     37  C   UNL     1      57.383  18.082  50.540  1.00  0.00     0.012 C 
ATOM     38  C   UNL     1      59.732  17.145  50.374  1.00  0.00     0.012 C 
ENDBRANCH   9  36
BRANCH   6  39
ATOM     39  C   UNL     1      59.339  21.501  55.529  1.00  0.00     0.264 C 
ATOM     40  O   UNL     1      60.219  21.514  56.430  1.00  0.00    -0.298 OA
ENDBRANCH   6  39
BRANCH   8  41
ATOM     41  O   UNL     1      58.682  16.876  54.123  1.00  0.00    -0.504 OA
ATOM     42  H   UNL     1      59.411  16.234  54.410  1.00  0.00     0.293 HD
ENDBRANCH   8  41
BRANCH   7  43
ATOM     43  O   UNL     1      58.887  18.760  56.101  1.00  0.00    -0.504 OA
ATOM     44  H   UNL     1      59.578  18.859  56.832  1.00  0.00     0.293 HD
ENDBRANCH   7  43
TORSDOF 11
ENDMDL
MODEL 9
REMARK VINA RESULT:    -4.957     10.066     11.898
REMARK INTER + INTRA:          -8.505
REMARK INTER:                  -7.295
REMARK INTRA:                  -1.210
REMARK UNBOUND:                -1.229
REMARK SMILES Cc1cc2c(C(C)C)c(O)c(O)c(C=O)c2c(O)c1-c1c(C)cc2c(C(C)C)c(O)c(O)c(C=O)c2c1O
REMARK SMILES IDX 1 1 2 2 3 3 4 4 16 5 13 6 11 7 9 8 5 9 17 10 19 11 20 12
REMARK SMILES IDX 37 13 21 14 36 15 23 16 22 17 24 18 33 19 25 20 31 21 29 22
REMARK SMILES IDX 38 23 34 25 35 26 26 27 27 28 28 29 32 30 30 32 18 34 6 36
REMARK SMILES IDX 7 37 8 38 14 39 15 40 10 41 12 43
REMARK H PARENT 38 24 32 31 30 33 18 35 10 42 12 44
REMARK Flexibility Score: inf
ROOT
ATOM      1  C   UNL     1      62.972  28.110  58.607  1.00  0.00     0.045 C 
ATOM      2  C   UNL     1      61.748  27.702  59.393  1.00  0.00    -0.039 A 
ATOM      3  C   UNL     1      61.495  26.348  59.611  1.00  0.00     0.013 A 
ATOM      4  C   UNL     1      60.355  25.904  60.318  1.00  0.00    -0.006 A 
ATOM      5  C   UNL     1      59.480  26.878  60.892  1.00  0.00     0.039 A 
ATOM      6  C   UNL     1      58.365  26.431  61.663  1.00  0.00     0.072 A 
ATOM      7  C   UNL     1      58.246  25.068  61.995  1.00  0.00     0.169 A 
ATOM      8  C   UNL     1      59.120  24.126  61.445  1.00  0.00     0.162 A 
ATOM      9  C   UNL     1      60.094  24.510  60.498  1.00  0.00     0.008 A 
ATOM     10  C   UNL     1      59.779  28.263  60.720  1.00  0.00     0.132 A 
ATOM     11  C   UNL     1      60.894  28.666  59.953  1.00  0.00     0.031 A 
ENDROOT
BRANCH  11  12
ATOM     12  C   UNL     1      61.193  30.112  59.772  1.00  0.00     0.031 A 
ATOM     13  C   UNL     1      60.598  30.830  58.713  1.00  0.00     0.132 A 
ATOM     14  C   UNL     1      62.071  30.761  60.657  1.00  0.00    -0.039 A 
ATOM     15  C   UNL     1      60.917  32.205  58.510  1.00  0.00     0.039 A 
ATOM     16  C   UNL     1      62.284  32.135  60.528  1.00  0.00     0.013 A 
ATOM     17  C   UNL     1      62.764  30.003  61.763  1.00  0.00     0.045 C 
ATOM     18  C   UNL     1      61.657  32.892  59.514  1.00  0.00    -0.006 A 
ATOM     19  C   UNL     1      60.502  32.919  57.347  1.00  0.00     0.072 A 
ATOM     20  C   UNL     1      61.774  34.314  59.471  1.00  0.00     0.008 A 
ATOM     21  C   UNL     1      60.753  34.303  57.248  1.00  0.00     0.169 A 
ATOM     22  C   UNL     1      61.379  34.989  58.295  1.00  0.00     0.162 A 
BRANCH  13  23
ATOM     23  O   UNL     1      59.661  30.196  57.890  1.00  0.00    -0.507 OA
ATOM     24  H   UNL     1      59.427  29.213  57.958  1.00  0.00     0.293 HD
ENDBRANCH  13  23
BRANCH  19  25
ATOM     25  C   UNL     1      59.915  32.241  56.173  1.00  0.00     0.264 C 
ATOM     26  O   UNL     1      58.693  32.384  55.896  1.00  0.00    -0.298 OA
ENDBRANCH  19  25
BRANCH  20  27
ATOM     27  C   UNL     1      62.306  35.118  60.671  1.00  0.00     0.017 C 
ATOM     28  C   UNL     1      63.788  35.457  60.488  1.00  0.00     0.012 C 
ATOM     29  C   UNL     1      61.477  36.377  60.987  1.00  0.00     0.012 C 
ENDBRANCH  20  27
BRANCH  21  30
ATOM     30  O   UNL     1      60.405  35.028  56.102  1.00  0.00    -0.504 OA
ATOM     31  H   UNL     1      59.452  35.215  55.817  1.00  0.00     0.293 HD
ENDBRANCH  21  30
BRANCH  22  32
ATOM     32  O   UNL     1      61.637  36.355  58.157  1.00  0.00    -0.504 OA
ATOM     33  H   UNL     1      61.221  36.925  57.430  1.00  0.00     0.293 HD
ENDBRANCH  22  32
ENDBRANCH  11  12
BRANCH  10  34
ATOM     34  O   UNL     1      58.992  29.239  61.341  1.00  0.00    -0.507 OA
ATOM     35  H   UNL     1      57.994  29.154  61.490  1.00  0.00     0.293 HD
ENDBRANCH  10  34
BRANCH   9  36
ATOM     36  C   UNL     1      60.863  23.432  59.715  1.00  0.00     0.017 C 
ATOM     37  C   UNL     1      61.846  22.692  60.628  1.00  0.00     0.012 C 
ATOM     38  C   UNL     1      59.956  22.446  58.957  1.00  0.00     0.012 C 
ENDBRANCH   9  36
BRANCH   6  39
ATOM     39  C   UNL     1      57.292  27.344  62.108  1.00  0.00     0.264 C 
ATOM     40  O   UNL     1      56.386  27.697  61.309  1.00  0.00    -0.298 OA
ENDBRANCH   6  39
BRANCH   8  41
ATOM     41  O   UNL     1      59.018  22.789  61.837  1.00  0.00    -0.504 OA
ATOM     42  H   UNL     1      59.703  22.332  62.426  1.00  0.00     0.293 HD
ENDBRANCH   8  41
BRANCH   7  43
ATOM     43  O   UNL     1      57.239  24.608  62.852  1.00  0.00    -0.504 OA
ATOM     44  H   UNL     1      57.355  24.484  63.849  1.00  0.00     0.293 HD
ENDBRANCH   7  43
TORSDOF 11
ENDMDL
