MODEL 1
REMARK VINA RESULT:    -5.909      0.000      0.000
REMARK INTER + INTRA:         -11.125
REMARK INTER:                 -10.054
REMARK INTRA:                  -1.071
REMARK UNBOUND:                -1.071
REMARK SMILES CCCCCCCCCCCCCC(=O)[O-]
REMARK SMILES IDX 8 1 9 2 10 3 11 4 12 5 13 6 14 7 15 8 16 9 7 10 6 11 5 12
REMARK SMILES IDX 4 13 3 14 2 15 1 16
REMARK H PARENT
REMARK Flexibility Score: inf
ROOT
ATOM      1  C   UNL     1      14.428   1.562  15.148  1.00  0.00     0.000 C 
ENDROOT
BRANCH   1   2
ATOM      2  C   UNL     1      13.042   1.630  15.822  1.00  0.00     0.000 C 
BRANCH   2   3
ATOM      3  C   UNL     1      12.905   2.689  16.934  1.00  0.00     0.000 C 
BRANCH   3   4
ATOM      4  C   UNL     1      13.195   2.179  18.358  1.00  0.00     0.000 C 
BRANCH   4   5
ATOM      5  C   UNL     1      13.302   0.646  18.431  1.00  0.00     0.006 C 
BRANCH   5   6
ATOM      6  C   UNL     1      14.644   0.187  19.017  1.00  0.00     0.053 C 
BRANCH   6   7
ATOM      7  C   UNL     1      15.593  -0.263  17.949  1.00  0.00     0.041 C 
ATOM      8  O   UNL     1      16.672   0.356  17.755  1.00  0.00    -0.550 OA
ATOM      9  O   UNL     1      15.298  -1.387  17.187  1.00  0.00    -0.550 OA
ENDBRANCH   6   7
ENDBRANCH   5   6
ENDBRANCH   4   5
ENDBRANCH   3   4
ENDBRANCH   2   3
ENDBRANCH   1   2
BRANCH   1  10
ATOM     10  C   UNL     1      14.453   0.869  13.774  1.00  0.00     0.000 C 
BRANCH  10  11
ATOM     11  C   UNL     1      15.197   1.689  12.707  1.00  0.00    -0.000 C 
BRANCH  11  12
ATOM     12  C   UNL     1      15.533   0.862  11.455  1.00  0.00    -0.000 C 
BRANCH  12  13
ATOM     13  C   UNL     1      17.031   0.541  11.340  1.00  0.00    -0.000 C 
BRANCH  13  14
ATOM     14  C   UNL     1      17.292  -0.950  11.590  1.00  0.00    -0.000 C 
BRANCH  14  15
ATOM     15  C   UNL     1      18.022  -1.167  12.920  1.00  0.00    -0.003 C 
ATOM     16  C   UNL     1      17.058  -1.629  14.009  1.00  0.00     0.004 C 
ENDBRANCH  14  15
ENDBRANCH  13  14
ENDBRANCH  12  13
ENDBRANCH  11  12
ENDBRANCH  10  11
ENDBRANCH   1  10
TORSDOF 12
ENDMDL
MODEL 2
REMARK VINA RESULT:    -5.870      1.927      4.248
REMARK INTER + INTRA:         -11.058
REMARK INTER:                  -9.859
REMARK INTRA:                  -1.199
REMARK UNBOUND:                -1.071
REMARK SMILES CCCCCCCCCCCCCC(=O)[O-]
REMARK SMILES IDX 8 1 9 2 10 3 11 4 12 5 13 6 14 7 15 8 16 9 7 10 6 11 5 12
REMARK SMILES IDX 4 13 3 14 2 15 1 16
REMARK H PARENT
REMARK Flexibility Score: inf
ROOT
ATOM      1  C   UNL     1      16.996   0.509  11.537  1.00  0.00     0.000 C 
ENDROOT
BRANCH   1   2
ATOM      2  C   UNL     1      15.499   0.821  11.736  1.00  0.00     0.000 C 
BRANCH   2   3
ATOM      3  C   UNL     1      15.160   1.630  13.005  1.00  0.00     0.000 C 
BRANCH   3   4
ATOM      4  C   UNL     1      14.316   0.878  14.050  1.00  0.00     0.000 C 
BRANCH   4   5
ATOM      5  C   UNL     1      14.462   1.463  15.466  1.00  0.00     0.006 C 
BRANCH   5   6
ATOM      6  C   UNL     1      13.102   1.760  16.111  1.00  0.00     0.053 C 
BRANCH   6   7
ATOM      7  C   UNL     1      13.124   1.526  17.591  1.00  0.00     0.041 C 
ATOM      8  O   UNL     1      13.237   0.359  18.049  1.00  0.00    -0.550 OA
ATOM      9  O   UNL     1      13.049   2.604  18.465  1.00  0.00    -0.550 OA
ENDBRANCH   6   7
ENDBRANCH   5   6
ENDBRANCH   4   5
ENDBRANCH   3   4
ENDBRANCH   2   3
ENDBRANCH   1   2
BRANCH   1  10
ATOM     10  C   UNL     1      17.376  -0.977  11.666  1.00  0.00     0.000 C 
BRANCH  10  11
ATOM     11  C   UNL     1      17.872  -1.346  13.074  1.00  0.00    -0.000 C 
BRANCH  11  12
ATOM     12  C   UNL     1      16.729  -1.770  14.011  1.00  0.00    -0.000 C 
BRANCH  12  13
ATOM     13  C   UNL     1      17.046  -1.505  15.490  1.00  0.00    -0.000 C 
BRANCH  13  14
ATOM     14  C   UNL     1      15.843  -1.846  16.378  1.00  0.00    -0.000 C 
BRANCH  14  15
ATOM     15  C   UNL     1      15.956  -3.268  16.938  1.00  0.00    -0.003 C 
ATOM     16  C   UNL     1      17.412  -3.717  17.016  1.00  0.00     0.004 C 
ENDBRANCH  14  15
ENDBRANCH  13  14
ENDBRANCH  12  13
ENDBRANCH  11  12
ENDBRANCH  10  11
ENDBRANCH   1  10
TORSDOF 12
ENDMDL
MODEL 3
REMARK VINA RESULT:    -5.830      1.275      1.757
REMARK INTER + INTRA:         -10.990
REMARK INTER:                  -9.912
REMARK INTRA:                  -1.078
REMARK UNBOUND:                -1.071
REMARK SMILES CCCCCCCCCCCCCC(=O)[O-]
REMARK SMILES IDX 8 1 9 2 10 3 11 4 12 5 13 6 14 7 15 8 16 9 7 10 6 11 5 12
REMARK SMILES IDX 4 13 3 14 2 15 1 16
REMARK H PARENT
REMARK Flexibility Score: inf
ROOT
ATOM      1  C   UNL     1      15.532   0.811  16.370  1.00  0.00     0.000 C 
ENDROOT
BRANCH   1   2
ATOM      2  C   UNL     1      14.705   1.970  16.963  1.00  0.00     0.000 C 
BRANCH   2   3
ATOM      3  C   UNL     1      13.390   1.552  17.653  1.00  0.00     0.000 C 
BRANCH   3   4
ATOM      4  C   UNL     1      13.489   0.292  18.532  1.00  0.00     0.000 C 
BRANCH   4   5
ATOM      5  C   UNL     1      14.320   0.518  19.807  1.00  0.00     0.006 C 
BRANCH   5   6
ATOM      6  C   UNL     1      14.917  -0.789  20.347  1.00  0.00     0.053 C 
BRANCH   6   7
ATOM      7  C   UNL     1      15.938  -1.363  19.414  1.00  0.00     0.041 C 
ATOM      8  O   UNL     1      16.990  -0.723  19.152  1.00  0.00    -0.550 OA
ATOM      9  O   UNL     1      15.739  -2.619  18.855  1.00  0.00    -0.550 OA
ENDBRANCH   6   7
ENDBRANCH   5   6
ENDBRANCH   4   5
ENDBRANCH   3   4
ENDBRANCH   2   3
ENDBRANCH   1   2
BRANCH   1  10
ATOM     10  C   UNL     1      15.071   0.320  14.987  1.00  0.00     0.000 C 
BRANCH  10  11
ATOM     11  C   UNL     1      14.444   1.436  14.135  1.00  0.00    -0.000 C 
BRANCH  11  12
ATOM     12  C   UNL     1      15.266   1.748  12.873  1.00  0.00    -0.000 C 
BRANCH  12  13
ATOM     13  C   UNL     1      15.369   0.546  11.922  1.00  0.00    -0.000 C 
BRANCH  13  14
ATOM     14  C   UNL     1      16.691   0.574  11.145  1.00  0.00    -0.000 C 
BRANCH  14  15
ATOM     15  C   UNL     1      17.431  -0.763  11.267  1.00  0.00    -0.003 C 
ATOM     16  C   UNL     1      17.716  -1.105  12.726  1.00  0.00     0.004 C 
ENDBRANCH  14  15
ENDBRANCH  13  14
ENDBRANCH  12  13
ENDBRANCH  11  12
ENDBRANCH  10  11
ENDBRANCH   1  10
TORSDOF 12
ENDMDL
MODEL 4
REMARK VINA RESULT:    -5.811      2.575      6.207
REMARK INTER + INTRA:         -10.958
REMARK INTER:                  -9.773
REMARK INTRA:                  -1.186
REMARK UNBOUND:                -1.071
REMARK SMILES CCCCCCCCCCCCCC(=O)[O-]
REMARK SMILES IDX 8 1 9 2 10 3 11 4 12 5 13 6 14 7 15 8 16 9 7 10 6 11 5 12
REMARK SMILES IDX 4 13 3 14 2 15 1 16
REMARK H PARENT
REMARK Flexibility Score: inf
ROOT
ATOM      1  C   UNL     1      15.062   1.942  16.652  1.00  0.00     0.000 C 
ENDROOT
BRANCH   1   2
ATOM      2  C   UNL     1      14.498   1.072  15.510  1.00  0.00     0.000 C 
BRANCH   2   3
ATOM      3  C   UNL     1      15.456   0.844  14.323  1.00  0.00     0.000 C 
BRANCH   3   4
ATOM      4  C   UNL     1      15.131   1.659  13.059  1.00  0.00     0.000 C 
BRANCH   4   5
ATOM      5  C   UNL     1      15.387   0.873  11.761  1.00  0.00     0.006 C 
BRANCH   5   6
ATOM      6  C   UNL     1      16.875   0.843  11.388  1.00  0.00     0.053 C 
BRANCH   6   7
ATOM      7  C   UNL     1      17.367  -0.556  11.176  1.00  0.00     0.041 C 
ATOM      8  O   UNL     1      17.653  -1.285  12.162  1.00  0.00    -0.550 OA
ATOM      9  O   UNL     1      17.483  -1.064   9.888  1.00  0.00    -0.550 OA
ENDBRANCH   6   7
ENDBRANCH   5   6
ENDBRANCH   4   5
ENDBRANCH   3   4
ENDBRANCH   2   3
ENDBRANCH   1   2
BRANCH   1  10
ATOM     10  C   UNL     1      14.015   2.763  17.426  1.00  0.00     0.000 C 
BRANCH  10  11
ATOM     11  C   UNL     1      13.135   1.897  18.342  1.00  0.00    -0.000 C 
BRANCH  11  12
ATOM     12  C   UNL     1      13.959   0.929  19.208  1.00  0.00    -0.000 C 
BRANCH  12  13
ATOM     13  C   UNL     1      13.603  -0.544  18.952  1.00  0.00    -0.000 C 
BRANCH  13  14
ATOM     14  C   UNL     1      14.868  -1.382  18.727  1.00  0.00    -0.000 C 
BRANCH  14  15
ATOM     15  C   UNL     1      16.104  -0.679  19.299  1.00  0.00    -0.003 C 
ATOM     16  C   UNL     1      17.251  -0.673  18.293  1.00  0.00     0.004 C 
ENDBRANCH  14  15
ENDBRANCH  13  14
ENDBRANCH  12  13
ENDBRANCH  11  12
ENDBRANCH  10  11
ENDBRANCH   1  10
TORSDOF 12
ENDMDL
MODEL 5
REMARK VINA RESULT:    -5.788      1.317      2.657
REMARK INTER + INTRA:         -10.920
REMARK INTER:                  -9.939
REMARK INTRA:                  -0.980
REMARK UNBOUND:                -1.071
REMARK SMILES CCCCCCCCCCCCCC(=O)[O-]
REMARK SMILES IDX 8 1 9 2 10 3 11 4 12 5 13 6 14 7 15 8 16 9 7 10 6 11 5 12
REMARK SMILES IDX 4 13 3 14 2 15 1 16
REMARK H PARENT
REMARK Flexibility Score: inf
ROOT
ATOM      1  C   UNL     1      13.105   2.358  16.993  1.00  0.00     0.000 C 
ENDROOT
BRANCH   1   2
ATOM      2  C   UNL     1      13.611   2.104  18.428  1.00  0.00     0.000 C 
BRANCH   2   3
ATOM      3  C   UNL     1      13.672   0.622  18.850  1.00  0.00     0.000 C 
BRANCH   3   4
ATOM      4  C   UNL     1      14.482   0.343  20.129  1.00  0.00     0.000 C 
BRANCH   4   5
ATOM      5  C   UNL     1      15.607  -0.685  19.909  1.00  0.00     0.006 C 
BRANCH   5   6
ATOM      6  C   UNL     1      16.294  -0.508  18.549  1.00  0.00     0.053 C 
BRANCH   6   7
ATOM      7  C   UNL     1      16.275  -1.772  17.746  1.00  0.00     0.041 C 
ATOM      8  O   UNL     1      15.602  -1.841  16.684  1.00  0.00    -0.550 OA
ATOM      9  O   UNL     1      17.025  -2.867  18.158  1.00  0.00    -0.550 OA
ENDBRANCH   6   7
ENDBRANCH   5   6
ENDBRANCH   4   5
ENDBRANCH   3   4
ENDBRANCH   2   3
ENDBRANCH   1   2
BRANCH   1  10
ATOM     10  C   UNL     1      13.571   1.332  15.945  1.00  0.00     0.000 C 
BRANCH  10  11
ATOM     11  C   UNL     1      15.049   1.504  15.557  1.00  0.00    -0.000 C 
BRANCH  11  12
ATOM     12  C   UNL     1      15.415   0.741  14.274  1.00  0.00    -0.000 C 
BRANCH  12  13
ATOM     13  C   UNL     1      15.170   1.568  13.002  1.00  0.00    -0.000 C 
BRANCH  13  14
ATOM     14  C   UNL     1      15.388   0.717  11.745  1.00  0.00    -0.000 C 
BRANCH  14  15
ATOM     15  C   UNL     1      16.874   0.658  11.371  1.00  0.00    -0.003 C 
ATOM     16  C   UNL     1      17.225  -0.675  10.718  1.00  0.00     0.004 C 
ENDBRANCH  14  15
ENDBRANCH  13  14
ENDBRANCH  12  13
ENDBRANCH  11  12
ENDBRANCH  10  11
ENDBRANCH   1  10
TORSDOF 12
ENDMDL
MODEL 6
REMARK VINA RESULT:    -5.759      2.605      6.239
REMARK INTER + INTRA:         -10.870
REMARK INTER:                  -9.746
REMARK INTRA:                  -1.124
REMARK UNBOUND:                -1.071
REMARK SMILES CCCCCCCCCCCCCC(=O)[O-]
REMARK SMILES IDX 8 1 9 2 10 3 11 4 12 5 13 6 14 7 15 8 16 9 7 10 6 11 5 12
REMARK SMILES IDX 4 13 3 14 2 15 1 16
REMARK H PARENT
REMARK Flexibility Score: inf
ROOT
ATOM      1  C   UNL     1      15.435   1.625  16.732  1.00  0.00     0.000 C 
ENDROOT
BRANCH   1   2
ATOM      2  C   UNL     1      15.063   0.626  15.617  1.00  0.00     0.000 C 
BRANCH   2   3
ATOM      3  C   UNL     1      14.247   1.218  14.450  1.00  0.00     0.000 C 
BRANCH   3   4
ATOM      4  C   UNL     1      15.084   1.717  13.258  1.00  0.00     0.000 C 
BRANCH   4   5
ATOM      5  C   UNL     1      15.256   0.650  12.162  1.00  0.00     0.006 C 
BRANCH   5   6
ATOM      6  C   UNL     1      16.526   0.874  11.331  1.00  0.00     0.053 C 
BRANCH   6   7
ATOM      7  C   UNL     1      17.334  -0.380  11.199  1.00  0.00     0.041 C 
ATOM      8  O   UNL     1      17.539  -0.888  10.065  1.00  0.00    -0.550 OA
ATOM      9  O   UNL     1      17.885  -0.973  12.329  1.00  0.00    -0.550 OA
ENDBRANCH   6   7
ENDBRANCH   5   6
ENDBRANCH   4   5
ENDBRANCH   3   4
ENDBRANCH   2   3
ENDBRANCH   1   2
BRANCH   1  10
ATOM     10  C   UNL     1      14.247   2.378  17.356  1.00  0.00     0.000 C 
BRANCH  10  11
ATOM     11  C   UNL     1      13.335   1.465  18.192  1.00  0.00    -0.000 C 
BRANCH  11  12
ATOM     12  C   UNL     1      14.044   0.897  19.432  1.00  0.00    -0.000 C 
BRANCH  12  13
ATOM     13  C   UNL     1      13.998  -0.638  19.489  1.00  0.00    -0.000 C 
BRANCH  13  14
ATOM     14  C   UNL     1      15.278  -1.201  20.118  1.00  0.00    -0.000 C 
BRANCH  14  15
ATOM     15  C   UNL     1      16.507  -0.862  19.266  1.00  0.00    -0.003 C 
ATOM     16  C   UNL     1      16.593  -1.764  18.039  1.00  0.00     0.004 C 
ENDBRANCH  14  15
ENDBRANCH  13  14
ENDBRANCH  12  13
ENDBRANCH  11  12
ENDBRANCH  10  11
ENDBRANCH   1  10
TORSDOF 12
ENDMDL
MODEL 7
REMARK VINA RESULT:    -5.744      2.543      6.412
REMARK INTER + INTRA:         -10.845
REMARK INTER:                  -9.050
REMARK INTRA:                  -1.795
REMARK UNBOUND:                -1.071
REMARK SMILES CCCCCCCCCCCCCC(=O)[O-]
REMARK SMILES IDX 8 1 9 2 10 3 11 4 12 5 13 6 14 7 15 8 16 9 7 10 6 11 5 12
REMARK SMILES IDX 4 13 3 14 2 15 1 16
REMARK H PARENT
REMARK Flexibility Score: inf
ROOT
ATOM      1  C   UNL     1      17.178  -1.082  17.758  1.00  0.00     0.000 C 
ENDROOT
BRANCH   1   2
ATOM      2  C   UNL     1      16.227  -1.957  16.916  1.00  0.00     0.000 C 
BRANCH   2   3
ATOM      3  C   UNL     1      15.766  -1.333  15.584  1.00  0.00     0.000 C 
BRANCH   3   4
ATOM      4  C   UNL     1      15.931   0.195  15.490  1.00  0.00     0.000 C 
BRANCH   4   5
ATOM      5  C   UNL     1      14.781   0.873  14.724  1.00  0.00     0.006 C 
BRANCH   5   6
ATOM      6  C   UNL     1      14.460   0.154  13.408  1.00  0.00     0.053 C 
BRANCH   6   7
ATOM      7  C   UNL     1      15.427   0.518  12.324  1.00  0.00     0.041 C 
ATOM      8  O   UNL     1      15.334   1.627  11.734  1.00  0.00    -0.550 OA
ATOM      9  O   UNL     1      16.451  -0.358  11.984  1.00  0.00    -0.550 OA
ENDBRANCH   6   7
ENDBRANCH   5   6
ENDBRANCH   4   5
ENDBRANCH   3   4
ENDBRANCH   2   3
ENDBRANCH   1   2
BRANCH   1  10
ATOM     10  C   UNL     1      16.801  -0.949  19.243  1.00  0.00     0.000 C 
BRANCH  10  11
ATOM     11  C   UNL     1      15.546  -1.757  19.615  1.00  0.00    -0.000 C 
BRANCH  11  12
ATOM     12  C   UNL     1      14.354  -0.860  19.984  1.00  0.00    -0.000 C 
BRANCH  12  13
ATOM     13  C   UNL     1      13.174  -1.013  19.012  1.00  0.00    -0.000 C 
BRANCH  13  14
ATOM     14  C   UNL     1      13.192   0.093  17.950  1.00  0.00    -0.000 C 
BRANCH  14  15
ATOM     15  C   UNL     1      13.792   1.388  18.512  1.00  0.00    -0.003 C 
ATOM     16  C   UNL     1      12.945   2.598  18.131  1.00  0.00     0.004 C 
ENDBRANCH  14  15
ENDBRANCH  13  14
ENDBRANCH  12  13
ENDBRANCH  11  12
ENDBRANCH  10  11
ENDBRANCH   1  10
TORSDOF 12
ENDMDL
MODEL 8
REMARK VINA RESULT:    -5.720      1.410      2.628
REMARK INTER + INTRA:         -10.803
REMARK INTER:                  -9.446
REMARK INTRA:                  -1.357
REMARK UNBOUND:                -1.071
REMARK SMILES CCCCCCCCCCCCCC(=O)[O-]
REMARK SMILES IDX 8 1 9 2 10 3 11 4 12 5 13 6 14 7 15 8 16 9 7 10 6 11 5 12
REMARK SMILES IDX 4 13 3 14 2 15 1 16
REMARK H PARENT
REMARK Flexibility Score: inf
ROOT
ATOM      1  C   UNL     1      15.560   1.344  12.832  1.00  0.00     0.000 C 
ENDROOT
BRANCH   1   2
ATOM      2  C   UNL     1      14.403   0.841  13.718  1.00  0.00     0.000 C 
BRANCH   2   3
ATOM      3  C   UNL     1      14.410   1.365  15.168  1.00  0.00     0.000 C 
BRANCH   3   4
ATOM      4  C   UNL     1      13.036   1.794  15.712  1.00  0.00     0.000 C 
BRANCH   4   5
ATOM      5  C   UNL     1      13.042   2.024  17.233  1.00  0.00     0.006 C 
BRANCH   5   6
ATOM      6  C   UNL     1      14.301   1.453  17.899  1.00  0.00     0.053 C 
BRANCH   6   7
ATOM      7  C   UNL     1      13.965   0.569  19.060  1.00  0.00     0.041 C 
ATOM      8  O   UNL     1      14.336   0.877  20.223  1.00  0.00    -0.550 OA
ATOM      9  O   UNL     1      13.215  -0.585  18.860  1.00  0.00    -0.550 OA
ENDBRANCH   6   7
ENDBRANCH   5   6
ENDBRANCH   4   5
ENDBRANCH   3   4
ENDBRANCH   2   3
ENDBRANCH   1   2
BRANCH   1  10
ATOM     10  C   UNL     1      15.529   0.852  11.374  1.00  0.00     0.000 C 
BRANCH  10  11
ATOM     11  C   UNL     1      16.532  -0.282  11.105  1.00  0.00    -0.000 C 
BRANCH  11  12
ATOM     12  C   UNL     1      17.679  -0.310  12.128  1.00  0.00    -0.000 C 
BRANCH  12  13
ATOM     13  C   UNL     1      17.744  -1.631  12.909  1.00  0.00    -0.000 C 
BRANCH  13  14
ATOM     14  C   UNL     1      17.571  -1.388  14.413  1.00  0.00    -0.000 C 
BRANCH  14  15
ATOM     15  C   UNL     1      16.229  -1.938  14.910  1.00  0.00    -0.003 C 
ATOM     16  C   UNL     1      16.033  -1.656  16.397  1.00  0.00     0.004 C 
ENDBRANCH  14  15
ENDBRANCH  13  14
ENDBRANCH  12  13
ENDBRANCH  11  12
ENDBRANCH  10  11
ENDBRANCH   1  10
TORSDOF 12
ENDMDL
MODEL 9
REMARK VINA RESULT:    -5.678      2.314      5.414
REMARK INTER + INTRA:         -10.733
REMARK INTER:                  -9.291
REMARK INTRA:                  -1.442
REMARK UNBOUND:                -1.071
REMARK SMILES CCCCCCCCCCCCCC(=O)[O-]
REMARK SMILES IDX 8 1 9 2 10 3 11 4 12 5 13 6 14 7 15 8 16 9 7 10 6 11 5 12
REMARK SMILES IDX 4 13 3 14 2 15 1 16
REMARK H PARENT
REMARK Flexibility Score: inf
ROOT
ATOM      1  C   UNL     1      13.582   1.599  18.254  1.00  0.00     0.000 C 
ENDROOT
BRANCH   1   2
ATOM      2  C   UNL     1      12.937   2.365  17.082  1.00  0.00     0.000 C 
BRANCH   2   3
ATOM      3  C   UNL     1      13.005   1.654  15.715  1.00  0.00     0.000 C 
BRANCH   3   4
ATOM      4  C   UNL     1      14.411   1.571  15.094  1.00  0.00     0.000 C 
BRANCH   4   5
ATOM      5  C   UNL     1      14.464   0.656  13.858  1.00  0.00     0.006 C 
BRANCH   5   6
ATOM      6  C   UNL     1      15.154   1.334  12.666  1.00  0.00     0.053 C 
BRANCH   6   7
ATOM      7  C   UNL     1      16.281   0.505  12.131  1.00  0.00     0.041 C 
ATOM      8  O   UNL     1      16.908   0.873  11.103  1.00  0.00    -0.550 OA
ATOM      9  O   UNL     1      16.656  -0.662  12.785  1.00  0.00    -0.550 OA
ENDBRANCH   6   7
ENDBRANCH   5   6
ENDBRANCH   4   5
ENDBRANCH   3   4
ENDBRANCH   2   3
ENDBRANCH   1   2
BRANCH   1  10
ATOM     10  C   UNL     1      13.364   0.076  18.238  1.00  0.00     0.000 C 
BRANCH  10  11
ATOM     11  C   UNL     1      13.709  -0.590  19.581  1.00  0.00    -0.000 C 
BRANCH  11  12
ATOM     12  C   UNL     1      15.214  -0.546  19.892  1.00  0.00    -0.000 C 
BRANCH  12  13
ATOM     13  C   UNL     1      16.056  -1.314  18.862  1.00  0.00    -0.000 C 
BRANCH  13  14
ATOM     14  C   UNL     1      17.091  -0.394  18.204  1.00  0.00    -0.000 C 
BRANCH  14  15
ATOM     15  C   UNL     1      17.014  -0.482  16.675  1.00  0.00    -0.003 C 
ATOM     16  C   UNL     1      16.231  -1.714  16.232  1.00  0.00     0.004 C 
ENDBRANCH  14  15
ENDBRANCH  13  14
ENDBRANCH  12  13
ENDBRANCH  11  12
ENDBRANCH  10  11
ENDBRANCH   1  10
TORSDOF 12
ENDMDL
