MODEL 1
REMARK VINA RESULT:    -3.694      0.000      0.000
REMARK INTER + INTRA:          -8.476
REMARK INTER:                  -6.717
REMARK INTRA:                  -1.759
REMARK UNBOUND:                -1.759
REMARK SMILES CCCCCCCCCCCCCC[C@@H](C)C(=O)[O-]
REMARK SMILES IDX 9 1 10 2 11 3 12 4 13 5 14 6 15 7 16 8 17 9 18 10 19 11 8 12
REMARK SMILES IDX 7 13 6 14 5 15 4 16 3 17 2 18 1 19
REMARK H PARENT
REMARK Flexibility Score: inf
ROOT
ATOM      1  C   UNL     1     112.729  54.206 230.273  1.00  0.00     0.000 C 
ENDROOT
BRANCH   1   2
ATOM      2  C   UNL     1     113.290  55.362 229.428  1.00  0.00     0.000 C 
BRANCH   2   3
ATOM      3  C   UNL     1     113.628  54.938 227.990  1.00  0.00     0.000 C 
BRANCH   3   4
ATOM      4  C   UNL     1     113.145  53.506 227.715  1.00  0.00     0.000 C 
BRANCH   4   5
ATOM      5  C   UNL     1     113.278  53.110 226.236  1.00  0.00     0.001 C 
BRANCH   5   6
ATOM      6  C   UNL     1     112.206  53.768 225.348  1.00  0.00     0.009 C 
BRANCH   6   7
ATOM      7  C   UNL     1     110.793  53.639 225.955  1.00  0.00     0.032 C 
ATOM      8  C   UNL     1     110.139  55.018 226.100  1.00  0.00     0.014 C 
BRANCH   7   9
ATOM      9  C   UNL     1     109.916  52.740 225.123  1.00  0.00     0.044 C 
ATOM     10  O   UNL     1     109.441  51.679 225.611  1.00  0.00    -0.550 OA
ATOM     11  O   UNL     1     109.628  53.078 223.808  1.00  0.00    -0.550 OA
ENDBRANCH   7   9
ENDBRANCH   6   7
ENDBRANCH   5   6
ENDBRANCH   4   5
ENDBRANCH   3   4
ENDBRANCH   2   3
ENDBRANCH   1   2
BRANCH   1  12
ATOM     12  C   UNL     1     113.422  54.084 231.640  1.00  0.00     0.000 C 
BRANCH  12  13
ATOM     13  C   UNL     1     113.045  52.791 232.388  1.00  0.00    -0.000 C 
BRANCH  13  14
ATOM     14  C   UNL     1     111.875  52.927 233.381  1.00  0.00    -0.000 C 
BRANCH  14  15
ATOM     15  C   UNL     1     110.509  52.452 232.849  1.00  0.00    -0.000 C 
BRANCH  15  16
ATOM     16  C   UNL     1     109.434  53.559 232.815  1.00  0.00    -0.000 C 
BRANCH  16  17
ATOM     17  C   UNL     1     110.043  54.968 232.766  1.00  0.00    -0.000 C 
BRANCH  17  18
ATOM     18  C   UNL     1     109.535  55.744 231.546  1.00  0.00    -0.003 C 
ATOM     19  C   UNL     1     110.433  56.939 231.238  1.00  0.00     0.004 C 
ENDBRANCH  17  18
ENDBRANCH  16  17
ENDBRANCH  15  16
ENDBRANCH  14  15
ENDBRANCH  13  14
ENDBRANCH  12  13
ENDBRANCH   1  12
TORSDOF 14
ENDMDL
MODEL 2
REMARK VINA RESULT:    -3.523      1.317      2.129
REMARK INTER + INTRA:          -8.165
REMARK INTER:                  -6.132
REMARK INTRA:                  -2.033
REMARK UNBOUND:                -1.759
REMARK SMILES CCCCCCCCCCCCCC[C@@H](C)C(=O)[O-]
REMARK SMILES IDX 9 1 10 2 11 3 12 4 13 5 14 6 15 7 16 8 17 9 18 10 19 11 8 12
REMARK SMILES IDX 7 13 6 14 5 15 4 16 3 17 2 18 1 19
REMARK H PARENT
REMARK Flexibility Score: inf
ROOT
ATOM      1  C   UNL     1     113.259  53.597 231.814  1.00  0.00     0.000 C 
ENDROOT
BRANCH   1   2
ATOM      2  C   UNL     1     112.707  53.712 230.383  1.00  0.00     0.000 C 
BRANCH   2   3
ATOM      3  C   UNL     1     113.058  55.051 229.716  1.00  0.00     0.000 C 
BRANCH   3   4
ATOM      4  C   UNL     1     113.299  54.866 228.211  1.00  0.00     0.000 C 
BRANCH   4   5
ATOM      5  C   UNL     1     112.827  53.495 227.700  1.00  0.00     0.001 C 
BRANCH   5   6
ATOM      6  C   UNL     1     112.374  53.535 226.228  1.00  0.00     0.009 C 
BRANCH   6   7
ATOM      7  C   UNL     1     110.891  53.939 226.090  1.00  0.00     0.032 C 
ATOM      8  C   UNL     1     110.768  55.375 225.568  1.00  0.00     0.014 C 
BRANCH   7   9
ATOM      9  C   UNL     1     110.145  52.997 225.181  1.00  0.00     0.044 C 
ATOM     10  O   UNL     1     109.652  51.929 225.632  1.00  0.00    -0.550 OA
ATOM     11  O   UNL     1     110.000  53.304 223.835  1.00  0.00    -0.550 OA
ENDBRANCH   7   9
ENDBRANCH   6   7
ENDBRANCH   5   6
ENDBRANCH   4   5
ENDBRANCH   3   4
ENDBRANCH   2   3
ENDBRANCH   1   2
BRANCH   1  12
ATOM     12  C   UNL     1     112.361  52.745 232.726  1.00  0.00     0.000 C 
BRANCH  12  13
ATOM     13  C   UNL     1     110.880  52.775 232.305  1.00  0.00    -0.000 C 
BRANCH  13  14
ATOM     14  C   UNL     1     110.045  53.909 232.929  1.00  0.00    -0.000 C 
BRANCH  14  15
ATOM     15  C   UNL     1     109.647  55.037 231.957  1.00  0.00    -0.000 C 
BRANCH  15  16
ATOM     16  C   UNL     1     110.453  56.340 232.152  1.00  0.00    -0.000 C 
BRANCH  16  17
ATOM     17  C   UNL     1     111.041  56.461 233.564  1.00  0.00    -0.000 C 
BRANCH  17  18
ATOM     18  C   UNL     1     112.546  56.752 233.509  1.00  0.00    -0.003 C 
ATOM     19  C   UNL     1     113.290  56.026 234.626  1.00  0.00     0.004 C 
ENDBRANCH  17  18
ENDBRANCH  16  17
ENDBRANCH  15  16
ENDBRANCH  14  15
ENDBRANCH  13  14
ENDBRANCH  12  13
ENDBRANCH   1  12
TORSDOF 14
ENDMDL
MODEL 3
REMARK VINA RESULT:    -3.467      3.454      7.152
REMARK INTER + INTRA:          -8.064
REMARK INTER:                  -6.669
REMARK INTRA:                  -1.395
REMARK UNBOUND:                -1.759
REMARK SMILES CCCCCCCCCCCCCC[C@@H](C)C(=O)[O-]
REMARK SMILES IDX 9 1 10 2 11 3 12 4 13 5 14 6 15 7 16 8 17 9 18 10 19 11 8 12
REMARK SMILES IDX 7 13 6 14 5 15 4 16 3 17 2 18 1 19
REMARK H PARENT
REMARK Flexibility Score: inf
ROOT
ATOM      1  C   UNL     1     112.849  55.124 231.315  1.00  0.00     0.000 C 
ENDROOT
BRANCH   1   2
ATOM      2  C   UNL     1     113.940  54.860 232.367  1.00  0.00     0.000 C 
BRANCH   2   3
ATOM      3  C   UNL     1     114.099  53.368 232.697  1.00  0.00     0.000 C 
BRANCH   3   4
ATOM      4  C   UNL     1     113.898  53.116 234.199  1.00  0.00     0.000 C 
BRANCH   4   5
ATOM      5  C   UNL     1     112.740  53.938 234.787  1.00  0.00     0.001 C 
BRANCH   5   6
ATOM      6  C   UNL     1     111.431  53.132 234.886  1.00  0.00     0.009 C 
BRANCH   6   7
ATOM      7  C   UNL     1     110.471  53.442 233.718  1.00  0.00     0.032 C 
ATOM      8  C   UNL     1     110.510  52.320 232.674  1.00  0.00     0.014 C 
BRANCH   7   9
ATOM      9  C   UNL     1     109.060  53.644 234.203  1.00  0.00     0.044 C 
ATOM     10  O   UNL     1     108.267  52.669 234.288  1.00  0.00    -0.550 OA
ATOM     11  O   UNL     1     108.625  54.914 234.559  1.00  0.00    -0.550 OA
ENDBRANCH   7   9
ENDBRANCH   6   7
ENDBRANCH   5   6
ENDBRANCH   4   5
ENDBRANCH   3   4
ENDBRANCH   2   3
ENDBRANCH   1   2
BRANCH   1  12
ATOM     12  C   UNL     1     112.738  53.990 230.282  1.00  0.00     0.000 C 
BRANCH  12  13
ATOM     13  C   UNL     1     113.211  54.411 228.878  1.00  0.00    -0.000 C 
BRANCH  13  14
ATOM     14  C   UNL     1     113.092  53.323 227.794  1.00  0.00    -0.000 C 
BRANCH  14  15
ATOM     15  C   UNL     1     113.616  53.729 226.403  1.00  0.00    -0.000 C 
BRANCH  15  16
ATOM     16  C   UNL     1     112.555  53.631 225.285  1.00  0.00    -0.000 C 
BRANCH  16  17
ATOM     17  C   UNL     1     111.121  53.681 225.831  1.00  0.00    -0.000 C 
BRANCH  17  18
ATOM     18  C   UNL     1     110.117  53.192 224.780  1.00  0.00    -0.003 C 
ATOM     19  C   UNL     1     109.335  51.982 225.286  1.00  0.00     0.004 C 
ENDBRANCH  17  18
ENDBRANCH  16  17
ENDBRANCH  15  16
ENDBRANCH  14  15
ENDBRANCH  13  14
ENDBRANCH  12  13
ENDBRANCH   1  12
TORSDOF 14
ENDMDL
MODEL 4
REMARK VINA RESULT:    -3.329      1.578      3.276
REMARK INTER + INTRA:          -7.812
REMARK INTER:                  -5.508
REMARK INTRA:                  -2.304
REMARK UNBOUND:                -1.759
REMARK SMILES CCCCCCCCCCCCCC[C@@H](C)C(=O)[O-]
REMARK SMILES IDX 9 1 10 2 11 3 12 4 13 5 14 6 15 7 16 8 17 9 18 10 19 11 8 12
REMARK SMILES IDX 7 13 6 14 5 15 4 16 3 17 2 18 1 19
REMARK H PARENT
REMARK Flexibility Score: inf
ROOT
ATOM      1  C   UNL     1     110.788  56.814 231.859  1.00  0.00     0.000 C 
ENDROOT
BRANCH   1   2
ATOM      2  C   UNL     1     111.033  55.676 230.854  1.00  0.00     0.000 C 
BRANCH   2   3
ATOM      3  C   UNL     1     111.662  56.168 229.541  1.00  0.00     0.000 C 
BRANCH   3   4
ATOM      4  C   UNL     1     112.942  55.382 229.220  1.00  0.00     0.000 C 
BRANCH   4   5
ATOM      5  C   UNL     1     112.670  53.895 228.943  1.00  0.00     0.001 C 
BRANCH   5   6
ATOM      6  C   UNL     1     113.302  53.412 227.624  1.00  0.00     0.009 C 
BRANCH   6   7
ATOM      7  C   UNL     1     112.815  54.237 226.414  1.00  0.00     0.032 C 
ATOM      8  C   UNL     1     113.564  53.824 225.142  1.00  0.00     0.014 C 
BRANCH   7   9
ATOM      9  C   UNL     1     111.330  54.088 226.207  1.00  0.00     0.044 C 
ATOM     10  O   UNL     1     110.561  55.075 226.353  1.00  0.00    -0.550 OA
ATOM     11  O   UNL     1     110.801  52.854 225.854  1.00  0.00    -0.550 OA
ENDBRANCH   7   9
ENDBRANCH   6   7
ENDBRANCH   5   6
ENDBRANCH   4   5
ENDBRANCH   3   4
ENDBRANCH   2   3
ENDBRANCH   1   2
BRANCH   1  12
ATOM     12  C   UNL     1     111.589  56.636 233.159  1.00  0.00     0.000 C 
BRANCH  12  13
ATOM     13  C   UNL     1     113.110  56.581 232.922  1.00  0.00    -0.000 C 
BRANCH  13  14
ATOM     14  C   UNL     1     113.815  55.329 233.479  1.00  0.00    -0.000 C 
BRANCH  14  15
ATOM     15  C   UNL     1     114.125  54.237 232.437  1.00  0.00    -0.000 C 
BRANCH  15  16
ATOM     16  C   UNL     1     113.427  52.890 232.721  1.00  0.00    -0.000 C 
BRANCH  16  17
ATOM     17  C   UNL     1     112.031  53.069 233.335  1.00  0.00    -0.000 C 
BRANCH  17  18
ATOM     18  C   UNL     1     110.951  52.464 232.431  1.00  0.00    -0.003 C 
ATOM     19  C   UNL     1     109.556  52.694 233.006  1.00  0.00     0.004 C 
ENDBRANCH  17  18
ENDBRANCH  16  17
ENDBRANCH  15  16
ENDBRANCH  14  15
ENDBRANCH  13  14
ENDBRANCH  12  13
ENDBRANCH   1  12
TORSDOF 14
ENDMDL
MODEL 5
REMARK VINA RESULT:    -3.316      2.880      6.300
REMARK INTER + INTRA:          -7.788
REMARK INTER:                  -6.015
REMARK INTRA:                  -1.773
REMARK UNBOUND:                -1.759
REMARK SMILES CCCCCCCCCCCCCC[C@@H](C)C(=O)[O-]
REMARK SMILES IDX 9 1 10 2 11 3 12 4 13 5 14 6 15 7 16 8 17 9 18 10 19 11 8 12
REMARK SMILES IDX 7 13 6 14 5 15 4 16 3 17 2 18 1 19
REMARK H PARENT
REMARK Flexibility Score: inf
ROOT
ATOM      1  C   UNL     1     112.605  54.797 228.323  1.00  0.00     0.000 C 
ENDROOT
BRANCH   1   2
ATOM      2  C   UNL     1     113.589  55.781 228.978  1.00  0.00     0.000 C 
BRANCH   2   3
ATOM      3  C   UNL     1     113.895  55.429 230.442  1.00  0.00     0.000 C 
BRANCH   3   4
ATOM      4  C   UNL     1     112.986  56.220 231.396  1.00  0.00     0.000 C 
BRANCH   4   5
ATOM      5  C   UNL     1     112.240  55.315 232.389  1.00  0.00     0.001 C 
BRANCH   5   6
ATOM      6  C   UNL     1     111.283  54.331 231.691  1.00  0.00     0.009 C 
BRANCH   6   7
ATOM      7  C   UNL     1     111.567  52.867 232.090  1.00  0.00     0.032 C 
ATOM      8  C   UNL     1     112.931  52.749 232.779  1.00  0.00     0.014 C 
BRANCH   7   9
ATOM      9  C   UNL     1     110.489  52.321 232.988  1.00  0.00     0.044 C 
ATOM     10  O   UNL     1     110.363  52.746 234.168  1.00  0.00    -0.550 OA
ATOM     11  O   UNL     1     109.626  51.341 232.517  1.00  0.00    -0.550 OA
ENDBRANCH   7   9
ENDBRANCH   6   7
ENDBRANCH   5   6
ENDBRANCH   4   5
ENDBRANCH   3   4
ENDBRANCH   2   3
ENDBRANCH   1   2
BRANCH   1  12
ATOM     12  C   UNL     1     113.247  53.433 228.020  1.00  0.00     0.000 C 
BRANCH  12  13
ATOM     13  C   UNL     1     113.303  53.121 226.513  1.00  0.00    -0.000 C 
BRANCH  13  14
ATOM     14  C   UNL     1     112.380  53.983 225.631  1.00  0.00    -0.000 C 
BRANCH  14  15
ATOM     15  C   UNL     1     111.017  53.348 225.296  1.00  0.00    -0.000 C 
BRANCH  15  16
ATOM     16  C   UNL     1     109.807  54.202 225.732  1.00  0.00    -0.000 C 
BRANCH  16  17
ATOM     17  C   UNL     1     109.815  55.599 225.096  1.00  0.00    -0.000 C 
BRANCH  17  18
ATOM     18  C   UNL     1     109.983  56.687 226.163  1.00  0.00    -0.003 C 
ATOM     19  C   UNL     1     109.217  56.335 227.435  1.00  0.00     0.004 C 
ENDBRANCH  17  18
ENDBRANCH  16  17
ENDBRANCH  15  16
ENDBRANCH  14  15
ENDBRANCH  13  14
ENDBRANCH  12  13
ENDBRANCH   1  12
TORSDOF 14
ENDMDL
MODEL 6
REMARK VINA RESULT:    -3.278      1.259      2.128
REMARK INTER + INTRA:          -7.720
REMARK INTER:                  -5.701
REMARK INTRA:                  -2.019
REMARK UNBOUND:                -1.759
REMARK SMILES CCCCCCCCCCCCCC[C@@H](C)C(=O)[O-]
REMARK SMILES IDX 9 1 10 2 11 3 12 4 13 5 14 6 15 7 16 8 17 9 18 10 19 11 8 12
REMARK SMILES IDX 7 13 6 14 5 15 4 16 3 17 2 18 1 19
REMARK H PARENT
REMARK Flexibility Score: inf
ROOT
ATOM      1  C   UNL     1     112.294  55.083 229.005  1.00  0.00     0.000 C 
ENDROOT
BRANCH   1   2
ATOM      2  C   UNL     1     112.998  53.735 228.776  1.00  0.00     0.000 C 
BRANCH   2   3
ATOM      3  C   UNL     1     113.357  53.493 227.302  1.00  0.00     0.000 C 
BRANCH   3   4
ATOM      4  C   UNL     1     113.281  54.801 226.500  1.00  0.00     0.000 C 
BRANCH   4   5
ATOM      5  C   UNL     1     112.253  54.738 225.359  1.00  0.00     0.001 C 
BRANCH   5   6
ATOM      6  C   UNL     1     111.363  53.484 225.433  1.00  0.00     0.009 C 
BRANCH   6   7
ATOM      7  C   UNL     1     109.863  53.843 225.494  1.00  0.00     0.032 C 
ATOM      8  C   UNL     1     109.668  55.260 226.045  1.00  0.00     0.014 C 
BRANCH   7   9
ATOM      9  C   UNL     1     109.212  53.724 224.141  1.00  0.00     0.044 C 
ATOM     10  O   UNL     1     109.306  52.657 223.477  1.00  0.00    -0.550 OA
ATOM     11  O   UNL     1     108.505  54.798 223.616  1.00  0.00    -0.550 OA
ENDBRANCH   7   9
ENDBRANCH   6   7
ENDBRANCH   5   6
ENDBRANCH   4   5
ENDBRANCH   3   4
ENDBRANCH   2   3
ENDBRANCH   1   2
BRANCH   1  12
ATOM     12  C   UNL     1     112.847  55.838 230.225  1.00  0.00     0.000 C 
BRANCH  12  13
ATOM     13  C   UNL     1     114.125  55.196 230.797  1.00  0.00    -0.000 C 
BRANCH  13  14
ATOM     14  C   UNL     1     113.996  54.647 232.231  1.00  0.00    -0.000 C 
BRANCH  14  15
ATOM     15  C   UNL     1     113.400  53.230 232.335  1.00  0.00    -0.000 C 
BRANCH  15  16
ATOM     16  C   UNL     1     112.175  53.137 233.270  1.00  0.00    -0.000 C 
BRANCH  16  17
ATOM     17  C   UNL     1     110.866  52.908 232.501  1.00  0.00    -0.000 C 
BRANCH  17  18
ATOM     18  C   UNL     1     110.200  54.241 232.142  1.00  0.00    -0.003 C 
ATOM     19  C   UNL     1     110.419  55.280 233.238  1.00  0.00     0.004 C 
ENDBRANCH  17  18
ENDBRANCH  16  17
ENDBRANCH  15  16
ENDBRANCH  14  15
ENDBRANCH  13  14
ENDBRANCH  12  13
ENDBRANCH   1  12
TORSDOF 14
ENDMDL
MODEL 7
REMARK VINA RESULT:    -3.273      3.039      6.629
REMARK INTER + INTRA:          -7.711
REMARK INTER:                  -5.915
REMARK INTRA:                  -1.795
REMARK UNBOUND:                -1.759
REMARK SMILES CCCCCCCCCCCCCC[C@@H](C)C(=O)[O-]
REMARK SMILES IDX 9 1 10 2 11 3 12 4 13 5 14 6 15 7 16 8 17 9 18 10 19 11 8 12
REMARK SMILES IDX 7 13 6 14 5 15 4 16 3 17 2 18 1 19
REMARK H PARENT
REMARK Flexibility Score: inf
ROOT
ATOM      1  C   UNL     1     112.504  54.888 229.608  1.00  0.00     0.000 C 
ENDROOT
BRANCH   1   2
ATOM      2  C   UNL     1     113.218  54.419 230.887  1.00  0.00     0.000 C 
BRANCH   2   3
ATOM      3  C   UNL     1     112.625  53.122 231.457  1.00  0.00     0.000 C 
BRANCH   3   4
ATOM      4  C   UNL     1     113.155  52.855 232.874  1.00  0.00     0.000 C 
BRANCH   4   5
ATOM      5  C   UNL     1     112.671  53.900 233.894  1.00  0.00     0.001 C 
BRANCH   5   6
ATOM      6  C   UNL     1     111.512  53.383 234.766  1.00  0.00     0.009 C 
BRANCH   6   7
ATOM      7  C   UNL     1     110.164  54.026 234.376  1.00  0.00     0.032 C 
ATOM      8  C   UNL     1     110.389  55.261 233.496  1.00  0.00     0.014 C 
BRANCH   7   9
ATOM      9  C   UNL     1     109.271  53.044 233.664  1.00  0.00     0.044 C 
ATOM     10  O   UNL     1     109.726  51.942 233.259  1.00  0.00    -0.550 OA
ATOM     11  O   UNL     1     107.934  53.354 233.450  1.00  0.00    -0.550 OA
ENDBRANCH   7   9
ENDBRANCH   6   7
ENDBRANCH   5   6
ENDBRANCH   4   5
ENDBRANCH   3   4
ENDBRANCH   2   3
ENDBRANCH   1   2
BRANCH   1  12
ATOM     12  C   UNL     1     113.350  54.665 228.343  1.00  0.00     0.000 C 
BRANCH  12  13
ATOM     13  C   UNL     1     112.928  53.410 227.556  1.00  0.00    -0.000 C 
BRANCH  13  14
ATOM     14  C   UNL     1     112.646  53.641 226.059  1.00  0.00    -0.000 C 
BRANCH  14  15
ATOM     15  C   UNL     1     111.217  53.290 225.602  1.00  0.00    -0.000 C 
BRANCH  15  16
ATOM     16  C   UNL     1     110.182  54.398 225.889  1.00  0.00    -0.000 C 
BRANCH  16  17
ATOM     17  C   UNL     1     110.706  55.797 225.536  1.00  0.00    -0.000 C 
BRANCH  17  18
ATOM     18  C   UNL     1     110.667  56.723 226.757  1.00  0.00    -0.003 C 
ATOM     19  C   UNL     1     109.615  56.264 227.764  1.00  0.00     0.004 C 
ENDBRANCH  17  18
ENDBRANCH  16  17
ENDBRANCH  15  16
ENDBRANCH  14  15
ENDBRANCH  13  14
ENDBRANCH  12  13
ENDBRANCH   1  12
TORSDOF 14
ENDMDL
MODEL 8
REMARK VINA RESULT:    -3.198     14.889     17.299
REMARK INTER + INTRA:          -7.574
REMARK INTER:                  -5.030
REMARK INTRA:                  -2.544
REMARK UNBOUND:                -1.759
REMARK SMILES CCCCCCCCCCCCCC[C@@H](C)C(=O)[O-]
REMARK SMILES IDX 9 1 10 2 11 3 12 4 13 5 14 6 15 7 16 8 17 9 18 10 19 11 8 12
REMARK SMILES IDX 7 13 6 14 5 15 4 16 3 17 2 18 1 19
REMARK H PARENT
REMARK Flexibility Score: inf
ROOT
ATOM      1  C   UNL     1      96.415  65.991 227.925  1.00  0.00     0.000 C 
ENDROOT
BRANCH   1   2
ATOM      2  C   UNL     1      96.049  66.679 226.599  1.00  0.00     0.000 C 
BRANCH   2   3
ATOM      3  C   UNL     1      95.403  65.718 225.589  1.00  0.00     0.000 C 
BRANCH   3   4
ATOM      4  C   UNL     1      96.213  65.670 224.285  1.00  0.00     0.000 C 
BRANCH   4   5
ATOM      5  C   UNL     1      96.801  64.277 224.005  1.00  0.00     0.001 C 
BRANCH   5   6
ATOM      6  C   UNL     1      98.104  64.017 224.783  1.00  0.00     0.009 C 
BRANCH   6   7
ATOM      7  C   UNL     1      99.042  65.243 224.769  1.00  0.00     0.032 C 
ATOM      8  C   UNL     1      99.641  65.481 226.160  1.00  0.00     0.014 C 
BRANCH   7   9
ATOM      9  C   UNL     1     100.144  65.081 223.755  1.00  0.00     0.044 C 
ATOM     10  O   UNL     1     100.327  63.976 223.179  1.00  0.00    -0.550 OA
ATOM     11  O   UNL     1     100.970  66.156 223.453  1.00  0.00    -0.550 OA
ENDBRANCH   7   9
ENDBRANCH   6   7
ENDBRANCH   5   6
ENDBRANCH   4   5
ENDBRANCH   3   4
ENDBRANCH   2   3
ENDBRANCH   1   2
BRANCH   1  12
ATOM     12  C   UNL     1      96.185  64.471 227.885  1.00  0.00     0.000 C 
BRANCH  12  13
ATOM     13  C   UNL     1      97.386  63.670 228.423  1.00  0.00    -0.000 C 
BRANCH  13  14
ATOM     14  C   UNL     1      97.503  62.229 227.891  1.00  0.00    -0.000 C 
BRANCH  14  15
ATOM     15  C   UNL     1      98.877  61.565 228.101  1.00  0.00    -0.000 C 
BRANCH  15  16
ATOM     16  C   UNL     1      99.486  60.971 226.813  1.00  0.00    -0.000 C 
BRANCH  16  17
ATOM     17  C   UNL     1     100.621  61.837 226.247  1.00  0.00    -0.000 C 
BRANCH  17  18
ATOM     18  C   UNL     1     101.239  61.186 225.004  1.00  0.00    -0.003 C 
ATOM     19  C   UNL     1     101.057  59.671 225.026  1.00  0.00     0.004 C 
ENDBRANCH  17  18
ENDBRANCH  16  17
ENDBRANCH  15  16
ENDBRANCH  14  15
ENDBRANCH  13  14
ENDBRANCH  12  13
ENDBRANCH   1  12
TORSDOF 14
ENDMDL
MODEL 9
REMARK VINA RESULT:    -3.173     16.011     18.624
REMARK INTER + INTRA:          -7.528
REMARK INTER:                  -5.202
REMARK INTRA:                  -2.326
REMARK UNBOUND:                -1.759
REMARK SMILES CCCCCCCCCCCCCC[C@@H](C)C(=O)[O-]
REMARK SMILES IDX 9 1 10 2 11 3 12 4 13 5 14 6 15 7 16 8 17 9 18 10 19 11 8 12
REMARK SMILES IDX 7 13 6 14 5 15 4 16 3 17 2 18 1 19
REMARK H PARENT
REMARK Flexibility Score: inf
ROOT
ATOM      1  C   UNL     1      96.295  64.391 224.016  1.00  0.00     0.000 C 
ENDROOT
BRANCH   1   2
ATOM      2  C   UNL     1      95.240  64.831 225.046  1.00  0.00     0.000 C 
BRANCH   2   3
ATOM      3  C   UNL     1      94.847  66.309 224.901  1.00  0.00     0.000 C 
BRANCH   3   4
ATOM      4  C   UNL     1      95.144  67.083 226.193  1.00  0.00     0.000 C 
BRANCH   4   5
ATOM      5  C   UNL     1      96.637  67.073 226.561  1.00  0.00     0.001 C 
BRANCH   5   6
ATOM      6  C   UNL     1      96.881  66.715 228.039  1.00  0.00     0.009 C 
BRANCH   6   7
ATOM      7  C   UNL     1      96.860  65.189 228.275  1.00  0.00     0.032 C 
ATOM      8  C   UNL     1      98.239  64.694 228.726  1.00  0.00     0.014 C 
BRANCH   7   9
ATOM      9  C   UNL     1      95.817  64.804 229.291  1.00  0.00     0.044 C 
ATOM     10  O   UNL     1      94.696  65.377 229.308  1.00  0.00    -0.550 OA
ATOM     11  O   UNL     1      96.092  63.809 230.221  1.00  0.00    -0.550 OA
ENDBRANCH   7   9
ENDBRANCH   6   7
ENDBRANCH   5   6
ENDBRANCH   4   5
ENDBRANCH   3   4
ENDBRANCH   2   3
ENDBRANCH   1   2
BRANCH   1  12
ATOM     12  C   UNL     1      97.587  63.880 224.675  1.00  0.00     0.000 C 
BRANCH  12  13
ATOM     13  C   UNL     1      98.766  64.857 224.516  1.00  0.00    -0.000 C 
BRANCH  13  14
ATOM     14  C   UNL     1     100.075  64.226 224.006  1.00  0.00    -0.000 C 
BRANCH  14  15
ATOM     15  C   UNL     1     100.560  62.997 224.798  1.00  0.00    -0.000 C 
BRANCH  15  16
ATOM     16  C   UNL     1     100.777  63.271 226.302  1.00  0.00    -0.000 C 
BRANCH  16  17
ATOM     17  C   UNL     1     100.495  62.037 227.171  1.00  0.00    -0.000 C 
BRANCH  17  18
ATOM     18  C   UNL     1      99.427  61.146 226.527  1.00  0.00    -0.003 C 
ATOM     19  C   UNL     1      98.094  61.265 227.260  1.00  0.00     0.004 C 
ENDBRANCH  17  18
ENDBRANCH  16  17
ENDBRANCH  15  16
ENDBRANCH  14  15
ENDBRANCH  13  14
ENDBRANCH  12  13
ENDBRANCH   1  12
TORSDOF 14
ENDMDL
