MODEL 1
REMARK VINA RESULT:    -6.244      0.000      0.000
REMARK INTER + INTRA:          -7.412
REMARK INTER:                  -7.704
REMARK INTRA:                   0.292
REMARK UNBOUND:                 0.292
REMARK SMILES Oc1cc(O)c2cc(O)c(-c3cc(O)c(O)c(O)c3)[o+]c2c1
REMARK SMILES IDX 10 1 20 2 21 3 22 4 2 5 3 6 4 7 6 8 7 9 8 10 11 11 12 12
REMARK SMILES IDX 13 13 19 14 15 15 17 16 14 17 16 19 18 21 9 23 1 25 5 27
REMARK H PARENT 14 18 16 20 18 22 9 24 1 26 5 28
REMARK Flexibility Score: inf
ROOT
ATOM      1  C   UNL     1      -2.627  -0.905  18.704  1.00  0.00     0.402 A 
ATOM      2  O   UNL     1      -3.185  -0.538  17.553  1.00  0.00    -0.202 OA
ATOM      3  C   UNL     1      -4.342   0.114  17.480  1.00  0.00     0.368 A 
ATOM      4  C   UNL     1      -4.864   0.460  16.230  1.00  0.00     0.162 A 
ATOM      5  C   UNL     1      -6.080   1.142  16.138  1.00  0.00     0.128 A 
ATOM      6  C   UNL     1      -6.780   1.483  17.304  1.00  0.00     0.093 A 
ATOM      7  C   UNL     1      -6.268   1.144  18.565  1.00  0.00     0.136 A 
ATOM      8  C   UNL     1      -5.043   0.456  18.656  1.00  0.00     0.125 A 
ATOM      9  C   UNL     1      -4.481   0.099  19.887  1.00  0.00     0.078 A 
ATOM     10  C   UNL     1      -3.258  -0.578  19.922  1.00  0.00     0.223 A 
ENDROOT
BRANCH   1  11
ATOM     11  C   UNL     1      -1.340  -1.637  18.658  1.00  0.00     0.091 A 
ATOM     12  C   UNL     1      -0.471  -1.660  19.762  1.00  0.00     0.068 A 
ATOM     13  C   UNL     1       0.733  -2.377  19.705  1.00  0.00     0.162 A 
ATOM     14  C   UNL     1      -1.005  -2.370  17.509  1.00  0.00     0.068 A 
ATOM     15  C   UNL     1       1.070  -3.089  18.542  1.00  0.00     0.200 A 
ATOM     16  C   UNL     1       0.198  -3.087  17.447  1.00  0.00     0.162 A 
BRANCH  13  17
ATOM     17  O   UNL     1       1.592  -2.388  20.803  1.00  0.00    -0.504 OA
ATOM     18  H   UNL     1       2.001  -3.249  21.150  1.00  0.00     0.293 HD
ENDBRANCH  13  17
BRANCH  15  19
ATOM     19  O   UNL     1       2.264  -3.806  18.462  1.00  0.00    -0.502 OA
ATOM     20  H   UNL     1       2.665  -4.087  17.575  1.00  0.00     0.293 HD
ENDBRANCH  15  19
BRANCH  16  21
ATOM     21  O   UNL     1       0.533  -3.802  16.298  1.00  0.00    -0.504 OA
ATOM     22  H   UNL     1       0.263  -4.772  16.180  1.00  0.00     0.293 HD
ENDBRANCH  16  21
ENDBRANCH   1  11
BRANCH  10  23
ATOM     23  O   UNL     1      -2.668  -0.891  21.146  1.00  0.00    -0.500 OA
ATOM     24  H   UNL     1      -3.138  -1.473  21.830  1.00  0.00     0.294 HD
ENDBRANCH  10  23
BRANCH   5  25
ATOM     25  O   UNL     1      -6.585   1.478  14.884  1.00  0.00    -0.507 OA
ATOM     26  H   UNL     1      -7.528   1.228  14.608  1.00  0.00     0.293 HD
ENDBRANCH   5  25
BRANCH   7  27
ATOM     27  O   UNL     1      -6.973   1.489  19.718  1.00  0.00    -0.507 OA
ATOM     28  H   UNL     1      -6.500   1.816  20.552  1.00  0.00     0.293 HD
ENDBRANCH   7  27
TORSDOF 7
ENDMDL
MODEL 2
REMARK VINA RESULT:    -6.028      4.111      5.454
REMARK INTER + INTRA:          -7.146
REMARK INTER:                  -6.770
REMARK INTRA:                  -0.376
REMARK UNBOUND:                 0.292
REMARK SMILES Oc1cc(O)c2cc(O)c(-c3cc(O)c(O)c(O)c3)[o+]c2c1
REMARK SMILES IDX 10 1 20 2 21 3 22 4 2 5 3 6 4 7 6 8 7 9 8 10 11 11 12 12
REMARK SMILES IDX 13 13 19 14 15 15 17 16 14 17 16 19 18 21 9 23 1 25 5 27
REMARK H PARENT 14 18 16 20 18 22 9 24 1 26 5 28
REMARK Flexibility Score: inf
ROOT
ATOM      1  C   UNL     1      -2.640  -1.800  23.230  1.00  0.00     0.402 A 
ATOM      2  O   UNL     1      -2.422  -0.882  22.291  1.00  0.00    -0.202 OA
ATOM      3  C   UNL     1      -3.325  -0.551  21.374  1.00  0.00     0.368 A 
ATOM      4  C   UNL     1      -3.016   0.422  20.417  1.00  0.00     0.162 A 
ATOM      5  C   UNL     1      -3.954   0.777  19.445  1.00  0.00     0.128 A 
ATOM      6  C   UNL     1      -5.212   0.158  19.427  1.00  0.00     0.093 A 
ATOM      7  C   UNL     1      -5.537  -0.818  20.380  1.00  0.00     0.136 A 
ATOM      8  C   UNL     1      -4.590  -1.176  21.359  1.00  0.00     0.125 A 
ATOM      9  C   UNL     1      -4.863  -2.137  22.339  1.00  0.00     0.078 A 
ATOM     10  C   UNL     1      -3.890  -2.451  23.294  1.00  0.00     0.223 A 
ENDROOT
BRANCH   1  11
ATOM     11  C   UNL     1      -1.553  -2.091  24.193  1.00  0.00     0.091 A 
ATOM     12  C   UNL     1      -1.393  -1.335  25.367  1.00  0.00     0.068 A 
ATOM     13  C   UNL     1      -0.371  -1.640  26.277  1.00  0.00     0.162 A 
ATOM     14  C   UNL     1      -0.698  -3.179  23.960  1.00  0.00     0.068 A 
ATOM     15  C   UNL     1       0.494  -2.718  26.023  1.00  0.00     0.200 A 
ATOM     16  C   UNL     1       0.326  -3.487  24.866  1.00  0.00     0.162 A 
BRANCH  13  17
ATOM     17  O   UNL     1      -0.217  -0.880  27.435  1.00  0.00    -0.504 OA
ATOM     18  H   UNL     1      -0.736  -0.021  27.581  1.00  0.00     0.293 HD
ENDBRANCH  13  17
BRANCH  15  19
ATOM     19  O   UNL     1       1.520  -3.038  26.912  1.00  0.00    -0.502 OA
ATOM     20  H   UNL     1       2.139  -2.334  27.297  1.00  0.00     0.293 HD
ENDBRANCH  15  19
BRANCH  16  21
ATOM     21  O   UNL     1       1.182  -4.560  24.622  1.00  0.00    -0.504 OA
ATOM     22  H   UNL     1       1.837  -4.551  23.848  1.00  0.00     0.293 HD
ENDBRANCH  16  21
ENDBRANCH   1  11
BRANCH  10  23
ATOM     23  O   UNL     1      -4.173  -3.370  24.303  1.00  0.00    -0.500 OA
ATOM     24  H   UNL     1      -4.822  -4.134  24.161  1.00  0.00     0.294 HD
ENDBRANCH  10  23
BRANCH   5  25
ATOM     25  O   UNL     1      -3.629   1.747  18.499  1.00  0.00    -0.507 OA
ATOM     26  H   UNL     1      -3.714   2.737  18.704  1.00  0.00     0.293 HD
ENDBRANCH   5  25
BRANCH   7  27
ATOM     27  O   UNL     1      -6.792  -1.427  20.354  1.00  0.00    -0.507 OA
ATOM     28  H   UNL     1      -7.029  -2.183  20.985  1.00  0.00     0.293 HD
ENDBRANCH   7  27
TORSDOF 7
ENDMDL
MODEL 3
REMARK VINA RESULT:    -5.978      4.805      6.445
REMARK INTER + INTRA:          -7.084
REMARK INTER:                  -7.070
REMARK INTRA:                  -0.014
REMARK UNBOUND:                 0.292
REMARK SMILES Oc1cc(O)c2cc(O)c(-c3cc(O)c(O)c(O)c3)[o+]c2c1
REMARK SMILES IDX 10 1 20 2 21 3 22 4 2 5 3 6 4 7 6 8 7 9 8 10 11 11 12 12
REMARK SMILES IDX 13 13 19 14 15 15 17 16 14 17 16 19 18 21 9 23 1 25 5 27
REMARK H PARENT 14 18 16 20 18 22 9 24 1 26 5 28
REMARK Flexibility Score: inf
ROOT
ATOM      1  C   UNL     1      -0.645  -3.076  24.400  1.00  0.00     0.402 A 
ATOM      2  O   UNL     1      -1.146  -2.340  23.409  1.00  0.00    -0.202 OA
ATOM      3  C   UNL     1      -2.272  -1.642  23.519  1.00  0.00     0.368 A 
ATOM      4  C   UNL     1      -2.734  -0.897  22.430  1.00  0.00     0.162 A 
ATOM      5  C   UNL     1      -3.918  -0.162  22.530  1.00  0.00     0.128 A 
ATOM      6  C   UNL     1      -4.646  -0.170  23.728  1.00  0.00     0.093 A 
ATOM      7  C   UNL     1      -4.195  -0.911  24.829  1.00  0.00     0.136 A 
ATOM      8  C   UNL     1      -3.002  -1.652  24.727  1.00  0.00     0.125 A 
ATOM      9  C   UNL     1      -2.500  -2.403  25.796  1.00  0.00     0.078 A 
ATOM     10  C   UNL     1      -1.307  -3.116  25.644  1.00  0.00     0.223 A 
ENDROOT
BRANCH   1  11
ATOM     11  C   UNL     1       0.614  -3.818  24.155  1.00  0.00     0.091 A 
ATOM     12  C   UNL     1       1.679  -3.775  25.070  1.00  0.00     0.068 A 
ATOM     13  C   UNL     1       2.854  -4.502  24.830  1.00  0.00     0.162 A 
ATOM     14  C   UNL     1       0.726  -4.628  23.014  1.00  0.00     0.068 A 
ATOM     15  C   UNL     1       2.965  -5.292  23.674  1.00  0.00     0.200 A 
ATOM     16  C   UNL     1       1.898  -5.355  22.769  1.00  0.00     0.162 A 
BRANCH  13  17
ATOM     17  O   UNL     1       3.908  -4.447  25.741  1.00  0.00    -0.504 OA
ATOM     18  H   UNL     1       3.789  -4.056  26.669  1.00  0.00     0.293 HD
ENDBRANCH  13  17
BRANCH  15  19
ATOM     19  O   UNL     1       4.125  -6.021  23.412  1.00  0.00    -0.502 OA
ATOM     20  H   UNL     1       4.530  -6.076  22.486  1.00  0.00     0.293 HD
ENDBRANCH  15  19
BRANCH  16  21
ATOM     21  O   UNL     1       2.010  -6.147  21.627  1.00  0.00    -0.504 OA
ATOM     22  H   UNL     1       1.191  -6.483  21.132  1.00  0.00     0.293 HD
ENDBRANCH  16  21
ENDBRANCH   1  11
BRANCH  10  23
ATOM     23  O   UNL     1      -0.775  -3.825  26.720  1.00  0.00    -0.500 OA
ATOM     24  H   UNL     1       0.051  -4.403  26.621  1.00  0.00     0.294 HD
ENDBRANCH  10  23
BRANCH   5  25
ATOM     25  O   UNL     1      -4.364   0.573  21.434  1.00  0.00    -0.507 OA
ATOM     26  H   UNL     1      -4.596   1.557  21.515  1.00  0.00     0.293 HD
ENDBRANCH   5  25
BRANCH   7  27
ATOM     27  O   UNL     1      -4.928  -0.911  26.017  1.00  0.00    -0.507 OA
ATOM     28  H   UNL     1      -5.663  -1.586  26.188  1.00  0.00     0.293 HD
ENDBRANCH   7  27
TORSDOF 7
ENDMDL
MODEL 4
REMARK VINA RESULT:    -5.972      4.868      6.568
REMARK INTER + INTRA:          -7.077
REMARK INTER:                  -6.837
REMARK INTRA:                  -0.240
REMARK UNBOUND:                 0.292
REMARK SMILES Oc1cc(O)c2cc(O)c(-c3cc(O)c(O)c(O)c3)[o+]c2c1
REMARK SMILES IDX 10 1 20 2 21 3 22 4 2 5 3 6 4 7 6 8 7 9 8 10 11 11 12 12
REMARK SMILES IDX 13 13 19 14 15 15 17 16 14 17 16 19 18 21 9 23 1 25 5 27
REMARK H PARENT 14 18 16 20 18 22 9 24 1 26 5 28
REMARK Flexibility Score: inf
ROOT
ATOM      1  C   UNL     1      -0.815  -2.839  24.402  1.00  0.00     0.402 A 
ATOM      2  O   UNL     1      -1.301  -2.047  23.448  1.00  0.00    -0.202 OA
ATOM      3  C   UNL     1      -2.435  -1.365  23.577  1.00  0.00     0.368 A 
ATOM      4  C   UNL     1      -2.881  -0.558  22.526  1.00  0.00     0.162 A 
ATOM      5  C   UNL     1      -4.073   0.161  22.646  1.00  0.00     0.128 A 
ATOM      6  C   UNL     1      -4.825   0.075  23.825  1.00  0.00     0.093 A 
ATOM      7  C   UNL     1      -4.391  -0.729  24.889  1.00  0.00     0.136 A 
ATOM      8  C   UNL     1      -3.190  -1.454  24.766  1.00  0.00     0.125 A 
ATOM      9  C   UNL     1      -2.704  -2.266  25.797  1.00  0.00     0.078 A 
ATOM     10  C   UNL     1      -1.502  -2.960  25.627  1.00  0.00     0.223 A 
ENDROOT
BRANCH   1  11
ATOM     11  C   UNL     1       0.455  -3.556  24.138  1.00  0.00     0.091 A 
ATOM     12  C   UNL     1       0.543  -4.547  23.146  1.00  0.00     0.068 A 
ATOM     13  C   UNL     1       1.760  -5.198  22.896  1.00  0.00     0.162 A 
ATOM     14  C   UNL     1       1.609  -3.199  24.853  1.00  0.00     0.068 A 
ATOM     15  C   UNL     1       2.904  -4.849  23.633  1.00  0.00     0.200 A 
ATOM     16  C   UNL     1       2.827  -3.847  24.608  1.00  0.00     0.162 A 
BRANCH  13  17
ATOM     17  O   UNL     1       1.837  -6.185  21.915  1.00  0.00    -0.504 OA
ATOM     18  H   UNL     1       1.852  -5.953  20.928  1.00  0.00     0.293 HD
ENDBRANCH  13  17
BRANCH  15  19
ATOM     19  O   UNL     1       4.125  -5.485  23.405  1.00  0.00    -0.502 OA
ATOM     20  H   UNL     1       4.968  -4.970  23.183  1.00  0.00     0.293 HD
ENDBRANCH  15  19
BRANCH  16  21
ATOM     21  O   UNL     1       3.967  -3.499  25.331  1.00  0.00    -0.504 OA
ATOM     22  H   UNL     1       4.670  -2.878  24.946  1.00  0.00     0.293 HD
ENDBRANCH  16  21
ENDBRANCH   1  11
BRANCH  10  23
ATOM     23  O   UNL     1      -0.986  -3.730  26.669  1.00  0.00    -0.500 OA
ATOM     24  H   UNL     1      -1.562  -4.389  27.179  1.00  0.00     0.294 HD
ENDBRANCH  10  23
BRANCH   5  25
ATOM     25  O   UNL     1      -4.502   0.960  21.588  1.00  0.00    -0.507 OA
ATOM     26  H   UNL     1      -3.854   1.538  21.063  1.00  0.00     0.293 HD
ENDBRANCH   5  25
BRANCH   7  27
ATOM     27  O   UNL     1      -5.148  -0.807  26.059  1.00  0.00    -0.507 OA
ATOM     28  H   UNL     1      -4.759  -1.173  26.919  1.00  0.00     0.293 HD
ENDBRANCH   7  27
TORSDOF 7
ENDMDL
MODEL 5
REMARK VINA RESULT:    -5.891      5.031      9.544
REMARK INTER + INTRA:          -6.976
REMARK INTER:                  -6.596
REMARK INTRA:                  -0.380
REMARK UNBOUND:                 0.292
REMARK SMILES Oc1cc(O)c2cc(O)c(-c3cc(O)c(O)c(O)c3)[o+]c2c1
REMARK SMILES IDX 10 1 20 2 21 3 22 4 2 5 3 6 4 7 6 8 7 9 8 10 11 11 12 12
REMARK SMILES IDX 13 13 19 14 15 15 17 16 14 17 16 19 18 21 9 23 1 25 5 27
REMARK H PARENT 14 18 16 20 18 22 9 24 1 26 5 28
REMARK Flexibility Score: inf
ROOT
ATOM      1  C   UNL     1      -0.332  -3.068  24.129  1.00  0.00     0.402 A 
ATOM      2  O   UNL     1       0.367  -3.974  23.449  1.00  0.00    -0.202 OA
ATOM      3  C   UNL     1       1.549  -4.433  23.850  1.00  0.00     0.368 A 
ATOM      4  C   UNL     1       2.222  -5.382  23.074  1.00  0.00     0.162 A 
ATOM      5  C   UNL     1       3.467  -5.870  23.481  1.00  0.00     0.128 A 
ATOM      6  C   UNL     1       4.043  -5.408  24.673  1.00  0.00     0.093 A 
ATOM      7  C   UNL     1       3.379  -4.457  25.462  1.00  0.00     0.136 A 
ATOM      8  C   UNL     1       2.125  -3.966  25.050  1.00  0.00     0.125 A 
ATOM      9  C   UNL     1       1.414  -3.023  25.801  1.00  0.00     0.078 A 
ATOM     10  C   UNL     1       0.169  -2.573  25.350  1.00  0.00     0.223 A 
ENDROOT
BRANCH   1  11
ATOM     11  C   UNL     1      -1.634  -2.627  23.577  1.00  0.00     0.091 A 
ATOM     12  C   UNL     1      -2.825  -3.310  23.875  1.00  0.00     0.068 A 
ATOM     13  C   UNL     1      -4.050  -2.863  23.359  1.00  0.00     0.162 A 
ATOM     14  C   UNL     1      -1.690  -1.469  22.785  1.00  0.00     0.068 A 
ATOM     15  C   UNL     1      -4.092  -1.716  22.550  1.00  0.00     0.200 A 
ATOM     16  C   UNL     1      -2.911  -1.019  22.267  1.00  0.00     0.162 A 
BRANCH  13  17
ATOM     17  O   UNL     1      -5.226  -3.552  23.655  1.00  0.00    -0.504 OA
ATOM     18  H   UNL     1      -5.573  -4.293  23.056  1.00  0.00     0.293 HD
ENDBRANCH  13  17
BRANCH  15  19
ATOM     19  O   UNL     1      -5.299  -1.255  22.023  1.00  0.00    -0.502 OA
ATOM     20  H   UNL     1      -6.080  -0.994  22.613  1.00  0.00     0.293 HD
ENDBRANCH  15  19
BRANCH  16  21
ATOM     21  O   UNL     1      -2.960   0.123  21.469  1.00  0.00    -0.504 OA
ATOM     22  H   UNL     1      -2.654   0.108  20.503  1.00  0.00     0.293 HD
ENDBRANCH  16  21
ENDBRANCH   1  11
BRANCH  10  23
ATOM     23  O   UNL     1      -0.567  -1.671  26.119  1.00  0.00    -0.500 OA
ATOM     24  H   UNL     1      -0.334  -1.482  27.086  1.00  0.00     0.294 HD
ENDBRANCH  10  23
BRANCH   5  25
ATOM     25  O   UNL     1       4.124  -6.814  22.696  1.00  0.00    -0.507 OA
ATOM     26  H   UNL     1       3.853  -7.792  22.704  1.00  0.00     0.293 HD
ENDBRANCH   5  25
BRANCH   7  27
ATOM     27  O   UNL     1       3.962  -4.005  26.646  1.00  0.00    -0.507 OA
ATOM     28  H   UNL     1       3.522  -4.156  27.546  1.00  0.00     0.293 HD
ENDBRANCH   7  27
TORSDOF 7
ENDMDL
MODEL 6
REMARK VINA RESULT:    -5.881      3.846      8.016
REMARK INTER + INTRA:          -6.964
REMARK INTER:                  -6.579
REMARK INTRA:                  -0.385
REMARK UNBOUND:                 0.292
REMARK SMILES Oc1cc(O)c2cc(O)c(-c3cc(O)c(O)c(O)c3)[o+]c2c1
REMARK SMILES IDX 10 1 20 2 21 3 22 4 2 5 3 6 4 7 6 8 7 9 8 10 11 11 12 12
REMARK SMILES IDX 13 13 19 14 15 15 17 16 14 17 16 19 18 21 9 23 1 25 5 27
REMARK H PARENT 14 18 16 20 18 22 9 24 1 26 5 28
REMARK Flexibility Score: inf
ROOT
ATOM      1  C   UNL     1      -2.580  -0.964  22.824  1.00  0.00     0.402 A 
ATOM      2  O   UNL     1      -1.777  -2.020  22.710  1.00  0.00    -0.202 OA
ATOM      3  C   UNL     1      -0.946  -2.410  23.671  1.00  0.00     0.368 A 
ATOM      4  C   UNL     1      -0.132  -3.529  23.471  1.00  0.00     0.162 A 
ATOM      5  C   UNL     1       0.750  -3.948  24.471  1.00  0.00     0.128 A 
ATOM      6  C   UNL     1       0.817  -3.245  25.682  1.00  0.00     0.093 A 
ATOM      7  C   UNL     1       0.006  -2.122  25.898  1.00  0.00     0.136 A 
ATOM      8  C   UNL     1      -0.881  -1.701  24.889  1.00  0.00     0.125 A 
ATOM      9  C   UNL     1      -1.719  -0.592  25.053  1.00  0.00     0.078 A 
ATOM     10  C   UNL     1      -2.587  -0.220  24.022  1.00  0.00     0.223 A 
ENDROOT
BRANCH   1  11
ATOM     11  C   UNL     1      -3.456  -0.622  21.680  1.00  0.00     0.091 A 
ATOM     12  C   UNL     1      -3.039   0.273  20.680  1.00  0.00     0.068 A 
ATOM     13  C   UNL     1      -3.875   0.566  19.593  1.00  0.00     0.162 A 
ATOM     14  C   UNL     1      -4.707  -1.247  21.559  1.00  0.00     0.068 A 
ATOM     15  C   UNL     1      -5.134  -0.048  19.493  1.00  0.00     0.200 A 
ATOM     16  C   UNL     1      -5.546  -0.956  20.475  1.00  0.00     0.162 A 
BRANCH  13  17
ATOM     17  O   UNL     1      -3.455   1.461  18.610  1.00  0.00    -0.504 OA
ATOM     18  H   UNL     1      -4.080   1.779  17.878  1.00  0.00     0.293 HD
ENDBRANCH  13  17
BRANCH  15  19
ATOM     19  O   UNL     1      -5.984   0.231  18.423  1.00  0.00    -0.502 OA
ATOM     20  H   UNL     1      -5.960  -0.302  17.562  1.00  0.00     0.293 HD
ENDBRANCH  15  19
BRANCH  16  21
ATOM     21  O   UNL     1      -6.794  -1.569  20.367  1.00  0.00    -0.504 OA
ATOM     22  H   UNL     1      -7.303  -1.883  21.185  1.00  0.00     0.293 HD
ENDBRANCH  16  21
ENDBRANCH   1  11
BRANCH  10  23
ATOM     23  O   UNL     1      -3.461   0.853  24.197  1.00  0.00    -0.500 OA
ATOM     24  H   UNL     1      -3.179   1.806  24.005  1.00  0.00     0.294 HD
ENDBRANCH  10  23
BRANCH   5  25
ATOM     25  O   UNL     1       1.554  -5.064  24.253  1.00  0.00    -0.507 OA
ATOM     26  H   UNL     1       2.522  -4.973  23.963  1.00  0.00     0.293 HD
ENDBRANCH   5  25
BRANCH   7  27
ATOM     27  O   UNL     1       0.081  -1.431  27.108  1.00  0.00    -0.507 OA
ATOM     28  H   UNL     1       0.367  -0.459  27.148  1.00  0.00     0.293 HD
ENDBRANCH   7  27
TORSDOF 7
ENDMDL
MODEL 7
REMARK VINA RESULT:    -5.784      5.802     10.282
REMARK INTER + INTRA:          -6.845
REMARK INTER:                  -6.544
REMARK INTRA:                  -0.301
REMARK UNBOUND:                 0.292
REMARK SMILES Oc1cc(O)c2cc(O)c(-c3cc(O)c(O)c(O)c3)[o+]c2c1
REMARK SMILES IDX 10 1 20 2 21 3 22 4 2 5 3 6 4 7 6 8 7 9 8 10 11 11 12 12
REMARK SMILES IDX 13 13 19 14 15 15 17 16 14 17 16 19 18 21 9 23 1 25 5 27
REMARK H PARENT 14 18 16 20 18 22 9 24 1 26 5 28
REMARK Flexibility Score: inf
ROOT
ATOM      1  C   UNL     1      -0.163  -2.620  24.304  1.00  0.00     0.402 A 
ATOM      2  O   UNL     1       0.395  -2.854  25.491  1.00  0.00    -0.202 OA
ATOM      3  C   UNL     1       1.536  -3.518  25.641  1.00  0.00     0.368 A 
ATOM      4  C   UNL     1       2.054  -3.726  26.923  1.00  0.00     0.162 A 
ATOM      5  C   UNL     1       3.250  -4.426  27.096  1.00  0.00     0.128 A 
ATOM      6  C   UNL     1       3.938  -4.921  25.979  1.00  0.00     0.093 A 
ATOM      7  C   UNL     1       3.432  -4.720  24.686  1.00  0.00     0.136 A 
ATOM      8  C   UNL     1       2.225  -4.015  24.514  1.00  0.00     0.125 A 
ATOM      9  C   UNL     1       1.678  -3.778  23.248  1.00  0.00     0.078 A 
ATOM     10  C   UNL     1       0.480  -3.066  23.132  1.00  0.00     0.223 A 
ENDROOT
BRANCH   1  11
ATOM     11  C   UNL     1      -1.443  -1.876  24.265  1.00  0.00     0.091 A 
ATOM     12  C   UNL     1      -2.644  -2.504  23.895  1.00  0.00     0.068 A 
ATOM     13  C   UNL     1      -3.849  -1.786  23.886  1.00  0.00     0.162 A 
ATOM     14  C   UNL     1      -1.469  -0.529  24.662  1.00  0.00     0.068 A 
ATOM     15  C   UNL     1      -3.861  -0.433  24.262  1.00  0.00     0.200 A 
ATOM     16  C   UNL     1      -2.671   0.192  24.653  1.00  0.00     0.162 A 
BRANCH  13  17
ATOM     17  O   UNL     1      -5.034  -2.417  23.510  1.00  0.00    -0.504 OA
ATOM     18  H   UNL     1      -5.718  -1.955  22.920  1.00  0.00     0.293 HD
ENDBRANCH  13  17
BRANCH  15  19
ATOM     19  O   UNL     1      -5.047   0.301  24.258  1.00  0.00    -0.502 OA
ATOM     20  H   UNL     1      -5.408   0.749  25.092  1.00  0.00     0.293 HD
ENDBRANCH  15  19
BRANCH  16  21
ATOM     21  O   UNL     1      -2.690   1.533  25.033  1.00  0.00    -0.504 OA
ATOM     22  H   UNL     1      -3.063   2.252  24.424  1.00  0.00     0.293 HD
ENDBRANCH  16  21
ENDBRANCH   1  11
BRANCH  10  23
ATOM     23  O   UNL     1      -0.044  -2.782  21.871  1.00  0.00    -0.500 OA
ATOM     24  H   UNL     1      -0.951  -3.128  21.581  1.00  0.00     0.294 HD
ENDBRANCH  10  23
BRANCH   5  25
ATOM     25  O   UNL     1       3.750  -4.624  28.380  1.00  0.00    -0.507 OA
ATOM     26  H   UNL     1       4.673  -4.297  28.647  1.00  0.00     0.293 HD
ENDBRANCH   5  25
BRANCH   7  27
ATOM     27  O   UNL     1       4.125  -5.217  23.582  1.00  0.00    -0.507 OA
ATOM     28  H   UNL     1       3.767  -5.114  22.640  1.00  0.00     0.293 HD
ENDBRANCH   7  27
TORSDOF 7
ENDMDL
MODEL 8
REMARK VINA RESULT:    -5.781      5.109      8.669
REMARK INTER + INTRA:          -6.841
REMARK INTER:                  -7.037
REMARK INTRA:                   0.196
REMARK UNBOUND:                 0.292
REMARK SMILES Oc1cc(O)c2cc(O)c(-c3cc(O)c(O)c(O)c3)[o+]c2c1
REMARK SMILES IDX 10 1 20 2 21 3 22 4 2 5 3 6 4 7 6 8 7 9 8 10 11 11 12 12
REMARK SMILES IDX 13 13 19 14 15 15 17 16 14 17 16 19 18 21 9 23 1 25 5 27
REMARK H PARENT 14 18 16 20 18 22 9 24 1 26 5 28
REMARK Flexibility Score: inf
ROOT
ATOM      1  C   UNL     1       2.183  -4.269  22.969  1.00  0.00     0.402 A 
ATOM      2  O   UNL     1       1.503  -3.388  22.239  1.00  0.00    -0.202 OA
ATOM      3  C   UNL     1       1.502  -3.392  20.909  1.00  0.00     0.368 A 
ATOM      4  C   UNL     1       0.765  -2.428  20.214  1.00  0.00     0.162 A 
ATOM      5  C   UNL     1       0.757  -2.418  18.817  1.00  0.00     0.128 A 
ATOM      6  C   UNL     1       1.490  -3.380  18.108  1.00  0.00     0.093 A 
ATOM      7  C   UNL     1       2.232  -4.354  18.790  1.00  0.00     0.136 A 
ATOM      8  C   UNL     1       2.240  -4.362  20.198  1.00  0.00     0.125 A 
ATOM      9  C   UNL     1       2.957  -5.314  20.932  1.00  0.00     0.078 A 
ATOM     10  C   UNL     1       2.925  -5.282  22.329  1.00  0.00     0.223 A 
ENDROOT
BRANCH   1  11
ATOM     11  C   UNL     1       2.115  -4.157  24.445  1.00  0.00     0.091 A 
ATOM     12  C   UNL     1       3.158  -4.622  25.263  1.00  0.00     0.068 A 
ATOM     13  C   UNL     1       3.084  -4.486  26.657  1.00  0.00     0.162 A 
ATOM     14  C   UNL     1       1.012  -3.522  25.038  1.00  0.00     0.068 A 
ATOM     15  C   UNL     1       1.966  -3.870  27.242  1.00  0.00     0.200 A 
ATOM     16  C   UNL     1       0.933  -3.386  26.430  1.00  0.00     0.162 A 
BRANCH  13  17
ATOM     17  O   UNL     1       4.121  -4.957  27.461  1.00  0.00    -0.504 OA
ATOM     18  H   UNL     1       4.196  -4.698  28.439  1.00  0.00     0.293 HD
ENDBRANCH  13  17
BRANCH  15  19
ATOM     19  O   UNL     1       1.869  -3.727  28.627  1.00  0.00    -0.502 OA
ATOM     20  H   UNL     1       2.461  -4.245  29.265  1.00  0.00     0.293 HD
ENDBRANCH  15  19
BRANCH  16  21
ATOM     21  O   UNL     1      -0.171  -2.768  27.015  1.00  0.00    -0.504 OA
ATOM     22  H   UNL     1      -0.947  -3.306  27.385  1.00  0.00     0.293 HD
ENDBRANCH  16  21
ENDBRANCH   1  11
BRANCH  10  23
ATOM     23  O   UNL     1       3.595  -6.259  23.065  1.00  0.00    -0.500 OA
ATOM     24  H   UNL     1       3.900  -6.092  24.017  1.00  0.00     0.294 HD
ENDBRANCH  10  23
BRANCH   5  25
ATOM     25  O   UNL     1       0.018  -1.449  18.142  1.00  0.00    -0.507 OA
ATOM     26  H   UNL     1      -0.894  -1.656  17.749  1.00  0.00     0.293 HD
ENDBRANCH   5  25
BRANCH   7  27
ATOM     27  O   UNL     1       2.957  -5.307  18.073  1.00  0.00    -0.507 OA
ATOM     28  H   UNL     1       3.848  -5.657  18.406  1.00  0.00     0.293 HD
ENDBRANCH   7  27
TORSDOF 7
ENDMDL
MODEL 9
REMARK VINA RESULT:    -5.702      6.507      9.520
REMARK INTER + INTRA:          -6.744
REMARK INTER:                  -6.407
REMARK INTRA:                  -0.337
REMARK UNBOUND:                 0.292
REMARK SMILES Oc1cc(O)c2cc(O)c(-c3cc(O)c(O)c(O)c3)[o+]c2c1
REMARK SMILES IDX 10 1 20 2 21 3 22 4 2 5 3 6 4 7 6 8 7 9 8 10 11 11 12 12
REMARK SMILES IDX 13 13 19 14 15 15 17 16 14 17 16 19 18 21 9 23 1 25 5 27
REMARK H PARENT 14 18 16 20 18 22 9 24 1 26 5 28
REMARK Flexibility Score: inf
ROOT
ATOM      1  C   UNL     1       0.090  -2.455  24.764  1.00  0.00     0.402 A 
ATOM      2  O   UNL     1       0.297  -2.615  23.459  1.00  0.00    -0.202 OA
ATOM      3  C   UNL     1       1.281  -3.359  22.964  1.00  0.00     0.368 A 
ATOM      4  C   UNL     1       1.433  -3.472  21.578  1.00  0.00     0.162 A 
ATOM      5  C   UNL     1       2.466  -4.248  21.044  1.00  0.00     0.128 A 
ATOM      6  C   UNL     1       3.352  -4.917  21.899  1.00  0.00     0.093 A 
ATOM      7  C   UNL     1       3.211  -4.814  23.290  1.00  0.00     0.136 A 
ATOM      8  C   UNL     1       2.171  -4.031  23.828  1.00  0.00     0.125 A 
ATOM      9  C   UNL     1       1.978  -3.899  25.208  1.00  0.00     0.078 A 
ATOM     10  C   UNL     1       0.925  -3.115  25.689  1.00  0.00     0.223 A 
ENDROOT
BRANCH   1  11
ATOM     11  C   UNL     1      -1.034  -1.593  25.196  1.00  0.00     0.091 A 
ATOM     12  C   UNL     1      -0.945  -0.191  25.144  1.00  0.00     0.068 A 
ATOM     13  C   UNL     1      -2.029   0.607  25.535  1.00  0.00     0.162 A 
ATOM     14  C   UNL     1      -2.237  -2.186  25.611  1.00  0.00     0.068 A 
ATOM     15  C   UNL     1      -3.221   0.004  25.971  1.00  0.00     0.200 A 
ATOM     16  C   UNL     1      -3.323  -1.392  26.005  1.00  0.00     0.162 A 
BRANCH  13  17
ATOM     17  O   UNL     1      -1.928   1.996  25.487  1.00  0.00    -0.504 OA
ATOM     18  H   UNL     1      -2.138   2.516  24.641  1.00  0.00     0.293 HD
ENDBRANCH  13  17
BRANCH  15  19
ATOM     19  O   UNL     1      -4.311   0.777  26.369  1.00  0.00    -0.502 OA
ATOM     20  H   UNL     1      -4.297   1.789  26.333  1.00  0.00     0.293 HD
ENDBRANCH  15  19
BRANCH  16  21
ATOM     21  O   UNL     1      -4.511  -1.986  26.431  1.00  0.00    -0.504 OA
ATOM     22  H   UNL     1      -5.167  -2.389  25.772  1.00  0.00     0.293 HD
ENDBRANCH  16  21
ENDBRANCH   1  11
BRANCH  10  23
ATOM     23  O   UNL     1       0.696  -3.020  27.062  1.00  0.00    -0.500 OA
ATOM     24  H   UNL     1       1.397  -2.653  27.694  1.00  0.00     0.294 HD
ENDBRANCH  10  23
BRANCH   5  25
ATOM     25  O   UNL     1       2.603  -4.349  19.661  1.00  0.00    -0.507 OA
ATOM     26  H   UNL     1       2.438  -5.223  19.174  1.00  0.00     0.293 HD
ENDBRANCH   5  25
BRANCH   7  27
ATOM     27  O   UNL     1       4.099  -5.485  24.133  1.00  0.00    -0.507 OA
ATOM     28  H   UNL     1       4.994  -5.824  23.800  1.00  0.00     0.293 HD
ENDBRANCH   7  27
TORSDOF 7
ENDMDL
