MODEL 1
REMARK VINA RESULT:    -4.201      0.000      0.000
REMARK INTER + INTRA:          -6.324
REMARK INTER:                  -6.166
REMARK INTRA:                  -0.158
REMARK UNBOUND:                -0.158
REMARK SMILES Cc1cc2c(C(C)C)c(O)c(O)c(C=O)c2c(O)c1-c1c(C)cc2c(C(C)C)c(O)c(O)c(C=O)c2c1O
REMARK SMILES IDX 1 1 2 2 3 3 4 4 16 5 13 6 11 7 9 8 5 9 17 10 19 11 20 12
REMARK SMILES IDX 37 13 21 14 36 15 23 16 22 17 24 18 33 19 25 20 31 21 29 22
REMARK SMILES IDX 38 23 34 25 35 26 26 27 27 28 28 29 32 30 30 32 18 34 6 36
REMARK SMILES IDX 7 37 8 38 14 39 15 40 10 41 12 43
REMARK H PARENT 38 24 32 31 30 33 18 35 10 42 12 44
REMARK Flexibility Score: inf
ROOT
ATOM      1  C   UNL     1      36.468 -11.125  10.896  1.00  0.00     0.045 C 
ATOM      2  C   UNL     1      36.351  -9.976  11.868  1.00  0.00    -0.039 A 
ATOM      3  C   UNL     1      35.260  -9.919  12.737  1.00  0.00     0.013 A 
ATOM      4  C   UNL     1      35.099  -8.862  13.661  1.00  0.00    -0.006 A 
ATOM      5  C   UNL     1      36.161  -7.925  13.814  1.00  0.00     0.039 A 
ATOM      6  C   UNL     1      36.126  -7.021  14.914  1.00  0.00     0.072 A 
ATOM      7  C   UNL     1      35.027  -7.023  15.796  1.00  0.00     0.169 A 
ATOM      8  C   UNL     1      33.921  -7.863  15.556  1.00  0.00     0.162 A 
ATOM      9  C   UNL     1      33.916  -8.740  14.447  1.00  0.00     0.008 A 
ATOM     10  C   UNL     1      37.214  -7.919  12.853  1.00  0.00     0.132 A 
ATOM     11  C   UNL     1      37.307  -8.949  11.891  1.00  0.00     0.031 A 
ENDROOT
BRANCH  11  12
ATOM     12  C   UNL     1      38.420  -8.957  10.906  1.00  0.00     0.031 A 
ATOM     13  C   UNL     1      38.440  -8.020   9.851  1.00  0.00     0.132 A 
ATOM     14  C   UNL     1      39.433  -9.925  11.005  1.00  0.00    -0.039 A 
ATOM     15  C   UNL     1      39.529  -7.991   8.934  1.00  0.00     0.039 A 
ATOM     16  C   UNL     1      40.438  -9.970  10.037  1.00  0.00     0.013 A 
ATOM     17  C   UNL     1      39.401 -10.979  12.085  1.00  0.00     0.045 C 
ATOM     18  C   UNL     1      40.529  -9.007   9.008  1.00  0.00    -0.006 A 
ATOM     19  C   UNL     1      39.625  -7.010   7.907  1.00  0.00     0.072 A 
ATOM     20  C   UNL     1      41.576  -9.058   8.033  1.00  0.00     0.008 A 
ATOM     21  C   UNL     1      40.526  -7.196   6.851  1.00  0.00     0.169 A 
ATOM     22  C   UNL     1      41.451  -8.245   6.877  1.00  0.00     0.162 A 
BRANCH  13  23
ATOM     23  O   UNL     1      37.352  -7.156   9.679  1.00  0.00    -0.507 OA
ATOM     24  H   UNL     1      36.603  -7.317   9.019  1.00  0.00     0.293 HD
ENDBRANCH  13  23
BRANCH  19  25
ATOM     25  C   UNL     1      38.853  -5.747   7.915  1.00  0.00     0.264 C 
ATOM     26  O   UNL     1      39.077  -4.862   8.783  1.00  0.00    -0.298 OA
ENDBRANCH  19  25
BRANCH  20  27
ATOM     27  C   UNL     1      42.832  -9.917   8.272  1.00  0.00     0.017 C 
ATOM     28  C   UNL     1      42.895 -11.125   7.326  1.00  0.00     0.012 C 
ATOM     29  C   UNL     1      44.151  -9.121   8.283  1.00  0.00     0.012 C 
ENDBRANCH  20  27
BRANCH  21  30
ATOM     30  O   UNL     1      40.507  -6.307   5.771  1.00  0.00    -0.504 OA
ATOM     31  H   UNL     1      40.549  -6.614   4.807  1.00  0.00     0.293 HD
ENDBRANCH  21  30
BRANCH  22  32
ATOM     32  O   UNL     1      42.227  -8.447   5.734  1.00  0.00    -0.504 OA
ATOM     33  H   UNL     1      42.496  -9.358   5.398  1.00  0.00     0.293 HD
ENDBRANCH  22  32
ENDBRANCH  11  12
BRANCH  10  34
ATOM     34  O   UNL     1      38.143  -6.872  12.829  1.00  0.00    -0.507 OA
ATOM     35  H   UNL     1      37.890  -5.893  12.837  1.00  0.00     0.293 HD
ENDBRANCH  10  34
BRANCH   9  36
ATOM     36  C   UNL     1      32.640  -9.533  14.104  1.00  0.00     0.017 C 
ATOM     37  C   UNL     1      32.720 -10.963  14.647  1.00  0.00     0.012 C 
ATOM     38  C   UNL     1      31.338  -8.837  14.542  1.00  0.00     0.012 C 
ENDBRANCH   9  36
BRANCH   6  39
ATOM     39  C   UNL     1      37.286  -6.169  15.267  1.00  0.00     0.264 C 
ATOM     40  O   UNL     1      37.336  -4.963  14.909  1.00  0.00    -0.298 OA
ENDBRANCH   6  39
BRANCH   8  41
ATOM     41  O   UNL     1      32.818  -7.861  16.416  1.00  0.00    -0.504 OA
ATOM     42  H   UNL     1      32.675  -8.505  17.180  1.00  0.00     0.293 HD
ENDBRANCH   8  41
BRANCH   7  43
ATOM     43  O   UNL     1      35.084  -6.189  16.922  1.00  0.00    -0.504 OA
ATOM     44  H   UNL     1      35.697  -6.320  17.712  1.00  0.00     0.293 HD
ENDBRANCH   7  43
TORSDOF 11
ENDMDL
MODEL 2
REMARK VINA RESULT:    -3.217      2.481      9.593
REMARK INTER + INTRA:          -4.881
REMARK INTER:                  -4.677
REMARK INTRA:                  -0.204
REMARK UNBOUND:                -0.158
REMARK SMILES Cc1cc2c(C(C)C)c(O)c(O)c(C=O)c2c(O)c1-c1c(C)cc2c(C(C)C)c(O)c(O)c(C=O)c2c1O
REMARK SMILES IDX 1 1 2 2 3 3 4 4 16 5 13 6 11 7 9 8 5 9 17 10 19 11 20 12
REMARK SMILES IDX 37 13 21 14 36 15 23 16 22 17 24 18 33 19 25 20 31 21 29 22
REMARK SMILES IDX 38 23 34 25 35 26 26 27 27 28 28 29 32 30 30 32 18 34 6 36
REMARK SMILES IDX 7 37 8 38 14 39 15 40 10 41 12 43
REMARK H PARENT 38 24 32 31 30 33 18 35 10 42 12 44
REMARK Flexibility Score: inf
ROOT
ATOM      1  C   UNL     1      38.771  -5.923   7.064  1.00  0.00     0.045 C 
ATOM      2  C   UNL     1      39.926  -6.894   7.058  1.00  0.00    -0.039 A 
ATOM      3  C   UNL     1      40.704  -7.030   5.907  1.00  0.00     0.013 A 
ATOM      4  C   UNL     1      41.792  -7.929   5.847  1.00  0.00    -0.006 A 
ATOM      5  C   UNL     1      42.197  -8.588   7.043  1.00  0.00     0.039 A 
ATOM      6  C   UNL     1      43.439  -9.286   7.055  1.00  0.00     0.072 A 
ATOM      7  C   UNL     1      44.218  -9.364   5.885  1.00  0.00     0.169 A 
ATOM      8  C   UNL     1      43.744  -8.821   4.674  1.00  0.00     0.162 A 
ATOM      9  C   UNL     1      42.494  -8.160   4.627  1.00  0.00     0.008 A 
ATOM     10  C   UNL     1      41.337  -8.537   8.178  1.00  0.00     0.132 A 
ATOM     11  C   UNL     1      40.212  -7.684   8.183  1.00  0.00     0.031 A 
ENDROOT
BRANCH  11  12
ATOM     12  C   UNL     1      39.331  -7.611   9.377  1.00  0.00     0.031 A 
ATOM     13  C   UNL     1      38.370  -8.617   9.613  1.00  0.00     0.132 A 
ATOM     14  C   UNL     1      39.429  -6.515  10.251  1.00  0.00    -0.039 A 
ATOM     15  C   UNL     1      37.557  -8.578  10.782  1.00  0.00     0.039 A 
ATOM     16  C   UNL     1      38.553  -6.418  11.334  1.00  0.00     0.013 A 
ATOM     17  C   UNL     1      40.403  -5.392   9.987  1.00  0.00     0.045 C 
ATOM     18  C   UNL     1      37.626  -7.439  11.640  1.00  0.00    -0.006 A 
ATOM     19  C   UNL     1      36.635  -9.616  11.095  1.00  0.00     0.072 A 
ATOM     20  C   UNL     1      36.745  -7.331  12.763  1.00  0.00     0.008 A 
ATOM     21  C   UNL     1      35.649  -9.399  12.066  1.00  0.00     0.169 A 
ATOM     22  C   UNL     1      35.661  -8.241  12.850  1.00  0.00     0.162 A 
BRANCH  13  23
ATOM     23  O   UNL     1      38.183  -9.624   8.659  1.00  0.00    -0.507 OA
ATOM     24  H   UNL     1      37.336  -9.737   8.118  1.00  0.00     0.293 HD
ENDBRANCH  13  23
BRANCH  19  25
ATOM     25  C   UNL     1      36.690 -10.963  10.484  1.00  0.00     0.264 C 
ATOM     26  O   UNL     1      36.436 -11.125   9.260  1.00  0.00    -0.298 OA
ENDBRANCH  19  25
BRANCH  20  27
ATOM     27  C   UNL     1      37.014  -6.301  13.877  1.00  0.00     0.017 C 
ATOM     28  C   UNL     1      36.267  -4.982  13.637  1.00  0.00     0.012 C 
ATOM     29  C   UNL     1      36.795  -6.840  15.304  1.00  0.00     0.012 C 
ENDBRANCH  20  27
BRANCH  21  30
ATOM     30  O   UNL     1      34.656 -10.366  12.260  1.00  0.00    -0.504 OA
ATOM     31  H   UNL     1      33.976 -10.311  13.008  1.00  0.00     0.293 HD
ENDBRANCH  21  30
BRANCH  22  32
ATOM     32  O   UNL     1      34.576  -8.032  13.704  1.00  0.00    -0.504 OA
ATOM     33  H   UNL     1      33.757  -8.619  13.716  1.00  0.00     0.293 HD
ENDBRANCH  22  32
ENDBRANCH  11  12
BRANCH  10  34
ATOM     34  O   UNL     1      41.578  -9.360   9.285  1.00  0.00    -0.507 OA
ATOM     35  H   UNL     1      41.557 -10.370   9.253  1.00  0.00     0.293 HD
ENDBRANCH  10  34
BRANCH   9  36
ATOM     36  C   UNL     1      41.914  -7.714   3.271  1.00  0.00     0.017 C 
ATOM     37  C   UNL     1      40.863  -8.709   2.770  1.00  0.00     0.012 C 
ATOM     38  C   UNL     1      41.371  -6.273   3.270  1.00  0.00     0.012 C 
ENDBRANCH   9  36
BRANCH   6  39
ATOM     39  C   UNL     1      44.031  -9.810   8.309  1.00  0.00     0.264 C 
ATOM     40  O   UNL     1      44.014 -11.043   8.566  1.00  0.00    -0.298 OA
ENDBRANCH   6  39
BRANCH   8  41
ATOM     41  O   UNL     1      44.502  -8.907   3.502  1.00  0.00    -0.504 OA
ATOM     42  H   UNL     1      44.126  -8.911   2.565  1.00  0.00     0.293 HD
ENDBRANCH   8  41
BRANCH   7  43
ATOM     43  O   UNL     1      45.480  -9.970   5.972  1.00  0.00    -0.504 OA
ATOM     44  H   UNL     1      46.149 -10.031   5.220  1.00  0.00     0.293 HD
ENDBRANCH   7  43
TORSDOF 11
ENDMDL
MODEL 3
REMARK VINA RESULT:    -3.169      2.208      4.289
REMARK INTER + INTRA:          -4.809
REMARK INTER:                  -6.745
REMARK INTRA:                   1.936
REMARK UNBOUND:                -0.158
REMARK SMILES Cc1cc2c(C(C)C)c(O)c(O)c(C=O)c2c(O)c1-c1c(C)cc2c(C(C)C)c(O)c(O)c(C=O)c2c1O
REMARK SMILES IDX 1 1 2 2 3 3 4 4 16 5 13 6 11 7 9 8 5 9 17 10 19 11 20 12
REMARK SMILES IDX 37 13 21 14 36 15 23 16 22 17 24 18 33 19 25 20 31 21 29 22
REMARK SMILES IDX 38 23 34 25 35 26 26 27 27 28 28 29 32 30 30 32 18 34 6 36
REMARK SMILES IDX 7 37 8 38 14 39 15 40 10 41 12 43
REMARK H PARENT 38 24 32 31 30 33 18 35 10 42 12 44
REMARK Flexibility Score: inf
ROOT
ATOM      1  C   UNL     1      40.303  -5.962   9.749  1.00  0.00     0.045 C 
ATOM      2  C   UNL     1      39.359  -7.052  10.195  1.00  0.00    -0.039 A 
ATOM      3  C   UNL     1      38.413  -6.780  11.184  1.00  0.00     0.013 A 
ATOM      4  C   UNL     1      37.511  -7.766  11.642  1.00  0.00    -0.006 A 
ATOM      5  C   UNL     1      37.464  -9.015  10.959  1.00  0.00     0.039 A 
ATOM      6  C   UNL     1      36.392  -9.910  11.237  1.00  0.00     0.072 A 
ATOM      7  C   UNL     1      35.430  -9.581  12.212  1.00  0.00     0.169 A 
ATOM      8  C   UNL     1      35.561  -8.403  12.975  1.00  0.00     0.162 A 
ATOM      9  C   UNL     1      36.641  -7.519  12.745  1.00  0.00     0.008 A 
ATOM     10  C   UNL     1      38.502  -9.329  10.034  1.00  0.00     0.132 A 
ATOM     11  C   UNL     1      39.438  -8.344   9.650  1.00  0.00     0.031 A 
ENDROOT
BRANCH  11  12
ATOM     12  C   UNL     1      40.503  -8.663   8.665  1.00  0.00     0.031 A 
ATOM     13  C   UNL     1      40.547  -7.990   7.426  1.00  0.00     0.132 A 
ATOM     14  C   UNL     1      41.443  -9.667   8.953  1.00  0.00    -0.039 A 
ATOM     15  C   UNL     1      41.595  -8.256   6.498  1.00  0.00     0.039 A 
ATOM     16  C   UNL     1      42.399 -10.009   7.996  1.00  0.00     0.013 A 
ATOM     17  C   UNL     1      41.378 -10.447  10.244  1.00  0.00     0.045 C 
ATOM     18  C   UNL     1      42.518  -9.310   6.774  1.00  0.00    -0.006 A 
ATOM     19  C   UNL     1      41.720  -7.540   5.275  1.00  0.00     0.072 A 
ATOM     20  C   UNL     1      43.515  -9.664   5.809  1.00  0.00     0.008 A 
ATOM     21  C   UNL     1      42.558  -8.031   4.265  1.00  0.00     0.169 A 
ATOM     22  C   UNL     1      43.402  -9.121   4.504  1.00  0.00     0.162 A 
BRANCH  13  23
ATOM     23  O   UNL     1      39.522  -7.098   7.091  1.00  0.00    -0.507 OA
ATOM     24  H   UNL     1      39.091  -6.462   7.749  1.00  0.00     0.293 HD
ENDBRANCH  13  23
BRANCH  19  25
ATOM     25  C   UNL     1      41.046  -6.247   5.018  1.00  0.00     0.264 C 
ATOM     26  O   UNL     1      40.254  -6.117   4.047  1.00  0.00    -0.298 OA
ENDBRANCH  19  25
BRANCH  20  27
ATOM     27  C   UNL     1      44.712 -10.550   6.203  1.00  0.00     0.017 C 
ATOM     28  C   UNL     1      45.616 -10.866   5.004  1.00  0.00     0.012 C 
ATOM     29  C   UNL     1      45.513 -10.031   7.413  1.00  0.00     0.012 C 
ENDBRANCH  20  27
BRANCH  21  30
ATOM     30  O   UNL     1      42.560  -7.406   3.013  1.00  0.00    -0.504 OA
ATOM     31  H   UNL     1      41.786  -7.476   2.365  1.00  0.00     0.293 HD
ENDBRANCH  21  30
BRANCH  22  32
ATOM     32  O   UNL     1      44.110  -9.635   3.416  1.00  0.00    -0.504 OA
ATOM     33  H   UNL     1      43.997 -10.577   3.074  1.00  0.00     0.293 HD
ENDBRANCH  22  32
ENDBRANCH  11  12
BRANCH  10  34
ATOM     34  O   UNL     1      38.626 -10.627   9.525  1.00  0.00    -0.507 OA
ATOM     35  H   UNL     1      38.447 -10.875   8.560  1.00  0.00     0.293 HD
ENDBRANCH  10  34
BRANCH   9  36
ATOM     36  C   UNL     1      36.864  -6.322  13.689  1.00  0.00     0.017 C 
ATOM     37  C   UNL     1      36.034  -5.112  13.247  1.00  0.00     0.012 C 
ATOM     38  C   UNL     1      36.633  -6.649  15.176  1.00  0.00     0.012 C 
ENDBRANCH   9  36
BRANCH   6  39
ATOM     39  C   UNL     1      36.152 -11.125  10.421  1.00  0.00     0.264 C 
ATOM     40  O   UNL     1      35.984 -11.044   9.175  1.00  0.00    -0.298 OA
ENDBRANCH   6  39
BRANCH   8  41
ATOM     41  O   UNL     1      34.622  -8.074  13.957  1.00  0.00    -0.504 OA
ATOM     42  H   UNL     1      33.718  -8.509  14.067  1.00  0.00     0.293 HD
ENDBRANCH   8  41
BRANCH   7  43
ATOM     43  O   UNL     1      34.337 -10.443  12.377  1.00  0.00    -0.504 OA
ATOM     44  H   UNL     1      34.062 -10.876  13.246  1.00  0.00     0.293 HD
ENDBRANCH   7  43
TORSDOF 11
ENDMDL
MODEL 4
REMARK VINA RESULT:    -3.108      2.525      5.244
REMARK INTER + INTRA:          -4.720
REMARK INTER:                  -4.406
REMARK INTRA:                  -0.314
REMARK UNBOUND:                -0.158
REMARK SMILES Cc1cc2c(C(C)C)c(O)c(O)c(C=O)c2c(O)c1-c1c(C)cc2c(C(C)C)c(O)c(O)c(C=O)c2c1O
REMARK SMILES IDX 1 1 2 2 3 3 4 4 16 5 13 6 11 7 9 8 5 9 17 10 19 11 20 12
REMARK SMILES IDX 37 13 21 14 36 15 23 16 22 17 24 18 33 19 25 20 31 21 29 22
REMARK SMILES IDX 38 23 34 25 35 26 26 27 27 28 28 29 32 30 30 32 18 34 6 36
REMARK SMILES IDX 7 37 8 38 14 39 15 40 10 41 12 43
REMARK H PARENT 38 24 32 31 30 33 18 35 10 42 12 44
REMARK Flexibility Score: inf
ROOT
ATOM      1  C   UNL     1      36.805  -5.943  15.729  1.00  0.00     0.045 C 
ATOM      2  C   UNL     1      35.657  -6.923  15.724  1.00  0.00    -0.039 A 
ATOM      3  C   UNL     1      34.867  -7.062  16.867  1.00  0.00     0.013 A 
ATOM      4  C   UNL     1      33.786  -7.969  16.918  1.00  0.00    -0.006 A 
ATOM      5  C   UNL     1      33.399  -8.635  15.719  1.00  0.00     0.039 A 
ATOM      6  C   UNL     1      32.163  -9.341  15.693  1.00  0.00     0.072 A 
ATOM      7  C   UNL     1      31.371  -9.423  16.855  1.00  0.00     0.169 A 
ATOM      8  C   UNL     1      31.827  -8.874  18.070  1.00  0.00     0.162 A 
ATOM      9  C   UNL     1      33.071  -8.203  18.129  1.00  0.00     0.008 A 
ATOM     10  C   UNL     1      34.272  -8.580  14.593  1.00  0.00     0.132 A 
ATOM     11  C   UNL     1      35.390  -7.718  14.599  1.00  0.00     0.031 A 
ENDROOT
BRANCH  11  12
ATOM     12  C   UNL     1      36.285  -7.641  13.415  1.00  0.00     0.031 A 
ATOM     13  C   UNL     1      37.259  -8.637  13.196  1.00  0.00     0.132 A 
ATOM     14  C   UNL     1      36.184  -6.551  12.534  1.00  0.00    -0.039 A 
ATOM     15  C   UNL     1      38.085  -8.595  12.036  1.00  0.00     0.039 A 
ATOM     16  C   UNL     1      37.072  -6.449  11.461  1.00  0.00     0.013 A 
ATOM     17  C   UNL     1      35.194  -5.438  12.781  1.00  0.00     0.045 C 
ATOM     18  C   UNL     1      38.013  -7.462  11.171  1.00  0.00    -0.006 A 
ATOM     19  C   UNL     1      39.022  -9.624  11.739  1.00  0.00     0.072 A 
ATOM     20  C   UNL     1      38.906  -7.349  10.058  1.00  0.00     0.008 A 
ATOM     21  C   UNL     1      40.017  -9.401  10.778  1.00  0.00     0.169 A 
ATOM     22  C   UNL     1      40.001  -8.247   9.988  1.00  0.00     0.162 A 
BRANCH  13  23
ATOM     23  O   UNL     1      37.447  -9.638  14.156  1.00  0.00    -0.507 OA
ATOM     24  H   UNL     1      36.708 -10.241  14.493  1.00  0.00     0.293 HD
ENDBRANCH  13  23
BRANCH  19  25
ATOM     25  C   UNL     1      38.975 -10.969  12.356  1.00  0.00     0.264 C 
ATOM     26  O   UNL     1      39.235 -11.124  13.580  1.00  0.00    -0.298 OA
ENDBRANCH  19  25
BRANCH  20  27
ATOM     27  C   UNL     1      38.639  -6.328   8.935  1.00  0.00     0.017 C 
ATOM     28  C   UNL     1      39.474  -5.051   9.105  1.00  0.00     0.012 C 
ATOM     29  C   UNL     1      38.750  -6.908   7.512  1.00  0.00     0.012 C 
ENDBRANCH  20  27
BRANCH  21  30
ATOM     30  O   UNL     1      41.023 -10.357  10.601  1.00  0.00    -0.504 OA
ATOM     31  H   UNL     1      41.958 -10.119  10.295  1.00  0.00     0.293 HD
ENDBRANCH  21  30
BRANCH  22  32
ATOM     32  O   UNL     1      41.094  -8.031   9.146  1.00  0.00    -0.504 OA
ATOM     33  H   UNL     1      42.037  -7.908   9.479  1.00  0.00     0.293 HD
ENDBRANCH  22  32
ENDBRANCH  11  12
BRANCH  10  34
ATOM     34  O   UNL     1      34.050  -9.407  13.485  1.00  0.00    -0.507 OA
ATOM     35  H   UNL     1      34.168 -10.411  13.498  1.00  0.00     0.293 HD
ENDBRANCH  10  34
BRANCH   9  36
ATOM     36  C   UNL     1      33.632  -7.749  19.491  1.00  0.00     0.017 C 
ATOM     37  C   UNL     1      34.653  -8.758  20.028  1.00  0.00     0.012 C 
ATOM     38  C   UNL     1      34.204  -6.319  19.483  1.00  0.00     0.012 C 
ENDBRANCH   9  36
BRANCH   6  39
ATOM     39  C   UNL     1      31.589  -9.874  14.434  1.00  0.00     0.264 C 
ATOM     40  O   UNL     1      31.628 -11.106  14.175  1.00  0.00    -0.298 OA
ENDBRANCH   6  39
BRANCH   8  41
ATOM     41  O   UNL     1      31.057  -8.962  19.234  1.00  0.00    -0.504 OA
ATOM     42  H   UNL     1      31.391  -9.282  20.131  1.00  0.00     0.293 HD
ENDBRANCH   8  41
BRANCH   7  43
ATOM     43  O   UNL     1      30.115 -10.039  16.755  1.00  0.00    -0.504 OA
ATOM     44  H   UNL     1      29.471 -10.174  17.519  1.00  0.00     0.293 HD
ENDBRANCH   7  43
TORSDOF 11
ENDMDL
MODEL 5
REMARK VINA RESULT:    -3.036      2.344      9.670
REMARK INTER + INTRA:          -4.614
REMARK INTER:                  -6.192
REMARK INTRA:                   1.578
REMARK UNBOUND:                -0.158
REMARK SMILES Cc1cc2c(C(C)C)c(O)c(O)c(C=O)c2c(O)c1-c1c(C)cc2c(C(C)C)c(O)c(O)c(C=O)c2c1O
REMARK SMILES IDX 1 1 2 2 3 3 4 4 16 5 13 6 11 7 9 8 5 9 17 10 19 11 20 12
REMARK SMILES IDX 37 13 21 14 36 15 23 16 22 17 24 18 33 19 25 20 31 21 29 22
REMARK SMILES IDX 38 23 34 25 35 26 26 27 27 28 28 29 32 30 30 32 18 34 6 36
REMARK SMILES IDX 7 37 8 38 14 39 15 40 10 41 12 43
REMARK H PARENT 38 24 32 31 30 33 18 35 10 42 12 44
REMARK Flexibility Score: inf
ROOT
ATOM      1  C   UNL     1      35.023  -6.257  12.925  1.00  0.00     0.045 C 
ATOM      2  C   UNL     1      36.056  -7.291  12.549  1.00  0.00    -0.039 A 
ATOM      3  C   UNL     1      37.009  -6.989  11.576  1.00  0.00     0.013 A 
ATOM      4  C   UNL     1      37.993  -7.923  11.182  1.00  0.00    -0.006 A 
ATOM      5  C   UNL     1      38.108  -9.139  11.916  1.00  0.00     0.039 A 
ATOM      6  C   UNL     1      39.251  -9.963  11.703  1.00  0.00     0.072 A 
ATOM      7  C   UNL     1      40.215  -9.602  10.742  1.00  0.00     0.169 A 
ATOM      8  C   UNL     1      40.022  -8.466   9.929  1.00  0.00     0.162 A 
ATOM      9  C   UNL     1      38.875  -7.656  10.094  1.00  0.00     0.008 A 
ATOM     10  C   UNL     1      37.069  -9.492  12.825  1.00  0.00     0.132 A 
ATOM     11  C   UNL     1      36.054  -8.564  13.143  1.00  0.00     0.031 A 
ENDROOT
BRANCH  11  12
ATOM     12  C   UNL     1      34.985  -8.922  14.111  1.00  0.00     0.031 A 
ATOM     13  C   UNL     1      34.889  -8.243  15.344  1.00  0.00     0.132 A 
ATOM     14  C   UNL     1      34.094  -9.966  13.813  1.00  0.00    -0.039 A 
ATOM     15  C   UNL     1      33.837  -8.549  16.255  1.00  0.00     0.039 A 
ATOM     16  C   UNL     1      33.136 -10.343  14.755  1.00  0.00     0.013 A 
ATOM     17  C   UNL     1      34.216 -10.752  12.529  1.00  0.00     0.045 C 
ATOM     18  C   UNL     1      32.965  -9.642  15.970  1.00  0.00    -0.006 A 
ATOM     19  C   UNL     1      33.660  -7.831  17.471  1.00  0.00     0.072 A 
ATOM     20  C   UNL     1      31.967 -10.033  16.919  1.00  0.00     0.008 A 
ATOM     21  C   UNL     1      32.825  -8.351  18.469  1.00  0.00     0.169 A 
ATOM     22  C   UNL     1      32.033  -9.477  18.222  1.00  0.00     0.162 A 
BRANCH  13  23
ATOM     23  O   UNL     1      35.870  -7.307  15.691  1.00  0.00    -0.507 OA
ATOM     24  H   UNL     1      35.899  -6.362  15.333  1.00  0.00     0.293 HD
ENDBRANCH  13  23
BRANCH  19  25
ATOM     25  C   UNL     1      34.273  -6.509  17.731  1.00  0.00     0.264 C 
ATOM     26  O   UNL     1      35.301  -6.408  18.453  1.00  0.00    -0.298 OA
ENDBRANCH  19  25
BRANCH  20  27
ATOM     27  C   UNL     1      30.816 -10.971  16.509  1.00  0.00     0.017 C 
ATOM     28  C   UNL     1      29.752 -11.094  17.608  1.00  0.00     0.012 C 
ATOM     29  C   UNL     1      30.196 -10.652  15.135  1.00  0.00     0.012 C 
ENDBRANCH  20  27
BRANCH  21  30
ATOM     30  O   UNL     1      32.774  -7.719  19.716  1.00  0.00    -0.504 OA
ATOM     31  H   UNL     1      32.313  -8.127  20.519  1.00  0.00     0.293 HD
ENDBRANCH  21  30
BRANCH  22  32
ATOM     32  O   UNL     1      31.328 -10.015  19.301  1.00  0.00    -0.504 OA
ATOM     33  H   UNL     1      30.341 -10.219  19.274  1.00  0.00     0.293 HD
ENDBRANCH  22  32
ENDBRANCH  11  12
BRANCH  10  34
ATOM     34  O   UNL     1      37.023 -10.775  13.382  1.00  0.00    -0.507 OA
ATOM     35  H   UNL     1      36.354 -11.062  14.084  1.00  0.00     0.293 HD
ENDBRANCH  10  34
BRANCH   9  36
ATOM     36  C   UNL     1      38.595  -6.514   9.097  1.00  0.00     0.017 C 
ATOM     37  C   UNL     1      39.448  -5.283   9.418  1.00  0.00     0.012 C 
ATOM     38  C   UNL     1      38.738  -6.928   7.621  1.00  0.00     0.012 C 
ENDBRANCH   9  36
BRANCH   6  39
ATOM     39  C   UNL     1      39.553 -11.125  12.574  1.00  0.00     0.264 C 
ATOM     40  O   UNL     1      39.634 -10.992  13.824  1.00  0.00    -0.298 OA
ENDBRANCH   6  39
BRANCH   8  41
ATOM     41  O   UNL     1      40.965  -8.107   8.961  1.00  0.00    -0.504 OA
ATOM     42  H   UNL     1      41.190  -8.648   8.139  1.00  0.00     0.293 HD
ENDBRANCH   8  41
BRANCH   7  43
ATOM     43  O   UNL     1      41.372 -10.387  10.642  1.00  0.00    -0.504 OA
ATOM     44  H   UNL     1      41.387 -11.390  10.534  1.00  0.00     0.293 HD
ENDBRANCH   7  43
TORSDOF 11
ENDMDL
MODEL 6
REMARK VINA RESULT:    -2.597      2.531      5.130
REMARK INTER + INTRA:          -3.970
REMARK INTER:                  -4.563
REMARK INTRA:                   0.593
REMARK UNBOUND:                -0.158
REMARK SMILES Cc1cc2c(C(C)C)c(O)c(O)c(C=O)c2c(O)c1-c1c(C)cc2c(C(C)C)c(O)c(O)c(C=O)c2c1O
REMARK SMILES IDX 1 1 2 2 3 3 4 4 16 5 13 6 11 7 9 8 5 9 17 10 19 11 20 12
REMARK SMILES IDX 37 13 21 14 36 15 23 16 22 17 24 18 33 19 25 20 31 21 29 22
REMARK SMILES IDX 38 23 34 25 35 26 26 27 27 28 28 29 32 30 30 32 18 34 6 36
REMARK SMILES IDX 7 37 8 38 14 39 15 40 10 41 12 43
REMARK H PARENT 38 24 32 31 30 33 18 35 10 42 12 44
REMARK Flexibility Score: inf
ROOT
ATOM      1  C   UNL     1      39.807  -5.541   9.697  1.00  0.00     0.045 C 
ATOM      2  C   UNL     1      39.033  -6.768  10.113  1.00  0.00    -0.039 A 
ATOM      3  C   UNL     1      38.248  -6.727  11.267  1.00  0.00     0.013 A 
ATOM      4  C   UNL     1      37.510  -7.850  11.704  1.00  0.00    -0.006 A 
ATOM      5  C   UNL     1      37.443  -8.992  10.856  1.00  0.00     0.039 A 
ATOM      6  C   UNL     1      36.500 -10.017  11.157  1.00  0.00     0.072 A 
ATOM      7  C   UNL     1      35.694  -9.919  12.308  1.00  0.00     0.169 A 
ATOM      8  C   UNL     1      35.863  -8.850  13.210  1.00  0.00     0.162 A 
ATOM      9  C   UNL     1      36.822  -7.843  12.953  1.00  0.00     0.008 A 
ATOM     10  C   UNL     1      38.331  -9.074   9.744  1.00  0.00     0.132 A 
ATOM     11  C   UNL     1      39.115  -7.959   9.374  1.00  0.00     0.031 A 
ENDROOT
BRANCH  11  12
ATOM     12  C   UNL     1      40.021  -8.035   8.199  1.00  0.00     0.031 A 
ATOM     13  C   UNL     1      41.144  -8.888   8.224  1.00  0.00     0.132 A 
ATOM     14  C   UNL     1      39.778  -7.225   7.077  1.00  0.00    -0.039 A 
ATOM     15  C   UNL     1      41.987  -9.002   7.081  1.00  0.00     0.039 A 
ATOM     16  C   UNL     1      40.671  -7.251   6.004  1.00  0.00     0.013 A 
ATOM     17  C   UNL     1      38.621  -6.256   7.051  1.00  0.00     0.045 C 
ATOM     18  C   UNL     1      41.766  -8.142   5.964  1.00  0.00    -0.006 A 
ATOM     19  C   UNL     1      43.081  -9.912   7.039  1.00  0.00     0.072 A 
ATOM     20  C   UNL     1      42.663  -8.167   4.849  1.00  0.00     0.008 A 
ATOM     21  C   UNL     1      44.058  -9.778   6.044  1.00  0.00     0.169 A 
ATOM     22  C   UNL     1      43.886  -8.872   4.992  1.00  0.00     0.162 A 
BRANCH  13  23
ATOM     23  O   UNL     1      41.456  -9.579   9.400  1.00  0.00    -0.507 OA
ATOM     24  H   UNL     1      41.657  -9.128  10.283  1.00  0.00     0.293 HD
ENDBRANCH  13  23
BRANCH  19  25
ATOM     25  C   UNL     1      43.225 -11.054   7.971  1.00  0.00     0.264 C 
ATOM     26  O   UNL     1      44.166 -11.085   8.808  1.00  0.00    -0.298 OA
ENDBRANCH  19  25
BRANCH  20  27
ATOM     27  C   UNL     1      42.275  -7.509   3.511  1.00  0.00     0.017 C 
ATOM     28  C   UNL     1      41.395  -8.426   2.650  1.00  0.00     0.012 C 
ATOM     29  C   UNL     1      41.677  -6.096   3.650  1.00  0.00     0.012 C 
ENDBRANCH  20  27
BRANCH  21  30
ATOM     30  O   UNL     1      45.205 -10.578   6.098  1.00  0.00    -0.504 OA
ATOM     31  H   UNL     1      45.167 -11.588   6.153  1.00  0.00     0.293 HD
ENDBRANCH  21  30
BRANCH  22  32
ATOM     32  O   UNL     1      44.956  -8.699   4.112  1.00  0.00    -0.504 OA
ATOM     33  H   UNL     1      45.701  -9.369   4.004  1.00  0.00     0.293 HD
ENDBRANCH  22  32
ENDBRANCH  11  12
BRANCH  10  34
ATOM     34  O   UNL     1      38.464 -10.271   9.031  1.00  0.00    -0.507 OA
ATOM     35  H   UNL     1      38.832 -10.331   8.091  1.00  0.00     0.293 HD
ENDBRANCH  10  34
BRANCH   9  36
ATOM     36  C   UNL     1      37.110  -6.770  14.021  1.00  0.00     0.017 C 
ATOM     37  C   UNL     1      38.604  -6.435  14.074  1.00  0.00     0.012 C 
ATOM     38  C   UNL     1      36.254  -5.498  13.874  1.00  0.00     0.012 C 
ENDBRANCH   9  36
BRANCH   6  39
ATOM     39  C   UNL     1      36.217 -11.125  10.214  1.00  0.00     0.264 C 
ATOM     40  O   UNL     1      35.821 -10.891   9.041  1.00  0.00    -0.298 OA
ENDBRANCH   6  39
BRANCH   8  41
ATOM     41  O   UNL     1      35.079  -8.752  14.364  1.00  0.00    -0.504 OA
ATOM     42  H   UNL     1      34.621  -9.524  14.824  1.00  0.00     0.293 HD
ENDBRANCH   8  41
BRANCH   7  43
ATOM     43  O   UNL     1      34.709 -10.898  12.507  1.00  0.00    -0.504 OA
ATOM     44  H   UNL     1      34.692 -11.804  12.066  1.00  0.00     0.293 HD
ENDBRANCH   7  43
TORSDOF 11
ENDMDL
MODEL 7
REMARK VINA RESULT:    -2.047      2.480      9.502
REMARK INTER + INTRA:          -3.162
REMARK INTER:                  -4.034
REMARK INTRA:                   0.872
REMARK UNBOUND:                -0.158
REMARK SMILES Cc1cc2c(C(C)C)c(O)c(O)c(C=O)c2c(O)c1-c1c(C)cc2c(C(C)C)c(O)c(O)c(C=O)c2c1O
REMARK SMILES IDX 1 1 2 2 3 3 4 4 16 5 13 6 11 7 9 8 5 9 17 10 19 11 20 12
REMARK SMILES IDX 37 13 21 14 36 15 23 16 22 17 24 18 33 19 25 20 31 21 29 22
REMARK SMILES IDX 38 23 34 25 35 26 26 27 27 28 28 29 32 30 30 32 18 34 6 36
REMARK SMILES IDX 7 37 8 38 14 39 15 40 10 41 12 43
REMARK H PARENT 38 24 32 31 30 33 18 35 10 42 12 44
REMARK Flexibility Score: inf
ROOT
ATOM      1  C   UNL     1      35.979  -5.489  12.867  1.00  0.00     0.045 C 
ATOM      2  C   UNL     1      36.740  -6.726  12.457  1.00  0.00    -0.039 A 
ATOM      3  C   UNL     1      37.541  -6.694  11.314  1.00  0.00     0.013 A 
ATOM      4  C   UNL     1      38.268  -7.826  10.883  1.00  0.00    -0.006 A 
ATOM      5  C   UNL     1      38.307  -8.972  11.729  1.00  0.00     0.039 A 
ATOM      6  C   UNL     1      39.238 -10.010  11.436  1.00  0.00     0.072 A 
ATOM      7  C   UNL     1      40.061  -9.922  10.297  1.00  0.00     0.169 A 
ATOM      8  C   UNL     1      39.919  -8.847   9.395  1.00  0.00     0.162 A 
ATOM      9  C   UNL     1      38.972  -7.826   9.643  1.00  0.00     0.008 A 
ATOM     10  C   UNL     1      37.403  -9.043  12.829  1.00  0.00     0.132 A 
ATOM     11  C   UNL     1      36.631  -7.918  13.191  1.00  0.00     0.031 A 
ENDROOT
BRANCH  11  12
ATOM     12  C   UNL     1      35.709  -7.984  14.355  1.00  0.00     0.031 A 
ATOM     13  C   UNL     1      34.611  -8.870  14.339  1.00  0.00     0.132 A 
ATOM     14  C   UNL     1      35.910  -7.133  15.455  1.00  0.00    -0.039 A 
ATOM     15  C   UNL     1      33.752  -8.973  15.472  1.00  0.00     0.039 A 
ATOM     16  C   UNL     1      35.001  -7.152  16.514  1.00  0.00     0.013 A 
ATOM     17  C   UNL     1      37.038  -6.130  15.468  1.00  0.00     0.045 C 
ATOM     18  C   UNL     1      33.931  -8.073  16.565  1.00  0.00    -0.006 A 
ATOM     19  C   UNL     1      32.684  -9.912  15.525  1.00  0.00     0.072 A 
ATOM     20  C   UNL     1      33.017  -8.089  17.666  1.00  0.00     0.008 A 
ATOM     21  C   UNL     1      31.689  -9.775  16.501  1.00  0.00     0.169 A 
ATOM     22  C   UNL     1      31.817  -8.832  17.526  1.00  0.00     0.162 A 
BRANCH  13  23
ATOM     23  O   UNL     1      34.338  -9.605  13.181  1.00  0.00    -0.507 OA
ATOM     24  H   UNL     1      33.603 -10.297  13.112  1.00  0.00     0.293 HD
ENDBRANCH  13  23
BRANCH  19  25
ATOM     25  C   UNL     1      32.588 -11.085  14.628  1.00  0.00     0.264 C 
ATOM     26  O   UNL     1      31.724 -11.125  13.712  1.00  0.00    -0.298 OA
ENDBRANCH  19  25
BRANCH  20  27
ATOM     27  C   UNL     1      33.365  -7.379  18.988  1.00  0.00     0.017 C 
ATOM     28  C   UNL     1      34.092  -8.309  19.970  1.00  0.00     0.012 C 
ATOM     29  C   UNL     1      34.098  -6.035  18.813  1.00  0.00     0.012 C 
ENDBRANCH  20  27
BRANCH  21  30
ATOM     30  O   UNL     1      30.566 -10.609  16.454  1.00  0.00    -0.504 OA
ATOM     31  H   UNL     1      30.361 -11.209  15.665  1.00  0.00     0.293 HD
ENDBRANCH  21  30
BRANCH  22  32
ATOM     32  O   UNL     1      30.728  -8.664  18.384  1.00  0.00    -0.504 OA
ATOM     33  H   UNL     1      30.800  -8.243  19.297  1.00  0.00     0.293 HD
ENDBRANCH  22  32
ENDBRANCH  11  12
BRANCH  10  34
ATOM     34  O   UNL     1      37.243 -10.241  13.536  1.00  0.00    -0.507 OA
ATOM     35  H   UNL     1      37.141 -10.294  14.541  1.00  0.00     0.293 HD
ENDBRANCH  10  34
BRANCH   9  36
ATOM     36  C   UNL     1      38.714  -6.746   8.575  1.00  0.00     0.017 C 
ATOM     37  C   UNL     1      37.215  -6.475   8.419  1.00  0.00     0.012 C 
ATOM     38  C   UNL     1      39.501  -5.442   8.805  1.00  0.00     0.012 C 
ENDBRANCH   9  36
BRANCH   6  39
ATOM     39  C   UNL     1      39.492 -11.125  12.380  1.00  0.00     0.264 C 
ATOM     40  O   UNL     1      39.969 -10.907  13.525  1.00  0.00    -0.298 OA
ENDBRANCH   6  39
BRANCH   8  41
ATOM     41  O   UNL     1      40.720  -8.757   8.253  1.00  0.00    -0.504 OA
ATOM     42  H   UNL     1      40.471  -9.106   7.339  1.00  0.00     0.293 HD
ENDBRANCH   8  41
BRANCH   7  43
ATOM     43  O   UNL     1      41.033 -10.914  10.107  1.00  0.00    -0.504 OA
ATOM     44  H   UNL     1      41.233 -11.373   9.232  1.00  0.00     0.293 HD
ENDBRANCH   7  43
TORSDOF 11
ENDMDL
MODEL 8
REMARK VINA RESULT:    -1.530      0.559      8.955
REMARK INTER + INTRA:          -2.403
REMARK INTER:                  -2.397
REMARK INTRA:                  -0.006
REMARK UNBOUND:                -0.158
REMARK SMILES Cc1cc2c(C(C)C)c(O)c(O)c(C=O)c2c(O)c1-c1c(C)cc2c(C(C)C)c(O)c(O)c(C=O)c2c1O
REMARK SMILES IDX 1 1 2 2 3 3 4 4 16 5 13 6 11 7 9 8 5 9 17 10 19 11 20 12
REMARK SMILES IDX 37 13 21 14 36 15 23 16 22 17 24 18 33 19 25 20 31 21 29 22
REMARK SMILES IDX 38 23 34 25 35 26 26 27 27 28 28 29 32 30 30 32 18 34 6 36
REMARK SMILES IDX 7 37 8 38 14 39 15 40 10 41 12 43
REMARK H PARENT 38 24 32 31 30 33 18 35 10 42 12 44
REMARK Flexibility Score: inf
ROOT
ATOM      1  C   UNL     1      39.321 -11.125  12.014  1.00  0.00     0.045 C 
ATOM      2  C   UNL     1      39.412 -10.021  10.989  1.00  0.00    -0.039 A 
ATOM      3  C   UNL     1      40.505  -9.975  10.123  1.00  0.00     0.013 A 
ATOM      4  C   UNL     1      40.642  -8.959   9.151  1.00  0.00    -0.006 A 
ATOM      5  C   UNL     1      39.555  -8.060   8.949  1.00  0.00     0.039 A 
ATOM      6  C   UNL     1      39.572  -7.208   7.807  1.00  0.00     0.072 A 
ATOM      7  C   UNL     1      40.674  -7.221   6.931  1.00  0.00     0.169 A 
ATOM      8  C   UNL     1      41.802  -8.018   7.214  1.00  0.00     0.162 A 
ATOM      9  C   UNL     1      41.825  -8.841   8.363  1.00  0.00     0.008 A 
ATOM     10  C   UNL     1      38.498  -8.037   9.905  1.00  0.00     0.132 A 
ATOM     11  C   UNL     1      38.428  -9.022  10.914  1.00  0.00     0.031 A 
ENDROOT
BRANCH  11  12
ATOM     12  C   UNL     1      37.311  -9.014  11.894  1.00  0.00     0.031 A 
ATOM     13  C   UNL     1      37.266  -8.035  12.909  1.00  0.00     0.132 A 
ATOM     14  C   UNL     1      36.320 -10.008  11.832  1.00  0.00    -0.039 A 
ATOM     15  C   UNL     1      36.172  -7.992  13.821  1.00  0.00     0.039 A 
ATOM     16  C   UNL     1      35.312 -10.035  12.797  1.00  0.00     0.013 A 
ATOM     17  C   UNL     1      36.381 -11.105  10.796  1.00  0.00     0.045 C 
ATOM     18  C   UNL     1      35.195  -9.032  13.785  1.00  0.00    -0.006 A 
ATOM     19  C   UNL     1      36.050  -6.972  14.805  1.00  0.00     0.072 A 
ATOM     20  C   UNL     1      34.145  -9.066  14.757  1.00  0.00     0.008 A 
ATOM     21  C   UNL     1      35.148  -7.134  15.865  1.00  0.00     0.169 A 
ATOM     22  C   UNL     1      34.246  -8.204  15.878  1.00  0.00     0.162 A 
BRANCH  13  23
ATOM     23  O   UNL     1      38.333  -7.141  13.050  1.00  0.00    -0.507 OA
ATOM     24  H   UNL     1      38.871  -7.034  13.900  1.00  0.00     0.293 HD
ENDBRANCH  13  23
BRANCH  19  25
ATOM     25  C   UNL     1      36.794  -5.694  14.748  1.00  0.00     0.264 C 
ATOM     26  O   UNL     1      36.481  -4.805  13.912  1.00  0.00    -0.298 OA
ENDBRANCH  19  25
BRANCH  20  27
ATOM     27  C   UNL     1      32.909  -9.962  14.550  1.00  0.00     0.017 C 
ATOM     28  C   UNL     1      32.863 -11.125  15.551  1.00  0.00     0.012 C 
ATOM     29  C   UNL     1      31.573  -9.196  14.490  1.00  0.00     0.012 C 
ENDBRANCH  20  27
BRANCH  21  30
ATOM     30  O   UNL     1      35.142  -6.201  16.907  1.00  0.00    -0.504 OA
ATOM     31  H   UNL     1      34.713  -5.288  16.823  1.00  0.00     0.293 HD
ENDBRANCH  21  30
BRANCH  22  32
ATOM     32  O   UNL     1      33.470  -8.375  17.026  1.00  0.00    -0.504 OA
ATOM     33  H   UNL     1      33.602  -9.130  17.679  1.00  0.00     0.293 HD
ENDBRANCH  22  32
ENDBRANCH  11  12
BRANCH  10  34
ATOM     34  O   UNL     1      37.541  -7.016   9.876  1.00  0.00    -0.507 OA
ATOM     35  H   UNL     1      37.238  -6.502  10.693  1.00  0.00     0.293 HD
ENDBRANCH  10  34
BRANCH   9  36
ATOM     36  C   UNL     1      43.120  -9.582   8.748  1.00  0.00     0.017 C 
ATOM     37  C   UNL     1      43.117 -11.013   8.202  1.00  0.00     0.012 C 
ATOM     38  C   UNL     1      44.407  -8.832   8.354  1.00  0.00     0.012 C 
ENDBRANCH   9  36
BRANCH   6  39
ATOM     39  C   UNL     1      38.390  -6.405   7.410  1.00  0.00     0.264 C 
ATOM     40  O   UNL     1      38.130  -5.312   7.979  1.00  0.00    -0.298 OA
ENDBRANCH   6  39
BRANCH   8  41
ATOM     41  O   UNL     1      42.909  -8.027   6.359  1.00  0.00    -0.504 OA
ATOM     42  H   UNL     1      43.008  -8.611   5.542  1.00  0.00     0.293 HD
ENDBRANCH   8  41
BRANCH   7  43
ATOM     43  O   UNL     1      40.600  -6.443   5.767  1.00  0.00    -0.504 OA
ATOM     44  H   UNL     1      40.264  -6.766   4.872  1.00  0.00     0.293 HD
ENDBRANCH   7  43
TORSDOF 11
ENDMDL
