MODEL 1
REMARK VINA RESULT:    -4.716      0.000      0.000
REMARK INTER + INTRA:          -6.994
REMARK INTER:                  -6.371
REMARK INTRA:                  -0.623
REMARK UNBOUND:                -0.623
REMARK SMILES CCCCCCC=CC(=O)[O-]
REMARK SMILES IDX 5 1 6 2 7 3 8 4 9 5 10 6 11 7 4 8 3 9 2 10 1 11
REMARK H PARENT
REMARK Flexibility Score: inf
ROOT
ATOM      1  C   UNL     1      21.821  11.904  37.540  1.00  0.00     0.004 C 
ENDROOT
BRANCH   1   2
ATOM      2  C   UNL     1      20.490  11.604  38.250  1.00  0.00     0.027 C 
BRANCH   2   3
ATOM      3  C   UNL     1      20.600  11.846  39.730  1.00  0.00    -0.025 C 
ATOM      4  C   UNL     1      20.092  12.895  40.399  1.00  0.00     0.020 C 
BRANCH   4   5
ATOM      5  C   UNL     1      19.285  13.994  39.829  1.00  0.00     0.064 C 
ATOM      6  O   UNL     1      18.061  13.801  39.613  1.00  0.00    -0.545 OA
ATOM      7  O   UNL     1      19.837  15.224  39.497  1.00  0.00    -0.545 OA
ENDBRANCH   4   5
ENDBRANCH   2   3
ENDBRANCH   1   2
BRANCH   1   8
ATOM      8  C   UNL     1      21.938  13.375  37.099  1.00  0.00     0.000 C 
BRANCH   8   9
ATOM      9  C   UNL     1      20.704  13.910  36.352  1.00  0.00    -0.000 C 
BRANCH   9  10
ATOM     10  C   UNL     1      20.854  13.830  34.825  1.00  0.00    -0.003 C 
ATOM     11  C   UNL     1      19.597  13.254  34.180  1.00  0.00     0.004 C 
ENDBRANCH   9  10
ENDBRANCH   8   9
ENDBRANCH   1   8
TORSDOF 6
ENDMDL
MODEL 2
REMARK VINA RESULT:    -4.426      2.497      4.566
REMARK INTER + INTRA:          -6.602
REMARK INTER:                  -6.016
REMARK INTRA:                  -0.586
REMARK UNBOUND:                -0.623
REMARK SMILES CCCCCCC=CC(=O)[O-]
REMARK SMILES IDX 5 1 6 2 7 3 8 4 9 5 10 6 11 7 4 8 3 9 2 10 1 11
REMARK H PARENT
REMARK Flexibility Score: inf
ROOT
ATOM      1  C   UNL     1      20.457  11.275  38.417  1.00  0.00     0.004 C 
ENDROOT
BRANCH   1   2
ATOM      2  C   UNL     1      21.293  11.812  37.242  1.00  0.00     0.027 C 
BRANCH   2   3
ATOM      3  C   UNL     1      21.302  13.316  37.227  1.00  0.00    -0.025 C 
ATOM      4  C   UNL     1      21.059  14.096  36.161  1.00  0.00     0.020 C 
BRANCH   4   5
ATOM      5  C   UNL     1      20.688  13.642  34.804  1.00  0.00     0.064 C 
ATOM      6  O   UNL     1      21.574  13.605  33.911  1.00  0.00    -0.545 OA
ATOM      7  O   UNL     1      19.389  13.282  34.472  1.00  0.00    -0.545 OA
ENDBRANCH   4   5
ENDBRANCH   2   3
ENDBRANCH   1   2
BRANCH   1   8
ATOM      8  C   UNL     1      20.714  12.045  39.726  1.00  0.00     0.000 C 
BRANCH   8   9
ATOM      9  C   UNL     1      19.437  12.417  40.500  1.00  0.00    -0.000 C 
BRANCH   9  10
ATOM     10  C   UNL     1      18.615  13.508  39.798  1.00  0.00    -0.003 C 
ATOM     11  C   UNL     1      19.406  14.809  39.691  1.00  0.00     0.004 C 
ENDBRANCH   9  10
ENDBRANCH   8   9
ENDBRANCH   1   8
TORSDOF 6
ENDMDL
MODEL 3
REMARK VINA RESULT:    -4.364      2.020      4.093
REMARK INTER + INTRA:          -6.518
REMARK INTER:                  -5.945
REMARK INTRA:                  -0.573
REMARK UNBOUND:                -0.623
REMARK SMILES CCCCCCC=CC(=O)[O-]
REMARK SMILES IDX 5 1 6 2 7 3 8 4 9 5 10 6 11 7 4 8 3 9 2 10 1 11
REMARK H PARENT
REMARK Flexibility Score: inf
ROOT
ATOM      1  C   UNL     1      20.126  11.011  38.750  1.00  0.00     0.004 C 
ENDROOT
BRANCH   1   2
ATOM      2  C   UNL     1      20.585  11.476  37.358  1.00  0.00     0.027 C 
BRANCH   2   3
ATOM      3  C   UNL     1      21.970  12.059  37.411  1.00  0.00    -0.025 C 
ATOM      4  C   UNL     1      22.349  13.243  36.901  1.00  0.00     0.020 C 
BRANCH   4   5
ATOM      5  C   UNL     1      21.479  14.230  36.229  1.00  0.00     0.064 C 
ATOM      6  O   UNL     1      21.323  15.362  36.756  1.00  0.00    -0.545 OA
ATOM      7  O   UNL     1      20.803  13.943  35.051  1.00  0.00    -0.545 OA
ENDBRANCH   4   5
ENDBRANCH   2   3
ENDBRANCH   1   2
BRANCH   1   8
ATOM      8  C   UNL     1      20.536  11.989  39.866  1.00  0.00     0.000 C 
BRANCH   8   9
ATOM      9  C   UNL     1      19.359  12.744  40.508  1.00  0.00    -0.000 C 
BRANCH   9  10
ATOM     10  C   UNL     1      18.782  13.834  39.592  1.00  0.00    -0.003 C 
ATOM     11  C   UNL     1      19.640  15.095  39.632  1.00  0.00     0.004 C 
ENDBRANCH   9  10
ENDBRANCH   8   9
ENDBRANCH   1   8
TORSDOF 6
ENDMDL
MODEL 4
REMARK VINA RESULT:    -4.155      2.233      4.255
REMARK INTER + INTRA:          -6.236
REMARK INTER:                  -5.516
REMARK INTRA:                  -0.720
REMARK UNBOUND:                -0.623
REMARK SMILES CCCCCCC=CC(=O)[O-]
REMARK SMILES IDX 5 1 6 2 7 3 8 4 9 5 10 6 11 7 4 8 3 9 2 10 1 11
REMARK H PARENT
REMARK Flexibility Score: inf
ROOT
ATOM      1  C   UNL     1      21.601  12.047  39.198  1.00  0.00     0.004 C 
ENDROOT
BRANCH   1   2
ATOM      2  C   UNL     1      21.801  12.014  37.674  1.00  0.00     0.027 C 
BRANCH   2   3
ATOM      3  C   UNL     1      20.484  12.103  36.953  1.00  0.00    -0.025 C 
ATOM      4  C   UNL     1      20.174  12.975  35.980  1.00  0.00     0.020 C 
BRANCH   4   5
ATOM      5  C   UNL     1      21.072  13.989  35.388  1.00  0.00     0.064 C 
ATOM      6  O   UNL     1      21.393  13.883  34.176  1.00  0.00    -0.545 OA
ATOM      7  O   UNL     1      21.598  15.038  36.130  1.00  0.00    -0.545 OA
ENDBRANCH   4   5
ENDBRANCH   2   3
ENDBRANCH   1   2
BRANCH   1   8
ATOM      8  C   UNL     1      20.128  11.858  39.606  1.00  0.00     0.000 C 
BRANCH   8   9
ATOM      9  C   UNL     1      19.552  13.011  40.446  1.00  0.00    -0.000 C 
BRANCH   9  10
ATOM     10  C   UNL     1      18.835  14.067  39.591  1.00  0.00    -0.003 C 
ATOM     11  C   UNL     1      19.722  15.289  39.370  1.00  0.00     0.004 C 
ENDBRANCH   9  10
ENDBRANCH   8   9
ENDBRANCH   1   8
TORSDOF 6
ENDMDL
MODEL 5
REMARK VINA RESULT:    -3.927      1.309      1.799
REMARK INTER + INTRA:          -5.928
REMARK INTER:                  -5.568
REMARK INTRA:                  -0.360
REMARK UNBOUND:                -0.623
REMARK SMILES CCCCCCC=CC(=O)[O-]
REMARK SMILES IDX 5 1 6 2 7 3 8 4 9 5 10 6 11 7 4 8 3 9 2 10 1 11
REMARK H PARENT
REMARK Flexibility Score: inf
ROOT
ATOM      1  C   UNL     1      21.815  12.178  37.526  1.00  0.00     0.004 C 
ENDROOT
BRANCH   1   2
ATOM      2  C   UNL     1      21.569  11.776  38.990  1.00  0.00     0.027 C 
BRANCH   2   3
ATOM      3  C   UNL     1      20.099  11.609  39.265  1.00  0.00    -0.025 C 
ATOM      4  C   UNL     1      19.325  12.461  39.957  1.00  0.00     0.020 C 
BRANCH   4   5
ATOM      5  C   UNL     1      19.742  13.751  40.544  1.00  0.00     0.064 C 
ATOM      6  O   UNL     1      19.645  14.796  39.849  1.00  0.00    -0.545 OA
ATOM      7  O   UNL     1      20.264  13.848  41.827  1.00  0.00    -0.545 OA
ENDBRANCH   4   5
ENDBRANCH   2   3
ENDBRANCH   1   2
BRANCH   1   8
ATOM      8  C   UNL     1      20.543  12.080  36.663  1.00  0.00     0.000 C 
BRANCH   8   9
ATOM      9  C   UNL     1      20.267  13.325  35.802  1.00  0.00    -0.000 C 
BRANCH   9  10
ATOM     10  C   UNL     1      21.480  14.263  35.712  1.00  0.00    -0.003 C 
ATOM     11  C   UNL     1      21.407  15.359  36.771  1.00  0.00     0.004 C 
ENDBRANCH   9  10
ENDBRANCH   8   9
ENDBRANCH   1   8
TORSDOF 6
ENDMDL
MODEL 6
REMARK VINA RESULT:    -3.605      1.368      2.062
REMARK INTER + INTRA:          -5.493
REMARK INTER:                  -5.314
REMARK INTRA:                  -0.179
REMARK UNBOUND:                -0.623
REMARK SMILES CCCCCCC=CC(=O)[O-]
REMARK SMILES IDX 5 1 6 2 7 3 8 4 9 5 10 6 11 7 4 8 3 9 2 10 1 11
REMARK H PARENT
REMARK Flexibility Score: inf
ROOT
ATOM      1  C   UNL     1      21.269  13.760  37.342  1.00  0.00     0.004 C 
ENDROOT
BRANCH   1   2
ATOM      2  C   UNL     1      21.951  12.382  37.300  1.00  0.00     0.027 C 
BRANCH   2   3
ATOM      3  C   UNL     1      20.955  11.278  37.527  1.00  0.00    -0.025 C 
ATOM      4  C   UNL     1      20.198  11.111  38.623  1.00  0.00     0.020 C 
BRANCH   4   5
ATOM      5  C   UNL     1      20.152  11.998  39.804  1.00  0.00     0.064 C 
ATOM      6  O   UNL     1      19.115  12.680  40.013  1.00  0.00    -0.545 OA
ATOM      7  O   UNL     1      21.224  12.128  40.677  1.00  0.00    -0.545 OA
ENDBRANCH   4   5
ENDBRANCH   2   3
ENDBRANCH   1   2
BRANCH   1   8
ATOM      8  C   UNL     1      21.591  14.618  36.104  1.00  0.00     0.000 C 
BRANCH   8   9
ATOM      9  C   UNL     1      21.117  14.008  34.773  1.00  0.00    -0.000 C 
BRANCH   9  10
ATOM     10  C   UNL     1      19.686  13.455  34.851  1.00  0.00    -0.003 C 
ATOM     11  C   UNL     1      19.218  12.950  33.489  1.00  0.00     0.004 C 
ENDBRANCH   9  10
ENDBRANCH   8   9
ENDBRANCH   1   8
TORSDOF 6
ENDMDL
MODEL 7
REMARK VINA RESULT:    -3.434      1.847      2.505
REMARK INTER + INTRA:          -5.262
REMARK INTER:                  -5.074
REMARK INTRA:                  -0.188
REMARK UNBOUND:                -0.623
REMARK SMILES CCCCCCC=CC(=O)[O-]
REMARK SMILES IDX 5 1 6 2 7 3 8 4 9 5 10 6 11 7 4 8 3 9 2 10 1 11
REMARK H PARENT
REMARK Flexibility Score: inf
ROOT
ATOM      1  C   UNL     1      20.581  15.040  38.074  1.00  0.00     0.004 C 
ENDROOT
BRANCH   1   2
ATOM      2  C   UNL     1      19.612  15.375  39.221  1.00  0.00     0.027 C 
BRANCH   2   3
ATOM      3  C   UNL     1      18.650  14.245  39.463  1.00  0.00    -0.025 C 
ATOM      4  C   UNL     1      18.891  13.146  40.196  1.00  0.00     0.020 C 
BRANCH   4   5
ATOM      5  C   UNL     1      20.126  12.844  40.950  1.00  0.00     0.064 C 
ATOM      6  O   UNL     1      20.892  11.939  40.528  1.00  0.00    -0.545 OA
ATOM      7  O   UNL     1      20.457  13.506  42.125  1.00  0.00    -0.545 OA
ENDBRANCH   4   5
ENDBRANCH   2   3
ENDBRANCH   1   2
BRANCH   1   8
ATOM      8  C   UNL     1      20.135  13.809  37.262  1.00  0.00     0.000 C 
BRANCH   8   9
ATOM      9  C   UNL     1      21.224  13.232  36.342  1.00  0.00    -0.000 C 
BRANCH   9  10
ATOM     10  C   UNL     1      21.142  13.781  34.909  1.00  0.00    -0.003 C 
ATOM     11  C   UNL     1      19.780  13.487  34.286  1.00  0.00     0.004 C 
ENDBRANCH   9  10
ENDBRANCH   8   9
ENDBRANCH   1   8
TORSDOF 6
ENDMDL
MODEL 8
REMARK VINA RESULT:    -3.357      2.593      4.961
REMARK INTER + INTRA:          -5.157
REMARK INTER:                  -4.820
REMARK INTRA:                  -0.337
REMARK UNBOUND:                -0.623
REMARK SMILES CCCCCCC=CC(=O)[O-]
REMARK SMILES IDX 5 1 6 2 7 3 8 4 9 5 10 6 11 7 4 8 3 9 2 10 1 11
REMARK H PARENT
REMARK Flexibility Score: inf
ROOT
ATOM      1  C   UNL     1      19.913  15.087  39.148  1.00  0.00     0.004 C 
ENDROOT
BRANCH   1   2
ATOM      2  C   UNL     1      20.479  14.830  37.741  1.00  0.00     0.027 C 
BRANCH   2   3
ATOM      3  C   UNL     1      20.645  13.357  37.486  1.00  0.00    -0.025 C 
ATOM      4  C   UNL     1      20.620  12.756  36.285  1.00  0.00     0.020 C 
BRANCH   4   5
ATOM      5  C   UNL     1      20.472  13.418  34.973  1.00  0.00     0.064 C 
ATOM      6  O   UNL     1      21.396  14.168  34.562  1.00  0.00    -0.545 OA
ATOM      7  O   UNL     1      19.337  13.266  34.188  1.00  0.00    -0.545 OA
ENDBRANCH   4   5
ENDBRANCH   2   3
ENDBRANCH   1   2
BRANCH   1   8
ATOM      8  C   UNL     1      18.571  14.371  39.387  1.00  0.00     0.000 C 
BRANCH   8   9
ATOM      9  C   UNL     1      18.678  13.101  40.249  1.00  0.00    -0.000 C 
BRANCH   9  10
ATOM     10  C   UNL     1      19.917  13.104  41.157  1.00  0.00    -0.003 C 
ATOM     11  C   UNL     1      20.930  12.054  40.708  1.00  0.00     0.004 C 
ENDBRANCH   9  10
ENDBRANCH   8   9
ENDBRANCH   1   8
TORSDOF 6
ENDMDL
MODEL 9
REMARK VINA RESULT:    -1.895      2.114      2.952
REMARK INTER + INTRA:          -3.183
REMARK INTER:                  -2.856
REMARK INTRA:                  -0.328
REMARK UNBOUND:                -0.623
REMARK SMILES CCCCCCC=CC(=O)[O-]
REMARK SMILES IDX 5 1 6 2 7 3 8 4 9 5 10 6 11 7 4 8 3 9 2 10 1 11
REMARK H PARENT
REMARK Flexibility Score: inf
ROOT
ATOM      1  C   UNL     1      19.418  13.876  38.791  1.00  0.00     0.004 C 
ENDROOT
BRANCH   1   2
ATOM      2  C   UNL     1      19.315  12.431  39.308  1.00  0.00     0.027 C 
BRANCH   2   3
ATOM      3  C   UNL     1      18.747  12.394  40.700  1.00  0.00    -0.025 C 
ATOM      4  C   UNL     1      19.340  12.869  41.808  1.00  0.00     0.020 C 
BRANCH   4   5
ATOM      5  C   UNL     1      20.642  13.565  41.879  1.00  0.00     0.064 C 
ATOM      6  O   UNL     1      21.699  12.896  41.739  1.00  0.00    -0.545 OA
ATOM      7  O   UNL     1      20.742  14.928  42.124  1.00  0.00    -0.545 OA
ENDBRANCH   4   5
ENDBRANCH   2   3
ENDBRANCH   1   2
BRANCH   1   8
ATOM      8  C   UNL     1      20.467  14.030  37.673  1.00  0.00     0.000 C 
BRANCH   8   9
ATOM      9  C   UNL     1      20.759  12.733  36.898  1.00  0.00    -0.000 C 
BRANCH   9  10
ATOM     10  C   UNL     1      22.247  12.352  36.920  1.00  0.00    -0.003 C 
ATOM     11  C   UNL     1      22.721  12.074  38.344  1.00  0.00     0.004 C 
ENDBRANCH   9  10
ENDBRANCH   8   9
ENDBRANCH   1   8
TORSDOF 6
ENDMDL
