MODEL 1
REMARK VINA RESULT:    -1.848      0.000      0.000
REMARK INTER + INTRA:          -2.110
REMARK INTER:                  -2.065
REMARK INTRA:                  -0.046
REMARK UNBOUND:                -0.046
REMARK SMILES CCCC(=O)[O-]
REMARK SMILES IDX 3 1 4 2 5 3 6 4 2 5 1 6
REMARK H PARENT
REMARK Flexibility Score: inf
ROOT
ATOM      1  C   UNL     1     176.284 207.907 201.544  1.00  0.00     0.052 C 
ENDROOT
BRANCH   1   2
ATOM      2  C   UNL     1     176.927 208.015 200.196  1.00  0.00     0.041 C 
ATOM      3  O   UNL     1     176.218 208.040 199.156  1.00  0.00    -0.550 OA
ATOM      4  O   UNL     1     178.308 208.122 200.089  1.00  0.00    -0.550 OA
ENDBRANCH   1   2
BRANCH   1   5
ATOM      5  C   UNL     1     175.962 206.451 201.905  1.00  0.00     0.003 C 
ATOM      6  C   UNL     1     177.152 205.731 202.538  1.00  0.00     0.004 C 
ENDBRANCH   1   5
TORSDOF 2
ENDMDL
MODEL 2
REMARK VINA RESULT:    -1.830      1.735      2.315
REMARK INTER + INTRA:          -2.090
REMARK INTER:                  -2.065
REMARK INTRA:                  -0.025
REMARK UNBOUND:                -0.046
REMARK SMILES CCCC(=O)[O-]
REMARK SMILES IDX 3 1 4 2 5 3 6 4 2 5 1 6
REMARK H PARENT
REMARK Flexibility Score: inf
ROOT
ATOM      1  C   UNL     1     178.299 207.677 200.083  1.00  0.00     0.052 C 
ENDROOT
BRANCH   1   2
ATOM      2  C   UNL     1     178.458 207.389 198.621  1.00  0.00     0.041 C 
ATOM      3  O   UNL     1     177.449 207.358 197.869  1.00  0.00    -0.550 OA
ATOM      4  O   UNL     1     179.723 207.187 198.084  1.00  0.00    -0.550 OA
ENDBRANCH   1   2
BRANCH   1   5
ATOM      5  C   UNL     1     176.871 208.125 200.421  1.00  0.00     0.003 C 
ATOM      6  C   UNL     1     176.323 207.432 201.668  1.00  0.00     0.004 C 
ENDBRANCH   1   5
TORSDOF 2
ENDMDL
MODEL 3
REMARK VINA RESULT:    -1.785      2.087      2.857
REMARK INTER + INTRA:          -2.039
REMARK INTER:                  -1.991
REMARK INTRA:                  -0.049
REMARK UNBOUND:                -0.046
REMARK SMILES CCCC(=O)[O-]
REMARK SMILES IDX 3 1 4 2 5 3 6 4 2 5 1 6
REMARK H PARENT
REMARK Flexibility Score: inf
ROOT
ATOM      1  C   UNL     1     176.388 208.105 201.283  1.00  0.00     0.052 C 
ENDROOT
BRANCH   1   2
ATOM      2  C   UNL     1     176.090 206.751 201.849  1.00  0.00     0.041 C 
ATOM      3  O   UNL     1     175.066 206.119 201.476  1.00  0.00    -0.550 OA
ATOM      4  O   UNL     1     176.961 206.170 202.762  1.00  0.00    -0.550 OA
ENDBRANCH   1   2
BRANCH   1   5
ATOM      5  C   UNL     1     176.989 208.013 199.874  1.00  0.00     0.003 C 
ATOM      6  C   UNL     1     178.501 207.794 199.899  1.00  0.00     0.004 C 
ENDBRANCH   1   5
TORSDOF 2
ENDMDL
MODEL 4
REMARK VINA RESULT:    -1.734      2.067      2.970
REMARK INTER + INTRA:          -1.982
REMARK INTER:                  -1.957
REMARK INTRA:                  -0.025
REMARK UNBOUND:                -0.046
REMARK SMILES CCCC(=O)[O-]
REMARK SMILES IDX 3 1 4 2 5 3 6 4 2 5 1 6
REMARK H PARENT
REMARK Flexibility Score: inf
ROOT
ATOM      1  C   UNL     1     177.201 208.125 200.174  1.00  0.00     0.052 C 
ENDROOT
BRANCH   1   2
ATOM      2  C   UNL     1     176.496 207.366 201.255  1.00  0.00     0.041 C 
ATOM      3  O   UNL     1     175.301 207.639 201.544  1.00  0.00    -0.550 OA
ATOM      4  O   UNL     1     177.146 206.335 201.922  1.00  0.00    -0.550 OA
ENDBRANCH   1   2
BRANCH   1   5
ATOM      5  C   UNL     1     178.637 207.624 199.972  1.00  0.00     0.003 C 
ATOM      6  C   UNL     1     178.921 207.239 198.520  1.00  0.00     0.004 C 
ENDBRANCH   1   5
TORSDOF 2
ENDMDL
MODEL 5
REMARK VINA RESULT:    -1.723      1.650      2.165
REMARK INTER + INTRA:          -1.970
REMARK INTER:                  -1.954
REMARK INTRA:                  -0.015
REMARK UNBOUND:                -0.046
REMARK SMILES CCCC(=O)[O-]
REMARK SMILES IDX 3 1 4 2 5 3 6 4 2 5 1 6
REMARK H PARENT
REMARK Flexibility Score: inf
ROOT
ATOM      1  C   UNL     1     177.615 207.012 200.748  1.00  0.00     0.052 C 
ENDROOT
BRANCH   1   2
ATOM      2  C   UNL     1     178.636 207.346 199.705  1.00  0.00     0.041 C 
ATOM      3  O   UNL     1     178.284 207.537 198.511  1.00  0.00    -0.550 OA
ATOM      4  O   UNL     1     179.974 207.480 200.056  1.00  0.00    -0.550 OA
ENDBRANCH   1   2
BRANCH   1   5
ATOM      5  C   UNL     1     176.569 208.125 200.896  1.00  0.00     0.003 C 
ATOM      6  C   UNL     1     175.182 207.580 201.236  1.00  0.00     0.004 C 
ENDBRANCH   1   5
TORSDOF 2
ENDMDL
MODEL 6
REMARK VINA RESULT:    -1.672     24.544     25.105
REMARK INTER + INTRA:          -1.913
REMARK INTER:                  -1.877
REMARK INTRA:                  -0.036
REMARK UNBOUND:                -0.046
REMARK SMILES CCCC(=O)[O-]
REMARK SMILES IDX 3 1 4 2 5 3 6 4 2 5 1 6
REMARK H PARENT
REMARK Flexibility Score: inf
ROOT
ATOM      1  C   UNL     1     162.592 195.089 184.362  1.00  0.00     0.052 C 
ENDROOT
BRANCH   1   2
ATOM      2  C   UNL     1     162.340 196.562 184.257  1.00  0.00     0.041 C 
ATOM      3  O   UNL     1     161.573 197.133 185.076  1.00  0.00    -0.550 OA
ATOM      4  O   UNL     1     162.978 197.310 183.276  1.00  0.00    -0.550 OA
ENDBRANCH   1   2
BRANCH   1   5
ATOM      5  C   UNL     1     161.290 194.282 184.274  1.00  0.00     0.003 C 
ATOM      6  C   UNL     1     160.877 193.693 185.623  1.00  0.00     0.004 C 
ENDBRANCH   1   5
TORSDOF 2
ENDMDL
MODEL 7
REMARK VINA RESULT:    -1.638      1.916      2.736
REMARK INTER + INTRA:          -1.875
REMARK INTER:                  -1.851
REMARK INTRA:                  -0.024
REMARK UNBOUND:                -0.046
REMARK SMILES CCCC(=O)[O-]
REMARK SMILES IDX 3 1 4 2 5 3 6 4 2 5 1 6
REMARK H PARENT
REMARK Flexibility Score: inf
ROOT
ATOM      1  C   UNL     1     176.606 207.464 201.094  1.00  0.00     0.052 C 
ENDROOT
BRANCH   1   2
ATOM      2  C   UNL     1     175.218 207.655 200.565  1.00  0.00     0.041 C 
ATOM      3  O   UNL     1     174.249 207.778 201.360  1.00  0.00    -0.550 OA
ATOM      4  O   UNL     1     174.998 207.732 199.196  1.00  0.00    -0.550 OA
ENDBRANCH   1   2
BRANCH   1   5
ATOM      5  C   UNL     1     177.654 208.125 200.190  1.00  0.00     0.003 C 
ATOM      6  C   UNL     1     178.861 207.221 199.939  1.00  0.00     0.004 C 
ENDBRANCH   1   5
TORSDOF 2
ENDMDL
MODEL 8
REMARK VINA RESULT:    -1.638     23.797     24.332
REMARK INTER + INTRA:          -1.875
REMARK INTER:                  -1.844
REMARK INTRA:                  -0.031
REMARK UNBOUND:                -0.046
REMARK SMILES CCCC(=O)[O-]
REMARK SMILES IDX 3 1 4 2 5 3 6 4 2 5 1 6
REMARK H PARENT
REMARK Flexibility Score: inf
ROOT
ATOM      1  C   UNL     1     162.691 196.972 183.292  1.00  0.00     0.052 C 
ENDROOT
BRANCH   1   2
ATOM      2  C   UNL     1     164.118 197.415 183.393  1.00  0.00     0.041 C 
ATOM      3  O   UNL     1     165.045 196.563 183.430  1.00  0.00    -0.550 OA
ATOM      4  O   UNL     1     164.429 198.769 183.411  1.00  0.00    -0.550 OA
ENDBRANCH   1   2
BRANCH   1   5
ATOM      5  C   UNL     1     162.264 196.149 184.514  1.00  0.00     0.003 C 
ATOM      6  C   UNL     1     161.695 194.784 184.127  1.00  0.00     0.004 C 
ENDBRANCH   1   5
TORSDOF 2
ENDMDL
MODEL 9
REMARK VINA RESULT:    -1.610      1.536      2.001
REMARK INTER + INTRA:          -1.844
REMARK INTER:                  -1.808
REMARK INTRA:                  -0.036
REMARK UNBOUND:                -0.046
REMARK SMILES CCCC(=O)[O-]
REMARK SMILES IDX 3 1 4 2 5 3 6 4 2 5 1 6
REMARK H PARENT
REMARK Flexibility Score: inf
ROOT
ATOM      1  C   UNL     1     174.814 208.010 200.964  1.00  0.00     0.052 C 
ENDROOT
BRANCH   1   2
ATOM      2  C   UNL     1     174.843 208.078 199.468  1.00  0.00     0.041 C 
ATOM      3  O   UNL     1     173.767 208.125 198.815  1.00  0.00    -0.550 OA
ATOM      4  O   UNL     1     176.057 208.125 198.795  1.00  0.00    -0.550 OA
ENDBRANCH   1   2
BRANCH   1   5
ATOM      5  C   UNL     1     176.228 207.971 201.558  1.00  0.00     0.003 C 
ATOM      6  C   UNL     1     176.567 206.611 202.167  1.00  0.00     0.004 C 
ENDBRANCH   1   5
TORSDOF 2
ENDMDL
