MODEL 1
REMARK VINA RESULT:    15.690      0.000      0.000
REMARK INTER + INTRA:          23.927
REMARK INTER:                  22.111
REMARK INTRA:                   1.816
REMARK UNBOUND:                 1.816
REMARK SMILES CC1=CCC(=C(C)C)C(=O)CC(C)=CCC1
REMARK SMILES IDX 12 1 14 2 13 3 15 4 16 5 2 6 1 7 3 8 11 10 9 11 10 12 5 13
REMARK SMILES IDX 6 14 7 15 8 16 4 17
REMARK H PARENT
REMARK Flexibility Score: 60.00
ROOT
ATOM      1  C   UNL     1     -28.799  33.818 -13.119  1.00  0.00    -0.070 C 
ATOM      2  C   UNL     1     -27.623  33.385 -13.632  1.00  0.00    -0.027 C 
ATOM      3  C   UNL     1     -30.014  33.792 -14.009  1.00  0.00     0.039 C 
ENDROOT
BRANCH   2   4
ATOM      4  C   UNL     1     -26.298  33.394 -12.904  1.00  0.00     0.032 C 
BRANCH   4   5
ATOM      5  C   UNL     1     -25.236  34.195 -13.670  1.00  0.00     0.034 C 
BRANCH   5   6
ATOM      6  C   UNL     1     -24.508  35.220 -12.810  1.00  0.00    -0.077 C 
ATOM      7  C   UNL     1     -23.521  36.150 -13.468  1.00  0.00     0.039 C 
ATOM      8  C   UNL     1     -24.686  35.331 -11.474  1.00  0.00    -0.023 CG0
ATOM      9  G   UNL     1     -25.679  34.541 -10.654  1.00  0.00     0.000 G0
ENDBRANCH   5   6
ENDBRANCH   4   5
ENDBRANCH   2   4
BRANCH   1  10
ATOM     10  C   UNL     1     -28.942  34.321 -11.695  1.00  0.00     0.111 C 
BRANCH  10  11
ATOM     11  C   UNL     1     -27.977  35.440 -11.418  1.00  0.00     0.163 C 
ATOM     12  O   UNL     1     -28.027  36.487 -12.117  1.00  0.00    -0.294 OA
BRANCH  11  13
ATOM     13  C   UNL     1     -26.949  35.324 -10.352  1.00  0.00    -0.002 C 
ATOM     14  C   UNL     1     -27.151  35.901  -9.137  1.00  0.00    -0.069 C 
ATOM     15  C   UNL     1     -26.141  35.748  -8.023  1.00  0.00     0.039 C 
ATOM     16  C   UNL     1     -28.375  36.747  -8.867  1.00  0.00     0.039 C 
BRANCH  13  17
ATOM     17  C   UNL     1     -25.664  34.553 -10.641  1.00  0.00     0.066 CG0
ATOM     18  G   UNL     1     -24.667  35.324 -11.473  1.00  0.00     0.000 G0
ENDBRANCH  13  17
ENDBRANCH  11  13
ENDBRANCH  10  11
ENDBRANCH   1  10
TORSDOF 0
ENDMDL
MODEL 2
REMARK VINA RESULT:    15.941      1.652      3.733
REMARK INTER + INTRA:          24.280
REMARK INTER:                  23.024
REMARK INTRA:                   1.257
REMARK UNBOUND:                 1.816
REMARK SMILES CC1=CCC(=C(C)C)C(=O)CC(C)=CCC1
REMARK SMILES IDX 12 1 14 2 13 3 15 4 16 5 2 6 1 7 3 8 11 10 9 11 10 12 5 13
REMARK SMILES IDX 6 14 7 15 8 16 4 17
REMARK H PARENT
REMARK Flexibility Score: 60.00
ROOT
ATOM      1  C   UNL     1     -25.204  34.606 -12.755  1.00  0.00    -0.070 C 
ATOM      2  C   UNL     1     -25.742  34.468 -13.991  1.00  0.00    -0.027 C 
ATOM      3  C   UNL     1     -24.029  35.534 -12.593  1.00  0.00     0.039 C 
ENDROOT
BRANCH   2   4
ATOM      4  C   UNL     1     -26.883  33.541 -14.345  1.00  0.00     0.032 C 
BRANCH   4   5
ATOM      5  C   UNL     1     -28.236  34.267 -14.302  1.00  0.00     0.034 C 
BRANCH   5   6
ATOM      6  C   UNL     1     -29.063  33.939 -13.067  1.00  0.00    -0.077 C 
ATOM      7  C   UNL     1     -30.025  32.779 -13.123  1.00  0.00     0.039 C 
ATOM      8  C   UNL     1     -28.997  34.648 -11.917  1.00  0.00    -0.023 CG0
ATOM      9  G   UNL     1     -28.048  35.791 -11.646  1.00  0.00     0.000 G0
ENDBRANCH   5   6
ENDBRANCH   4   5
ENDBRANCH   2   4
BRANCH   1  10
ATOM     10  C   UNL     1     -25.735  33.872 -11.538  1.00  0.00     0.111 C 
BRANCH  10  11
ATOM     11  C   UNL     1     -26.005  34.825 -10.408  1.00  0.00     0.163 C 
ATOM     12  O   UNL     1     -25.185  34.901  -9.454  1.00  0.00    -0.294 OA
BRANCH  11  13
ATOM     13  C   UNL     1     -27.234  35.659 -10.380  1.00  0.00    -0.002 C 
ATOM     14  C   UNL     1     -27.614  36.286  -9.234  1.00  0.00    -0.069 C 
ATOM     15  C   UNL     1     -28.829  37.182  -9.200  1.00  0.00     0.039 C 
ATOM     16  C   UNL     1     -26.855  36.077  -7.941  1.00  0.00     0.039 C 
BRANCH  13  17
ATOM     17  C   UNL     1     -28.063  35.801 -11.653  1.00  0.00     0.066 CG0
ATOM     18  G   UNL     1     -28.987  34.635 -11.910  1.00  0.00     0.000 G0
ENDBRANCH  13  17
ENDBRANCH  11  13
ENDBRANCH  10  11
ENDBRANCH   1  10
TORSDOF 0
ENDMDL
MODEL 3
REMARK VINA RESULT:    16.475      1.486      4.373
REMARK INTER + INTRA:          25.033
REMARK INTER:                  23.486
REMARK INTRA:                   1.547
REMARK UNBOUND:                 1.816
REMARK SMILES CC1=CCC(=C(C)C)C(=O)CC(C)=CCC1
REMARK SMILES IDX 12 1 14 2 13 3 15 4 16 5 2 6 1 7 3 8 11 10 9 11 10 12 5 13
REMARK SMILES IDX 6 14 7 15 8 16 4 17
REMARK H PARENT
REMARK Flexibility Score: 60.00
ROOT
ATOM      1  C   UNL     1     -28.028  36.889 -10.930  1.00  0.00    -0.070 C 
ATOM      2  C   UNL     1     -27.472  37.473  -9.842  1.00  0.00    -0.027 C 
ATOM      3  C   UNL     1     -27.878  37.581 -12.260  1.00  0.00     0.039 C 
ENDROOT
BRANCH   2   4
ATOM      4  C   UNL     1     -27.571  36.951  -8.427  1.00  0.00     0.032 C 
BRANCH   4   5
ATOM      5  C   UNL     1     -26.299  36.198  -8.010  1.00  0.00     0.034 C 
BRANCH   5   6
ATOM      6  C   UNL     1     -26.375  34.696  -8.251  1.00  0.00    -0.077 C 
ATOM      7  C   UNL     1     -26.767  33.796  -7.106  1.00  0.00     0.039 C 
ATOM      8  C   UNL     1     -26.090  34.117  -9.440  1.00  0.00    -0.023 CG0
ATOM      9  G   UNL     1     -25.751  34.855 -10.714  1.00  0.00     0.000 G0
ENDBRANCH   5   6
ENDBRANCH   4   5
ENDBRANCH   2   4
BRANCH   1  10
ATOM     10  C   UNL     1     -28.786  35.577 -10.865  1.00  0.00     0.111 C 
BRANCH  10  11
ATOM     11  C   UNL     1     -28.132  34.532 -11.724  1.00  0.00     0.163 C 
ATOM     12  O   UNL     1     -28.844  33.651 -12.277  1.00  0.00    -0.294 OA
BRANCH  11  13
ATOM     13  C   UNL     1     -26.658  34.500 -11.913  1.00  0.00    -0.002 C 
ATOM     14  C   UNL     1     -26.127  34.164 -13.119  1.00  0.00    -0.069 C 
ATOM     15  C   UNL     1     -24.633  34.180 -13.346  1.00  0.00     0.039 C 
ATOM     16  C   UNL     1     -27.010  33.726 -14.267  1.00  0.00     0.039 C 
BRANCH  13  17
ATOM     17  C   UNL     1     -25.752  34.847 -10.735  1.00  0.00     0.066 CG0
ATOM     18  G   UNL     1     -26.107  34.120  -9.460  1.00  0.00     0.000 G0
ENDBRANCH  13  17
ENDBRANCH  11  13
ENDBRANCH  10  11
ENDBRANCH   1  10
TORSDOF 0
ENDMDL
MODEL 4
REMARK VINA RESULT:    17.509      1.574      4.121
REMARK INTER + INTRA:          26.490
REMARK INTER:                  24.893
REMARK INTRA:                   1.596
REMARK UNBOUND:                 1.816
REMARK SMILES CC1=CCC(=C(C)C)C(=O)CC(C)=CCC1
REMARK SMILES IDX 12 1 14 2 13 3 15 4 16 5 2 6 1 7 3 8 11 10 9 11 10 12 5 13
REMARK SMILES IDX 6 14 7 15 8 16 4 17
REMARK H PARENT
REMARK Flexibility Score: 60.00
ROOT
ATOM      1  C   UNL     1     -28.178  36.855 -10.203  1.00  0.00    -0.070 C 
ATOM      2  C   UNL     1     -27.629  37.109  -8.991  1.00  0.00    -0.027 C 
ATOM      3  C   UNL     1     -28.031  37.898 -11.280  1.00  0.00     0.039 C 
ENDROOT
BRANCH   2   4
ATOM      4  C   UNL     1     -27.727  36.205  -7.784  1.00  0.00     0.032 C 
BRANCH   4   5
ATOM      5  C   UNL     1     -26.546  35.226  -7.712  1.00  0.00     0.034 C 
BRANCH   5   6
ATOM      6  C   UNL     1     -25.434  35.540  -8.703  1.00  0.00    -0.077 C 
ATOM      7  C   UNL     1     -24.339  36.490  -8.289  1.00  0.00     0.039 C 
ATOM      8  C   UNL     1     -25.383  35.024  -9.952  1.00  0.00    -0.023 CG0
ATOM      9  G   UNL     1     -26.343  34.006 -10.520  1.00  0.00     0.000 G0
ENDBRANCH   5   6
ENDBRANCH   4   5
ENDBRANCH   2   4
BRANCH   1  10
ATOM     10  C   UNL     1     -28.925  35.574 -10.518  1.00  0.00     0.111 C 
BRANCH  10  11
ATOM     11  C   UNL     1     -28.386  34.924 -11.760  1.00  0.00     0.163 C 
ATOM     12  O   UNL     1     -29.122  34.831 -12.779  1.00  0.00    -0.294 OA
BRANCH  11  13
ATOM     13  C   UNL     1     -27.010  34.365 -11.803  1.00  0.00    -0.002 C 
ATOM     14  C   UNL     1     -26.375  34.193 -12.994  1.00  0.00    -0.069 C 
ATOM     15  C   UNL     1     -24.955  33.678 -13.053  1.00  0.00     0.039 C 
ATOM     16  C   UNL     1     -27.078  34.476 -14.303  1.00  0.00     0.039 C 
BRANCH  13  17
ATOM     17  C   UNL     1     -26.323  33.985 -10.495  1.00  0.00     0.066 CG0
ATOM     18  G   UNL     1     -25.397  35.052  -9.961  1.00  0.00     0.000 G0
ENDBRANCH  13  17
ENDBRANCH  11  13
ENDBRANCH  10  11
ENDBRANCH   1  10
TORSDOF 0
ENDMDL
