MODEL 1
REMARK VINA RESULT:    -4.775      0.000      0.000
REMARK INTER + INTRA:          -5.506
REMARK INTER:                  -5.473
REMARK INTRA:                  -0.032
REMARK UNBOUND:                -0.032
REMARK SMILES CC(C)[C@H]([NH3+])C(=O)[O-]
REMARK SMILES IDX 4 1 5 2 6 6 7 7 8 8 2 9 1 10 3 11
REMARK H PARENT 5 3 5 4 5 5
REMARK Flexibility Score: inf
ROOT
ATOM      1  C   UNL     1     -21.066  68.902  -0.560  1.00  0.00     0.230 C 
ENDROOT
BRANCH   1   2
ATOM      2  N   UNL     1     -20.885  70.221   0.067  1.00  0.00    -0.350 N 
ATOM      3  H   UNL     1     -20.395  70.885  -0.574  1.00  0.00     0.345 HD
ATOM      4  H   UNL     1     -21.808  70.622   0.345  1.00  0.00     0.345 HD
ATOM      5  H   UNL     1     -20.312  70.115   0.936  1.00  0.00     0.345 HD
ENDBRANCH   1   2
BRANCH   1   6
ATOM      6  C   UNL     1     -22.195  68.147   0.099  1.00  0.00     0.099 C 
ATOM      7  O   UNL     1     -22.321  68.174   1.352  1.00  0.00    -0.544 OA
ATOM      8  O   UNL     1     -23.128  67.455  -0.665  1.00  0.00    -0.544 OA
ENDBRANCH   1   6
BRANCH   1   9
ATOM      9  C   UNL     1     -19.762  68.048  -0.572  1.00  0.00     0.047 C 
ATOM     10  C   UNL     1     -19.865  66.861  -1.541  1.00  0.00     0.014 C 
ATOM     11  C   UNL     1     -18.494  68.865  -0.868  1.00  0.00     0.014 C 
ENDBRANCH   1   9
TORSDOF 3
ENDMDL
MODEL 2
REMARK VINA RESULT:    -4.741      2.910      3.851
REMARK INTER + INTRA:          -5.466
REMARK INTER:                  -5.422
REMARK INTRA:                  -0.044
REMARK UNBOUND:                -0.032
REMARK SMILES CC(C)[C@H]([NH3+])C(=O)[O-]
REMARK SMILES IDX 4 1 5 2 6 6 7 7 8 8 2 9 1 10 3 11
REMARK H PARENT 5 3 5 4 5 5
REMARK Flexibility Score: inf
ROOT
ATOM      1  C   UNL     1     -20.034  68.341  -1.116  1.00  0.00     0.230 C 
ENDROOT
BRANCH   1   2
ATOM      2  N   UNL     1     -20.183  66.977  -1.648  1.00  0.00    -0.350 N 
ATOM      3  H   UNL     1     -20.111  66.261  -0.890  1.00  0.00     0.345 HD
ATOM      4  H   UNL     1     -21.099  66.876  -2.138  1.00  0.00     0.345 HD
ATOM      5  H   UNL     1     -19.428  66.794  -2.348  1.00  0.00     0.345 HD
ENDBRANCH   1   2
BRANCH   1   6
ATOM      6  C   UNL     1     -18.588  68.636  -0.799  1.00  0.00     0.099 C 
ATOM      7  O   UNL     1     -17.880  67.766  -0.227  1.00  0.00    -0.544 OA
ATOM      8  O   UNL     1     -18.011  69.846  -1.171  1.00  0.00    -0.544 OA
ENDBRANCH   1   6
BRANCH   1   9
ATOM      9  C   UNL     1     -20.939  68.614   0.124  1.00  0.00     0.047 C 
ATOM     10  C   UNL     1     -21.103  70.118   0.392  1.00  0.00     0.014 C 
ATOM     11  C   UNL     1     -22.317  67.937   0.042  1.00  0.00     0.014 C 
ENDBRANCH   1   9
TORSDOF 3
ENDMDL
MODEL 3
REMARK VINA RESULT:    -4.642      2.003      2.440
REMARK INTER + INTRA:          -5.353
REMARK INTER:                  -5.298
REMARK INTRA:                  -0.056
REMARK UNBOUND:                -0.032
REMARK SMILES CC(C)[C@H]([NH3+])C(=O)[O-]
REMARK SMILES IDX 4 1 5 2 6 6 7 7 8 8 2 9 1 10 3 11
REMARK H PARENT 5 3 5 4 5 5
REMARK Flexibility Score: inf
ROOT
ATOM      1  C   UNL     1     -21.280  68.155   0.121  1.00  0.00     0.230 C 
ENDROOT
BRANCH   1   2
ATOM      2  N   UNL     1     -22.614  67.792  -0.382  1.00  0.00    -0.350 N 
ATOM      3  H   UNL     1     -22.551  67.239  -1.267  1.00  0.00     0.345 HD
ATOM      4  H   UNL     1     -23.138  67.243   0.335  1.00  0.00     0.345 HD
ATOM      5  H   UNL     1     -23.161  68.663  -0.575  1.00  0.00     0.345 HD
ENDBRANCH   1   2
BRANCH   1   6
ATOM      6  C   UNL     1     -21.208  69.631   0.430  1.00  0.00     0.099 C 
ATOM      7  O   UNL     1     -21.826  70.095   1.424  1.00  0.00    -0.544 OA
ATOM      8  O   UNL     1     -20.430  70.482  -0.347  1.00  0.00    -0.544 OA
ENDBRANCH   1   6
BRANCH   1   9
ATOM      9  C   UNL     1     -20.129  67.734  -0.842  1.00  0.00     0.047 C 
ATOM     10  C   UNL     1     -18.873  67.295  -0.074  1.00  0.00     0.014 C 
ATOM     11  C   UNL     1     -20.537  66.650  -1.853  1.00  0.00     0.014 C 
ENDBRANCH   1   9
TORSDOF 3
ENDMDL
MODEL 4
REMARK VINA RESULT:    -4.639      0.773      1.815
REMARK INTER + INTRA:          -5.349
REMARK INTER:                  -5.387
REMARK INTRA:                   0.038
REMARK UNBOUND:                -0.032
REMARK SMILES CC(C)[C@H]([NH3+])C(=O)[O-]
REMARK SMILES IDX 4 1 5 2 6 6 7 7 8 8 2 9 1 10 3 11
REMARK H PARENT 5 3 5 4 5 5
REMARK Flexibility Score: inf
ROOT
ATOM      1  C   UNL     1     -21.020  69.149  -0.644  1.00  0.00     0.230 C 
ENDROOT
BRANCH   1   2
ATOM      2  N   UNL     1     -20.650  70.462  -0.093  1.00  0.00    -0.350 N 
ATOM      3  H   UNL     1     -20.890  70.532   0.922  1.00  0.00     0.345 HD
ATOM      4  H   UNL     1     -19.629  70.637  -0.223  1.00  0.00     0.345 HD
ATOM      5  H   UNL     1     -21.167  71.212  -0.607  1.00  0.00     0.345 HD
ENDBRANCH   1   2
BRANCH   1   6
ATOM      6  C   UNL     1     -21.591  68.259   0.432  1.00  0.00     0.099 C 
ATOM      7  O   UNL     1     -22.682  67.660   0.239  1.00  0.00    -0.544 OA
ATOM      8  O   UNL     1     -20.903  68.053   1.623  1.00  0.00    -0.544 OA
ENDBRANCH   1   6
BRANCH   1   9
ATOM      9  C   UNL     1     -19.841  68.443  -1.381  1.00  0.00     0.047 C 
ATOM     10  C   UNL     1     -18.496  68.700  -0.684  1.00  0.00     0.014 C 
ATOM     11  C   UNL     1     -20.055  66.934  -1.579  1.00  0.00     0.014 C 
ENDBRANCH   1   9
TORSDOF 3
ENDMDL
MODEL 5
REMARK VINA RESULT:    -4.622      2.404      3.027
REMARK INTER + INTRA:          -5.329
REMARK INTER:                  -5.450
REMARK INTRA:                   0.121
REMARK UNBOUND:                -0.032
REMARK SMILES CC(C)[C@H]([NH3+])C(=O)[O-]
REMARK SMILES IDX 4 1 5 2 6 6 7 7 8 8 2 9 1 10 3 11
REMARK H PARENT 5 3 5 4 5 5
REMARK Flexibility Score: inf
ROOT
ATOM      1  C   UNL     1     -19.155  68.627  -0.416  1.00  0.00     0.230 C 
ENDROOT
BRANCH   1   2
ATOM      2  N   UNL     1     -18.252  69.107  -1.474  1.00  0.00    -0.350 N 
ATOM      3  H   UNL     1     -17.349  68.581  -1.473  1.00  0.00     0.345 HD
ATOM      4  H   UNL     1     -18.707  69.019  -2.409  1.00  0.00     0.345 HD
ATOM      5  H   UNL     1     -18.045  70.121  -1.318  1.00  0.00     0.345 HD
ENDBRANCH   1   2
BRANCH   1   6
ATOM      6  C   UNL     1     -19.170  67.118  -0.370  1.00  0.00     0.099 C 
ATOM      7  O   UNL     1     -18.948  66.521   0.717  1.00  0.00    -0.544 OA
ATOM      8  O   UNL     1     -19.471  66.375  -1.506  1.00  0.00    -0.544 OA
ENDBRANCH   1   6
BRANCH   1   9
ATOM      9  C   UNL     1     -20.603  69.191  -0.547  1.00  0.00     0.047 C 
ATOM     10  C   UNL     1     -21.639  68.262   0.103  1.00  0.00     0.014 C 
ATOM     11  C   UNL     1     -20.758  70.621  -0.004  1.00  0.00     0.014 C 
ENDBRANCH   1   9
TORSDOF 3
ENDMDL
MODEL 6
REMARK VINA RESULT:    -4.517      2.309      3.161
REMARK INTER + INTRA:          -5.210
REMARK INTER:                  -5.144
REMARK INTRA:                  -0.065
REMARK UNBOUND:                -0.032
REMARK SMILES CC(C)[C@H]([NH3+])C(=O)[O-]
REMARK SMILES IDX 4 1 5 2 6 6 7 7 8 8 2 9 1 10 3 11
REMARK H PARENT 5 3 5 4 5 5
REMARK Flexibility Score: inf
ROOT
ATOM      1  C   UNL     1     -19.522  67.909  -0.265  1.00  0.00     0.230 C 
ENDROOT
BRANCH   1   2
ATOM      2  N   UNL     1     -18.431  68.750  -0.781  1.00  0.00    -0.350 N 
ATOM      3  H   UNL     1     -18.777  69.431  -1.494  1.00  0.00     0.345 HD
ATOM      4  H   UNL     1     -17.969  69.267  -0.000  1.00  0.00     0.345 HD
ATOM      5  H   UNL     1     -17.707  68.142  -1.229  1.00  0.00     0.345 HD
ENDBRANCH   1   2
BRANCH   1   6
ATOM      6  C   UNL     1     -19.828  66.783  -1.223  1.00  0.00     0.099 C 
ATOM      7  O   UNL     1     -20.896  66.798  -1.890  1.00  0.00    -0.544 OA
ATOM      8  O   UNL     1     -18.921  65.746  -1.413  1.00  0.00    -0.544 OA
ENDBRANCH   1   6
BRANCH   1   9
ATOM      9  C   UNL     1     -20.813  68.719   0.066  1.00  0.00     0.047 C 
ATOM     10  C   UNL     1     -21.329  68.418   1.481  1.00  0.00     0.014 C 
ATOM     11  C   UNL     1     -20.654  70.236  -0.129  1.00  0.00     0.014 C 
ENDBRANCH   1   9
TORSDOF 3
ENDMDL
MODEL 7
REMARK VINA RESULT:    -4.421      2.383      3.466
REMARK INTER + INTRA:          -5.100
REMARK INTER:                  -5.039
REMARK INTRA:                  -0.061
REMARK UNBOUND:                -0.032
REMARK SMILES CC(C)[C@H]([NH3+])C(=O)[O-]
REMARK SMILES IDX 4 1 5 2 6 6 7 7 8 8 2 9 1 10 3 11
REMARK H PARENT 5 3 5 4 5 5
REMARK Flexibility Score: inf
ROOT
ATOM      1  C   UNL     1     -21.334  68.156  -0.688  1.00  0.00     0.230 C 
ENDROOT
BRANCH   1   2
ATOM      2  N   UNL     1     -22.639  67.487  -0.817  1.00  0.00    -0.350 N 
ATOM      3  H   UNL     1     -23.280  68.018  -1.449  1.00  0.00     0.345 HD
ATOM      4  H   UNL     1     -22.516  66.516  -1.180  1.00  0.00     0.345 HD
ATOM      5  H   UNL     1     -23.086  67.418   0.126  1.00  0.00     0.345 HD
ENDBRANCH   1   2
BRANCH   1   6
ATOM      6  C   UNL     1     -20.208  67.188  -0.960  1.00  0.00     0.099 C 
ATOM      7  O   UNL     1     -20.256  66.437  -1.970  1.00  0.00    -0.544 OA
ATOM      8  O   UNL     1     -19.093  67.145  -0.131  1.00  0.00    -0.544 OA
ENDBRANCH   1   6
BRANCH   1   9
ATOM      9  C   UNL     1     -21.141  68.857   0.691  1.00  0.00     0.047 C 
ATOM     10  C   UNL     1     -21.169  70.387   0.563  1.00  0.00     0.014 C 
ATOM     11  C   UNL     1     -22.143  68.396   1.761  1.00  0.00     0.014 C 
ENDBRANCH   1   9
TORSDOF 3
ENDMDL
MODEL 8
REMARK VINA RESULT:    -4.336      2.585      3.444
REMARK INTER + INTRA:          -5.001
REMARK INTER:                  -4.947
REMARK INTRA:                  -0.055
REMARK UNBOUND:                -0.032
REMARK SMILES CC(C)[C@H]([NH3+])C(=O)[O-]
REMARK SMILES IDX 4 1 5 2 6 6 7 7 8 8 2 9 1 10 3 11
REMARK H PARENT 5 3 5 4 5 5
REMARK Flexibility Score: inf
ROOT
ATOM      1  C   UNL     1     -20.364  68.147  -0.366  1.00  0.00     0.230 C 
ENDROOT
BRANCH   1   2
ATOM      2  N   UNL     1     -19.586  67.277   0.531  1.00  0.00    -0.350 N 
ATOM      3  H   UNL     1     -19.036  66.569  -0.006  1.00  0.00     0.345 HD
ATOM      4  H   UNL     1     -18.939  67.847   1.120  1.00  0.00     0.345 HD
ATOM      5  H   UNL     1     -20.237  66.771   1.174  1.00  0.00     0.345 HD
ENDBRANCH   1   2
BRANCH   1   6
ATOM      6  C   UNL     1     -19.628  69.438  -0.630  1.00  0.00     0.099 C 
ATOM      7  O   UNL     1     -20.196  70.540  -0.408  1.00  0.00    -0.544 OA
ATOM      8  O   UNL     1     -18.311  69.427  -1.074  1.00  0.00    -0.544 OA
ENDBRANCH   1   6
BRANCH   1   9
ATOM      9  C   UNL     1     -21.806  68.427   0.157  1.00  0.00     0.047 C 
ATOM     10  C   UNL     1     -22.850  67.544  -0.543  1.00  0.00     0.014 C 
ATOM     11  C   UNL     1     -21.943  68.302   1.683  1.00  0.00     0.014 C 
ENDBRANCH   1   9
TORSDOF 3
ENDMDL
MODEL 9
REMARK VINA RESULT:    -4.150      2.432      3.350
REMARK INTER + INTRA:          -4.788
REMARK INTER:                  -4.767
REMARK INTRA:                  -0.022
REMARK UNBOUND:                -0.032
REMARK SMILES CC(C)[C@H]([NH3+])C(=O)[O-]
REMARK SMILES IDX 4 1 5 2 6 6 7 7 8 8 2 9 1 10 3 11
REMARK H PARENT 5 3 5 4 5 5
REMARK Flexibility Score: inf
ROOT
ATOM      1  C   UNL     1     -20.227  69.086   0.240  1.00  0.00     0.230 C 
ENDROOT
BRANCH   1   2
ATOM      2  N   UNL     1     -20.741  70.378  -0.243  1.00  0.00    -0.350 N 
ATOM      3  H   UNL     1     -21.294  70.869   0.495  1.00  0.00     0.345 HD
ATOM      4  H   UNL     1     -19.955  70.989  -0.555  1.00  0.00     0.345 HD
ATOM      5  H   UNL     1     -21.362  70.216  -1.069  1.00  0.00     0.345 HD
ENDBRANCH   1   2
BRANCH   1   6
ATOM      6  C   UNL     1     -19.147  68.564  -0.676  1.00  0.00     0.099 C 
ATOM      7  O   UNL     1     -18.388  69.372  -1.275  1.00  0.00    -0.544 OA
ATOM      8  O   UNL     1     -18.948  67.197  -0.835  1.00  0.00    -0.544 OA
ENDBRANCH   1   6
BRANCH   1   9
ATOM      9  C   UNL     1     -21.347  68.020   0.439  1.00  0.00     0.047 C 
ATOM     10  C   UNL     1     -22.158  68.275   1.718  1.00  0.00     0.014 C 
ATOM     11  C   UNL     1     -22.289  67.884  -0.768  1.00  0.00     0.014 C 
ENDBRANCH   1   9
TORSDOF 3
ENDMDL
