MODEL 1
REMARK VINA RESULT:    -5.709      0.000      0.000
REMARK INTER + INTRA:          -7.006
REMARK INTER:                  -6.711
REMARK INTRA:                  -0.295
REMARK UNBOUND:                -0.295
REMARK SMILES O=c1c(O)c(-c2ccc(O)cc2)oc2cc(O)cc(O)c12
REMARK SMILES IDX 5 1 3 2 2 3 1 4 21 5 19 6 18 7 16 8 15 9 14 10 13 11 6 12
REMARK SMILES IDX 7 13 8 14 9 15 12 16 11 17 10 18 4 20 20 22 17 24
REMARK H PARENT 10 19 4 21 20 23 17 25
REMARK Flexibility Score: inf
ROOT
ATOM      1  C   UNL     1     125.485 133.073 111.548  1.00  0.00     0.180 A 
ATOM      2  C   UNL     1     126.537 132.146 111.626  1.00  0.00     0.208 A 
ATOM      3  C   UNL     1     127.844 132.572 111.340  1.00  0.00     0.238 A 
ATOM      4  O   UNL     1     128.790 131.755 111.484  1.00  0.00    -0.285 OA
ATOM      5  C   UNL     1     128.076 133.906 110.924  1.00  0.00     0.111 A 
ATOM      6  C   UNL     1     129.352 134.435 110.564  1.00  0.00     0.134 A 
ATOM      7  C   UNL     1     129.476 135.799 110.271  1.00  0.00     0.093 A 
ATOM      8  C   UNL     1     128.364 136.639 110.261  1.00  0.00     0.123 A 
ATOM      9  C   UNL     1     127.102 136.121 110.557  1.00  0.00     0.094 A 
ATOM     10  C   UNL     1     126.951 134.773 110.892  1.00  0.00     0.146 A 
ATOM     11  O   UNL     1     125.737 134.327 111.187  1.00  0.00    -0.452 OA
ENDROOT
BRANCH   1  12
ATOM     12  C   UNL     1     124.084 132.704 111.850  1.00  0.00     0.021 A 
ATOM     13  C   UNL     1     123.215 132.368 110.797  1.00  0.00     0.016 A 
ATOM     14  C   UNL     1     121.882 132.037 111.056  1.00  0.00     0.047 A 
ATOM     15  C   UNL     1     121.396 132.052 112.371  1.00  0.00     0.115 A 
ATOM     16  C   UNL     1     123.582 132.735 113.164  1.00  0.00     0.016 A 
ATOM     17  C   UNL     1     122.248 132.405 113.420  1.00  0.00     0.047 A 
BRANCH  15  18
ATOM     18  O   UNL     1     120.070 131.724 112.642  1.00  0.00    -0.508 OA
ATOM     19  H   UNL     1     119.577 132.122 113.433  1.00  0.00     0.293 HD
ENDBRANCH  15  18
ENDBRANCH   1  12
BRANCH   2  20
ATOM     20  O   UNL     1     126.279 130.814 111.964  1.00  0.00    -0.502 OA
ATOM     21  H   UNL     1     126.939 130.069 111.783  1.00  0.00     0.293 HD
ENDBRANCH   2  20
BRANCH   6  22
ATOM     22  O   UNL     1     130.516 133.668 110.457  1.00  0.00    -0.507 OA
ATOM     23  H   UNL     1     131.103 133.620 109.639  1.00  0.00     0.293 HD
ENDBRANCH   6  22
BRANCH   8  24
ATOM     24  O   UNL     1     128.523 137.987 109.947  1.00  0.00    -0.508 OA
ATOM     25  H   UNL     1     129.441 138.414 109.897  1.00  0.00     0.293 HD
ENDBRANCH   8  24
TORSDOF 5
ENDMDL
MODEL 2
REMARK VINA RESULT:    -5.472      1.813      6.977
REMARK INTER + INTRA:          -6.727
REMARK INTER:                  -6.439
REMARK INTRA:                  -0.288
REMARK UNBOUND:                -0.295
REMARK SMILES O=c1c(O)c(-c2ccc(O)cc2)oc2cc(O)cc(O)c12
REMARK SMILES IDX 5 1 3 2 2 3 1 4 21 5 19 6 18 7 16 8 15 9 14 10 13 11 6 12
REMARK SMILES IDX 7 13 8 14 9 15 12 16 11 17 10 18 4 20 20 22 17 24
REMARK H PARENT 10 19 4 21 20 23 17 25
REMARK Flexibility Score: inf
ROOT
ATOM      1  C   UNL     1     125.037 132.567 111.407  1.00  0.00     0.180 A 
ATOM      2  C   UNL     1     124.408 132.679 112.658  1.00  0.00     0.208 A 
ATOM      3  C   UNL     1     123.030 132.426 112.754  1.00  0.00     0.238 A 
ATOM      4  O   UNL     1     122.489 132.456 113.889  1.00  0.00    -0.285 OA
ATOM      5  C   UNL     1     122.287 132.119 111.588  1.00  0.00     0.111 A 
ATOM      6  C   UNL     1     120.879 131.890 111.559  1.00  0.00     0.134 A 
ATOM      7  C   UNL     1     120.268 131.489 110.364  1.00  0.00     0.093 A 
ATOM      8  C   UNL     1     121.001 131.373 109.184  1.00  0.00     0.123 A 
ATOM      9  C   UNL     1     122.369 131.648 109.188  1.00  0.00     0.094 A 
ATOM     10  C   UNL     1     123.014 132.012 110.373  1.00  0.00     0.146 A 
ATOM     11  O   UNL     1     124.320 132.245 110.336  1.00  0.00    -0.452 OA
ENDROOT
BRANCH   1  12
ATOM     12  C   UNL     1     126.488 132.802 111.229  1.00  0.00     0.021 A 
ATOM     13  C   UNL     1     126.951 134.104 110.977  1.00  0.00     0.016 A 
ATOM     14  C   UNL     1     128.314 134.347 110.784  1.00  0.00     0.047 A 
ATOM     15  C   UNL     1     129.231 133.288 110.826  1.00  0.00     0.115 A 
ATOM     16  C   UNL     1     127.412 131.741 111.250  1.00  0.00     0.016 A 
ATOM     17  C   UNL     1     128.775 131.986 111.055  1.00  0.00     0.047 A 
BRANCH  15  18
ATOM     18  O   UNL     1     130.591 133.517 110.636  1.00  0.00    -0.508 OA
ATOM     19  H   UNL     1     131.156 132.901 110.061  1.00  0.00     0.293 HD
ENDBRANCH  15  18
ENDBRANCH   1  12
BRANCH   2  20
ATOM     20  O   UNL     1     125.144 133.057 113.785  1.00  0.00    -0.502 OA
ATOM     21  H   UNL     1     125.697 132.399 114.320  1.00  0.00     0.293 HD
ENDBRANCH   2  20
BRANCH   6  22
ATOM     22  O   UNL     1     120.035 132.062 112.661  1.00  0.00    -0.507 OA
ATOM     23  H   UNL     1     120.344 132.217 113.608  1.00  0.00     0.293 HD
ENDBRANCH   6  22
BRANCH   8  24
ATOM     24  O   UNL     1     120.357 130.989 108.010  1.00  0.00    -0.508 OA
ATOM     25  H   UNL     1     120.607 130.136 107.523  1.00  0.00     0.293 HD
ENDBRANCH   8  24
TORSDOF 5
ENDMDL
MODEL 3
REMARK VINA RESULT:    -5.403      1.461      1.767
REMARK INTER + INTRA:          -6.646
REMARK INTER:                  -6.378
REMARK INTRA:                  -0.268
REMARK UNBOUND:                -0.295
REMARK SMILES O=c1c(O)c(-c2ccc(O)cc2)oc2cc(O)cc(O)c12
REMARK SMILES IDX 5 1 3 2 2 3 1 4 21 5 19 6 18 7 16 8 15 9 14 10 13 11 6 12
REMARK SMILES IDX 7 13 8 14 9 15 12 16 11 17 10 18 4 20 20 22 17 24
REMARK H PARENT 10 19 4 21 20 23 17 25
REMARK Flexibility Score: inf
ROOT
ATOM      1  C   UNL     1     124.793 132.793 110.547  1.00  0.00     0.180 A 
ATOM      2  C   UNL     1     125.825 131.980 111.047  1.00  0.00     0.208 A 
ATOM      3  C   UNL     1     127.066 132.563 111.348  1.00  0.00     0.238 A 
ATOM      4  O   UNL     1     127.960 131.844 111.865  1.00  0.00    -0.285 OA
ATOM      5  C   UNL     1     127.280 133.939 111.092  1.00  0.00     0.111 A 
ATOM      6  C   UNL     1     128.511 134.626 111.315  1.00  0.00     0.134 A 
ATOM      7  C   UNL     1     128.573 136.012 111.125  1.00  0.00     0.093 A 
ATOM      8  C   UNL     1     127.471 136.726 110.659  1.00  0.00     0.123 A 
ATOM      9  C   UNL     1     126.277 136.057 110.386  1.00  0.00     0.094 A 
ATOM     10  C   UNL     1     126.172 134.681 110.602  1.00  0.00     0.146 A 
ATOM     11  O   UNL     1     125.012 134.088 110.349  1.00  0.00    -0.452 OA
ENDROOT
BRANCH   1  12
ATOM     12  C   UNL     1     123.453 132.256 110.222  1.00  0.00     0.021 A 
ATOM     13  C   UNL     1     123.244 131.620 108.986  1.00  0.00     0.016 A 
ATOM     14  C   UNL     1     121.981 131.124 108.648  1.00  0.00     0.047 A 
ATOM     15  C   UNL     1     120.907 131.270 109.536  1.00  0.00     0.115 A 
ATOM     16  C   UNL     1     122.364 132.415 111.099  1.00  0.00     0.016 A 
ATOM     17  C   UNL     1     121.102 131.920 110.758  1.00  0.00     0.047 A 
BRANCH  15  18
ATOM     18  O   UNL     1     119.644 130.780 109.211  1.00  0.00    -0.508 OA
ATOM     19  H   UNL     1     118.883 131.402 108.964  1.00  0.00     0.293 HD
ENDBRANCH  15  18
ENDBRANCH   1  12
BRANCH   2  20
ATOM     20  O   UNL     1     125.618 130.609 111.221  1.00  0.00    -0.502 OA
ATOM     21  H   UNL     1     124.995 130.073 110.630  1.00  0.00     0.293 HD
ENDBRANCH   2  20
BRANCH   6  22
ATOM     22  O   UNL     1     129.700 133.997 111.696  1.00  0.00    -0.507 OA
ATOM     23  H   UNL     1     130.578 134.074 111.206  1.00  0.00     0.293 HD
ENDBRANCH   6  22
BRANCH   8  24
ATOM     24  O   UNL     1     127.575 138.102 110.465  1.00  0.00    -0.508 OA
ATOM     25  H   UNL     1     127.317 138.533 109.585  1.00  0.00     0.293 HD
ENDBRANCH   8  24
TORSDOF 5
ENDMDL
MODEL 4
REMARK VINA RESULT:    -5.398      2.128      3.317
REMARK INTER + INTRA:          -6.640
REMARK INTER:                  -6.353
REMARK INTRA:                  -0.287
REMARK UNBOUND:                -0.295
REMARK SMILES O=c1c(O)c(-c2ccc(O)cc2)oc2cc(O)cc(O)c12
REMARK SMILES IDX 5 1 3 2 2 3 1 4 21 5 19 6 18 7 16 8 15 9 14 10 13 11 6 12
REMARK SMILES IDX 7 13 8 14 9 15 12 16 11 17 10 18 4 20 20 22 17 24
REMARK H PARENT 10 19 4 21 20 23 17 25
REMARK Flexibility Score: inf
ROOT
ATOM      1  C   UNL     1     126.675 134.578 110.878  1.00  0.00     0.180 A 
ATOM      2  C   UNL     1     126.586 134.843 109.501  1.00  0.00     0.208 A 
ATOM      3  C   UNL     1     127.468 135.773 108.927  1.00  0.00     0.238 A 
ATOM      4  O   UNL     1     127.432 135.950 107.682  1.00  0.00    -0.285 OA
ATOM      5  C   UNL     1     128.391 136.467 109.747  1.00  0.00     0.111 A 
ATOM      6  C   UNL     1     129.302 137.464 109.281  1.00  0.00     0.134 A 
ATOM      7  C   UNL     1     130.242 138.007 110.166  1.00  0.00     0.093 A 
ATOM      8  C   UNL     1     130.263 137.640 111.510  1.00  0.00     0.123 A 
ATOM      9  C   UNL     1     129.342 136.707 111.988  1.00  0.00     0.094 A 
ATOM     10  C   UNL     1     128.417 136.118 111.123  1.00  0.00     0.146 A 
ATOM     11  O   UNL     1     127.573 135.220 111.615  1.00  0.00    -0.452 OA
ENDROOT
BRANCH   1  12
ATOM     12  C   UNL     1     125.791 133.600 111.551  1.00  0.00     0.021 A 
ATOM     13  C   UNL     1     124.541 134.019 112.039  1.00  0.00     0.016 A 
ATOM     14  C   UNL     1     123.699 133.119 112.698  1.00  0.00     0.047 A 
ATOM     15  C   UNL     1     124.102 131.791 112.891  1.00  0.00     0.115 A 
ATOM     16  C   UNL     1     126.196 132.270 111.767  1.00  0.00     0.016 A 
ATOM     17  C   UNL     1     125.352 131.372 112.427  1.00  0.00     0.047 A 
BRANCH  15  18
ATOM     18  O   UNL     1     123.271 130.884 113.546  1.00  0.00    -0.508 OA
ATOM     19  H   UNL     1     122.434 131.188 114.028  1.00  0.00     0.293 HD
ENDBRANCH  15  18
ENDBRANCH   1  12
BRANCH   2  20
ATOM     20  O   UNL     1     125.617 134.203 108.722  1.00  0.00    -0.502 OA
ATOM     21  H   UNL     1     124.819 133.730 109.127  1.00  0.00     0.293 HD
ENDBRANCH   2  20
BRANCH   6  22
ATOM     22  O   UNL     1     129.309 137.969 107.978  1.00  0.00    -0.507 OA
ATOM     23  H   UNL     1     128.584 138.543 107.576  1.00  0.00     0.293 HD
ENDBRANCH   6  22
BRANCH   8  24
ATOM     24  O   UNL     1     131.202 138.215 112.365  1.00  0.00    -0.508 OA
ATOM     25  H   UNL     1     131.546 139.157 112.216  1.00  0.00     0.293 HD
ENDBRANCH   8  24
TORSDOF 5
ENDMDL
MODEL 5
REMARK VINA RESULT:    -5.381      2.192      7.135
REMARK INTER + INTRA:          -6.620
REMARK INTER:                  -6.349
REMARK INTRA:                  -0.271
REMARK UNBOUND:                -0.295
REMARK SMILES O=c1c(O)c(-c2ccc(O)cc2)oc2cc(O)cc(O)c12
REMARK SMILES IDX 5 1 3 2 2 3 1 4 21 5 19 6 18 7 16 8 15 9 14 10 13 11 6 12
REMARK SMILES IDX 7 13 8 14 9 15 12 16 11 17 10 18 4 20 20 22 17 24
REMARK H PARENT 10 19 4 21 20 23 17 25
REMARK Flexibility Score: inf
ROOT
ATOM      1  C   UNL     1     124.420 132.727 110.375  1.00  0.00     0.180 A 
ATOM      2  C   UNL     1     124.107 132.225 109.100  1.00  0.00     0.208 A 
ATOM      3  C   UNL     1     122.799 131.782 108.845  1.00  0.00     0.238 A 
ATOM      4  O   UNL     1     122.507 131.404 107.680  1.00  0.00    -0.285 OA
ATOM      5  C   UNL     1     121.835 131.792 109.882  1.00  0.00     0.111 A 
ATOM      6  C   UNL     1     120.493 131.325 109.749  1.00  0.00     0.134 A 
ATOM      7  C   UNL     1     119.598 131.483 110.814  1.00  0.00     0.093 A 
ATOM      8  C   UNL     1     120.010 132.032 112.027  1.00  0.00     0.123 A 
ATOM      9  C   UNL     1     121.334 132.442 112.187  1.00  0.00     0.094 A 
ATOM     10  C   UNL     1     122.242 132.333 111.131  1.00  0.00     0.146 A 
ATOM     11  O   UNL     1     123.486 132.755 111.319  1.00  0.00    -0.452 OA
ENDROOT
BRANCH   1  12
ATOM     12  C   UNL     1     125.770 133.227 110.716  1.00  0.00     0.021 A 
ATOM     13  C   UNL     1     126.036 134.605 110.643  1.00  0.00     0.016 A 
ATOM     14  C   UNL     1     127.310 135.098 110.940  1.00  0.00     0.047 A 
ATOM     15  C   UNL     1     128.340 134.218 111.299  1.00  0.00     0.115 A 
ATOM     16  C   UNL     1     126.815 132.348 111.059  1.00  0.00     0.016 A 
ATOM     17  C   UNL     1     128.088 132.844 111.354  1.00  0.00     0.047 A 
BRANCH  15  18
ATOM     18  O   UNL     1     129.613 134.697 111.598  1.00  0.00    -0.508 OA
ATOM     19  H   UNL     1     129.746 135.524 112.167  1.00  0.00     0.293 HD
ENDBRANCH  15  18
ENDBRANCH   1  12
BRANCH   2  20
ATOM     20  O   UNL     1     125.092 132.152 108.112  1.00  0.00    -0.502 OA
ATOM     21  H   UNL     1     125.497 131.273 107.811  1.00  0.00     0.293 HD
ENDBRANCH   2  20
BRANCH   6  22
ATOM     22  O   UNL     1     119.998 130.680 108.611  1.00  0.00    -0.507 OA
ATOM     23  H   UNL     1     119.075 130.282 108.528  1.00  0.00     0.293 HD
ENDBRANCH   6  22
BRANCH   8  24
ATOM     24  O   UNL     1     119.096 132.158 113.071  1.00  0.00    -0.508 OA
ATOM     25  H   UNL     1     118.201 132.615 112.939  1.00  0.00     0.293 HD
ENDBRANCH   8  24
TORSDOF 5
ENDMDL
MODEL 6
REMARK VINA RESULT:    -5.320      1.449      3.383
REMARK INTER + INTRA:          -6.549
REMARK INTER:                  -6.253
REMARK INTRA:                  -0.296
REMARK UNBOUND:                -0.295
REMARK SMILES O=c1c(O)c(-c2ccc(O)cc2)oc2cc(O)cc(O)c12
REMARK SMILES IDX 5 1 3 2 2 3 1 4 21 5 19 6 18 7 16 8 15 9 14 10 13 11 6 12
REMARK SMILES IDX 7 13 8 14 9 15 12 16 11 17 10 18 4 20 20 22 17 24
REMARK H PARENT 10 19 4 21 20 23 17 25
REMARK Flexibility Score: inf
ROOT
ATOM      1  C   UNL     1     124.883 132.924 111.532  1.00  0.00     0.180 A 
ATOM      2  C   UNL     1     125.341 134.233 111.302  1.00  0.00     0.208 A 
ATOM      3  C   UNL     1     126.715 134.450 111.111  1.00  0.00     0.238 A 
ATOM      4  O   UNL     1     127.108 135.612 110.832  1.00  0.00    -0.285 OA
ATOM      5  C   UNL     1     127.621 133.366 111.207  1.00  0.00     0.111 A 
ATOM      6  C   UNL     1     129.038 133.477 111.076  1.00  0.00     0.134 A 
ATOM      7  C   UNL     1     129.826 132.318 111.085  1.00  0.00     0.093 A 
ATOM      8  C   UNL     1     129.257 131.062 111.283  1.00  0.00     0.123 A 
ATOM      9  C   UNL     1     127.878 130.947 111.468  1.00  0.00     0.094 A 
ATOM     10  C   UNL     1     127.061 132.079 111.425  1.00  0.00     0.146 A 
ATOM     11  O   UNL     1     125.753 131.922 111.584  1.00  0.00    -0.452 OA
ENDROOT
BRANCH   1  12
ATOM     12  C   UNL     1     123.450 132.613 111.727  1.00  0.00     0.021 A 
ATOM     13  C   UNL     1     122.918 132.586 113.028  1.00  0.00     0.016 A 
ATOM     14  C   UNL     1     121.572 132.274 113.238  1.00  0.00     0.047 A 
ATOM     15  C   UNL     1     120.743 131.968 112.151  1.00  0.00     0.115 A 
ATOM     16  C   UNL     1     122.614 132.286 110.643  1.00  0.00     0.016 A 
ATOM     17  C   UNL     1     121.269 131.972 110.856  1.00  0.00     0.047 A 
BRANCH  15  18
ATOM     18  O   UNL     1     119.400 131.656 112.347  1.00  0.00    -0.508 OA
ATOM     19  H   UNL     1     118.968 131.731 113.261  1.00  0.00     0.293 HD
ENDBRANCH  15  18
ENDBRANCH   1  12
BRANCH   2  20
ATOM     20  O   UNL     1     124.440 135.301 111.286  1.00  0.00    -0.502 OA
ATOM     21  H   UNL     1     123.652 135.357 111.920  1.00  0.00     0.293 HD
ENDBRANCH   2  20
BRANCH   6  22
ATOM     22  O   UNL     1     129.721 134.692 110.961  1.00  0.00    -0.507 OA
ATOM     23  H   UNL     1     129.560 135.503 111.539  1.00  0.00     0.293 HD
ENDBRANCH   6  22
BRANCH   8  24
ATOM     24  O   UNL     1     130.073 129.933 111.304  1.00  0.00    -0.508 OA
ATOM     25  H   UNL     1     129.853 129.111 110.754  1.00  0.00     0.293 HD
ENDBRANCH   8  24
TORSDOF 5
ENDMDL
MODEL 7
REMARK VINA RESULT:    -5.214      1.818      3.513
REMARK INTER + INTRA:          -6.424
REMARK INTER:                  -6.144
REMARK INTRA:                  -0.279
REMARK UNBOUND:                -0.295
REMARK SMILES O=c1c(O)c(-c2ccc(O)cc2)oc2cc(O)cc(O)c12
REMARK SMILES IDX 5 1 3 2 2 3 1 4 21 5 19 6 18 7 16 8 15 9 14 10 13 11 6 12
REMARK SMILES IDX 7 13 8 14 9 15 12 16 11 17 10 18 4 20 20 22 17 24
REMARK H PARENT 10 19 4 21 20 23 17 25
REMARK Flexibility Score: inf
ROOT
ATOM      1  C   UNL     1     126.793 134.336 110.759  1.00  0.00     0.180 A 
ATOM      2  C   UNL     1     126.507 135.668 110.414  1.00  0.00     0.208 A 
ATOM      3  C   UNL     1     127.498 136.437 109.783  1.00  0.00     0.238 A 
ATOM      4  O   UNL     1     127.210 137.604 109.411  1.00  0.00    -0.285 OA
ATOM      5  C   UNL     1     128.781 135.883 109.555  1.00  0.00     0.111 A 
ATOM      6  C   UNL     1     129.876 136.584 108.965  1.00  0.00     0.134 A 
ATOM      7  C   UNL     1     131.068 135.901 108.692  1.00  0.00     0.093 A 
ATOM      8  C   UNL     1     131.228 134.562 109.045  1.00  0.00     0.123 A 
ATOM      9  C   UNL     1     130.183 133.881 109.673  1.00  0.00     0.094 A 
ATOM     10  C   UNL     1     128.969 134.524 109.923  1.00  0.00     0.146 A 
ATOM     11  O   UNL     1     127.995 133.834 110.503  1.00  0.00    -0.452 OA
ENDROOT
BRANCH   1  12
ATOM     12  C   UNL     1     125.796 133.459 111.412  1.00  0.00     0.021 A 
ATOM     13  C   UNL     1     124.846 132.786 110.624  1.00  0.00     0.016 A 
ATOM     14  C   UNL     1     123.881 131.969 111.220  1.00  0.00     0.047 A 
ATOM     15  C   UNL     1     123.843 131.826 112.613  1.00  0.00     0.115 A 
ATOM     16  C   UNL     1     125.739 133.324 112.811  1.00  0.00     0.016 A 
ATOM     17  C   UNL     1     124.772 132.508 113.405  1.00  0.00     0.047 A 
BRANCH  15  18
ATOM     18  O   UNL     1     122.887 131.014 113.219  1.00  0.00    -0.508 OA
ATOM     19  H   UNL     1     122.043 130.738 112.731  1.00  0.00     0.293 HD
ENDBRANCH  15  18
ENDBRANCH   1  12
BRANCH   2  20
ATOM     20  O   UNL     1     125.259 136.221 110.716  1.00  0.00    -0.502 OA
ATOM     21  H   UNL     1     124.995 137.156 110.431  1.00  0.00     0.293 HD
ENDBRANCH   2  20
BRANCH   6  22
ATOM     22  O   UNL     1     129.855 137.947 108.653  1.00  0.00    -0.507 OA
ATOM     23  H   UNL     1     129.704 138.326 107.730  1.00  0.00     0.293 HD
ENDBRANCH   6  22
BRANCH   8  24
ATOM     24  O   UNL     1     132.434 133.919 108.774  1.00  0.00    -0.508 OA
ATOM     25  H   UNL     1     132.812 133.218 109.400  1.00  0.00     0.293 HD
ENDBRANCH   8  24
TORSDOF 5
ENDMDL
MODEL 8
REMARK VINA RESULT:    -5.169      1.788      6.596
REMARK INTER + INTRA:          -6.370
REMARK INTER:                  -6.085
REMARK INTRA:                  -0.285
REMARK UNBOUND:                -0.295
REMARK SMILES O=c1c(O)c(-c2ccc(O)cc2)oc2cc(O)cc(O)c12
REMARK SMILES IDX 5 1 3 2 2 3 1 4 21 5 19 6 18 7 16 8 15 9 14 10 13 11 6 12
REMARK SMILES IDX 7 13 8 14 9 15 12 16 11 17 10 18 4 20 20 22 17 24
REMARK H PARENT 10 19 4 21 20 23 17 25
REMARK Flexibility Score: inf
ROOT
ATOM      1  C   UNL     1     125.675 134.456 110.630  1.00  0.00     0.180 A 
ATOM      2  C   UNL     1     126.138 133.560 111.608  1.00  0.00     0.208 A 
ATOM      3  C   UNL     1     125.229 132.672 112.205  1.00  0.00     0.238 A 
ATOM      4  O   UNL     1     125.665 131.823 113.025  1.00  0.00    -0.285 OA
ATOM      5  C   UNL     1     123.857 132.729 111.858  1.00  0.00     0.111 A 
ATOM      6  C   UNL     1     122.839 131.910 112.432  1.00  0.00     0.134 A 
ATOM      7  C   UNL     1     121.532 131.981 111.934  1.00  0.00     0.093 A 
ATOM      8  C   UNL     1     121.192 132.885 110.930  1.00  0.00     0.123 A 
ATOM      9  C   UNL     1     122.167 133.731 110.399  1.00  0.00     0.094 A 
ATOM     10  C   UNL     1     123.488 133.656 110.848  1.00  0.00     0.146 A 
ATOM     11  O   UNL     1     124.388 134.464 110.301  1.00  0.00    -0.452 OA
ENDROOT
BRANCH   1  12
ATOM     12  C   UNL     1     126.575 135.410 109.944  1.00  0.00     0.021 A 
ATOM     13  C   UNL     1     127.191 135.035 108.738  1.00  0.00     0.016 A 
ATOM     14  C   UNL     1     128.062 135.912 108.084  1.00  0.00     0.047 A 
ATOM     15  C   UNL     1     128.339 137.170 108.635  1.00  0.00     0.115 A 
ATOM     16  C   UNL     1     126.874 136.668 110.501  1.00  0.00     0.016 A 
ATOM     17  C   UNL     1     127.746 137.542 109.845  1.00  0.00     0.047 A 
BRANCH  15  18
ATOM     18  O   UNL     1     129.205 138.052 107.993  1.00  0.00    -0.508 OA
ATOM     19  H   UNL     1     129.933 138.542 108.500  1.00  0.00     0.293 HD
ENDBRANCH  15  18
ENDBRANCH   1  12
BRANCH   2  20
ATOM     20  O   UNL     1     127.482 133.571 111.992  1.00  0.00    -0.502 OA
ATOM     21  H   UNL     1     127.794 133.228 112.892  1.00  0.00     0.293 HD
ENDBRANCH   2  20
BRANCH   6  22
ATOM     22  O   UNL     1     123.050 131.033 113.501  1.00  0.00    -0.507 OA
ATOM     23  H   UNL     1     123.595 130.186 113.455  1.00  0.00     0.293 HD
ENDBRANCH   6  22
BRANCH   8  24
ATOM     24  O   UNL     1     119.877 132.941 110.472  1.00  0.00    -0.508 OA
ATOM     25  H   UNL     1     119.295 132.112 110.432  1.00  0.00     0.293 HD
ENDBRANCH   8  24
TORSDOF 5
ENDMDL
MODEL 9
REMARK VINA RESULT:    -5.110     10.007     12.978
REMARK INTER + INTRA:          -6.302
REMARK INTER:                  -6.035
REMARK INTRA:                  -0.266
REMARK UNBOUND:                -0.295
REMARK SMILES O=c1c(O)c(-c2ccc(O)cc2)oc2cc(O)cc(O)c12
REMARK SMILES IDX 5 1 3 2 2 3 1 4 21 5 19 6 18 7 16 8 15 9 14 10 13 11 6 12
REMARK SMILES IDX 7 13 8 14 9 15 12 16 11 17 10 18 4 20 20 22 17 24
REMARK H PARENT 10 19 4 21 20 23 17 25
REMARK Flexibility Score: inf
ROOT
ATOM      1  C   UNL     1     131.811 124.069 111.138  1.00  0.00     0.180 A 
ATOM      2  C   UNL     1     132.120 123.631 109.839  1.00  0.00     0.208 A 
ATOM      3  C   UNL     1     131.353 122.604 109.266  1.00  0.00     0.238 A 
ATOM      4  O   UNL     1     131.587 122.269 108.076  1.00  0.00    -0.285 OA
ATOM      5  C   UNL     1     130.322 121.990 110.018  1.00  0.00     0.111 A 
ATOM      6  C   UNL     1     129.511 120.911 109.554  1.00  0.00     0.134 A 
ATOM      7  C   UNL     1     128.450 120.454 110.348  1.00  0.00     0.093 A 
ATOM      8  C   UNL     1     128.212 120.991 111.611  1.00  0.00     0.123 A 
ATOM      9  C   UNL     1     129.033 122.009 112.097  1.00  0.00     0.094 A 
ATOM     10  C   UNL     1     130.074 122.513 111.315  1.00  0.00     0.146 A 
ATOM     11  O   UNL     1     130.817 123.496 111.807  1.00  0.00    -0.452 OA
ENDROOT
BRANCH   1  12
ATOM     12  C   UNL     1     132.564 125.156 111.804  1.00  0.00     0.021 A 
ATOM     13  C   UNL     1     133.786 124.866 112.433  1.00  0.00     0.016 A 
ATOM     14  C   UNL     1     134.504 125.872 113.087  1.00  0.00     0.047 A 
ATOM     15  C   UNL     1     134.001 127.179 113.133  1.00  0.00     0.115 A 
ATOM     16  C   UNL     1     132.056 126.467 111.872  1.00  0.00     0.016 A 
ATOM     17  C   UNL     1     132.775 127.471 112.527  1.00  0.00     0.047 A 
BRANCH  15  18
ATOM     18  O   UNL     1     134.706 128.190 113.781  1.00  0.00    -0.508 OA
ATOM     19  H   UNL     1     135.101 128.971 113.269  1.00  0.00     0.293 HD
ENDBRANCH  15  18
ENDBRANCH   1  12
BRANCH   2  20
ATOM     20  O   UNL     1     133.190 124.198 109.141  1.00  0.00    -0.502 OA
ATOM     21  H   UNL     1     134.155 124.055 109.415  1.00  0.00     0.293 HD
ENDBRANCH   2  20
BRANCH   6  22
ATOM     22  O   UNL     1     129.716 120.241 108.345  1.00  0.00    -0.507 OA
ATOM     23  H   UNL     1     130.169 120.635 107.535  1.00  0.00     0.293 HD
ENDBRANCH   6  22
BRANCH   8  24
ATOM     24  O   UNL     1     127.159 120.499 112.379  1.00  0.00    -0.508 OA
ATOM     25  H   UNL     1     126.916 120.913 113.272  1.00  0.00     0.293 HD
ENDBRANCH   8  24
TORSDOF 5
ENDMDL
