MODEL 1
REMARK VINA RESULT:    -6.024      0.000      0.000
REMARK INTER + INTRA:         -20.662
REMARK INTER:                 -15.885
REMARK INTRA:                  -4.778
REMARK UNBOUND:                -4.778
REMARK SMILES CCCCCCCCCCCCCCCCCCCCCCCCCCCCCC(=O)[O-]
REMARK SMILES IDX 16 1 17 2 18 3 19 4 20 5 21 6 22 7 23 8 24 9 25 10 26 11
REMARK SMILES IDX 27 12 28 13 29 14 30 15 31 16 32 17 15 18 14 19 13 20 12 21
REMARK SMILES IDX 11 22 10 23 9 24 8 25 7 26 6 27 5 28 4 29 3 30 2 31 1 32
REMARK H PARENT
REMARK Flexibility Score: inf
ROOT
ATOM      1  C   UNL     1      -8.230  -5.489  11.737  1.00  0.00     0.000 C 
ENDROOT
BRANCH   1   2
ATOM      2  C   UNL     1      -7.286  -5.068  12.875  1.00  0.00     0.000 C 
BRANCH   2   3
ATOM      3  C   UNL     1      -7.193  -3.541  13.032  1.00  0.00     0.000 C 
BRANCH   3   4
ATOM      4  C   UNL     1      -8.529  -2.901  13.436  1.00  0.00     0.000 C 
BRANCH   4   5
ATOM      5  C   UNL     1      -8.393  -1.376  13.556  1.00  0.00     0.000 C 
BRANCH   5   6
ATOM      6  C   UNL     1      -9.537  -0.616  12.861  1.00  0.00     0.000 C 
BRANCH   6   7
ATOM      7  C   UNL     1     -10.834  -1.427  12.680  1.00  0.00     0.000 C 
BRANCH   7   8
ATOM      8  C   UNL     1     -11.968  -0.603  12.053  1.00  0.00     0.000 C 
BRANCH   8   9
ATOM      9  C   UNL     1     -13.285  -1.394  12.055  1.00  0.00     0.000 C 
BRANCH   9  10
ATOM     10  C   UNL     1     -13.614  -2.008  13.429  1.00  0.00     0.000 C 
BRANCH  10  11
ATOM     11  C   UNL     1     -14.196  -3.435  13.383  1.00  0.00     0.000 C 
BRANCH  11  12
ATOM     12  C   UNL     1     -13.193  -4.540  12.998  1.00  0.00     0.000 C 
BRANCH  12  13
ATOM     13  C   UNL     1     -13.192  -4.926  11.505  1.00  0.00     0.006 C 
BRANCH  13  14
ATOM     14  C   UNL     1     -11.897  -4.568  10.758  1.00  0.00     0.053 C 
BRANCH  14  15
ATOM     15  C   UNL     1     -11.667  -5.460   9.578  1.00  0.00     0.041 C 
ATOM     16  O   UNL     1     -12.635  -6.061   9.038  1.00  0.00    -0.550 OA
ATOM     17  O   UNL     1     -10.381  -5.660   9.097  1.00  0.00    -0.550 OA
ENDBRANCH  14  15
ENDBRANCH  13  14
ENDBRANCH  12  13
ENDBRANCH  11  12
ENDBRANCH  10  11
ENDBRANCH   9  10
ENDBRANCH   8   9
ENDBRANCH   7   8
ENDBRANCH   6   7
ENDBRANCH   5   6
ENDBRANCH   4   5
ENDBRANCH   3   4
ENDBRANCH   2   3
ENDBRANCH   1   2
BRANCH   1  18
ATOM     18  C   UNL     1      -9.000  -6.768  12.102  1.00  0.00     0.000 C 
BRANCH  18  19
ATOM     19  C   UNL     1     -10.124  -6.517  13.120  1.00  0.00     0.000 C 
BRANCH  19  20
ATOM     20  C   UNL     1     -10.758  -7.785  13.728  1.00  0.00     0.000 C 
BRANCH  20  21
ATOM     21  C   UNL     1     -10.971  -7.716  15.256  1.00  0.00     0.000 C 
BRANCH  21  22
ATOM     22  C   UNL     1     -11.488  -6.345  15.727  1.00  0.00     0.000 C 
BRANCH  22  23
ATOM     23  C   UNL     1     -10.372  -5.294  15.857  1.00  0.00     0.000 C 
BRANCH  23  24
ATOM     24  C   UNL     1     -10.837  -3.851  15.567  1.00  0.00    -0.000 C 
BRANCH  24  25
ATOM     25  C   UNL     1     -11.984  -3.419  16.500  1.00  0.00    -0.000 C 
BRANCH  25  26
ATOM     26  C   UNL     1     -11.493  -2.649  17.737  1.00  0.00    -0.000 C 
BRANCH  26  27
ATOM     27  C   UNL     1     -10.012  -2.246  17.635  1.00  0.00    -0.000 C 
BRANCH  27  28
ATOM     28  C   UNL     1      -9.121  -2.952  18.675  1.00  0.00    -0.000 C 
BRANCH  28  29
ATOM     29  C   UNL     1      -7.630  -3.058  18.304  1.00  0.00    -0.000 C 
BRANCH  29  30
ATOM     30  C   UNL     1      -7.379  -2.982  16.789  1.00  0.00    -0.000 C 
BRANCH  30  31
ATOM     31  C   UNL     1      -5.923  -2.621  16.451  1.00  0.00    -0.003 C 
ATOM     32  C   UNL     1      -5.017  -2.591  17.684  1.00  0.00     0.004 C 
ENDBRANCH  30  31
ENDBRANCH  29  30
ENDBRANCH  28  29
ENDBRANCH  27  28
ENDBRANCH  26  27
ENDBRANCH  25  26
ENDBRANCH  24  25
ENDBRANCH  23  24
ENDBRANCH  22  23
ENDBRANCH  21  22
ENDBRANCH  20  21
ENDBRANCH  19  20
ENDBRANCH  18  19
ENDBRANCH   1  18
TORSDOF 28
ENDMDL
MODEL 2
REMARK VINA RESULT:    -6.007      1.500      3.313
REMARK INTER + INTRA:         -20.618
REMARK INTER:                 -14.509
REMARK INTRA:                  -6.110
REMARK UNBOUND:                -4.778
REMARK SMILES CCCCCCCCCCCCCCCCCCCCCCCCCCCCCC(=O)[O-]
REMARK SMILES IDX 16 1 17 2 18 3 19 4 20 5 21 6 22 7 23 8 24 9 25 10 26 11
REMARK SMILES IDX 27 12 28 13 29 14 30 15 31 16 32 17 15 18 14 19 13 20 12 21
REMARK SMILES IDX 11 22 10 23 9 24 8 25 7 26 6 27 5 28 4 29 3 30 2 31 1 32
REMARK H PARENT
REMARK Flexibility Score: inf
ROOT
ATOM      1  C   UNL     1     -12.488  -5.945  10.892  1.00  0.00     0.000 C 
ENDROOT
BRANCH   1   2
ATOM      2  C   UNL     1     -11.506  -4.905  10.331  1.00  0.00     0.000 C 
BRANCH   2   3
ATOM      3  C   UNL     1     -10.225  -4.785  11.174  1.00  0.00     0.000 C 
BRANCH   3   4
ATOM      4  C   UNL     1      -9.295  -5.997  11.021  1.00  0.00     0.000 C 
BRANCH   4   5
ATOM      5  C   UNL     1      -8.129  -5.924  12.017  1.00  0.00     0.000 C 
BRANCH   5   6
ATOM      6  C   UNL     1      -8.185  -4.674  12.914  1.00  0.00     0.000 C 
BRANCH   6   7
ATOM      7  C   UNL     1      -7.040  -3.668  12.692  1.00  0.00     0.000 C 
BRANCH   7   8
ATOM      8  C   UNL     1      -7.470  -2.214  12.935  1.00  0.00     0.000 C 
BRANCH   8   9
ATOM      9  C   UNL     1      -8.917  -2.149  13.446  1.00  0.00     0.000 C 
BRANCH   9  10
ATOM     10  C   UNL     1      -9.707  -0.964  12.859  1.00  0.00     0.000 C 
BRANCH  10  11
ATOM     11  C   UNL     1     -11.106  -1.319  12.316  1.00  0.00     0.000 C 
BRANCH  11  12
ATOM     12  C   UNL     1     -11.953  -2.227  13.229  1.00  0.00     0.000 C 
BRANCH  12  13
ATOM     13  C   UNL     1     -13.479  -2.070  13.067  1.00  0.00     0.006 C 
BRANCH  13  14
ATOM     14  C   UNL     1     -13.953  -1.943  11.611  1.00  0.00     0.053 C 
BRANCH  14  15
ATOM     15  C   UNL     1     -14.829  -3.089  11.206  1.00  0.00     0.041 C 
ATOM     16  O   UNL     1     -15.316  -3.855  12.080  1.00  0.00    -0.550 OA
ATOM     17  O   UNL     1     -15.076  -3.334   9.863  1.00  0.00    -0.550 OA
ENDBRANCH  14  15
ENDBRANCH  13  14
ENDBRANCH  12  13
ENDBRANCH  11  12
ENDBRANCH  10  11
ENDBRANCH   9  10
ENDBRANCH   8   9
ENDBRANCH   7   8
ENDBRANCH   6   7
ENDBRANCH   5   6
ENDBRANCH   4   5
ENDBRANCH   3   4
ENDBRANCH   2   3
ENDBRANCH   1   2
BRANCH   1  18
ATOM     18  C   UNL     1     -12.741  -5.716  12.391  1.00  0.00     0.000 C 
BRANCH  18  19
ATOM     19  C   UNL     1     -12.641  -7.008  13.217  1.00  0.00     0.000 C 
BRANCH  19  20
ATOM     20  C   UNL     1     -11.218  -7.395  13.668  1.00  0.00     0.000 C 
BRANCH  20  21
ATOM     21  C   UNL     1     -11.024  -7.418  15.199  1.00  0.00     0.000 C 
BRANCH  21  22
ATOM     22  C   UNL     1     -10.166  -6.247  15.712  1.00  0.00     0.000 C 
BRANCH  22  23
ATOM     23  C   UNL     1     -10.735  -4.871  15.325  1.00  0.00     0.000 C 
BRANCH  23  24
ATOM     24  C   UNL     1     -12.027  -4.496  16.082  1.00  0.00    -0.000 C 
BRANCH  24  25
ATOM     25  C   UNL     1     -11.821  -3.277  17.001  1.00  0.00    -0.000 C 
BRANCH  25  26
ATOM     26  C   UNL     1     -10.440  -2.623  16.829  1.00  0.00    -0.000 C 
BRANCH  26  27
ATOM     27  C   UNL     1      -9.607  -2.649  18.121  1.00  0.00    -0.000 C 
BRANCH  27  28
ATOM     28  C   UNL     1      -8.138  -3.046  17.884  1.00  0.00    -0.000 C 
BRANCH  28  29
ATOM     29  C   UNL     1      -7.809  -3.544  16.463  1.00  0.00    -0.000 C 
BRANCH  29  30
ATOM     30  C   UNL     1      -6.303  -3.532  16.154  1.00  0.00    -0.000 C 
BRANCH  30  31
ATOM     31  C   UNL     1      -5.589  -2.309  16.753  1.00  0.00    -0.003 C 
ATOM     32  C   UNL     1      -5.318  -1.214  15.719  1.00  0.00     0.004 C 
ENDBRANCH  30  31
ENDBRANCH  29  30
ENDBRANCH  28  29
ENDBRANCH  27  28
ENDBRANCH  26  27
ENDBRANCH  25  26
ENDBRANCH  24  25
ENDBRANCH  23  24
ENDBRANCH  22  23
ENDBRANCH  21  22
ENDBRANCH  20  21
ENDBRANCH  19  20
ENDBRANCH  18  19
ENDBRANCH   1  18
TORSDOF 28
ENDMDL
MODEL 3
REMARK VINA RESULT:    -5.962      2.314      5.070
REMARK INTER + INTRA:         -20.499
REMARK INTER:                 -15.402
REMARK INTRA:                  -5.097
REMARK UNBOUND:                -4.778
REMARK SMILES CCCCCCCCCCCCCCCCCCCCCCCCCCCCCC(=O)[O-]
REMARK SMILES IDX 16 1 17 2 18 3 19 4 20 5 21 6 22 7 23 8 24 9 25 10 26 11
REMARK SMILES IDX 27 12 28 13 29 14 30 15 31 16 32 17 15 18 14 19 13 20 12 21
REMARK SMILES IDX 11 22 10 23 9 24 8 25 7 26 6 27 5 28 4 29 3 30 2 31 1 32
REMARK H PARENT
REMARK Flexibility Score: inf
ROOT
ATOM      1  C   UNL     1     -10.251  -5.252  10.965  1.00  0.00     0.000 C 
ENDROOT
BRANCH   1   2
ATOM      2  C   UNL     1     -10.778  -5.664   9.581  1.00  0.00     0.000 C 
BRANCH   2   3
ATOM      3  C   UNL     1     -12.313  -5.619   9.496  1.00  0.00     0.000 C 
BRANCH   3   4
ATOM      4  C   UNL     1     -12.954  -4.858  10.665  1.00  0.00     0.000 C 
BRANCH   4   5
ATOM      5  C   UNL     1     -14.313  -4.270  10.258  1.00  0.00     0.000 C 
BRANCH   5   6
ATOM      6  C   UNL     1     -15.072  -3.641  11.439  1.00  0.00     0.000 C 
BRANCH   6   7
ATOM      7  C   UNL     1     -14.653  -4.163  12.826  1.00  0.00     0.000 C 
BRANCH   7   8
ATOM      8  C   UNL     1     -14.799  -3.106  13.930  1.00  0.00     0.000 C 
BRANCH   8   9
ATOM      9  C   UNL     1     -13.566  -2.190  13.977  1.00  0.00     0.000 C 
BRANCH   9  10
ATOM     10  C   UNL     1     -13.403  -1.338  12.704  1.00  0.00     0.000 C 
BRANCH  10  11
ATOM     11  C   UNL     1     -12.014  -1.418  12.040  1.00  0.00     0.000 C 
BRANCH  11  12
ATOM     12  C   UNL     1     -11.034  -2.416  12.687  1.00  0.00     0.000 C 
BRANCH  12  13
ATOM     13  C   UNL     1      -9.561  -1.957  12.713  1.00  0.00     0.006 C 
BRANCH  13  14
ATOM     14  C   UNL     1      -9.342  -0.561  13.316  1.00  0.00     0.053 C 
BRANCH  14  15
ATOM     15  C   UNL     1      -7.890  -0.196  13.367  1.00  0.00     0.041 C 
ATOM     16  O   UNL     1      -7.527   0.992  13.154  1.00  0.00    -0.550 OA
ATOM     17  O   UNL     1      -6.935  -1.173  13.611  1.00  0.00    -0.550 OA
ENDBRANCH  14  15
ENDBRANCH  13  14
ENDBRANCH  12  13
ENDBRANCH  11  12
ENDBRANCH  10  11
ENDBRANCH   9  10
ENDBRANCH   8   9
ENDBRANCH   7   8
ENDBRANCH   6   7
ENDBRANCH   5   6
ENDBRANCH   4   5
ENDBRANCH   3   4
ENDBRANCH   2   3
ENDBRANCH   1   2
BRANCH   1  18
ATOM     18  C   UNL     1      -8.935  -5.974  11.292  1.00  0.00     0.000 C 
BRANCH  18  19
ATOM     19  C   UNL     1      -8.418  -5.659  12.706  1.00  0.00     0.000 C 
BRANCH  19  20
ATOM     20  C   UNL     1      -7.095  -4.869  12.764  1.00  0.00     0.000 C 
BRANCH  20  21
ATOM     21  C   UNL     1      -6.622  -4.529  14.193  1.00  0.00     0.000 C 
BRANCH  21  22
ATOM     22  C   UNL     1      -7.737  -4.679  15.244  1.00  0.00     0.000 C 
BRANCH  22  23
ATOM     23  C   UNL     1      -8.186  -3.334  15.841  1.00  0.00     0.000 C 
BRANCH  23  24
ATOM     24  C   UNL     1      -7.771  -3.137  17.315  1.00  0.00    -0.000 C 
BRANCH  24  25
ATOM     25  C   UNL     1      -8.988  -2.891  18.226  1.00  0.00    -0.000 C 
BRANCH  25  26
ATOM     26  C   UNL     1     -10.148  -2.190  17.501  1.00  0.00    -0.000 C 
BRANCH  26  27
ATOM     27  C   UNL     1     -11.489  -2.923  17.680  1.00  0.00    -0.000 C 
BRANCH  27  28
ATOM     28  C   UNL     1     -12.036  -3.509  16.365  1.00  0.00    -0.000 C 
BRANCH  28  29
ATOM     29  C   UNL     1     -11.506  -4.907  15.993  1.00  0.00    -0.000 C 
BRANCH  29  30
ATOM     30  C   UNL     1     -11.534  -5.179  14.480  1.00  0.00    -0.000 C 
BRANCH  30  31
ATOM     31  C   UNL     1     -11.694  -6.672  14.153  1.00  0.00    -0.003 C 
ATOM     32  C   UNL     1     -11.375  -7.579  15.345  1.00  0.00     0.004 C 
ENDBRANCH  30  31
ENDBRANCH  29  30
ENDBRANCH  28  29
ENDBRANCH  27  28
ENDBRANCH  26  27
ENDBRANCH  25  26
ENDBRANCH  24  25
ENDBRANCH  23  24
ENDBRANCH  22  23
ENDBRANCH  21  22
ENDBRANCH  20  21
ENDBRANCH  19  20
ENDBRANCH  18  19
ENDBRANCH   1  18
TORSDOF 28
ENDMDL
MODEL 4
REMARK VINA RESULT:    -5.938      2.873      6.653
REMARK INTER + INTRA:         -20.436
REMARK INTER:                 -15.092
REMARK INTRA:                  -5.344
REMARK UNBOUND:                -4.778
REMARK SMILES CCCCCCCCCCCCCCCCCCCCCCCCCCCCCC(=O)[O-]
REMARK SMILES IDX 16 1 17 2 18 3 19 4 20 5 21 6 22 7 23 8 24 9 25 10 26 11
REMARK SMILES IDX 27 12 28 13 29 14 30 15 31 16 32 17 15 18 14 19 13 20 12 21
REMARK SMILES IDX 11 22 10 23 9 24 8 25 7 26 6 27 5 28 4 29 3 30 2 31 1 32
REMARK H PARENT
REMARK Flexibility Score: inf
ROOT
ATOM      1  C   UNL     1     -14.730  -3.248  14.010  1.00  0.00     0.000 C 
ENDROOT
BRANCH   1   2
ATOM      2  C   UNL     1     -13.814  -2.015  13.966  1.00  0.00     0.000 C 
BRANCH   2   3
ATOM      3  C   UNL     1     -12.436  -2.323  13.358  1.00  0.00     0.000 C 
BRANCH   3   4
ATOM      4  C   UNL     1     -12.173  -1.551  12.057  1.00  0.00     0.000 C 
BRANCH   4   5
ATOM      5  C   UNL     1     -10.671  -1.295  11.865  1.00  0.00     0.000 C 
BRANCH   5   6
ATOM      6  C   UNL     1      -9.996  -0.716  13.120  1.00  0.00     0.000 C 
BRANCH   6   7
ATOM      7  C   UNL     1      -8.625  -1.330  13.458  1.00  0.00     0.000 C 
BRANCH   7   8
ATOM      8  C   UNL     1      -8.555  -2.834  13.155  1.00  0.00     0.000 C 
BRANCH   8   9
ATOM      9  C   UNL     1      -7.172  -3.218  12.608  1.00  0.00     0.000 C 
BRANCH   9  10
ATOM     10  C   UNL     1      -6.669  -4.570  13.147  1.00  0.00     0.000 C 
BRANCH  10  11
ATOM     11  C   UNL     1      -6.918  -4.807  14.650  1.00  0.00     0.000 C 
BRANCH  11  12
ATOM     12  C   UNL     1      -6.072  -3.937  15.600  1.00  0.00     0.000 C 
BRANCH  12  13
ATOM     13  C   UNL     1      -6.835  -2.776  16.272  1.00  0.00     0.006 C 
BRANCH  13  14
ATOM     14  C   UNL     1      -8.159  -3.185  16.932  1.00  0.00     0.053 C 
BRANCH  14  15
ATOM     15  C   UNL     1      -8.128  -2.989  18.417  1.00  0.00     0.041 C 
ATOM     16  O   UNL     1      -9.195  -2.776  19.052  1.00  0.00    -0.550 OA
ATOM     17  O   UNL     1      -6.917  -3.002  19.095  1.00  0.00    -0.550 OA
ENDBRANCH  14  15
ENDBRANCH  13  14
ENDBRANCH  12  13
ENDBRANCH  11  12
ENDBRANCH  10  11
ENDBRANCH   9  10
ENDBRANCH   8   9
ENDBRANCH   7   8
ENDBRANCH   6   7
ENDBRANCH   5   6
ENDBRANCH   4   5
ENDBRANCH   3   4
ENDBRANCH   2   3
ENDBRANCH   1   2
BRANCH   1  18
ATOM     18  C   UNL     1     -14.390  -4.231  12.879  1.00  0.00     0.000 C 
BRANCH  18  19
ATOM     19  C   UNL     1     -14.991  -3.817  11.526  1.00  0.00     0.000 C 
BRANCH  19  20
ATOM     20  C   UNL     1     -14.143  -4.175  10.290  1.00  0.00     0.000 C 
BRANCH  20  21
ATOM     21  C   UNL     1     -13.127  -5.313  10.526  1.00  0.00     0.000 C 
BRANCH  21  22
ATOM     22  C   UNL     1     -12.451  -5.792   9.229  1.00  0.00     0.000 C 
BRANCH  22  23
ATOM     23  C   UNL     1     -10.932  -5.552   9.219  1.00  0.00     0.000 C 
BRANCH  23  24
ATOM     24  C   UNL     1     -10.368  -5.072  10.574  1.00  0.00    -0.000 C 
BRANCH  24  25
ATOM     25  C   UNL     1      -9.208  -5.961  11.059  1.00  0.00    -0.000 C 
BRANCH  25  26
ATOM     26  C   UNL     1      -9.483  -6.614  12.424  1.00  0.00    -0.000 C 
BRANCH  26  27
ATOM     27  C   UNL     1     -10.749  -6.061  13.101  1.00  0.00    -0.000 C 
BRANCH  27  28
ATOM     28  C   UNL     1     -11.374  -7.045  14.107  1.00  0.00    -0.000 C 
BRANCH  28  29
ATOM     29  C   UNL     1     -11.051  -6.769  15.588  1.00  0.00    -0.000 C 
BRANCH  29  30
ATOM     30  C   UNL     1     -10.765  -5.285  15.875  1.00  0.00    -0.000 C 
BRANCH  30  31
ATOM     31  C   UNL     1     -12.051  -4.463  16.060  1.00  0.00    -0.003 C 
ATOM     32  C   UNL     1     -11.854  -3.245  16.965  1.00  0.00     0.004 C 
ENDBRANCH  30  31
ENDBRANCH  29  30
ENDBRANCH  28  29
ENDBRANCH  27  28
ENDBRANCH  26  27
ENDBRANCH  25  26
ENDBRANCH  24  25
ENDBRANCH  23  24
ENDBRANCH  22  23
ENDBRANCH  21  22
ENDBRANCH  20  21
ENDBRANCH  19  20
ENDBRANCH  18  19
ENDBRANCH   1  18
TORSDOF 28
ENDMDL
MODEL 5
REMARK VINA RESULT:    -5.922      1.714      4.957
REMARK INTER + INTRA:         -20.393
REMARK INTER:                 -14.544
REMARK INTRA:                  -5.850
REMARK UNBOUND:                -4.778
REMARK SMILES CCCCCCCCCCCCCCCCCCCCCCCCCCCCCC(=O)[O-]
REMARK SMILES IDX 16 1 17 2 18 3 19 4 20 5 21 6 22 7 23 8 24 9 25 10 26 11
REMARK SMILES IDX 27 12 28 13 29 14 30 15 31 16 32 17 15 18 14 19 13 20 12 21
REMARK SMILES IDX 11 22 10 23 9 24 8 25 7 26 6 27 5 28 4 29 3 30 2 31 1 32
REMARK H PARENT
REMARK Flexibility Score: inf
ROOT
ATOM      1  C   UNL     1     -10.731  -2.976  17.353  1.00  0.00     0.000 C 
ENDROOT
BRANCH   1   2
ATOM      2  C   UNL     1      -9.708  -3.657  16.430  1.00  0.00     0.000 C 
BRANCH   2   3
ATOM      3  C   UNL     1      -9.403  -5.104  16.850  1.00  0.00     0.000 C 
BRANCH   3   4
ATOM      4  C   UNL     1      -9.510  -6.098  15.685  1.00  0.00     0.000 C 
BRANCH   4   5
ATOM      5  C   UNL     1     -10.918  -6.708  15.612  1.00  0.00     0.000 C 
BRANCH   5   6
ATOM      6  C   UNL     1     -11.211  -7.376  14.257  1.00  0.00     0.000 C 
BRANCH   6   7
ATOM      7  C   UNL     1     -12.098  -6.548  13.308  1.00  0.00     0.000 C 
BRANCH   7   8
ATOM      8  C   UNL     1     -11.326  -5.430  12.594  1.00  0.00     0.000 C 
BRANCH   8   9
ATOM      9  C   UNL     1     -10.011  -5.964  12.005  1.00  0.00     0.000 C 
BRANCH   9  10
ATOM     10  C   UNL     1      -9.876  -5.694  10.495  1.00  0.00     0.000 C 
BRANCH  10  11
ATOM     11  C   UNL     1     -11.117  -5.063   9.833  1.00  0.00     0.000 C 
BRANCH  11  12
ATOM     12  C   UNL     1     -12.055  -6.055   9.118  1.00  0.00     0.000 C 
BRANCH  12  13
ATOM     13  C   UNL     1     -13.546  -5.658   9.119  1.00  0.00     0.006 C 
BRANCH  13  14
ATOM     14  C   UNL     1     -13.915  -4.583  10.152  1.00  0.00     0.053 C 
BRANCH  14  15
ATOM     15  C   UNL     1     -15.177  -3.866   9.786  1.00  0.00     0.041 C 
ATOM     16  O   UNL     1     -16.048  -4.435   9.074  1.00  0.00    -0.550 OA
ATOM     17  O   UNL     1     -15.377  -2.555  10.198  1.00  0.00    -0.550 OA
ENDBRANCH  14  15
ENDBRANCH  13  14
ENDBRANCH  12  13
ENDBRANCH  11  12
ENDBRANCH  10  11
ENDBRANCH   9  10
ENDBRANCH   8   9
ENDBRANCH   7   8
ENDBRANCH   6   7
ENDBRANCH   5   6
ENDBRANCH   4   5
ENDBRANCH   3   4
ENDBRANCH   2   3
ENDBRANCH   1   2
BRANCH   1  18
ATOM     18  C   UNL     1     -12.169  -3.343  16.952  1.00  0.00     0.000 C 
BRANCH  18  19
ATOM     19  C   UNL     1     -12.369  -3.391  15.428  1.00  0.00     0.000 C 
BRANCH  19  20
ATOM     20  C   UNL     1     -13.829  -3.258  14.951  1.00  0.00     0.000 C 
BRANCH  20  21
ATOM     21  C   UNL     1     -13.976  -2.813  13.479  1.00  0.00     0.000 C 
BRANCH  21  22
ATOM     22  C   UNL     1     -13.126  -1.576  13.140  1.00  0.00     0.000 C 
BRANCH  22  23
ATOM     23  C   UNL     1     -12.469  -1.662  11.751  1.00  0.00     0.000 C 
BRANCH  23  24
ATOM     24  C   UNL     1     -10.928  -1.570  11.784  1.00  0.00    -0.000 C 
BRANCH  24  25
ATOM     25  C   UNL     1     -10.425  -0.805  13.022  1.00  0.00    -0.000 C 
BRANCH  25  26
ATOM     26  C   UNL     1      -9.209  -1.472  13.687  1.00  0.00    -0.000 C 
BRANCH  26  27
ATOM     27  C   UNL     1      -8.793  -2.776  12.985  1.00  0.00    -0.000 C 
BRANCH  27  28
ATOM     28  C   UNL     1      -7.278  -3.044  13.061  1.00  0.00    -0.000 C 
BRANCH  28  29
ATOM     29  C   UNL     1      -6.879  -4.430  13.602  1.00  0.00    -0.000 C 
BRANCH  29  30
ATOM     30  C   UNL     1      -6.341  -4.383  15.042  1.00  0.00    -0.000 C 
BRANCH  30  31
ATOM     31  C   UNL     1      -6.545  -3.010  15.702  1.00  0.00    -0.003 C 
ATOM     32  C   UNL     1      -5.380  -2.606  16.608  1.00  0.00     0.004 C 
ENDBRANCH  30  31
ENDBRANCH  29  30
ENDBRANCH  28  29
ENDBRANCH  27  28
ENDBRANCH  26  27
ENDBRANCH  25  26
ENDBRANCH  24  25
ENDBRANCH  23  24
ENDBRANCH  22  23
ENDBRANCH  21  22
ENDBRANCH  20  21
ENDBRANCH  19  20
ENDBRANCH  18  19
ENDBRANCH   1  18
TORSDOF 28
ENDMDL
MODEL 6
REMARK VINA RESULT:    -5.909      2.967      7.314
REMARK INTER + INTRA:         -20.359
REMARK INTER:                 -15.480
REMARK INTRA:                  -4.879
REMARK UNBOUND:                -4.778
REMARK SMILES CCCCCCCCCCCCCCCCCCCCCCCCCCCCCC(=O)[O-]
REMARK SMILES IDX 16 1 17 2 18 3 19 4 20 5 21 6 22 7 23 8 24 9 25 10 26 11
REMARK SMILES IDX 27 12 28 13 29 14 30 15 31 16 32 17 15 18 14 19 13 20 12 21
REMARK SMILES IDX 11 22 10 23 9 24 8 25 7 26 6 27 5 28 4 29 3 30 2 31 1 32
REMARK H PARENT
REMARK Flexibility Score: inf
ROOT
ATOM      1  C   UNL     1      -9.968  -5.579  10.602  1.00  0.00     0.000 C 
ENDROOT
BRANCH   1   2
ATOM      2  C   UNL     1     -11.063  -5.201  11.611  1.00  0.00     0.000 C 
BRANCH   2   3
ATOM      3  C   UNL     1     -12.082  -6.332  11.830  1.00  0.00     0.000 C 
BRANCH   3   4
ATOM      4  C   UNL     1     -12.341  -6.621  13.315  1.00  0.00     0.000 C 
BRANCH   4   5
ATOM      5  C   UNL     1     -11.168  -7.394  13.937  1.00  0.00     0.000 C 
BRANCH   5   6
ATOM      6  C   UNL     1     -11.047  -7.180  15.456  1.00  0.00     0.000 C 
BRANCH   6   7
ATOM      7  C   UNL     1     -10.026  -6.107  15.877  1.00  0.00     0.000 C 
BRANCH   7   8
ATOM      8  C   UNL     1     -10.449  -4.688  15.469  1.00  0.00     0.000 C 
BRANCH   8   9
ATOM      9  C   UNL     1     -11.745  -4.277  16.185  1.00  0.00     0.000 C 
BRANCH   9  10
ATOM     10  C   UNL     1     -11.590  -2.987  17.011  1.00  0.00     0.000 C 
BRANCH  10  11
ATOM     11  C   UNL     1     -10.136  -2.522  17.228  1.00  0.00     0.000 C 
BRANCH  11  12
ATOM     12  C   UNL     1      -9.471  -3.026  18.523  1.00  0.00     0.000 C 
BRANCH  12  13
ATOM     13  C   UNL     1      -7.929  -3.009  18.513  1.00  0.00     0.006 C 
BRANCH  13  14
ATOM     14  C   UNL     1      -7.303  -2.995  17.111  1.00  0.00     0.053 C 
BRANCH  14  15
ATOM     15  C   UNL     1      -5.908  -2.452  17.126  1.00  0.00     0.041 C 
ATOM     16  O   UNL     1      -5.432  -1.896  16.100  1.00  0.00    -0.550 OA
ATOM     17  O   UNL     1      -5.119  -2.593  18.259  1.00  0.00    -0.550 OA
ENDBRANCH  14  15
ENDBRANCH  13  14
ENDBRANCH  12  13
ENDBRANCH  11  12
ENDBRANCH  10  11
ENDBRANCH   9  10
ENDBRANCH   8   9
ENDBRANCH   7   8
ENDBRANCH   6   7
ENDBRANCH   5   6
ENDBRANCH   4   5
ENDBRANCH   3   4
ENDBRANCH   2   3
ENDBRANCH   1   2
BRANCH   1  18
ATOM     18  C   UNL     1      -8.803  -6.304  11.295  1.00  0.00     0.000 C 
BRANCH  18  19
ATOM     19  C   UNL     1      -8.364  -5.617  12.598  1.00  0.00     0.000 C 
BRANCH  19  20
ATOM     20  C   UNL     1      -7.222  -4.591  12.451  1.00  0.00     0.000 C 
BRANCH  20  21
ATOM     21  C   UNL     1      -7.109  -3.597  13.626  1.00  0.00     0.000 C 
BRANCH  21  22
ATOM     22  C   UNL     1      -7.657  -2.200  13.284  1.00  0.00     0.000 C 
BRANCH  22  23
ATOM     23  C   UNL     1      -9.167  -2.066  13.546  1.00  0.00     0.000 C 
BRANCH  23  24
ATOM     24  C   UNL     1      -9.810  -0.834  12.874  1.00  0.00    -0.000 C 
BRANCH  24  25
ATOM     25  C   UNL     1     -11.178  -1.168  12.250  1.00  0.00    -0.000 C 
BRANCH  25  26
ATOM     26  C   UNL     1     -12.061  -2.031  13.167  1.00  0.00    -0.000 C 
BRANCH  26  27
ATOM     27  C   UNL     1     -13.557  -1.915  12.828  1.00  0.00    -0.000 C 
BRANCH  27  28
ATOM     28  C   UNL     1     -14.203  -3.268  12.478  1.00  0.00    -0.000 C 
BRANCH  28  29
ATOM     29  C   UNL     1     -14.186  -3.641  10.983  1.00  0.00    -0.000 C 
BRANCH  29  30
ATOM     30  C   UNL     1     -15.422  -3.132  10.222  1.00  0.00    -0.000 C 
BRANCH  30  31
ATOM     31  C   UNL     1     -16.325  -4.277   9.735  1.00  0.00    -0.003 C 
ATOM     32  C   UNL     1     -16.256  -4.487   8.221  1.00  0.00     0.004 C 
ENDBRANCH  30  31
ENDBRANCH  29  30
ENDBRANCH  28  29
ENDBRANCH  27  28
ENDBRANCH  26  27
ENDBRANCH  25  26
ENDBRANCH  24  25
ENDBRANCH  23  24
ENDBRANCH  22  23
ENDBRANCH  21  22
ENDBRANCH  20  21
ENDBRANCH  19  20
ENDBRANCH  18  19
ENDBRANCH   1  18
TORSDOF 28
ENDMDL
MODEL 7
REMARK VINA RESULT:    -5.885      1.772      4.147
REMARK INTER + INTRA:         -20.295
REMARK INTER:                 -14.985
REMARK INTRA:                  -5.309
REMARK UNBOUND:                -4.778
REMARK SMILES CCCCCCCCCCCCCCCCCCCCCCCCCCCCCC(=O)[O-]
REMARK SMILES IDX 16 1 17 2 18 3 19 4 20 5 21 6 22 7 23 8 24 9 25 10 26 11
REMARK SMILES IDX 27 12 28 13 29 14 30 15 31 16 32 17 15 18 14 19 13 20 12 21
REMARK SMILES IDX 11 22 10 23 9 24 8 25 7 26 6 27 5 28 4 29 3 30 2 31 1 32
REMARK H PARENT
REMARK Flexibility Score: inf
ROOT
ATOM      1  C   UNL     1     -12.358  -6.883  13.534  1.00  0.00     0.000 C 
ENDROOT
BRANCH   1   2
ATOM      2  C   UNL     1     -12.201  -6.291  12.125  1.00  0.00     0.000 C 
BRANCH   2   3
ATOM      3  C   UNL     1     -11.064  -5.259  12.040  1.00  0.00     0.000 C 
BRANCH   3   4
ATOM      4  C   UNL     1     -10.083  -5.547  10.895  1.00  0.00     0.000 C 
BRANCH   4   5
ATOM      5  C   UNL     1      -8.741  -6.061  11.438  1.00  0.00     0.000 C 
BRANCH   5   6
ATOM      6  C   UNL     1      -8.230  -5.247  12.640  1.00  0.00     0.000 C 
BRANCH   6   7
ATOM      7  C   UNL     1      -6.883  -4.537  12.414  1.00  0.00     0.000 C 
BRANCH   7   8
ATOM      8  C   UNL     1      -6.919  -3.052  12.800  1.00  0.00     0.000 C 
BRANCH   8   9
ATOM      9  C   UNL     1      -8.317  -2.649  13.294  1.00  0.00     0.000 C 
BRANCH   9  10
ATOM     10  C   UNL     1      -8.576  -1.134  13.192  1.00  0.00     0.000 C 
BRANCH  10  11
ATOM     11  C   UNL     1     -10.044  -0.741  12.932  1.00  0.00     0.000 C 
BRANCH  11  12
ATOM     12  C   UNL     1     -10.961  -1.892  12.476  1.00  0.00     0.000 C 
BRANCH  12  13
ATOM     13  C   UNL     1     -12.467  -1.556  12.459  1.00  0.00     0.006 C 
BRANCH  13  14
ATOM     14  C   UNL     1     -13.339  -2.511  13.288  1.00  0.00     0.053 C 
BRANCH  14  15
ATOM     15  C   UNL     1     -14.245  -3.333  12.425  1.00  0.00     0.041 C 
ATOM     16  O   UNL     1     -14.172  -3.252  11.169  1.00  0.00    -0.550 OA
ATOM     17  O   UNL     1     -15.197  -4.160  13.005  1.00  0.00    -0.550 OA
ENDBRANCH  14  15
ENDBRANCH  13  14
ENDBRANCH  12  13
ENDBRANCH  11  12
ENDBRANCH  10  11
ENDBRANCH   9  10
ENDBRANCH   8   9
ENDBRANCH   7   8
ENDBRANCH   6   7
ENDBRANCH   5   6
ENDBRANCH   4   5
ENDBRANCH   3   4
ENDBRANCH   2   3
ENDBRANCH   1   2
BRANCH   1  18
ATOM     18  C   UNL     1     -10.995  -7.282  14.122  1.00  0.00     0.000 C 
BRANCH  18  19
ATOM     19  C   UNL     1     -10.841  -6.882  15.598  1.00  0.00     0.000 C 
BRANCH  19  20
ATOM     20  C   UNL     1      -9.915  -5.678  15.862  1.00  0.00     0.000 C 
BRANCH  20  21
ATOM     21  C   UNL     1     -10.479  -4.326  15.374  1.00  0.00     0.000 C 
BRANCH  21  22
ATOM     22  C   UNL     1     -11.740  -3.891  16.141  1.00  0.00     0.000 C 
BRANCH  22  23
ATOM     23  C   UNL     1     -11.436  -2.918  17.294  1.00  0.00     0.000 C 
BRANCH  23  24
ATOM     24  C   UNL     1     -10.000  -2.352  17.269  1.00  0.00    -0.000 C 
BRANCH  24  25
ATOM     25  C   UNL     1      -9.177  -2.820  18.483  1.00  0.00    -0.000 C 
BRANCH  25  26
ATOM     26  C   UNL     1      -7.733  -3.202  18.117  1.00  0.00    -0.000 C 
BRANCH  26  27
ATOM     27  C   UNL     1      -7.393  -2.895  16.648  1.00  0.00    -0.000 C 
BRANCH  27  28
ATOM     28  C   UNL     1      -5.898  -2.600  16.424  1.00  0.00    -0.000 C 
BRANCH  28  29
ATOM     29  C   UNL     1      -5.029  -3.823  16.072  1.00  0.00    -0.000 C 
BRANCH  29  30
ATOM     30  C   UNL     1      -3.897  -4.068  17.084  1.00  0.00    -0.000 C 
BRANCH  30  31
ATOM     31  C   UNL     1      -2.762  -4.926  16.500  1.00  0.00    -0.003 C 
ATOM     32  C   UNL     1      -3.265  -6.222  15.861  1.00  0.00     0.004 C 
ENDBRANCH  30  31
ENDBRANCH  29  30
ENDBRANCH  28  29
ENDBRANCH  27  28
ENDBRANCH  26  27
ENDBRANCH  25  26
ENDBRANCH  24  25
ENDBRANCH  23  24
ENDBRANCH  22  23
ENDBRANCH  21  22
ENDBRANCH  20  21
ENDBRANCH  19  20
ENDBRANCH  18  19
ENDBRANCH   1  18
TORSDOF 28
ENDMDL
MODEL 8
REMARK VINA RESULT:    -5.871      2.051      5.397
REMARK INTER + INTRA:         -20.259
REMARK INTER:                 -14.865
REMARK INTRA:                  -5.394
REMARK UNBOUND:                -4.778
REMARK SMILES CCCCCCCCCCCCCCCCCCCCCCCCCCCCCC(=O)[O-]
REMARK SMILES IDX 16 1 17 2 18 3 19 4 20 5 21 6 22 7 23 8 24 9 25 10 26 11
REMARK SMILES IDX 27 12 28 13 29 14 30 15 31 16 32 17 15 18 14 19 13 20 12 21
REMARK SMILES IDX 11 22 10 23 9 24 8 25 7 26 6 27 5 28 4 29 3 30 2 31 1 32
REMARK H PARENT
REMARK Flexibility Score: inf
ROOT
ATOM      1  C   UNL     1     -10.264  -5.123  15.878  1.00  0.00     0.000 C 
ENDROOT
BRANCH   1   2
ATOM      2  C   UNL     1     -10.949  -6.429  15.445  1.00  0.00     0.000 C 
BRANCH   2   3
ATOM      3  C   UNL     1     -11.920  -6.226  14.270  1.00  0.00     0.000 C 
BRANCH   3   4
ATOM      4  C   UNL     1     -11.409  -6.846  12.961  1.00  0.00     0.000 C 
BRANCH   4   5
ATOM      5  C   UNL     1      -9.882  -6.727  12.857  1.00  0.00     0.000 C 
BRANCH   5   6
ATOM      6  C   UNL     1      -9.420  -6.088  11.535  1.00  0.00     0.000 C 
BRANCH   6   7
ATOM      7  C   UNL     1     -10.468  -5.190  10.851  1.00  0.00     0.000 C 
BRANCH   7   8
ATOM      8  C   UNL     1     -10.616  -5.484   9.351  1.00  0.00     0.000 C 
BRANCH   8   9
ATOM      9  C   UNL     1     -12.037  -5.969   9.027  1.00  0.00     0.000 C 
BRANCH   9  10
ATOM     10  C   UNL     1     -13.059  -5.608  10.120  1.00  0.00     0.000 C 
BRANCH  10  11
ATOM     11  C   UNL     1     -14.239  -4.734   9.647  1.00  0.00     0.000 C 
BRANCH  11  12
ATOM     12  C   UNL     1     -14.691  -3.647  10.641  1.00  0.00     0.000 C 
BRANCH  12  13
ATOM     13  C   UNL     1     -13.789  -3.485  11.882  1.00  0.00     0.006 C 
BRANCH  13  14
ATOM     14  C   UNL     1     -14.407  -4.005  13.189  1.00  0.00     0.053 C 
BRANCH  14  15
ATOM     15  C   UNL     1     -14.503  -2.932  14.229  1.00  0.00     0.041 C 
ATOM     16  O   UNL     1     -15.070  -3.164  15.330  1.00  0.00    -0.550 OA
ATOM     17  O   UNL     1     -14.001  -1.664  13.968  1.00  0.00    -0.550 OA
ENDBRANCH  14  15
ENDBRANCH  13  14
ENDBRANCH  12  13
ENDBRANCH  11  12
ENDBRANCH  10  11
ENDBRANCH   9  10
ENDBRANCH   8   9
ENDBRANCH   7   8
ENDBRANCH   6   7
ENDBRANCH   5   6
ENDBRANCH   4   5
ENDBRANCH   3   4
ENDBRANCH   2   3
ENDBRANCH   1   2
BRANCH   1  18
ATOM     18  C   UNL     1     -11.185  -3.913  15.651  1.00  0.00     0.000 C 
BRANCH  18  19
ATOM     19  C   UNL     1     -11.541  -3.183  16.956  1.00  0.00     0.000 C 
BRANCH  19  20
ATOM     20  C   UNL     1     -10.426  -2.291  17.538  1.00  0.00     0.000 C 
BRANCH  20  21
ATOM     21  C   UNL     1      -9.621  -2.947  18.680  1.00  0.00     0.000 C 
BRANCH  21  22
ATOM     22  C   UNL     1      -8.107  -2.984  18.402  1.00  0.00     0.000 C 
BRANCH  22  23
ATOM     23  C   UNL     1      -7.773  -2.988  16.900  1.00  0.00     0.000 C 
BRANCH  23  24
ATOM     24  C   UNL     1      -6.301  -2.640  16.589  1.00  0.00    -0.000 C 
BRANCH  24  25
ATOM     25  C   UNL     1      -5.703  -3.576  15.523  1.00  0.00    -0.000 C 
BRANCH  25  26
ATOM     26  C   UNL     1      -6.688  -4.661  15.056  1.00  0.00    -0.000 C 
BRANCH  26  27
ATOM     27  C   UNL     1      -6.769  -4.768  13.524  1.00  0.00    -0.000 C 
BRANCH  27  28
ATOM     28  C   UNL     1      -7.201  -3.452  12.849  1.00  0.00    -0.000 C 
BRANCH  28  29
ATOM     29  C   UNL     1      -8.572  -2.905  13.287  1.00  0.00    -0.000 C 
BRANCH  29  30
ATOM     30  C   UNL     1      -8.572  -1.381  13.500  1.00  0.00    -0.000 C 
BRANCH  30  31
ATOM     31  C   UNL     1      -9.868  -0.718  13.004  1.00  0.00    -0.003 C 
ATOM     32  C   UNL     1     -10.836  -1.713  12.360  1.00  0.00     0.004 C 
ENDBRANCH  30  31
ENDBRANCH  29  30
ENDBRANCH  28  29
ENDBRANCH  27  28
ENDBRANCH  26  27
ENDBRANCH  25  26
ENDBRANCH  24  25
ENDBRANCH  23  24
ENDBRANCH  22  23
ENDBRANCH  21  22
ENDBRANCH  20  21
ENDBRANCH  19  20
ENDBRANCH  18  19
ENDBRANCH   1  18
TORSDOF 28
ENDMDL
MODEL 9
REMARK VINA RESULT:    -5.800      2.095      6.393
REMARK INTER + INTRA:         -20.071
REMARK INTER:                 -15.482
REMARK INTRA:                  -4.589
REMARK UNBOUND:                -4.778
REMARK SMILES CCCCCCCCCCCCCCCCCCCCCCCCCCCCCC(=O)[O-]
REMARK SMILES IDX 16 1 17 2 18 3 19 4 20 5 21 6 22 7 23 8 24 9 25 10 26 11
REMARK SMILES IDX 27 12 28 13 29 14 30 15 31 16 32 17 15 18 14 19 13 20 12 21
REMARK SMILES IDX 11 22 10 23 9 24 8 25 7 26 6 27 5 28 4 29 3 30 2 31 1 32
REMARK H PARENT
REMARK Flexibility Score: inf
ROOT
ATOM      1  C   UNL     1     -11.159  -3.332  16.338  1.00  0.00     0.000 C 
ENDROOT
BRANCH   1   2
ATOM      2  C   UNL     1     -12.627  -3.664  16.027  1.00  0.00     0.000 C 
BRANCH   2   3
ATOM      3  C   UNL     1     -13.125  -2.990  14.738  1.00  0.00     0.000 C 
BRANCH   3   4
ATOM      4  C   UNL     1     -14.558  -3.399  14.366  1.00  0.00     0.000 C 
BRANCH   4   5
ATOM      5  C   UNL     1     -14.668  -3.713  12.867  1.00  0.00     0.000 C 
BRANCH   5   6
ATOM      6  C   UNL     1     -13.609  -4.721  12.386  1.00  0.00     0.000 C 
BRANCH   6   7
ATOM      7  C   UNL     1     -12.903  -4.338  11.072  1.00  0.00     0.000 C 
BRANCH   7   8
ATOM      8  C   UNL     1     -13.289  -5.252   9.900  1.00  0.00     0.000 C 
BRANCH   8   9
ATOM      9  C   UNL     1     -12.040  -5.864   9.248  1.00  0.00     0.000 C 
BRANCH   9  10
ATOM     10  C   UNL     1     -10.747  -5.104   9.598  1.00  0.00     0.000 C 
BRANCH  10  11
ATOM     11  C   UNL     1      -9.764  -5.872  10.503  1.00  0.00     0.000 C 
BRANCH  11  12
ATOM     12  C   UNL     1      -9.755  -5.437  11.982  1.00  0.00     0.000 C 
BRANCH  12  13
ATOM     13  C   UNL     1      -9.788  -6.595  13.001  1.00  0.00     0.006 C 
BRANCH  13  14
ATOM     14  C   UNL     1     -11.075  -6.669  13.835  1.00  0.00     0.053 C 
BRANCH  14  15
ATOM     15  C   UNL     1     -10.787  -6.834  15.296  1.00  0.00     0.041 C 
ATOM     16  O   UNL     1     -11.677  -7.271  16.073  1.00  0.00    -0.550 OA
ATOM     17  O   UNL     1      -9.548  -6.471  15.805  1.00  0.00    -0.550 OA
ENDBRANCH  14  15
ENDBRANCH  13  14
ENDBRANCH  12  13
ENDBRANCH  11  12
ENDBRANCH  10  11
ENDBRANCH   9  10
ENDBRANCH   8   9
ENDBRANCH   7   8
ENDBRANCH   6   7
ENDBRANCH   5   6
ENDBRANCH   4   5
ENDBRANCH   3   4
ENDBRANCH   2   3
ENDBRANCH   1   2
BRANCH   1  18
ATOM     18  C   UNL     1     -11.028  -2.617  17.692  1.00  0.00     0.000 C 
BRANCH  18  19
ATOM     19  C   UNL     1      -9.586  -2.605  18.223  1.00  0.00     0.000 C 
BRANCH  19  20
ATOM     20  C   UNL     1      -8.597  -3.515  17.467  1.00  0.00     0.000 C 
BRANCH  20  21
ATOM     21  C   UNL     1      -7.151  -2.976  17.416  1.00  0.00     0.000 C 
BRANCH  21  22
ATOM     22  C   UNL     1      -6.531  -3.055  16.010  1.00  0.00     0.000 C 
BRANCH  22  23
ATOM     23  C   UNL     1      -7.314  -3.978  15.060  1.00  0.00     0.000 C 
BRANCH  23  24
ATOM     24  C   UNL     1      -6.914  -3.828  13.576  1.00  0.00    -0.000 C 
BRANCH  24  25
ATOM     25  C   UNL     1      -7.769  -2.770  12.855  1.00  0.00    -0.000 C 
BRANCH  25  26
ATOM     26  C   UNL     1      -8.723  -2.023  13.802  1.00  0.00    -0.000 C 
BRANCH  26  27
ATOM     27  C   UNL     1      -9.508  -0.907  13.093  1.00  0.00    -0.000 C 
BRANCH  27  28
ATOM     28  C   UNL     1     -10.725  -1.430  12.308  1.00  0.00    -0.000 C 
BRANCH  28  29
ATOM     29  C   UNL     1     -11.677  -0.347  11.766  1.00  0.00    -0.000 C 
BRANCH  29  30
ATOM     30  C   UNL     1     -13.142  -0.812  11.697  1.00  0.00    -0.000 C 
BRANCH  30  31
ATOM     31  C   UNL     1     -13.915  -0.153  10.543  1.00  0.00    -0.003 C 
ATOM     32  C   UNL     1     -15.211  -0.889  10.198  1.00  0.00     0.004 C 
ENDBRANCH  30  31
ENDBRANCH  29  30
ENDBRANCH  28  29
ENDBRANCH  27  28
ENDBRANCH  26  27
ENDBRANCH  25  26
ENDBRANCH  24  25
ENDBRANCH  23  24
ENDBRANCH  22  23
ENDBRANCH  21  22
ENDBRANCH  20  21
ENDBRANCH  19  20
ENDBRANCH  18  19
ENDBRANCH   1  18
TORSDOF 28
ENDMDL
