MODEL 1
REMARK VINA RESULT:    -6.300      0.000      0.000
REMARK INTER + INTRA:          -8.701
REMARK INTER:                  -8.694
REMARK INTRA:                  -0.007
REMARK UNBOUND:                -0.007
REMARK SMILES CC[C@@H](CC[C@@H](C)[C@H]1CC[C@H]2[C@H]3CC=C4C[C@H](O)CC[C@@]4(C)[C@H]3CC[C@@]12C)C(C)C
REMARK SMILES IDX 5 1 4 2 3 3 2 4 1 5 28 6 29 7 30 8 6 9 7 10 8 11 9 12 26 13
REMARK SMILES IDX 10 14 11 15 25 16 27 17 12 18 24 19 23 20 13 21 21 22 14 23
REMARK SMILES IDX 15 24 20 25 22 26 16 27 19 28 17 29 18 30
REMARK H PARENT 18 31
REMARK Flexibility Score: inf
ROOT
ATOM      1  C   UNL     1      85.492 -24.773  86.562  1.00  0.00     0.004 C 
ENDROOT
BRANCH   1   2
ATOM      2  C   UNL     1      85.389 -23.800  87.759  1.00  0.00     0.004 C 
BRANCH   2   3
ATOM      3  C   UNL     1      86.062 -24.305  89.070  1.00  0.00    -0.009 C 
BRANCH   3   4
ATOM      4  C   UNL     1      85.053 -24.564  90.231  1.00  0.00     0.000 C 
ATOM      5  C   UNL     1      83.569 -24.552  89.862  1.00  0.00     0.004 C 
ENDBRANCH   3   4
BRANCH   3   6
ATOM      6  C   UNL     1      87.326 -23.453  89.438  1.00  0.00    -0.014 C 
ATOM      7  C   UNL     1      87.211 -22.637  90.741  1.00  0.00     0.007 C 
ATOM      8  C   UNL     1      88.620 -24.279  89.434  1.00  0.00     0.007 C 
ENDBRANCH   3   6
ENDBRANCH   2   3
ENDBRANCH   1   2
BRANCH   1   9
ATOM      9  C   UNL     1      84.115 -25.311  86.057  1.00  0.00    -0.011 C 
ATOM     10  C   UNL     1      84.072 -26.834  86.297  1.00  0.00     0.008 C 
BRANCH   9  11
ATOM     11  C   UNL     1      82.842 -24.628  86.700  1.00  0.00    -0.002 C 
ATOM     12  C   UNL     1      82.301 -23.340  86.051  1.00  0.00     0.005 C 
ATOM     13  C   UNL     1      81.574 -25.524  86.830  1.00  0.00    -0.026 C 
ATOM     14  C   UNL     1      80.846 -23.213  86.516  1.00  0.00     0.005 C 
ATOM     15  C   UNL     1      80.533 -24.495  87.312  1.00  0.00    -0.001 C 
ATOM     16  C   UNL     1      81.165 -26.155  85.452  1.00  0.00     0.007 C 
ATOM     17  C   UNL     1      81.767 -26.633  87.891  1.00  0.00     0.012 C 
ATOM     18  C   UNL     1      79.051 -24.996  87.298  1.00  0.00     0.000 C 
ATOM     19  C   UNL     1      79.713 -25.922  85.002  1.00  0.00     0.005 C 
ATOM     20  C   UNL     1      78.698 -26.028  86.161  1.00  0.00     0.003 C 
ATOM     21  C   UNL     1      78.052 -23.820  87.466  1.00  0.00     0.031 C 
ATOM     22  C   UNL     1      77.171 -25.963  85.721  1.00  0.00    -0.008 C 
ATOM     23  C   UNL     1      77.247 -23.527  86.237  1.00  0.00    -0.027 C 
ATOM     24  C   UNL     1      76.757 -24.511  85.463  1.00  0.00    -0.065 C 
ATOM     25  C   UNL     1      76.893 -26.823  84.444  1.00  0.00     0.014 C 
ATOM     26  C   UNL     1      76.298 -26.539  86.872  1.00  0.00     0.016 C 
ATOM     27  C   UNL     1      75.556 -24.181  84.590  1.00  0.00     0.063 C 
ATOM     28  C   UNL     1      75.498 -26.595  83.855  1.00  0.00     0.033 C 
ATOM     29  C   UNL     1      75.369 -25.136  83.407  1.00  0.00     0.118 C 
BRANCH  29  30
ATOM     30  O   UNL     1      74.103 -24.921  82.840  1.00  0.00    -0.393 OA
ATOM     31  H   UNL     1      73.599 -24.341  83.471  1.00  0.00     0.210 HD
ENDBRANCH  29  30
ENDBRANCH   9  11
ENDBRANCH   1   9
TORSDOF 7
ENDMDL
MODEL 2
REMARK VINA RESULT:    -6.121      3.197      9.046
REMARK INTER + INTRA:          -8.453
REMARK INTER:                  -7.866
REMARK INTRA:                  -0.587
REMARK UNBOUND:                -0.007
REMARK SMILES CC[C@@H](CC[C@@H](C)[C@H]1CC[C@H]2[C@H]3CC=C4C[C@H](O)CC[C@@]4(C)[C@H]3CC[C@@]12C)C(C)C
REMARK SMILES IDX 5 1 4 2 3 3 2 4 1 5 28 6 29 7 30 8 6 9 7 10 8 11 9 12 26 13
REMARK SMILES IDX 10 14 11 15 25 16 27 17 12 18 24 19 23 20 13 21 21 22 14 23
REMARK SMILES IDX 15 24 20 25 22 26 16 27 19 28 17 29 18 30
REMARK H PARENT 18 31
REMARK Flexibility Score: inf
ROOT
ATOM      1  C   UNL     1      75.734 -23.640  83.900  1.00  0.00     0.004 C 
ENDROOT
BRANCH   1   2
ATOM      2  C   UNL     1      75.255 -23.370  82.455  1.00  0.00     0.004 C 
BRANCH   2   3
ATOM      3  C   UNL     1      75.237 -21.868  82.043  1.00  0.00    -0.009 C 
BRANCH   3   4
ATOM      4  C   UNL     1      74.131 -21.036  82.762  1.00  0.00     0.000 C 
ATOM      5  C   UNL     1      74.346 -20.752  84.249  1.00  0.00     0.004 C 
ENDBRANCH   3   4
BRANCH   3   6
ATOM      6  C   UNL     1      75.326 -21.691  80.488  1.00  0.00    -0.014 C 
ATOM      7  C   UNL     1      74.518 -20.510  79.915  1.00  0.00     0.007 C 
ATOM      8  C   UNL     1      76.772 -21.652  79.976  1.00  0.00     0.007 C 
ENDBRANCH   3   6
ENDBRANCH   2   3
ENDBRANCH   1   2
BRANCH   1   9
ATOM      9  C   UNL     1      75.360 -25.057  84.442  1.00  0.00    -0.011 C 
ATOM     10  C   UNL     1      74.203 -25.613  83.586  1.00  0.00     0.008 C 
BRANCH   9  11
ATOM     11  C   UNL     1      76.546 -26.101  84.488  1.00  0.00    -0.002 C 
ATOM     12  C   UNL     1      77.642 -26.004  83.409  1.00  0.00     0.005 C 
ATOM     13  C   UNL     1      77.356 -26.162  85.817  1.00  0.00    -0.026 C 
ATOM     14  C   UNL     1      78.861 -26.737  83.981  1.00  0.00     0.005 C 
ATOM     15  C   UNL     1      78.494 -27.125  85.425  1.00  0.00    -0.001 C 
ATOM     16  C   UNL     1      77.910 -24.752  86.225  1.00  0.00     0.007 C 
ATOM     17  C   UNL     1      76.515 -26.761  86.968  1.00  0.00     0.012 C 
ATOM     18  C   UNL     1      79.668 -27.217  86.456  1.00  0.00     0.000 C 
ATOM     19  C   UNL     1      79.422 -24.666  86.492  1.00  0.00     0.005 C 
ATOM     20  C   UNL     1      79.971 -25.892  87.254  1.00  0.00     0.003 C 
ATOM     21  C   UNL     1      80.906 -27.927  85.846  1.00  0.00     0.031 C 
ATOM     22  C   UNL     1      81.492 -25.776  87.702  1.00  0.00    -0.008 C 
ATOM     23  C   UNL     1      82.078 -27.019  85.625  1.00  0.00    -0.027 C 
ATOM     24  C   UNL     1      82.416 -26.073  86.518  1.00  0.00    -0.065 C 
ATOM     25  C   UNL     1      81.824 -24.362  88.285  1.00  0.00     0.014 C 
ATOM     26  C   UNL     1      81.761 -26.819  88.824  1.00  0.00     0.016 C 
ATOM     27  C   UNL     1      83.855 -25.580  86.501  1.00  0.00     0.063 C 
ATOM     28  C   UNL     1      83.323 -24.136  88.503  1.00  0.00     0.033 C 
ATOM     29  C   UNL     1      84.047 -24.207  87.154  1.00  0.00     0.118 C 
BRANCH  29  30
ATOM     30  O   UNL     1      85.419 -23.974  87.337  1.00  0.00    -0.393 OA
ATOM     31  H   UNL     1      85.653 -23.183  86.783  1.00  0.00     0.210 HD
ENDBRANCH  29  30
ENDBRANCH   9  11
ENDBRANCH   1   9
TORSDOF 7
ENDMDL
MODEL 3
REMARK VINA RESULT:    -6.116      2.077      3.901
REMARK INTER + INTRA:          -8.447
REMARK INTER:                  -8.521
REMARK INTRA:                   0.074
REMARK UNBOUND:                -0.007
REMARK SMILES CC[C@@H](CC[C@@H](C)[C@H]1CC[C@H]2[C@H]3CC=C4C[C@H](O)CC[C@@]4(C)[C@H]3CC[C@@]12C)C(C)C
REMARK SMILES IDX 5 1 4 2 3 3 2 4 1 5 28 6 29 7 30 8 6 9 7 10 8 11 9 12 26 13
REMARK SMILES IDX 10 14 11 15 25 16 27 17 12 18 24 19 23 20 13 21 21 22 14 23
REMARK SMILES IDX 15 24 20 25 22 26 16 27 19 28 17 29 18 30
REMARK H PARENT 18 31
REMARK Flexibility Score: inf
ROOT
ATOM      1  C   UNL     1      83.380 -24.126  89.756  1.00  0.00     0.004 C 
ENDROOT
BRANCH   1   2
ATOM      2  C   UNL     1      84.726 -24.782  89.370  1.00  0.00     0.004 C 
BRANCH   2   3
ATOM      3  C   UNL     1      85.846 -23.780  88.961  1.00  0.00    -0.009 C 
BRANCH   3   4
ATOM      4  C   UNL     1      86.148 -23.771  87.432  1.00  0.00     0.000 C 
ATOM      5  C   UNL     1      85.393 -24.793  86.579  1.00  0.00     0.004 C 
ENDBRANCH   3   4
BRANCH   3   6
ATOM      6  C   UNL     1      87.094 -23.887  89.905  1.00  0.00    -0.014 C 
ATOM      7  C   UNL     1      88.421 -24.228  89.201  1.00  0.00     0.007 C 
ATOM      8  C   UNL     1      87.263 -22.657  90.807  1.00  0.00     0.007 C 
ENDBRANCH   3   6
ENDBRANCH   2   3
ENDBRANCH   1   2
BRANCH   1   9
ATOM      9  C   UNL     1      82.193 -24.500  88.810  1.00  0.00    -0.011 C 
ATOM     10  C   UNL     1      81.631 -23.199  88.202  1.00  0.00     0.008 C 
BRANCH   9  11
ATOM     11  C   UNL     1      82.541 -25.527  87.660  1.00  0.00    -0.002 C 
ATOM     12  C   UNL     1      82.369 -27.030  87.950  1.00  0.00     0.005 C 
ATOM     13  C   UNL     1      81.782 -25.332  86.314  1.00  0.00    -0.026 C 
ATOM     14  C   UNL     1      82.259 -27.713  86.582  1.00  0.00     0.005 C 
ATOM     15  C   UNL     1      82.235 -26.583  85.535  1.00  0.00    -0.001 C 
ATOM     16  C   UNL     1      80.226 -25.315  86.521  1.00  0.00     0.007 C 
ATOM     17  C   UNL     1      82.239 -24.048  85.583  1.00  0.00     0.012 C 
ATOM     18  C   UNL     1      81.449 -26.858  84.210  1.00  0.00     0.000 C 
ATOM     19  C   UNL     1      79.415 -26.303  85.666  1.00  0.00     0.005 C 
ATOM     20  C   UNL     1      79.937 -26.417  84.217  1.00  0.00     0.003 C 
ATOM     21  C   UNL     1      81.725 -28.289  83.672  1.00  0.00     0.031 C 
ATOM     22  C   UNL     1      79.033 -27.296  83.247  1.00  0.00    -0.008 C 
ATOM     23  C   UNL     1      80.545 -29.207  83.761  1.00  0.00    -0.027 C 
ATOM     24  C   UNL     1      79.299 -28.785  83.482  1.00  0.00    -0.065 C 
ATOM     25  C   UNL     1      77.509 -26.998  83.439  1.00  0.00     0.014 C 
ATOM     26  C   UNL     1      79.396 -26.945  81.776  1.00  0.00     0.016 C 
ATOM     27  C   UNL     1      78.279 -29.838  83.078  1.00  0.00     0.063 C 
ATOM     28  C   UNL     1      76.604 -27.988  82.700  1.00  0.00     0.033 C 
ATOM     29  C   UNL     1      76.824 -29.395  83.265  1.00  0.00     0.118 C 
BRANCH  29  30
ATOM     30  O   UNL     1      75.980 -30.308  82.614  1.00  0.00    -0.393 OA
ATOM     31  H   UNL     1      75.135 -29.826  82.413  1.00  0.00     0.210 HD
ENDBRANCH  29  30
ENDBRANCH   9  11
ENDBRANCH   1   9
TORSDOF 7
ENDMDL
MODEL 4
REMARK VINA RESULT:    -5.872      3.017      8.000
REMARK INTER + INTRA:          -8.111
REMARK INTER:                  -7.706
REMARK INTRA:                  -0.404
REMARK UNBOUND:                -0.007
REMARK SMILES CC[C@@H](CC[C@@H](C)[C@H]1CC[C@H]2[C@H]3CC=C4C[C@H](O)CC[C@@]4(C)[C@H]3CC[C@@]12C)C(C)C
REMARK SMILES IDX 5 1 4 2 3 3 2 4 1 5 28 6 29 7 30 8 6 9 7 10 8 11 9 12 26 13
REMARK SMILES IDX 10 14 11 15 25 16 27 17 12 18 24 19 23 20 13 21 21 22 14 23
REMARK SMILES IDX 15 24 20 25 22 26 16 27 19 28 17 29 18 30
REMARK H PARENT 18 31
REMARK Flexibility Score: inf
ROOT
ATOM      1  C   UNL     1      76.829 -28.041  83.002  1.00  0.00     0.004 C 
ENDROOT
BRANCH   1   2
ATOM      2  C   UNL     1      76.708 -26.740  83.828  1.00  0.00     0.004 C 
BRANCH   2   3
ATOM      3  C   UNL     1      75.261 -26.387  84.283  1.00  0.00    -0.009 C 
BRANCH   3   4
ATOM      4  C   UNL     1      74.605 -25.243  83.452  1.00  0.00     0.000 C 
ATOM      5  C   UNL     1      75.224 -23.851  83.597  1.00  0.00     0.004 C 
ENDBRANCH   3   4
BRANCH   3   6
ATOM      6  C   UNL     1      75.161 -26.246  85.842  1.00  0.00    -0.014 C 
ATOM      7  C   UNL     1      76.122 -25.217  86.469  1.00  0.00     0.007 C 
ATOM      8  C   UNL     1      73.725 -26.004  86.325  1.00  0.00     0.007 C 
ENDBRANCH   3   6
ENDBRANCH   2   3
ENDBRANCH   1   2
BRANCH   1   9
ATOM      9  C   UNL     1      78.083 -28.905  83.352  1.00  0.00    -0.011 C 
ATOM     10  C   UNL     1      78.134 -30.101  82.379  1.00  0.00     0.008 C 
BRANCH   9  11
ATOM     11  C   UNL     1      79.464 -28.136  83.334  1.00  0.00    -0.002 C 
ATOM     12  C   UNL     1      79.540 -26.797  82.574  1.00  0.00     0.005 C 
ATOM     13  C   UNL     1      80.078 -27.794  84.723  1.00  0.00    -0.026 C 
ATOM     14  C   UNL     1      80.757 -26.059  83.144  1.00  0.00     0.005 C 
ATOM     15  C   UNL     1      81.278 -26.920  84.310  1.00  0.00    -0.001 C 
ATOM     16  C   UNL     1      79.070 -26.999  85.625  1.00  0.00     0.007 C 
ATOM     17  C   UNL     1      80.565 -29.066  85.458  1.00  0.00     0.012 C 
ATOM     18  C   UNL     1      81.987 -26.170  85.485  1.00  0.00     0.000 C 
ATOM     19  C   UNL     1      79.580 -25.669  86.206  1.00  0.00     0.005 C 
ATOM     20  C   UNL     1      81.050 -25.740  86.676  1.00  0.00     0.003 C 
ATOM     21  C   UNL     1      82.947 -25.068  84.960  1.00  0.00     0.031 C 
ATOM     22  C   UNL     1      81.572 -24.444  87.436  1.00  0.00    -0.008 C 
ATOM     23  C   UNL     1      82.486 -23.673  85.252  1.00  0.00    -0.027 C 
ATOM     24  C   UNL     1      81.925 -23.346  86.429  1.00  0.00    -0.065 C 
ATOM     25  C   UNL     1      80.518 -23.901  88.458  1.00  0.00     0.014 C 
ATOM     26  C   UNL     1      82.849 -24.821  88.239  1.00  0.00     0.016 C 
ATOM     27  C   UNL     1      81.980 -21.885  86.847  1.00  0.00     0.063 C 
ATOM     28  C   UNL     1      80.885 -22.529  89.030  1.00  0.00     0.033 C 
ATOM     29  C   UNL     1      80.928 -21.501  87.894  1.00  0.00     0.118 C 
BRANCH  29  30
ATOM     30  O   UNL     1      81.237 -20.232  88.409  1.00  0.00    -0.393 OA
ATOM     31  H   UNL     1      80.840 -19.565  87.790  1.00  0.00     0.210 HD
ENDBRANCH  29  30
ENDBRANCH   9  11
ENDBRANCH   1   9
TORSDOF 7
ENDMDL
MODEL 5
REMARK VINA RESULT:    -5.737      1.021      1.211
REMARK INTER + INTRA:          -7.923
REMARK INTER:                  -7.894
REMARK INTRA:                  -0.029
REMARK UNBOUND:                -0.007
REMARK SMILES CC[C@@H](CC[C@@H](C)[C@H]1CC[C@H]2[C@H]3CC=C4C[C@H](O)CC[C@@]4(C)[C@H]3CC[C@@]12C)C(C)C
REMARK SMILES IDX 5 1 4 2 3 3 2 4 1 5 28 6 29 7 30 8 6 9 7 10 8 11 9 12 26 13
REMARK SMILES IDX 10 14 11 15 25 16 27 17 12 18 24 19 23 20 13 21 21 22 14 23
REMARK SMILES IDX 15 24 20 25 22 26 16 27 19 28 17 29 18 30
REMARK H PARENT 18 31
REMARK Flexibility Score: inf
ROOT
ATOM      1  C   UNL     1      84.557 -25.809  86.185  1.00  0.00     0.004 C 
ENDROOT
BRANCH   1   2
ATOM      2  C   UNL     1      84.635 -24.475  86.962  1.00  0.00     0.004 C 
BRANCH   2   3
ATOM      3  C   UNL     1      85.257 -24.585  88.386  1.00  0.00    -0.009 C 
BRANCH   3   4
ATOM      4  C   UNL     1      84.203 -24.550  89.534  1.00  0.00     0.000 C 
ATOM      5  C   UNL     1      82.772 -24.178  89.137  1.00  0.00     0.004 C 
ENDBRANCH   3   4
BRANCH   3   6
ATOM      6  C   UNL     1      86.487 -23.627  88.557  1.00  0.00    -0.014 C 
ATOM      7  C   UNL     1      87.231 -23.749  89.901  1.00  0.00     0.007 C 
ATOM      8  C   UNL     1      87.475 -23.716  87.386  1.00  0.00     0.007 C 
ENDBRANCH   3   6
ENDBRANCH   2   3
ENDBRANCH   1   2
BRANCH   1   9
ATOM      9  C   UNL     1      83.100 -26.287  85.881  1.00  0.00    -0.011 C 
ATOM     10  C   UNL     1      82.918 -27.697  86.480  1.00  0.00     0.008 C 
BRANCH   9  11
ATOM     11  C   UNL     1      81.952 -25.330  86.396  1.00  0.00    -0.002 C 
ATOM     12  C   UNL     1      81.650 -24.055  85.586  1.00  0.00     0.005 C 
ATOM     13  C   UNL     1      80.547 -25.980  86.577  1.00  0.00    -0.026 C 
ATOM     14  C   UNL     1      80.229 -23.633  85.979  1.00  0.00     0.005 C 
ATOM     15  C   UNL     1      79.688 -24.741  86.901  1.00  0.00    -0.001 C 
ATOM     16  C   UNL     1      80.061 -26.690  85.265  1.00  0.00     0.007 C 
ATOM     17  C   UNL     1      80.529 -26.973  87.762  1.00  0.00     0.012 C 
ATOM     18  C   UNL     1      78.143 -24.986  86.888  1.00  0.00     0.000 C 
ATOM     19  C   UNL     1      78.679 -26.272  84.737  1.00  0.00     0.005 C 
ATOM     20  C   UNL     1      77.639 -26.070  85.862  1.00  0.00     0.003 C 
ATOM     21  C   UNL     1      77.356 -23.648  86.886  1.00  0.00     0.031 C 
ATOM     22  C   UNL     1      76.154 -25.803  85.361  1.00  0.00    -0.008 C 
ATOM     23  C   UNL     1      76.635 -23.371  85.602  1.00  0.00    -0.027 C 
ATOM     24  C   UNL     1      75.998 -24.343  84.926  1.00  0.00    -0.065 C 
ATOM     25  C   UNL     1      75.756 -26.748  84.178  1.00  0.00     0.014 C 
ATOM     26  C   UNL     1      75.175 -26.086  86.535  1.00  0.00     0.016 C 
ATOM     27  C   UNL     1      74.887 -23.920  83.977  1.00  0.00     0.063 C 
ATOM     28  C   UNL     1      74.431 -26.361  83.516  1.00  0.00     0.033 C 
ATOM     29  C   UNL     1      74.561 -24.963  82.902  1.00  0.00     0.118 C 
BRANCH  29  30
ATOM     30  O   UNL     1      73.360 -24.607  82.268  1.00  0.00    -0.393 OA
ATOM     31  H   UNL     1      73.216 -23.640  82.446  1.00  0.00     0.210 HD
ENDBRANCH  29  30
ENDBRANCH   9  11
ENDBRANCH   1   9
TORSDOF 7
ENDMDL
MODEL 6
REMARK VINA RESULT:    -5.631      3.064      8.523
REMARK INTER + INTRA:          -7.777
REMARK INTER:                  -7.947
REMARK INTRA:                   0.170
REMARK UNBOUND:                -0.007
REMARK SMILES CC[C@@H](CC[C@@H](C)[C@H]1CC[C@H]2[C@H]3CC=C4C[C@H](O)CC[C@@]4(C)[C@H]3CC[C@@]12C)C(C)C
REMARK SMILES IDX 5 1 4 2 3 3 2 4 1 5 28 6 29 7 30 8 6 9 7 10 8 11 9 12 26 13
REMARK SMILES IDX 10 14 11 15 25 16 27 17 12 18 24 19 23 20 13 21 21 22 14 23
REMARK SMILES IDX 15 24 20 25 22 26 16 27 19 28 17 29 18 30
REMARK H PARENT 18 31
REMARK Flexibility Score: inf
ROOT
ATOM      1  C   UNL     1      77.385 -26.561  83.050  1.00  0.00     0.004 C 
ENDROOT
BRANCH   1   2
ATOM      2  C   UNL     1      75.914 -26.759  83.482  1.00  0.00     0.004 C 
BRANCH   2   3
ATOM      3  C   UNL     1      75.362 -25.662  84.440  1.00  0.00    -0.009 C 
BRANCH   3   4
ATOM      4  C   UNL     1      73.909 -25.938  84.935  1.00  0.00     0.000 C 
ATOM      5  C   UNL     1      73.702 -25.995  86.449  1.00  0.00     0.004 C 
ENDBRANCH   3   4
BRANCH   3   6
ATOM      6  C   UNL     1      75.635 -24.220  83.889  1.00  0.00    -0.014 C 
ATOM      7  C   UNL     1      74.545 -23.655  82.958  1.00  0.00     0.007 C 
ATOM      8  C   UNL     1      75.968 -23.213  84.999  1.00  0.00     0.007 C 
ENDBRANCH   3   6
ENDBRANCH   2   3
ENDBRANCH   1   2
BRANCH   1   9
ATOM      9  C   UNL     1      78.252 -27.859  83.125  1.00  0.00    -0.011 C 
ATOM     10  C   UNL     1      79.315 -27.797  82.009  1.00  0.00     0.008 C 
BRANCH   9  11
ATOM     11  C   UNL     1      78.950 -28.128  84.518  1.00  0.00    -0.002 C 
ATOM     12  C   UNL     1      80.304 -28.864  84.524  1.00  0.00     0.005 C 
ATOM     13  C   UNL     1      79.220 -26.876  85.405  1.00  0.00    -0.026 C 
ATOM     14  C   UNL     1      80.962 -28.525  85.866  1.00  0.00     0.005 C 
ATOM     15  C   UNL     1      80.042 -27.497  86.551  1.00  0.00    -0.001 C 
ATOM     16  C   UNL     1      80.040 -25.784  84.633  1.00  0.00     0.007 C 
ATOM     17  C   UNL     1      77.905 -26.272  85.951  1.00  0.00     0.012 C 
ATOM     18  C   UNL     1      80.721 -26.466  87.512  1.00  0.00     0.000 C 
ATOM     19  C   UNL     1      81.325 -25.288  85.318  1.00  0.00     0.005 C 
ATOM     20  C   UNL     1      81.165 -25.110  86.844  1.00  0.00     0.003 C 
ATOM     21  C   UNL     1      81.786 -27.146  88.415  1.00  0.00     0.031 C 
ATOM     22  C   UNL     1      82.409 -24.441  87.574  1.00  0.00    -0.008 C 
ATOM     23  C   UNL     1      83.195 -26.746  88.097  1.00  0.00    -0.027 C 
ATOM     24  C   UNL     1      83.516 -25.477  87.790  1.00  0.00    -0.065 C 
ATOM     25  C   UNL     1      82.978 -23.226  86.767  1.00  0.00     0.014 C 
ATOM     26  C   UNL     1      81.944 -23.905  88.958  1.00  0.00     0.016 C 
ATOM     27  C   UNL     1      84.960 -25.051  88.005  1.00  0.00     0.063 C 
ATOM     28  C   UNL     1      84.312 -22.711  87.312  1.00  0.00     0.033 C 
ATOM     29  C   UNL     1      85.368 -23.815  87.196  1.00  0.00     0.118 C 
BRANCH  29  30
ATOM     30  O   UNL     1      86.604 -23.346  87.668  1.00  0.00    -0.393 OA
ATOM     31  H   UNL     1      86.407 -22.627  88.324  1.00  0.00     0.210 HD
ENDBRANCH  29  30
ENDBRANCH   9  11
ENDBRANCH   1   9
TORSDOF 7
ENDMDL
MODEL 7
REMARK VINA RESULT:    -5.409      2.293      3.908
REMARK INTER + INTRA:          -7.471
REMARK INTER:                  -6.842
REMARK INTRA:                  -0.629
REMARK UNBOUND:                -0.007
REMARK SMILES CC[C@@H](CC[C@@H](C)[C@H]1CC[C@H]2[C@H]3CC=C4C[C@H](O)CC[C@@]4(C)[C@H]3CC[C@@]12C)C(C)C
REMARK SMILES IDX 5 1 4 2 3 3 2 4 1 5 28 6 29 7 30 8 6 9 7 10 8 11 9 12 26 13
REMARK SMILES IDX 10 14 11 15 25 16 27 17 12 18 24 19 23 20 13 21 21 22 14 23
REMARK SMILES IDX 15 24 20 25 22 26 16 27 19 28 17 29 18 30
REMARK H PARENT 18 31
REMARK Flexibility Score: inf
ROOT
ATOM      1  C   UNL     1      82.471 -23.091  86.676  1.00  0.00     0.004 C 
ENDROOT
BRANCH   1   2
ATOM      2  C   UNL     1      83.857 -23.500  87.227  1.00  0.00     0.004 C 
BRANCH   2   3
ATOM      3  C   UNL     1      83.853 -24.773  88.125  1.00  0.00    -0.009 C 
BRANCH   3   4
ATOM      4  C   UNL     1      84.592 -24.582  89.484  1.00  0.00     0.000 C 
ATOM      5  C   UNL     1      86.066 -24.179  89.411  1.00  0.00     0.004 C 
ENDBRANCH   3   4
BRANCH   3   6
ATOM      6  C   UNL     1      84.236 -26.058  87.311  1.00  0.00    -0.014 C 
ATOM      7  C   UNL     1      83.256 -27.239  87.451  1.00  0.00     0.007 C 
ATOM      8  C   UNL     1      84.514 -25.762  85.831  1.00  0.00     0.007 C 
ENDBRANCH   3   6
ENDBRANCH   2   3
ENDBRANCH   1   2
BRANCH   1   9
ATOM      9  C   UNL     1      81.371 -22.930  87.773  1.00  0.00    -0.011 C 
ATOM     10  C   UNL     1      81.134 -21.423  88.004  1.00  0.00     0.008 C 
BRANCH   9  11
ATOM     11  C   UNL     1      79.997 -23.651  87.467  1.00  0.00    -0.002 C 
ATOM     12  C   UNL     1      79.074 -23.033  86.399  1.00  0.00     0.005 C 
ATOM     13  C   UNL     1      80.086 -25.146  87.042  1.00  0.00    -0.026 C 
ATOM     14  C   UNL     1      78.136 -24.159  85.951  1.00  0.00     0.005 C 
ATOM     15  C   UNL     1      78.619 -25.435  86.666  1.00  0.00    -0.001 C 
ATOM     16  C   UNL     1      81.044 -25.346  85.815  1.00  0.00     0.007 C 
ATOM     17  C   UNL     1      80.529 -26.047  88.219  1.00  0.00     0.012 C 
ATOM     18  C   UNL     1      78.379 -26.796  85.932  1.00  0.00     0.000 C 
ATOM     19  C   UNL     1      80.454 -26.089  84.605  1.00  0.00     0.005 C 
ATOM     20  C   UNL     1      79.558 -27.281  85.007  1.00  0.00     0.003 C 
ATOM     21  C   UNL     1      76.964 -26.857  85.297  1.00  0.00     0.031 C 
ATOM     22  C   UNL     1      79.061 -28.184  83.796  1.00  0.00    -0.008 C 
ATOM     23  C   UNL     1      76.970 -26.831  83.799  1.00  0.00    -0.027 C 
ATOM     24  C   UNL     1      77.883 -27.512  83.085  1.00  0.00    -0.065 C 
ATOM     25  C   UNL     1      80.206 -28.463  82.766  1.00  0.00     0.014 C 
ATOM     26  C   UNL     1      78.594 -29.556  84.358  1.00  0.00     0.016 C 
ATOM     27  C   UNL     1      77.523 -27.870  81.651  1.00  0.00     0.063 C 
ATOM     28  C   UNL     1      79.709 -29.121  81.476  1.00  0.00     0.033 C 
ATOM     29  C   UNL     1      78.736 -28.174  80.766  1.00  0.00     0.118 C 
BRANCH  29  30
ATOM     30  O   UNL     1      78.294 -28.755  79.567  1.00  0.00    -0.393 OA
ATOM     31  H   UNL     1      77.327 -28.953  79.682  1.00  0.00     0.210 HD
ENDBRANCH  29  30
ENDBRANCH   9  11
ENDBRANCH   1   9
TORSDOF 7
ENDMDL
MODEL 8
REMARK VINA RESULT:    -5.131      1.671      3.715
REMARK INTER + INTRA:          -7.088
REMARK INTER:                  -6.088
REMARK INTRA:                  -1.000
REMARK UNBOUND:                -0.007
REMARK SMILES CC[C@@H](CC[C@@H](C)[C@H]1CC[C@H]2[C@H]3CC=C4C[C@H](O)CC[C@@]4(C)[C@H]3CC[C@@]12C)C(C)C
REMARK SMILES IDX 5 1 4 2 3 3 2 4 1 5 28 6 29 7 30 8 6 9 7 10 8 11 9 12 26 13
REMARK SMILES IDX 10 14 11 15 25 16 27 17 12 18 24 19 23 20 13 21 21 22 14 23
REMARK SMILES IDX 15 24 20 25 22 26 16 27 19 28 17 29 18 30
REMARK H PARENT 18 31
REMARK Flexibility Score: inf
ROOT
ATOM      1  C   UNL     1      82.930 -27.124  87.754  1.00  0.00     0.004 C 
ENDROOT
BRANCH   1   2
ATOM      2  C   UNL     1      83.705 -25.965  88.423  1.00  0.00     0.004 C 
BRANCH   2   3
ATOM      3  C   UNL     1      83.745 -24.644  87.598  1.00  0.00    -0.009 C 
BRANCH   3   4
ATOM      4  C   UNL     1      85.188 -24.168  87.251  1.00  0.00     0.000 C 
ATOM      5  C   UNL     1      86.091 -23.805  88.431  1.00  0.00     0.004 C 
ENDBRANCH   3   4
BRANCH   3   6
ATOM      6  C   UNL     1      82.789 -23.556  88.199  1.00  0.00    -0.014 C 
ATOM      7  C   UNL     1      81.786 -22.943  87.203  1.00  0.00     0.007 C 
ATOM      8  C   UNL     1      82.067 -24.034  89.465  1.00  0.00     0.007 C 
ENDBRANCH   3   6
ENDBRANCH   2   3
ENDBRANCH   1   2
BRANCH   1   9
ATOM      9  C   UNL     1      83.467 -27.518  86.340  1.00  0.00    -0.011 C 
ATOM     10  C   UNL     1      84.199 -28.871  86.460  1.00  0.00     0.008 C 
BRANCH   9  11
ATOM     11  C   UNL     1      82.377 -27.595  85.198  1.00  0.00    -0.002 C 
ATOM     12  C   UNL     1      81.445 -28.821  85.164  1.00  0.00     0.005 C 
ATOM     13  C   UNL     1      81.391 -26.393  85.107  1.00  0.00    -0.026 C 
ATOM     14  C   UNL     1      80.221 -28.396  84.345  1.00  0.00     0.005 C 
ATOM     15  C   UNL     1      80.405 -26.899  84.036  1.00  0.00    -0.001 C 
ATOM     16  C   UNL     1      80.669 -26.129  86.476  1.00  0.00     0.007 C 
ATOM     17  C   UNL     1      82.103 -25.109  84.621  1.00  0.00     0.012 C 
ATOM     18  C   UNL     1      79.106 -26.042  83.874  1.00  0.00     0.000 C 
ATOM     19  C   UNL     1      79.132 -26.083  86.437  1.00  0.00     0.005 C 
ATOM     20  C   UNL     1      78.582 -25.353  85.191  1.00  0.00     0.003 C 
ATOM     21  C   UNL     1      78.032 -26.789  83.039  1.00  0.00     0.031 C 
ATOM     22  C   UNL     1      77.007 -25.131  85.187  1.00  0.00    -0.008 C 
ATOM     23  C   UNL     1      76.834 -27.214  83.832  1.00  0.00    -0.027 C 
ATOM     24  C   UNL     1      76.293 -26.420  84.773  1.00  0.00    -0.065 C 
ATOM     25  C   UNL     1      76.479 -24.663  86.584  1.00  0.00     0.014 C 
ATOM     26  C   UNL     1      76.666 -24.014  84.160  1.00  0.00     0.016 C 
ATOM     27  C   UNL     1      74.836 -26.662  85.136  1.00  0.00     0.063 C 
ATOM     28  C   UNL     1      74.951 -24.670  86.684  1.00  0.00     0.033 C 
ATOM     29  C   UNL     1      74.438 -26.103  86.507  1.00  0.00     0.118 C 
BRANCH  29  30
ATOM     30  O   UNL     1      73.040 -26.128  86.624  1.00  0.00    -0.393 OA
ATOM     31  H   UNL     1      72.786 -25.362  87.204  1.00  0.00     0.210 HD
ENDBRANCH  29  30
ENDBRANCH   9  11
ENDBRANCH   1   9
TORSDOF 7
ENDMDL
MODEL 9
REMARK VINA RESULT:    -4.895      3.289      8.376
REMARK INTER + INTRA:          -6.762
REMARK INTER:                  -6.975
REMARK INTRA:                   0.213
REMARK UNBOUND:                -0.007
REMARK SMILES CC[C@@H](CC[C@@H](C)[C@H]1CC[C@H]2[C@H]3CC=C4C[C@H](O)CC[C@@]4(C)[C@H]3CC[C@@]12C)C(C)C
REMARK SMILES IDX 5 1 4 2 3 3 2 4 1 5 28 6 29 7 30 8 6 9 7 10 8 11 9 12 26 13
REMARK SMILES IDX 10 14 11 15 25 16 27 17 12 18 24 19 23 20 13 21 21 22 14 23
REMARK SMILES IDX 15 24 20 25 22 26 16 27 19 28 17 29 18 30
REMARK H PARENT 18 31
REMARK Flexibility Score: inf
ROOT
ATOM      1  C   UNL     1      75.746 -26.437  83.777  1.00  0.00     0.004 C 
ENDROOT
BRANCH   1   2
ATOM      2  C   UNL     1      77.033 -27.291  83.703  1.00  0.00     0.004 C 
BRANCH   2   3
ATOM      3  C   UNL     1      77.043 -28.361  82.571  1.00  0.00    -0.009 C 
BRANCH   3   4
ATOM      4  C   UNL     1      77.278 -29.814  83.086  1.00  0.00     0.000 C 
ATOM      5  C   UNL     1      78.717 -30.187  83.449  1.00  0.00     0.004 C 
ENDBRANCH   3   4
BRANCH   3   6
ATOM      6  C   UNL     1      77.929 -27.913  81.357  1.00  0.00    -0.014 C 
ATOM      7  C   UNL     1      79.290 -27.295  81.731  1.00  0.00     0.007 C 
ATOM      8  C   UNL     1      78.111 -29.023  80.314  1.00  0.00     0.007 C 
ENDBRANCH   3   6
ENDBRANCH   2   3
ENDBRANCH   1   2
BRANCH   1   9
ATOM      9  C   UNL     1      75.921 -25.084  84.538  1.00  0.00    -0.011 C 
ATOM     10  C   UNL     1      74.519 -24.518  84.846  1.00  0.00     0.008 C 
BRANCH   9  11
ATOM     11  C   UNL     1      76.775 -25.159  85.867  1.00  0.00    -0.002 C 
ATOM     12  C   UNL     1      76.798 -26.490  86.643  1.00  0.00     0.005 C 
ATOM     13  C   UNL     1      78.284 -24.795  85.734  1.00  0.00    -0.026 C 
ATOM     14  C   UNL     1      78.052 -26.441  87.524  1.00  0.00     0.005 C 
ATOM     15  C   UNL     1      78.798 -25.149  87.143  1.00  0.00    -0.001 C 
ATOM     16  C   UNL     1      78.994 -25.654  84.629  1.00  0.00     0.007 C 
ATOM     17  C   UNL     1      78.482 -23.288  85.450  1.00  0.00     0.012 C 
ATOM     18  C   UNL     1      80.355 -25.156  87.297  1.00  0.00     0.000 C 
ATOM     19  C   UNL     1      80.259 -26.413  85.066  1.00  0.00     0.005 C 
ATOM     20  C   UNL     1      81.159 -25.589  86.013  1.00  0.00     0.003 C 
ATOM     21  C   UNL     1      80.793 -25.839  88.621  1.00  0.00     0.031 C 
ATOM     22  C   UNL     1      82.558 -26.262  86.358  1.00  0.00    -0.008 C 
ATOM     23  C   UNL     1      81.489 -27.151  88.424  1.00  0.00    -0.027 C 
ATOM     24  C   UNL     1      82.377 -27.338  87.432  1.00  0.00    -0.065 C 
ATOM     25  C   UNL     1      83.233 -26.890  85.094  1.00  0.00     0.014 C 
ATOM     26  C   UNL     1      83.516 -25.164  86.902  1.00  0.00     0.016 C 
ATOM     27  C   UNL     1      83.399 -28.450  87.610  1.00  0.00     0.063 C 
ATOM     28  C   UNL     1      84.457 -27.749  85.428  1.00  0.00     0.033 C 
ATOM     29  C   UNL     1      84.022 -28.934  86.297  1.00  0.00     0.118 C 
BRANCH  29  30
ATOM     30  O   UNL     1      85.131 -29.744  86.587  1.00  0.00    -0.393 OA
ATOM     31  H   UNL     1      85.809 -29.568  85.882  1.00  0.00     0.210 HD
ENDBRANCH  29  30
ENDBRANCH   9  11
ENDBRANCH   1   9
TORSDOF 7
ENDMDL
