MODEL 1
REMARK VINA RESULT:    -4.895      0.000      0.000
REMARK INTER + INTRA:          -5.039
REMARK INTER:                  -5.039
REMARK INTRA:                   0.000
REMARK UNBOUND:                 0.000
REMARK SMILES Oc1ccc2[nH]ccc2c1
REMARK SMILES IDX 3 1 4 2 5 3 9 4 8 5 7 6 6 7 10 8 2 9 1 11
REMARK H PARENT 6 10 1 12
REMARK Flexibility Score: inf
ROOT
ATOM      1  C   UNL     1     141.853 129.519 150.138  1.00  0.00     0.048 A 
ATOM      2  C   UNL     1     143.132 129.752 149.600  1.00  0.00     0.030 A 
ATOM      3  C   UNL     1     144.222 129.157 150.233  1.00  0.00     0.046 A 
ATOM      4  C   UNL     1     144.068 128.371 151.343  1.00  0.00     0.003 A 
ATOM      5  C   UNL     1     145.321 127.942 151.721  1.00  0.00     0.028 A 
ATOM      6  C   UNL     1     146.193 128.507 150.795  1.00  0.00     0.083 A 
ATOM      7  N   UNL     1     145.517 129.248 149.888  1.00  0.00    -0.361 N 
ATOM      8  C   UNL     1     142.817 128.120 151.901  1.00  0.00     0.056 A 
ATOM      9  C   UNL     1     141.692 128.705 151.286  1.00  0.00     0.116 A 
ATOM     10  H   UNL     1     145.922 129.780 149.086  1.00  0.00     0.166 HD
ENDROOT
BRANCH   9  11
ATOM     11  O   UNL     1     140.426 128.476 151.818  1.00  0.00    -0.508 OA
ATOM     12  H   UNL     1     140.224 128.653 152.795  1.00  0.00     0.293 HD
ENDBRANCH   9  11
TORSDOF 1
ENDMDL
MODEL 2
REMARK VINA RESULT:    -4.793     12.287     13.791
REMARK INTER + INTRA:          -4.933
REMARK INTER:                  -4.933
REMARK INTRA:                   0.000
REMARK UNBOUND:                 0.000
REMARK SMILES Oc1ccc2[nH]ccc2c1
REMARK SMILES IDX 3 1 4 2 5 3 9 4 8 5 7 6 6 7 10 8 2 9 1 11
REMARK H PARENT 6 10 1 12
REMARK Flexibility Score: inf
ROOT
ATOM      1  C   UNL     1     128.754 133.500 151.232  1.00  0.00     0.048 A 
ATOM      2  C   UNL     1     128.969 132.459 150.311  1.00  0.00     0.030 A 
ATOM      3  C   UNL     1     130.288 132.126 150.004  1.00  0.00     0.046 A 
ATOM      4  C   UNL     1     131.347 132.783 150.572  1.00  0.00     0.003 A 
ATOM      5  C   UNL     1     132.499 132.222 150.064  1.00  0.00     0.028 A 
ATOM      6  C   UNL     1     132.065 131.228 149.192  1.00  0.00     0.083 A 
ATOM      7  N   UNL     1     130.714 131.173 149.159  1.00  0.00    -0.361 N 
ATOM      8  C   UNL     1     131.168 133.818 151.486  1.00  0.00     0.056 A 
ATOM      9  C   UNL     1     129.848 134.180 151.821  1.00  0.00     0.116 A 
ATOM     10  H   UNL     1     130.127 130.523 148.591  1.00  0.00     0.166 HD
ENDROOT
BRANCH   9  11
ATOM     11  O   UNL     1     129.633 135.211 152.732  1.00  0.00    -0.508 OA
ATOM     12  H   UNL     1     130.181 135.288 153.581  1.00  0.00     0.293 HD
ENDBRANCH   9  11
TORSDOF 1
ENDMDL
MODEL 3
REMARK VINA RESULT:    -4.623      2.549      4.017
REMARK INTER + INTRA:          -4.758
REMARK INTER:                  -4.758
REMARK INTRA:                   0.000
REMARK UNBOUND:                 0.000
REMARK SMILES Oc1ccc2[nH]ccc2c1
REMARK SMILES IDX 3 1 4 2 5 3 9 4 8 5 7 6 6 7 10 8 2 9 1 11
REMARK H PARENT 6 10 1 12
REMARK Flexibility Score: inf
ROOT
ATOM      1  C   UNL     1     144.472 127.864 151.737  1.00  0.00     0.048 A 
ATOM      2  C   UNL     1     143.067 127.802 151.770  1.00  0.00     0.030 A 
ATOM      3  C   UNL     1     142.358 128.688 150.960  1.00  0.00     0.046 A 
ATOM      4  C   UNL     1     142.995 129.594 150.155  1.00  0.00     0.003 A 
ATOM      5  C   UNL     1     142.022 130.311 149.493  1.00  0.00     0.028 A 
ATOM      6  C   UNL     1     140.814 129.788 149.945  1.00  0.00     0.083 A 
ATOM      7  N   UNL     1     141.024 128.798 150.841  1.00  0.00    -0.361 N 
ATOM      8  C   UNL     1     144.383 129.681 150.098  1.00  0.00     0.056 A 
ATOM      9  C   UNL     1     145.132 128.800 150.903  1.00  0.00     0.116 A 
ATOM     10  H   UNL     1     140.297 128.236 151.336  1.00  0.00     0.166 HD
ENDROOT
BRANCH   9  11
ATOM     11  O   UNL     1     146.523 128.860 150.872  1.00  0.00    -0.508 OA
ATOM     12  H   UNL     1     147.011 129.744 150.784  1.00  0.00     0.293 HD
ENDBRANCH   9  11
TORSDOF 1
ENDMDL
MODEL 4
REMARK VINA RESULT:    -4.595      2.116      2.163
REMARK INTER + INTRA:          -4.729
REMARK INTER:                  -4.729
REMARK INTRA:                   0.000
REMARK UNBOUND:                 0.000
REMARK SMILES Oc1ccc2[nH]ccc2c1
REMARK SMILES IDX 3 1 4 2 5 3 9 4 8 5 7 6 6 7 10 8 2 9 1 11
REMARK H PARENT 6 10 1 12
REMARK Flexibility Score: inf
ROOT
ATOM      1  C   UNL     1     142.611 126.428 148.887  1.00  0.00     0.048 A 
ATOM      2  C   UNL     1     143.635 127.311 148.500  1.00  0.00     0.030 A 
ATOM      3  C   UNL     1     144.421 127.874 149.503  1.00  0.00     0.046 A 
ATOM      4  C   UNL     1     144.215 127.586 150.826  1.00  0.00     0.003 A 
ATOM      5  C   UNL     1     145.148 128.295 151.552  1.00  0.00     0.028 A 
ATOM      6  C   UNL     1     145.890 128.994 150.605  1.00  0.00     0.083 A 
ATOM      7  N   UNL     1     145.443 128.734 149.355  1.00  0.00    -0.361 N 
ATOM      8  C   UNL     1     143.211 126.717 151.243  1.00  0.00     0.056 A 
ATOM      9  C   UNL     1     142.396 126.129 150.255  1.00  0.00     0.116 A 
ATOM     10  H   UNL     1     145.817 129.124 148.462  1.00  0.00     0.166 HD
ENDROOT
BRANCH   9  11
ATOM     11  O   UNL     1     141.382 125.255 150.638  1.00  0.00    -0.508 OA
ATOM     12  H   UNL     1     141.043 125.224 151.592  1.00  0.00     0.293 HD
ENDBRANCH   9  11
TORSDOF 1
ENDMDL
MODEL 5
REMARK VINA RESULT:    -4.585      1.329      2.263
REMARK INTER + INTRA:          -4.719
REMARK INTER:                  -4.719
REMARK INTRA:                   0.000
REMARK UNBOUND:                 0.000
REMARK SMILES Oc1ccc2[nH]ccc2c1
REMARK SMILES IDX 3 1 4 2 5 3 9 4 8 5 7 6 6 7 10 8 2 9 1 11
REMARK H PARENT 6 10 1 12
REMARK Flexibility Score: inf
ROOT
ATOM      1  C   UNL     1     143.280 128.195 151.755  1.00  0.00     0.048 A 
ATOM      2  C   UNL     1     144.672 128.240 151.958  1.00  0.00     0.030 A 
ATOM      3  C   UNL     1     145.462 128.757 150.933  1.00  0.00     0.046 A 
ATOM      4  C   UNL     1     144.916 129.208 149.761  1.00  0.00     0.003 A 
ATOM      5  C   UNL     1     145.952 129.648 148.966  1.00  0.00     0.028 A 
ATOM      6  C   UNL     1     147.103 129.436 149.719  1.00  0.00     0.083 A 
ATOM      7  N   UNL     1     146.799 128.891 150.919  1.00  0.00    -0.361 N 
ATOM      8  C   UNL     1     143.543 129.177 149.527  1.00  0.00     0.056 A 
ATOM      9  C   UNL     1     142.714 128.661 150.543  1.00  0.00     0.116 A 
ATOM     10  H   UNL     1     147.468 128.630 151.677  1.00  0.00     0.166 HD
ENDROOT
BRANCH   9  11
ATOM     11  O   UNL     1     141.336 128.615 150.342  1.00  0.00    -0.508 OA
ATOM     12  H   UNL     1     140.697 128.427 151.106  1.00  0.00     0.293 HD
ENDBRANCH   9  11
TORSDOF 1
ENDMDL
MODEL 6
REMARK VINA RESULT:    -4.537      2.026      2.554
REMARK INTER + INTRA:          -4.670
REMARK INTER:                  -4.670
REMARK INTRA:                   0.000
REMARK UNBOUND:                 0.000
REMARK SMILES Oc1ccc2[nH]ccc2c1
REMARK SMILES IDX 3 1 4 2 5 3 9 4 8 5 7 6 6 7 10 8 2 9 1 11
REMARK H PARENT 6 10 1 12
REMARK Flexibility Score: inf
ROOT
ATOM      1  C   UNL     1     143.515 127.957 151.727  1.00  0.00     0.048 A 
ATOM      2  C   UNL     1     144.603 128.555 151.066  1.00  0.00     0.030 A 
ATOM      3  C   UNL     1     144.797 128.245 149.721  1.00  0.00     0.046 A 
ATOM      4  C   UNL     1     143.964 127.388 149.052  1.00  0.00     0.003 A 
ATOM      5  C   UNL     1     144.424 127.295 147.757  1.00  0.00     0.028 A 
ATOM      6  C   UNL     1     145.542 128.123 147.707  1.00  0.00     0.083 A 
ATOM      7  N   UNL     1     145.766 128.701 148.909  1.00  0.00    -0.361 N 
ATOM      8  C   UNL     1     142.878 126.780 149.676  1.00  0.00     0.056 A 
ATOM      9  C   UNL     1     142.651 127.071 151.036  1.00  0.00     0.116 A 
ATOM     10  H   UNL     1     146.535 129.364 149.152  1.00  0.00     0.166 HD
ENDROOT
BRANCH   9  11
ATOM     11  O   UNL     1     141.574 126.479 151.691  1.00  0.00    -0.508 OA
ATOM     12  H   UNL     1     141.379 126.672 152.666  1.00  0.00     0.293 HD
ENDBRANCH   9  11
TORSDOF 1
ENDMDL
MODEL 7
REMARK VINA RESULT:    -4.518      2.897      3.384
REMARK INTER + INTRA:          -4.650
REMARK INTER:                  -4.650
REMARK INTRA:                   0.000
REMARK UNBOUND:                 0.000
REMARK SMILES Oc1ccc2[nH]ccc2c1
REMARK SMILES IDX 3 1 4 2 5 3 9 4 8 5 7 6 6 7 10 8 2 9 1 11
REMARK H PARENT 6 10 1 12
REMARK Flexibility Score: inf
ROOT
ATOM      1  C   UNL     1     141.667 130.464 150.984  1.00  0.00     0.048 A 
ATOM      2  C   UNL     1     141.731 129.260 151.708  1.00  0.00     0.030 A 
ATOM      3  C   UNL     1     142.017 128.092 151.003  1.00  0.00     0.046 A 
ATOM      4  C   UNL     1     142.231 128.101 149.651  1.00  0.00     0.003 A 
ATOM      5  C   UNL     1     142.485 126.803 149.265  1.00  0.00     0.028 A 
ATOM      6  C   UNL     1     142.411 126.055 150.436  1.00  0.00     0.083 A 
ATOM      7  N   UNL     1     142.124 126.846 151.495  1.00  0.00    -0.361 N 
ATOM      8  C   UNL     1     142.175 129.276 148.904  1.00  0.00     0.056 A 
ATOM      9  C   UNL     1     141.889 130.476 149.585  1.00  0.00     0.116 A 
ATOM     10  H   UNL     1     142.010 126.546 152.488  1.00  0.00     0.166 HD
ENDROOT
BRANCH   9  11
ATOM     11  O   UNL     1     141.825 131.668 148.868  1.00  0.00    -0.508 OA
ATOM     12  H   UNL     1     141.098 131.834 148.182  1.00  0.00     0.293 HD
ENDBRANCH   9  11
TORSDOF 1
ENDMDL
MODEL 8
REMARK VINA RESULT:    -4.504      2.226      3.482
REMARK INTER + INTRA:          -4.636
REMARK INTER:                  -4.636
REMARK INTRA:                   0.000
REMARK UNBOUND:                 0.000
REMARK SMILES Oc1ccc2[nH]ccc2c1
REMARK SMILES IDX 3 1 4 2 5 3 9 4 8 5 7 6 6 7 10 8 2 9 1 11
REMARK H PARENT 6 10 1 12
REMARK Flexibility Score: inf
ROOT
ATOM      1  C   UNL     1     145.459 128.729 150.336  1.00  0.00     0.048 A 
ATOM      2  C   UNL     1     144.490 129.283 149.479  1.00  0.00     0.030 A 
ATOM      3  C   UNL     1     143.178 129.354 149.942  1.00  0.00     0.046 A 
ATOM      4  C   UNL     1     142.828 128.902 151.187  1.00  0.00     0.003 A 
ATOM      5  C   UNL     1     141.474 129.112 151.335  1.00  0.00     0.028 A 
ATOM      6  C   UNL     1     141.063 129.696 150.141  1.00  0.00     0.083 A 
ATOM      7  N   UNL     1     142.107 129.841 149.293  1.00  0.00    -0.361 N 
ATOM      8  C   UNL     1     143.762 128.348 152.059  1.00  0.00     0.056 A 
ATOM      9  C   UNL     1     145.099 128.262 151.624  1.00  0.00     0.116 A 
ATOM     10  H   UNL     1     142.082 130.249 148.332  1.00  0.00     0.166 HD
ENDROOT
BRANCH   9  11
ATOM     11  O   UNL     1     146.059 127.713 152.471  1.00  0.00    -0.508 OA
ATOM     12  H   UNL     1     145.893 127.620 153.466  1.00  0.00     0.293 HD
ENDBRANCH   9  11
TORSDOF 1
ENDMDL
MODEL 9
REMARK VINA RESULT:    -4.467     12.336     13.948
REMARK INTER + INTRA:          -4.597
REMARK INTER:                  -4.597
REMARK INTRA:                   0.000
REMARK UNBOUND:                 0.000
REMARK SMILES Oc1ccc2[nH]ccc2c1
REMARK SMILES IDX 3 1 4 2 5 3 9 4 8 5 7 6 6 7 10 8 2 9 1 11
REMARK H PARENT 6 10 1 12
REMARK Flexibility Score: inf
ROOT
ATOM      1  C   UNL     1     131.265 130.969 149.428  1.00  0.00     0.048 A 
ATOM      2  C   UNL     1     129.922 131.136 149.814  1.00  0.00     0.030 A 
ATOM      3  C   UNL     1     129.608 132.231 150.617  1.00  0.00     0.046 A 
ATOM      4  C   UNL     1     130.564 133.123 151.024  1.00  0.00     0.003 A 
ATOM      5  C   UNL     1     129.936 134.076 151.796  1.00  0.00     0.028 A 
ATOM      6  C   UNL     1     128.596 133.702 151.816  1.00  0.00     0.083 A 
ATOM      7  N   UNL     1     128.400 132.575 151.095  1.00  0.00    -0.361 N 
ATOM      8  C   UNL     1     131.902 132.986 150.661  1.00  0.00     0.056 A 
ATOM      9  C   UNL     1     132.255 131.891 149.848  1.00  0.00     0.116 A 
ATOM     10  H   UNL     1     127.495 132.077 150.943  1.00  0.00     0.166 HD
ENDROOT
BRANCH   9  11
ATOM     11  O   UNL     1     133.584 131.724 149.466  1.00  0.00    -0.508 OA
ATOM     12  H   UNL     1     133.850 131.675 148.490  1.00  0.00     0.293 HD
ENDBRANCH   9  11
TORSDOF 1
ENDMDL
