MODEL 1
REMARK VINA RESULT:    -3.963      0.000      0.000
REMARK INTER + INTRA:          -4.605
REMARK INTER:                  -4.543
REMARK INTRA:                  -0.062
REMARK UNBOUND:                -0.062
REMARK SMILES CC(C)[C@H]([NH3+])C(=O)[O-]
REMARK SMILES IDX 4 1 5 2 6 6 7 7 8 8 2 9 1 10 3 11
REMARK H PARENT 5 3 5 4 5 5
REMARK Flexibility Score: inf
ROOT
ATOM      1  C   UNL     1       3.682  42.519  11.561  1.00  0.00     0.230 C 
ENDROOT
BRANCH   1   2
ATOM      2  N   UNL     1       4.769  42.582  10.572  1.00  0.00    -0.350 N 
ATOM      3  H   UNL     1       5.265  41.663  10.521  1.00  0.00     0.345 HD
ATOM      4  H   UNL     1       5.476  43.297  10.856  1.00  0.00     0.345 HD
ATOM      5  H   UNL     1       4.394  42.819   9.624  1.00  0.00     0.345 HD
ENDBRANCH   1   2
BRANCH   1   6
ATOM      6  C   UNL     1       3.674  41.157  12.210  1.00  0.00     0.099 C 
ATOM      7  O   UNL     1       2.588  40.553  12.414  1.00  0.00    -0.544 OA
ATOM      8  O   UNL     1       4.870  40.564  12.596  1.00  0.00    -0.544 OA
ENDBRANCH   1   6
BRANCH   1   9
ATOM      9  C   UNL     1       2.296  42.839  10.924  1.00  0.00     0.047 C 
ATOM     10  C   UNL     1       1.638  44.054  11.603  1.00  0.00     0.014 C 
ATOM     11  C   UNL     1       2.408  43.109   9.414  1.00  0.00     0.014 C 
ENDBRANCH   1   9
TORSDOF 3
ENDMDL
MODEL 2
REMARK VINA RESULT:    -3.923      3.136      3.488
REMARK INTER + INTRA:          -4.558
REMARK INTER:                  -4.670
REMARK INTRA:                   0.112
REMARK UNBOUND:                -0.062
REMARK SMILES CC(C)[C@H]([NH3+])C(=O)[O-]
REMARK SMILES IDX 4 1 5 2 6 6 7 7 8 8 2 9 1 10 3 11
REMARK H PARENT 5 3 5 4 5 5
REMARK Flexibility Score: inf
ROOT
ATOM      1  C   UNL     1       3.823  43.561   9.727  1.00  0.00     0.230 C 
ENDROOT
BRANCH   1   2
ATOM      2  N   UNL     1       4.684  42.717  10.571  1.00  0.00    -0.350 N 
ATOM      3  H   UNL     1       4.735  43.109  11.540  1.00  0.00     0.345 HD
ATOM      4  H   UNL     1       5.658  42.703  10.193  1.00  0.00     0.345 HD
ATOM      5  H   UNL     1       4.313  41.740  10.619  1.00  0.00     0.345 HD
ENDBRANCH   1   2
BRANCH   1   6
ATOM      6  C   UNL     1       4.094  45.014  10.030  1.00  0.00     0.099 C 
ATOM      7  O   UNL     1       4.375  45.818   9.102  1.00  0.00    -0.544 OA
ATOM      8  O   UNL     1       4.045  45.471  11.341  1.00  0.00    -0.544 OA
ENDBRANCH   1   6
BRANCH   1   9
ATOM      9  C   UNL     1       2.313  43.226   9.920  1.00  0.00     0.047 C 
ATOM     10  C   UNL     1       1.969  43.038  11.409  1.00  0.00     0.014 C 
ATOM     11  C   UNL     1       1.404  44.317   9.329  1.00  0.00     0.014 C 
ENDBRANCH   1   9
TORSDOF 3
ENDMDL
MODEL 3
REMARK VINA RESULT:    -3.853      3.451      4.186
REMARK INTER + INTRA:          -4.478
REMARK INTER:                  -4.442
REMARK INTRA:                  -0.036
REMARK UNBOUND:                -0.062
REMARK SMILES CC(C)[C@H]([NH3+])C(=O)[O-]
REMARK SMILES IDX 4 1 5 2 6 6 7 7 8 8 2 9 1 10 3 11
REMARK H PARENT 5 3 5 4 5 5
REMARK Flexibility Score: inf
ROOT
ATOM      1  C   UNL     1       3.160  44.009   9.847  1.00  0.00     0.230 C 
ENDROOT
BRANCH   1   2
ATOM      2  N   UNL     1       4.153  43.271   9.051  1.00  0.00    -0.350 N 
ATOM      3  H   UNL     1       4.150  42.259   9.318  1.00  0.00     0.345 HD
ATOM      4  H   UNL     1       5.114  43.635   9.243  1.00  0.00     0.345 HD
ATOM      5  H   UNL     1       3.945  43.353   8.029  1.00  0.00     0.345 HD
ENDBRANCH   1   2
BRANCH   1   6
ATOM      6  C   UNL     1       3.454  45.487   9.769  1.00  0.00     0.099 C 
ATOM      7  O   UNL     1       4.509  45.900   9.216  1.00  0.00    -0.544 OA
ATOM      8  O   UNL     1       2.564  46.402  10.316  1.00  0.00    -0.544 OA
ENDBRANCH   1   6
BRANCH   1   9
ATOM      9  C   UNL     1       3.128  43.527  11.329  1.00  0.00     0.047 C 
ATOM     10  C   UNL     1       3.099  41.990  11.415  1.00  0.00     0.014 C 
ATOM     11  C   UNL     1       4.334  44.050  12.128  1.00  0.00     0.014 C 
ENDBRANCH   1   9
TORSDOF 3
ENDMDL
MODEL 4
REMARK VINA RESULT:    -3.835      3.412      3.869
REMARK INTER + INTRA:          -4.458
REMARK INTER:                  -4.391
REMARK INTRA:                  -0.068
REMARK UNBOUND:                -0.062
REMARK SMILES CC(C)[C@H]([NH3+])C(=O)[O-]
REMARK SMILES IDX 4 1 5 2 6 6 7 7 8 8 2 9 1 10 3 11
REMARK H PARENT 5 3 5 4 5 5
REMARK Flexibility Score: inf
ROOT
ATOM      1  C   UNL     1       4.138  44.123  11.102  1.00  0.00     0.230 C 
ENDROOT
BRANCH   1   2
ATOM      2  N   UNL     1       4.383  44.380  12.530  1.00  0.00    -0.350 N 
ATOM      3  H   UNL     1       3.608  43.979  13.107  1.00  0.00     0.345 HD
ATOM      4  H   UNL     1       4.402  45.409  12.713  1.00  0.00     0.345 HD
ATOM      5  H   UNL     1       5.289  43.954  12.833  1.00  0.00     0.345 HD
ENDBRANCH   1   2
BRANCH   1   6
ATOM      6  C   UNL     1       3.900  45.431  10.390  1.00  0.00     0.099 C 
ATOM      7  O   UNL     1       2.992  46.214  10.779  1.00  0.00    -0.544 OA
ATOM      8  O   UNL     1       4.678  45.777   9.293  1.00  0.00    -0.544 OA
ENDBRANCH   1   6
BRANCH   1   9
ATOM      9  C   UNL     1       2.943  43.146  10.885  1.00  0.00     0.047 C 
ATOM     10  C   UNL     1       2.694  42.895   9.386  1.00  0.00     0.014 C 
ATOM     11  C   UNL     1       3.170  41.797  11.588  1.00  0.00     0.014 C 
ENDBRANCH   1   9
TORSDOF 3
ENDMDL
MODEL 5
REMARK VINA RESULT:    -3.792      2.802      3.363
REMARK INTER + INTRA:          -4.408
REMARK INTER:                  -4.351
REMARK INTRA:                  -0.057
REMARK UNBOUND:                -0.062
REMARK SMILES CC(C)[C@H]([NH3+])C(=O)[O-]
REMARK SMILES IDX 4 1 5 2 6 6 7 7 8 8 2 9 1 10 3 11
REMARK H PARENT 5 3 5 4 5 5
REMARK Flexibility Score: inf
ROOT
ATOM      1  C   UNL     1       4.149  42.967  10.982  1.00  0.00     0.230 C 
ENDROOT
BRANCH   1   2
ATOM      2  N   UNL     1       4.502  43.910  12.055  1.00  0.00    -0.350 N 
ATOM      3  H   UNL     1       4.398  43.449  12.989  1.00  0.00     0.345 HD
ATOM      4  H   UNL     1       3.854  44.730  12.044  1.00  0.00     0.345 HD
ATOM      5  H   UNL     1       5.488  44.242  11.947  1.00  0.00     0.345 HD
ENDBRANCH   1   2
BRANCH   1   6
ATOM      6  C   UNL     1       4.050  43.711   9.674  1.00  0.00     0.099 C 
ATOM      7  O   UNL     1       3.921  43.083   8.590  1.00  0.00    -0.544 OA
ATOM      8  O   UNL     1       4.111  45.099   9.658  1.00  0.00    -0.544 OA
ENDBRANCH   1   6
BRANCH   1   9
ATOM      9  C   UNL     1       2.824  42.206  11.290  1.00  0.00     0.047 C 
ATOM     10  C   UNL     1       3.088  40.947  12.136  1.00  0.00     0.014 C 
ATOM     11  C   UNL     1       1.808  43.098  12.023  1.00  0.00     0.014 C 
ENDBRANCH   1   9
TORSDOF 3
ENDMDL
MODEL 6
REMARK VINA RESULT:    -3.750      1.594      2.039
REMARK INTER + INTRA:          -4.360
REMARK INTER:                  -4.317
REMARK INTRA:                  -0.042
REMARK UNBOUND:                -0.062
REMARK SMILES CC(C)[C@H]([NH3+])C(=O)[O-]
REMARK SMILES IDX 4 1 5 2 6 6 7 7 8 8 2 9 1 10 3 11
REMARK H PARENT 5 3 5 4 5 5
REMARK Flexibility Score: inf
ROOT
ATOM      1  C   UNL     1       3.613  43.413  11.417  1.00  0.00     0.230 C 
ENDROOT
BRANCH   1   2
ATOM      2  N   UNL     1       4.557  42.896  10.415  1.00  0.00    -0.350 N 
ATOM      3  H   UNL     1       4.044  42.601   9.553  1.00  0.00     0.345 HD
ATOM      4  H   UNL     1       5.049  42.050  10.784  1.00  0.00     0.345 HD
ATOM      5  H   UNL     1       5.262  43.626  10.158  1.00  0.00     0.345 HD
ENDBRANCH   1   2
BRANCH   1   6
ATOM      6  C   UNL     1       2.700  42.299  11.867  1.00  0.00     0.099 C 
ATOM      7  O   UNL     1       3.065  41.096  11.772  1.00  0.00    -0.544 OA
ATOM      8  O   UNL     1       1.444  42.595  12.381  1.00  0.00    -0.544 OA
ENDBRANCH   1   6
BRANCH   1   9
ATOM      9  C   UNL     1       2.790  44.619  10.872  1.00  0.00     0.047 C 
ATOM     10  C   UNL     1       3.653  45.891  10.788  1.00  0.00     0.014 C 
ATOM     11  C   UNL     1       2.193  44.326   9.485  1.00  0.00     0.014 C 
ENDBRANCH   1   9
TORSDOF 3
ENDMDL
MODEL 7
REMARK VINA RESULT:    -3.728      4.051      4.869
REMARK INTER + INTRA:          -4.335
REMARK INTER:                  -4.275
REMARK INTRA:                  -0.060
REMARK UNBOUND:                -0.062
REMARK SMILES CC(C)[C@H]([NH3+])C(=O)[O-]
REMARK SMILES IDX 4 1 5 2 6 6 7 7 8 8 2 9 1 10 3 11
REMARK H PARENT 5 3 5 4 5 5
REMARK Flexibility Score: inf
ROOT
ATOM      1  C   UNL     1       3.447  45.762  10.235  1.00  0.00     0.230 C 
ENDROOT
BRANCH   1   2
ATOM      2  N   UNL     1       4.271  46.713  10.997  1.00  0.00    -0.350 N 
ATOM      3  H   UNL     1       3.820  46.925  11.916  1.00  0.00     0.345 HD
ATOM      4  H   UNL     1       4.353  47.616  10.479  1.00  0.00     0.345 HD
ATOM      5  H   UNL     1       5.226  46.320  11.170  1.00  0.00     0.345 HD
ENDBRANCH   1   2
BRANCH   1   6
ATOM      6  C   UNL     1       2.060  46.330  10.059  1.00  0.00     0.099 C 
ATOM      7  O   UNL     1       1.900  47.496   9.610  1.00  0.00    -0.544 OA
ATOM      8  O   UNL     1       0.950  45.570  10.403  1.00  0.00    -0.544 OA
ENDBRANCH   1   6
BRANCH   1   9
ATOM      9  C   UNL     1       3.391  44.362  10.920  1.00  0.00     0.047 C 
ATOM     10  C   UNL     1       3.783  43.245   9.937  1.00  0.00     0.014 C 
ATOM     11  C   UNL     1       4.309  44.290  12.152  1.00  0.00     0.014 C 
ENDBRANCH   1   9
TORSDOF 3
ENDMDL
MODEL 8
REMARK VINA RESULT:    -3.700      3.647      4.052
REMARK INTER + INTRA:          -4.303
REMARK INTER:                  -4.255
REMARK INTRA:                  -0.048
REMARK UNBOUND:                -0.062
REMARK SMILES CC(C)[C@H]([NH3+])C(=O)[O-]
REMARK SMILES IDX 4 1 5 2 6 6 7 7 8 8 2 9 1 10 3 11
REMARK H PARENT 5 3 5 4 5 5
REMARK Flexibility Score: inf
ROOT
ATOM      1  C   UNL     1       4.216  44.997  10.191  1.00  0.00     0.230 C 
ENDROOT
BRANCH   1   2
ATOM      2  N   UNL     1       3.442  44.328   9.134  1.00  0.00    -0.350 N 
ATOM      3  H   UNL     1       3.296  44.978   8.327  1.00  0.00     0.345 HD
ATOM      4  H   UNL     1       2.495  44.064   9.490  1.00  0.00     0.345 HD
ATOM      5  H   UNL     1       3.939  43.472   8.795  1.00  0.00     0.345 HD
ENDBRANCH   1   2
BRANCH   1   6
ATOM      6  C   UNL     1       3.666  44.603  11.540  1.00  0.00     0.099 C 
ATOM      7  O   UNL     1       4.444  44.281  12.477  1.00  0.00    -0.544 OA
ATOM      8  O   UNL     1       2.293  44.584  11.752  1.00  0.00    -0.544 OA
ENDBRANCH   1   6
BRANCH   1   9
ATOM      9  C   UNL     1       4.213  46.546  10.021  1.00  0.00     0.047 C 
ATOM     10  C   UNL     1       5.585  47.057   9.545  1.00  0.00     0.014 C 
ATOM     11  C   UNL     1       3.133  47.012   9.030  1.00  0.00     0.014 C 
ENDBRANCH   1   9
TORSDOF 3
ENDMDL
MODEL 9
REMARK VINA RESULT:    -3.700      3.431      4.018
REMARK INTER + INTRA:          -4.303
REMARK INTER:                  -4.231
REMARK INTRA:                  -0.071
REMARK UNBOUND:                -0.062
REMARK SMILES CC(C)[C@H]([NH3+])C(=O)[O-]
REMARK SMILES IDX 4 1 5 2 6 6 7 7 8 8 2 9 1 10 3 11
REMARK H PARENT 5 3 5 4 5 5
REMARK Flexibility Score: inf
ROOT
ATOM      1  C   UNL     1       2.879  44.280  11.673  1.00  0.00     0.230 C 
ENDROOT
BRANCH   1   2
ATOM      2  N   UNL     1       1.430  44.256  11.928  1.00  0.00    -0.350 N 
ATOM      3  H   UNL     1       1.197  44.863  12.747  1.00  0.00     0.345 HD
ATOM      4  H   UNL     1       1.121  43.286  12.167  1.00  0.00     0.345 HD
ATOM      5  H   UNL     1       0.901  44.595  11.091  1.00  0.00     0.345 HD
ENDBRANCH   1   2
BRANCH   1   6
ATOM      6  C   UNL     1       3.239  45.554  10.950  1.00  0.00     0.099 C 
ATOM      7  O   UNL     1       4.441  45.920  10.861  1.00  0.00    -0.544 OA
ATOM      8  O   UNL     1       2.241  46.338  10.385  1.00  0.00    -0.544 OA
ENDBRANCH   1   6
BRANCH   1   9
ATOM      9  C   UNL     1       3.348  43.031  10.867  1.00  0.00     0.047 C 
ATOM     10  C   UNL     1       3.069  41.730  11.641  1.00  0.00     0.014 C 
ATOM     11  C   UNL     1       2.669  42.951   9.489  1.00  0.00     0.014 C 
ENDBRANCH   1   9
TORSDOF 3
ENDMDL
