MODEL 1
REMARK VINA RESULT:    -3.776      0.000      0.000
REMARK INTER + INTRA:          -5.553
REMARK INTER:                  -5.101
REMARK INTRA:                  -0.453
REMARK UNBOUND:                -0.453
REMARK SMILES [NH3+]CCCC[C@H]([NH3+])C(=O)[O-]
REMARK SMILES IDX 4 1 3 2 2 3 1 4 5 8 6 9 7 10 8 14 9 15 10 16
REMARK H PARENT 1 5 1 6 1 7 7 11 7 12 7 13
REMARK Flexibility Score: inf
ROOT
ATOM      1  C   UNL     1      32.888  57.057  25.896  1.00  0.00     0.012 C 
ENDROOT
BRANCH   1   2
ATOM      2  C   UNL     1      33.268  56.180  24.689  1.00  0.00     0.061 C 
BRANCH   2   3
ATOM      3  C   UNL     1      34.389  56.749  23.800  1.00  0.00     0.258 C 
BRANCH   3   4
ATOM      4  N   UNL     1      33.870  57.402  22.595  1.00  0.00    -0.358 N 
ATOM      5  H   UNL     1      32.847  57.213  22.495  1.00  0.00     0.344 HD
ATOM      6  H   UNL     1      34.004  58.435  22.683  1.00  0.00     0.344 HD
ATOM      7  H   UNL     1      34.382  57.066  21.748  1.00  0.00     0.344 HD
ENDBRANCH   3   4
ENDBRANCH   2   3
ENDBRANCH   1   2
BRANCH   1   8
ATOM      8  C   UNL     1      31.702  57.996  25.600  1.00  0.00     0.072 C 
BRANCH   8   9
ATOM      9  C   UNL     1      32.105  59.467  25.345  1.00  0.00     0.227 C 
BRANCH   9  10
ATOM     10  N   UNL     1      31.898  60.314  26.529  1.00  0.00    -0.350 N 
ATOM     11  H   UNL     1      30.917  60.194  26.873  1.00  0.00     0.345 HD
ATOM     12  H   UNL     1      32.034  61.320  26.277  1.00  0.00     0.345 HD
ATOM     13  H   UNL     1      32.553  60.061  27.302  1.00  0.00     0.345 HD
ENDBRANCH   9  10
BRANCH   9  14
ATOM     14  C   UNL     1      31.410  60.030  24.131  1.00  0.00     0.099 C 
ATOM     15  O   UNL     1      30.541  60.934  24.244  1.00  0.00    -0.544 OA
ATOM     16  O   UNL     1      31.693  59.510  22.874  1.00  0.00    -0.544 OA
ENDBRANCH   9  14
ENDBRANCH   8   9
ENDBRANCH   1   8
TORSDOF 7
ENDMDL
MODEL 2
REMARK VINA RESULT:    -3.754     15.485     16.637
REMARK INTER + INTRA:          -5.524
REMARK INTER:                  -4.936
REMARK INTRA:                  -0.588
REMARK UNBOUND:                -0.453
REMARK SMILES [NH3+]CCCC[C@H]([NH3+])C(=O)[O-]
REMARK SMILES IDX 4 1 3 2 2 3 1 4 5 8 6 9 7 10 8 14 9 15 10 16
REMARK H PARENT 1 5 1 6 1 7 7 11 7 12 7 13
REMARK Flexibility Score: inf
ROOT
ATOM      1  C   UNL     1      28.688  46.653  13.533  1.00  0.00     0.012 C 
ENDROOT
BRANCH   1   2
ATOM      2  C   UNL     1      27.489  45.687  13.528  1.00  0.00     0.061 C 
BRANCH   2   3
ATOM      3  C   UNL     1      27.854  44.198  13.669  1.00  0.00     0.258 C 
BRANCH   3   4
ATOM      4  N   UNL     1      27.533  43.668  14.996  1.00  0.00    -0.358 N 
ATOM      5  H   UNL     1      27.527  44.439  15.701  1.00  0.00     0.344 HD
ATOM      6  H   UNL     1      26.580  43.240  14.971  1.00  0.00     0.344 HD
ATOM      7  H   UNL     1      28.225  42.934  15.274  1.00  0.00     0.344 HD
ENDBRANCH   3   4
ENDBRANCH   2   3
ENDBRANCH   1   2
BRANCH   1   8
ATOM      8  C   UNL     1      28.987  47.225  14.932  1.00  0.00     0.072 C 
BRANCH   8   9
ATOM      9  C   UNL     1      30.183  46.556  15.650  1.00  0.00     0.227 C 
BRANCH   9  10
ATOM     10  N   UNL     1      30.981  45.721  14.740  1.00  0.00    -0.350 N 
ATOM     11  H   UNL     1      31.246  46.281  13.897  1.00  0.00     0.345 HD
ATOM     12  H   UNL     1      30.415  44.900  14.421  1.00  0.00     0.345 HD
ATOM     13  H   UNL     1      31.854  45.378  15.199  1.00  0.00     0.345 HD
ENDBRANCH   9  10
BRANCH   9  14
ATOM     14  C   UNL     1      29.739  45.785  16.867  1.00  0.00     0.099 C 
ATOM     15  O   UNL     1      28.534  45.450  17.017  1.00  0.00    -0.544 OA
ATOM     16  O   UNL     1      30.660  45.483  17.862  1.00  0.00    -0.544 OA
ENDBRANCH   9  14
ENDBRANCH   8   9
ENDBRANCH   1   8
TORSDOF 7
ENDMDL
MODEL 3
REMARK VINA RESULT:    -3.734      1.818      2.028
REMARK INTER + INTRA:          -5.496
REMARK INTER:                  -5.393
REMARK INTRA:                  -0.103
REMARK UNBOUND:                -0.453
REMARK SMILES [NH3+]CCCC[C@H]([NH3+])C(=O)[O-]
REMARK SMILES IDX 4 1 3 2 2 3 1 4 5 8 6 9 7 10 8 14 9 15 10 16
REMARK H PARENT 1 5 1 6 1 7 7 11 7 12 7 13
REMARK Flexibility Score: inf
ROOT
ATOM      1  C   UNL     1      32.061  57.669  25.724  1.00  0.00     0.012 C 
ENDROOT
BRANCH   1   2
ATOM      2  C   UNL     1      33.043  56.494  25.564  1.00  0.00     0.061 C 
BRANCH   2   3
ATOM      3  C   UNL     1      33.651  56.344  24.157  1.00  0.00     0.258 C 
BRANCH   3   4
ATOM      4  N   UNL     1      35.062  56.736  24.113  1.00  0.00    -0.358 N 
ATOM      5  H   UNL     1      35.673  55.889  24.112  1.00  0.00     0.344 HD
ATOM      6  H   UNL     1      35.239  57.268  23.230  1.00  0.00     0.344 HD
ATOM      7  H   UNL     1      35.296  57.349  24.928  1.00  0.00     0.344 HD
ENDBRANCH   3   4
ENDBRANCH   2   3
ENDBRANCH   1   2
BRANCH   1   8
ATOM      8  C   UNL     1      32.420  58.872  24.831  1.00  0.00     0.072 C 
BRANCH   8   9
ATOM      9  C   UNL     1      31.200  59.571  24.186  1.00  0.00     0.227 C 
BRANCH   9  10
ATOM     10  N   UNL     1      31.386  59.793  22.744  1.00  0.00    -0.350 N 
ATOM     11  H   UNL     1      32.240  59.282  22.422  1.00  0.00     0.345 HD
ATOM     12  H   UNL     1      31.525  60.813  22.555  1.00  0.00     0.345 HD
ATOM     13  H   UNL     1      30.567  59.451  22.193  1.00  0.00     0.345 HD
ENDBRANCH   9  10
BRANCH   9  14
ATOM     14  C   UNL     1      30.847  60.849  24.904  1.00  0.00     0.099 C 
ATOM     15  O   UNL     1      29.891  61.569  24.512  1.00  0.00    -0.544 OA
ATOM     16  O   UNL     1      31.618  61.266  25.982  1.00  0.00    -0.544 OA
ENDBRANCH   9  14
ENDBRANCH   8   9
ENDBRANCH   1   8
TORSDOF 7
ENDMDL
MODEL 4
REMARK VINA RESULT:    -3.692      7.874      8.610
REMARK INTER + INTRA:          -5.440
REMARK INTER:                  -5.346
REMARK INTRA:                  -0.094
REMARK UNBOUND:                -0.453
REMARK SMILES [NH3+]CCCC[C@H]([NH3+])C(=O)[O-]
REMARK SMILES IDX 4 1 3 2 2 3 1 4 5 8 6 9 7 10 8 14 9 15 10 16
REMARK H PARENT 1 5 1 6 1 7 7 11 7 12 7 13
REMARK Flexibility Score: inf
ROOT
ATOM      1  C   UNL     1      29.538  49.841  27.230  1.00  0.00     0.012 C 
ENDROOT
BRANCH   1   2
ATOM      2  C   UNL     1      28.745  48.757  26.476  1.00  0.00     0.061 C 
BRANCH   2   3
ATOM      3  C   UNL     1      28.229  49.178  25.087  1.00  0.00     0.258 C 
BRANCH   3   4
ATOM      4  N   UNL     1      26.876  48.684  24.821  1.00  0.00    -0.358 N 
ATOM      5  H   UNL     1      26.917  47.809  24.251  1.00  0.00     0.344 HD
ATOM      6  H   UNL     1      26.411  48.460  25.730  1.00  0.00     0.344 HD
ATOM      7  H   UNL     1      26.313  49.411  24.323  1.00  0.00     0.344 HD
ENDBRANCH   3   4
ENDBRANCH   2   3
ENDBRANCH   1   2
BRANCH   1   8
ATOM      8  C   UNL     1      29.509  51.206  26.516  1.00  0.00     0.072 C 
BRANCH   8   9
ATOM      9  C   UNL     1      30.032  52.382  27.373  1.00  0.00     0.227 C 
BRANCH   9  10
ATOM     10  N   UNL     1      29.243  53.608  27.175  1.00  0.00    -0.350 N 
ATOM     11  H   UNL     1      29.870  54.371  26.829  1.00  0.00     0.345 HD
ATOM     12  H   UNL     1      28.827  53.915  28.084  1.00  0.00     0.345 HD
ATOM     13  H   UNL     1      28.479  53.465  26.478  1.00  0.00     0.345 HD
ENDBRANCH   9  10
BRANCH   9  14
ATOM     14  C   UNL     1      31.503  52.626  27.144  1.00  0.00     0.099 C 
ATOM     15  O   UNL     1      32.360  51.765  27.475  1.00  0.00    -0.544 OA
ATOM     16  O   UNL     1      31.923  53.836  26.608  1.00  0.00    -0.544 OA
ENDBRANCH   9  14
ENDBRANCH   8   9
ENDBRANCH   1   8
TORSDOF 7
ENDMDL
MODEL 5
REMARK VINA RESULT:    -3.655      4.554      5.311
REMARK INTER + INTRA:          -5.389
REMARK INTER:                  -5.273
REMARK INTRA:                  -0.117
REMARK UNBOUND:                -0.453
REMARK SMILES [NH3+]CCCC[C@H]([NH3+])C(=O)[O-]
REMARK SMILES IDX 4 1 3 2 2 3 1 4 5 8 6 9 7 10 8 14 9 15 10 16
REMARK H PARENT 1 5 1 6 1 7 7 11 7 12 7 13
REMARK Flexibility Score: inf
ROOT
ATOM      1  C   UNL     1      32.461  56.296  26.442  1.00  0.00     0.012 C 
ENDROOT
BRANCH   1   2
ATOM      2  C   UNL     1      32.887  57.144  25.229  1.00  0.00     0.061 C 
BRANCH   2   3
ATOM      3  C   UNL     1      33.693  56.386  24.158  1.00  0.00     0.258 C 
BRANCH   3   4
ATOM      4  N   UNL     1      35.089  56.825  24.096  1.00  0.00    -0.358 N 
ATOM      5  H   UNL     1      35.558  56.670  25.017  1.00  0.00     0.344 HD
ATOM      6  H   UNL     1      35.592  56.260  23.374  1.00  0.00     0.344 HD
ATOM      7  H   UNL     1      35.143  57.835  23.830  1.00  0.00     0.344 HD
ENDBRANCH   3   4
ENDBRANCH   2   3
ENDBRANCH   1   2
BRANCH   1   8
ATOM      8  C   UNL     1      32.427  54.787  26.133  1.00  0.00     0.072 C 
BRANCH   8   9
ATOM      9  C   UNL     1      31.851  53.917  27.274  1.00  0.00     0.227 C 
BRANCH   9  10
ATOM     10  N   UNL     1      32.584  52.652  27.433  1.00  0.00    -0.350 N 
ATOM     11  H   UNL     1      33.432  52.664  26.820  1.00  0.00     0.345 HD
ATOM     12  H   UNL     1      31.981  51.850  27.139  1.00  0.00     0.345 HD
ATOM     13  H   UNL     1      32.892  52.507  28.420  1.00  0.00     0.345 HD
ENDBRANCH   9  10
BRANCH   9  14
ATOM     14  C   UNL     1      30.371  53.683  27.102  1.00  0.00     0.099 C 
ATOM     15  O   UNL     1      29.540  54.600  27.334  1.00  0.00    -0.544 OA
ATOM     16  O   UNL     1      29.913  52.424  26.733  1.00  0.00    -0.544 OA
ENDBRANCH   9  14
ENDBRANCH   8   9
ENDBRANCH   1   8
TORSDOF 7
ENDMDL
MODEL 6
REMARK VINA RESULT:    -3.604     11.867     13.151
REMARK INTER + INTRA:          -5.321
REMARK INTER:                  -5.190
REMARK INTRA:                  -0.131
REMARK UNBOUND:                -0.453
REMARK SMILES [NH3+]CCCC[C@H]([NH3+])C(=O)[O-]
REMARK SMILES IDX 4 1 3 2 2 3 1 4 5 8 6 9 7 10 8 14 9 15 10 16
REMARK H PARENT 1 5 1 6 1 7 7 11 7 12 7 13
REMARK Flexibility Score: inf
ROOT
ATOM      1  C   UNL     1      29.925  47.811  26.346  1.00  0.00     0.012 C 
ENDROOT
BRANCH   1   2
ATOM      2  C   UNL     1      28.759  48.812  26.446  1.00  0.00     0.061 C 
BRANCH   2   3
ATOM      3  C   UNL     1      28.160  49.248  25.095  1.00  0.00     0.258 C 
BRANCH   3   4
ATOM      4  N   UNL     1      26.855  48.634  24.839  1.00  0.00    -0.358 N 
ATOM      5  H   UNL     1      26.560  48.058  25.659  1.00  0.00     0.344 HD
ATOM      6  H   UNL     1      26.146  49.390  24.697  1.00  0.00     0.344 HD
ATOM      7  H   UNL     1      26.893  48.041  23.978  1.00  0.00     0.344 HD
ENDBRANCH   3   4
ENDBRANCH   2   3
ENDBRANCH   1   2
BRANCH   1   8
ATOM      8  C   UNL     1      29.504  46.370  26.693  1.00  0.00     0.072 C 
BRANCH   8   9
ATOM      9  C   UNL     1      30.672  45.454  27.128  1.00  0.00     0.227 C 
BRANCH   9  10
ATOM     10  N   UNL     1      31.847  46.222  27.566  1.00  0.00    -0.350 N 
ATOM     11  H   UNL     1      32.629  45.563  27.788  1.00  0.00     0.345 HD
ATOM     12  H   UNL     1      31.619  46.761  28.433  1.00  0.00     0.345 HD
ATOM     13  H   UNL     1      32.172  46.884  26.826  1.00  0.00     0.345 HD
ENDBRANCH   9  10
BRANCH   9  14
ATOM     14  C   UNL     1      31.028  44.459  26.052  1.00  0.00     0.099 C 
ATOM     15  O   UNL     1      30.562  44.571  24.888  1.00  0.00    -0.544 OA
ATOM     16  O   UNL     1      31.840  43.375  26.361  1.00  0.00    -0.544 OA
ENDBRANCH   9  14
ENDBRANCH   8   9
ENDBRANCH   1   8
TORSDOF 7
ENDMDL
MODEL 7
REMARK VINA RESULT:    -3.537      9.020      9.683
REMARK INTER + INTRA:          -5.230
REMARK INTER:                  -4.937
REMARK INTRA:                  -0.292
REMARK UNBOUND:                -0.453
REMARK SMILES [NH3+]CCCC[C@H]([NH3+])C(=O)[O-]
REMARK SMILES IDX 4 1 3 2 2 3 1 4 5 8 6 9 7 10 8 14 9 15 10 16
REMARK H PARENT 1 5 1 6 1 7 7 11 7 12 7 13
REMARK Flexibility Score: inf
ROOT
ATOM      1  C   UNL     1      31.585  58.493  16.132  1.00  0.00     0.012 C 
ENDROOT
BRANCH   1   2
ATOM      2  C   UNL     1      33.028  58.721  15.648  1.00  0.00     0.061 C 
BRANCH   2   3
ATOM      3  C   UNL     1      33.189  58.846  14.121  1.00  0.00     0.258 C 
BRANCH   3   4
ATOM      4  N   UNL     1      34.002  60.003  13.738  1.00  0.00    -0.358 N 
ATOM      5  H   UNL     1      34.975  59.898  14.106  1.00  0.00     0.344 HD
ATOM      6  H   UNL     1      34.051  60.054  12.695  1.00  0.00     0.344 HD
ATOM      7  H   UNL     1      33.574  60.886  14.099  1.00  0.00     0.344 HD
ENDBRANCH   3   4
ENDBRANCH   2   3
ENDBRANCH   1   2
BRANCH   1   8
ATOM      8  C   UNL     1      30.983  59.734  16.818  1.00  0.00     0.072 C 
BRANCH   8   9
ATOM      9  C   UNL     1      29.661  60.231  16.187  1.00  0.00     0.227 C 
BRANCH   9  10
ATOM     10  N   UNL     1      28.517  59.382  16.551  1.00  0.00    -0.350 N 
ATOM     11  H   UNL     1      27.629  59.913  16.398  1.00  0.00     0.345 HD
ATOM     12  H   UNL     1      28.572  59.124  17.564  1.00  0.00     0.345 HD
ATOM     13  H   UNL     1      28.486  58.510  15.976  1.00  0.00     0.345 HD
ENDBRANCH   9  10
BRANCH   9  14
ATOM     14  C   UNL     1      29.783  60.387  14.692  1.00  0.00     0.099 C 
ATOM     15  O   UNL     1      29.155  59.627  13.909  1.00  0.00    -0.544 OA
ATOM     16  O   UNL     1      30.641  61.347  14.169  1.00  0.00    -0.544 OA
ENDBRANCH   9  14
ENDBRANCH   8   9
ENDBRANCH   1   8
TORSDOF 7
ENDMDL
MODEL 8
REMARK VINA RESULT:    -3.534      6.381      6.928
REMARK INTER + INTRA:          -5.226
REMARK INTER:                  -4.853
REMARK INTRA:                  -0.372
REMARK UNBOUND:                -0.453
REMARK SMILES [NH3+]CCCC[C@H]([NH3+])C(=O)[O-]
REMARK SMILES IDX 4 1 3 2 2 3 1 4 5 8 6 9 7 10 8 14 9 15 10 16
REMARK H PARENT 1 5 1 6 1 7 7 11 7 12 7 13
REMARK Flexibility Score: inf
ROOT
ATOM      1  C   UNL     1      29.907  51.338  28.115  1.00  0.00     0.012 C 
ENDROOT
BRANCH   1   2
ATOM      2  C   UNL     1      30.560  50.058  27.561  1.00  0.00     0.061 C 
BRANCH   2   3
ATOM      3  C   UNL     1      32.051  49.888  27.907  1.00  0.00     0.258 C 
BRANCH   3   4
ATOM      4  N   UNL     1      32.876  50.971  27.367  1.00  0.00    -0.358 N 
ATOM      5  H   UNL     1      33.474  51.379  28.120  1.00  0.00     0.344 HD
ATOM      6  H   UNL     1      33.503  50.584  26.625  1.00  0.00     0.344 HD
ATOM      7  H   UNL     1      32.274  51.714  26.944  1.00  0.00     0.344 HD
ENDBRANCH   3   4
ENDBRANCH   2   3
ENDBRANCH   1   2
BRANCH   1   8
ATOM      8  C   UNL     1      29.647  52.395  27.025  1.00  0.00     0.072 C 
BRANCH   8   9
ATOM      9  C   UNL     1      29.727  53.857  27.524  1.00  0.00     0.227 C 
BRANCH   9  10
ATOM     10  N   UNL     1      28.561  54.650  27.109  1.00  0.00    -0.350 N 
ATOM     11  H   UNL     1      28.491  55.504  27.710  1.00  0.00     0.345 HD
ATOM     12  H   UNL     1      27.685  54.091  27.235  1.00  0.00     0.345 HD
ATOM     13  H   UNL     1      28.635  54.952  26.112  1.00  0.00     0.345 HD
ENDBRANCH   9  10
BRANCH   9  14
ATOM     14  C   UNL     1      31.020  54.514  27.113  1.00  0.00     0.099 C 
ATOM     15  O   UNL     1      31.138  55.768  27.115  1.00  0.00    -0.544 OA
ATOM     16  O   UNL     1      32.081  53.730  26.676  1.00  0.00    -0.544 OA
ENDBRANCH   9  14
ENDBRANCH   8   9
ENDBRANCH   1   8
TORSDOF 7
ENDMDL
MODEL 9
REMARK VINA RESULT:    -3.488     15.721     17.166
REMARK INTER + INTRA:          -5.164
REMARK INTER:                  -4.623
REMARK INTRA:                  -0.540
REMARK UNBOUND:                -0.453
REMARK SMILES [NH3+]CCCC[C@H]([NH3+])C(=O)[O-]
REMARK SMILES IDX 4 1 3 2 2 3 1 4 5 8 6 9 7 10 8 14 9 15 10 16
REMARK H PARENT 1 5 1 6 1 7 7 11 7 12 7 13
REMARK Flexibility Score: inf
ROOT
ATOM      1  C   UNL     1      30.243  43.060  14.608  1.00  0.00     0.012 C 
ENDROOT
BRANCH   1   2
ATOM      2  C   UNL     1      29.360  43.388  13.390  1.00  0.00     0.061 C 
BRANCH   2   3
ATOM      3  C   UNL     1      27.971  43.960  13.730  1.00  0.00     0.258 C 
BRANCH   3   4
ATOM      4  N   UNL     1      27.570  43.671  15.109  1.00  0.00    -0.358 N 
ATOM      5  H   UNL     1      28.135  44.242  15.777  1.00  0.00     0.344 HD
ATOM      6  H   UNL     1      26.563  43.925  15.230  1.00  0.00     0.344 HD
ATOM      7  H   UNL     1      27.688  42.653  15.317  1.00  0.00     0.344 HD
ENDBRANCH   3   4
ENDBRANCH   2   3
ENDBRANCH   1   2
BRANCH   1   8
ATOM      8  C   UNL     1      31.277  44.162  14.908  1.00  0.00     0.072 C 
BRANCH   8   9
ATOM      9  C   UNL     1      31.037  44.915  16.238  1.00  0.00     0.227 C 
BRANCH   9  10
ATOM     10  N   UNL     1      30.727  44.000  17.346  1.00  0.00    -0.350 N 
ATOM     11  H   UNL     1      29.741  43.664  17.253  1.00  0.00     0.345 HD
ATOM     12  H   UNL     1      30.815  44.503  18.259  1.00  0.00     0.345 HD
ATOM     13  H   UNL     1      31.362  43.170  17.349  1.00  0.00     0.345 HD
ENDBRANCH   9  10
BRANCH   9  14
ATOM     14  C   UNL     1      29.983  45.983  16.088  1.00  0.00     0.099 C 
ATOM     15  O   UNL     1      28.877  45.888  16.683  1.00  0.00    -0.544 OA
ATOM     16  O   UNL     1      30.213  47.061  15.243  1.00  0.00    -0.544 OA
ENDBRANCH   9  14
ENDBRANCH   8   9
ENDBRANCH   1   8
TORSDOF 7
ENDMDL
