MODEL 1
REMARK VINA RESULT:    -2.147      0.000      0.000
REMARK INTER + INTRA:          -9.148
REMARK INTER:                  -4.908
REMARK INTRA:                  -4.240
REMARK UNBOUND:                -4.240
REMARK SMILES CCCCCCCCCCCCCCCCCCCCCCCC(=O)[O-]
REMARK SMILES IDX 13 1 14 2 15 3 16 4 17 5 18 6 19 7 20 8 21 9 22 10 23 11
REMARK SMILES IDX 24 12 25 13 26 14 12 15 11 16 10 17 9 18 8 19 7 20 6 21 5 22
REMARK SMILES IDX 4 23 3 24 2 25 1 26
REMARK H PARENT
REMARK Flexibility Score: inf
ROOT
ATOM      1  C   UNL     1      -3.327  10.147 -13.694  1.00  0.00     0.000 C 
ENDROOT
BRANCH   1   2
ATOM      2  C   UNL     1      -1.985   9.991 -12.951  1.00  0.00     0.000 C 
BRANCH   2   3
ATOM      3  C   UNL     1      -1.938   8.835 -11.937  1.00  0.00     0.000 C 
BRANCH   3   4
ATOM      4  C   UNL     1      -1.412   9.252 -10.544  1.00  0.00     0.000 C 
BRANCH   4   5
ATOM      5  C   UNL     1      -2.324  10.283  -9.855  1.00  0.00     0.000 C 
BRANCH   5   6
ATOM      6  C   UNL     1      -3.134   9.685  -8.690  1.00  0.00     0.000 C 
BRANCH   6   7
ATOM      7  C   UNL     1      -4.525   9.146  -9.071  1.00  0.00     0.000 C 
BRANCH   7   8
ATOM      8  C   UNL     1      -4.537   7.627  -9.318  1.00  0.00     0.000 C 
BRANCH   8   9
ATOM      9  C   UNL     1      -3.925   6.838  -8.149  1.00  0.00     0.000 C 
BRANCH   9  10
ATOM     10  C   UNL     1      -2.960   5.737  -8.622  1.00  0.00     0.006 C 
BRANCH  10  11
ATOM     11  C   UNL     1      -1.492   6.173  -8.524  1.00  0.00     0.053 C 
BRANCH  11  12
ATOM     12  C   UNL     1      -0.902   5.856  -7.184  1.00  0.00     0.041 C 
ATOM     13  O   UNL     1      -0.431   4.711  -6.952  1.00  0.00    -0.550 OA
ATOM     14  O   UNL     1      -0.893   6.820  -6.181  1.00  0.00    -0.550 OA
ENDBRANCH  11  12
ENDBRANCH  10  11
ENDBRANCH   9  10
ENDBRANCH   8   9
ENDBRANCH   7   8
ENDBRANCH   6   7
ENDBRANCH   5   6
ENDBRANCH   4   5
ENDBRANCH   3   4
ENDBRANCH   2   3
ENDBRANCH   1   2
BRANCH   1  15
ATOM     15  C   UNL     1      -4.564   9.840 -12.822  1.00  0.00     0.000 C 
BRANCH  15  16
ATOM     16  C   UNL     1      -5.197  11.104 -12.214  1.00  0.00     0.000 C 
BRANCH  16  17
ATOM     17  C   UNL     1      -5.253  12.276 -13.206  1.00  0.00     0.000 C 
BRANCH  17  18
ATOM     18  C   UNL     1      -4.651  13.569 -12.628  1.00  0.00    -0.000 C 
BRANCH  18  19
ATOM     19  C   UNL     1      -3.561  13.300 -11.577  1.00  0.00    -0.000 C 
BRANCH  19  20
ATOM     20  C   UNL     1      -2.126  13.616 -12.039  1.00  0.00    -0.000 C 
BRANCH  20  21
ATOM     21  C   UNL     1      -1.094  13.655 -10.890  1.00  0.00    -0.000 C 
BRANCH  21  22
ATOM     22  C   UNL     1       0.336  13.350 -11.373  1.00  0.00    -0.000 C 
BRANCH  22  23
ATOM     23  C   UNL     1       0.856  11.995 -10.848  1.00  0.00    -0.000 C 
BRANCH  23  24
ATOM     24  C   UNL     1       1.861  12.124  -9.687  1.00  0.00    -0.000 C 
BRANCH  24  25
ATOM     25  C   UNL     1       1.407  11.475  -8.370  1.00  0.00    -0.003 C 
ATOM     26  C   UNL     1       0.164  12.138  -7.778  1.00  0.00     0.004 C 
ENDBRANCH  24  25
ENDBRANCH  23  24
ENDBRANCH  22  23
ENDBRANCH  21  22
ENDBRANCH  20  21
ENDBRANCH  19  20
ENDBRANCH  18  19
ENDBRANCH  17  18
ENDBRANCH  16  17
ENDBRANCH  15  16
ENDBRANCH   1  15
TORSDOF 22
ENDMDL
MODEL 2
REMARK VINA RESULT:    -2.143      1.518      3.266
REMARK INTER + INTRA:          -9.139
REMARK INTER:                  -5.207
REMARK INTRA:                  -3.932
REMARK UNBOUND:                -4.240
REMARK SMILES CCCCCCCCCCCCCCCCCCCCCCCC(=O)[O-]
REMARK SMILES IDX 13 1 14 2 15 3 16 4 17 5 18 6 19 7 20 8 21 9 22 10 23 11
REMARK SMILES IDX 24 12 25 13 26 14 12 15 11 16 10 17 9 18 8 19 7 20 6 21 5 22
REMARK SMILES IDX 4 23 3 24 2 25 1 26
REMARK H PARENT
REMARK Flexibility Score: inf
ROOT
ATOM      1  C   UNL     1      -4.068   8.956 -11.264  1.00  0.00     0.000 C 
ENDROOT
BRANCH   1   2
ATOM      2  C   UNL     1      -4.954   9.491 -10.122  1.00  0.00     0.000 C 
BRANCH   2   3
ATOM      3  C   UNL     1      -4.674   8.872  -8.741  1.00  0.00     0.000 C 
BRANCH   3   4
ATOM      4  C   UNL     1      -4.983   7.360  -8.665  1.00  0.00     0.000 C 
BRANCH   4   5
ATOM      5  C   UNL     1      -3.837   6.555  -8.026  1.00  0.00     0.000 C 
BRANCH   5   6
ATOM      6  C   UNL     1      -2.503   6.704  -8.782  1.00  0.00     0.000 C 
BRANCH   6   7
ATOM      7  C   UNL     1      -2.144   5.528  -9.709  1.00  0.00     0.000 C 
BRANCH   7   8
ATOM      8  C   UNL     1      -0.986   4.669  -9.171  1.00  0.00     0.000 C 
BRANCH   8   9
ATOM      9  C   UNL     1      -1.401   3.814  -7.963  1.00  0.00     0.000 C 
BRANCH   9  10
ATOM     10  C   UNL     1      -0.504   4.054  -6.736  1.00  0.00     0.006 C 
BRANCH  10  11
ATOM     11  C   UNL     1       0.597   5.085  -7.017  1.00  0.00     0.053 C 
BRANCH  11  12
ATOM     12  C   UNL     1       0.398   6.346  -6.232  1.00  0.00     0.041 C 
ATOM     13  O   UNL     1      -0.763   6.771  -5.998  1.00  0.00    -0.550 OA
ATOM     14  O   UNL     1       1.499   7.064  -5.777  1.00  0.00    -0.550 OA
ENDBRANCH  11  12
ENDBRANCH  10  11
ENDBRANCH   9  10
ENDBRANCH   8   9
ENDBRANCH   7   8
ENDBRANCH   6   7
ENDBRANCH   5   6
ENDBRANCH   4   5
ENDBRANCH   3   4
ENDBRANCH   2   3
ENDBRANCH   1   2
BRANCH   1  15
ATOM     15  C   UNL     1      -3.981   9.901 -12.483  1.00  0.00     0.000 C 
BRANCH  15  16
ATOM     16  C   UNL     1      -2.535  10.141 -12.954  1.00  0.00     0.000 C 
BRANCH  16  17
ATOM     17  C   UNL     1      -2.135  11.623 -12.912  1.00  0.00     0.000 C 
BRANCH  17  18
ATOM     18  C   UNL     1      -3.287  12.533 -12.451  1.00  0.00    -0.000 C 
BRANCH  18  19
ATOM     19  C   UNL     1      -3.018  13.188 -11.085  1.00  0.00    -0.000 C 
BRANCH  19  20
ATOM     20  C   UNL     1      -1.530  13.397 -10.750  1.00  0.00    -0.000 C 
BRANCH  20  21
ATOM     21  C   UNL     1      -1.072  12.680  -9.461  1.00  0.00    -0.000 C 
BRANCH  21  22
ATOM     22  C   UNL     1      -1.860  11.384  -9.197  1.00  0.00    -0.000 C 
BRANCH  22  23
ATOM     23  C   UNL     1      -1.031  10.119  -9.509  1.00  0.00    -0.000 C 
BRANCH  23  24
ATOM     24  C   UNL     1       0.300  10.413 -10.226  1.00  0.00    -0.000 C 
BRANCH  24  25
ATOM     25  C   UNL     1       1.028   9.170 -10.764  1.00  0.00    -0.003 C 
ATOM     26  C   UNL     1       0.068   8.095 -11.273  1.00  0.00     0.004 C 
ENDBRANCH  24  25
ENDBRANCH  23  24
ENDBRANCH  22  23
ENDBRANCH  21  22
ENDBRANCH  20  21
ENDBRANCH  19  20
ENDBRANCH  18  19
ENDBRANCH  17  18
ENDBRANCH  16  17
ENDBRANCH  15  16
ENDBRANCH   1  15
TORSDOF 22
ENDMDL
MODEL 3
REMARK VINA RESULT:    -2.141      3.147      6.095
REMARK INTER + INTRA:          -9.135
REMARK INTER:                  -4.740
REMARK INTRA:                  -4.395
REMARK UNBOUND:                -4.240
REMARK SMILES CCCCCCCCCCCCCCCCCCCCCCCC(=O)[O-]
REMARK SMILES IDX 13 1 14 2 15 3 16 4 17 5 18 6 19 7 20 8 21 9 22 10 23 11
REMARK SMILES IDX 24 12 25 13 26 14 12 15 11 16 10 17 9 18 8 19 7 20 6 21 5 22
REMARK SMILES IDX 4 23 3 24 2 25 1 26
REMARK H PARENT
REMARK Flexibility Score: inf
ROOT
ATOM      1  C   UNL     1      -1.327  13.394 -10.441  1.00  0.00     0.000 C 
ENDROOT
BRANCH   1   2
ATOM      2  C   UNL     1      -0.297  13.446 -11.587  1.00  0.00     0.000 C 
BRANCH   2   3
ATOM      3  C   UNL     1       0.213  12.073 -12.061  1.00  0.00     0.000 C 
BRANCH   3   4
ATOM      4  C   UNL     1       0.701  11.161 -10.913  1.00  0.00     0.000 C 
BRANCH   4   5
ATOM      5  C   UNL     1       2.188  11.378 -10.579  1.00  0.00     0.000 C 
BRANCH   5   6
ATOM      6  C   UNL     1       2.443  11.573  -9.073  1.00  0.00     0.000 C 
BRANCH   6   7
ATOM      7  C   UNL     1       1.626  12.699  -8.412  1.00  0.00     0.000 C 
BRANCH   7   8
ATOM      8  C   UNL     1       0.573  12.176  -7.420  1.00  0.00     0.000 C 
BRANCH   8   9
ATOM      9  C   UNL     1      -0.143  13.313  -6.670  1.00  0.00     0.000 C 
BRANCH   9  10
ATOM     10  C   UNL     1       0.402  13.513  -5.246  1.00  0.00     0.006 C 
BRANCH  10  11
ATOM     11  C   UNL     1       0.949  14.931  -5.029  1.00  0.00     0.053 C 
BRANCH  11  12
ATOM     12  C   UNL     1       2.284  15.123  -5.681  1.00  0.00     0.041 C 
ATOM     13  O   UNL     1       3.234  14.338  -5.424  1.00  0.00    -0.550 OA
ATOM     14  O   UNL     1       2.485  16.184  -6.557  1.00  0.00    -0.550 OA
ENDBRANCH  11  12
ENDBRANCH  10  11
ENDBRANCH   9  10
ENDBRANCH   8   9
ENDBRANCH   7   8
ENDBRANCH   6   7
ENDBRANCH   5   6
ENDBRANCH   4   5
ENDBRANCH   3   4
ENDBRANCH   2   3
ENDBRANCH   1   2
BRANCH   1  15
ATOM     15  C   UNL     1      -2.795  13.493 -10.915  1.00  0.00     0.000 C 
BRANCH  15  16
ATOM     16  C   UNL     1      -2.921  13.740 -12.428  1.00  0.00     0.000 C 
BRANCH  16  17
ATOM     17  C   UNL     1      -3.648  12.601 -13.158  1.00  0.00     0.000 C 
BRANCH  17  18
ATOM     18  C   UNL     1      -3.951  11.407 -12.235  1.00  0.00    -0.000 C 
BRANCH  18  19
ATOM     19  C   UNL     1      -2.998  10.222 -12.463  1.00  0.00    -0.000 C 
BRANCH  19  20
ATOM     20  C   UNL     1      -2.602   9.456 -11.186  1.00  0.00    -0.000 C 
BRANCH  20  21
ATOM     21  C   UNL     1      -3.233  10.026  -9.895  1.00  0.00    -0.000 C 
BRANCH  21  22
ATOM     22  C   UNL     1      -2.219  10.132  -8.742  1.00  0.00    -0.000 C 
BRANCH  22  23
ATOM     23  C   UNL     1      -1.605   8.764  -8.372  1.00  0.00    -0.000 C 
BRANCH  23  24
ATOM     24  C   UNL     1      -0.064   8.764  -8.342  1.00  0.00    -0.000 C 
BRANCH  24  25
ATOM     25  C   UNL     1       0.597   7.752  -9.291  1.00  0.00    -0.003 C 
ATOM     26  C   UNL     1      -0.407   6.786  -9.921  1.00  0.00     0.004 C 
ENDBRANCH  24  25
ENDBRANCH  23  24
ENDBRANCH  22  23
ENDBRANCH  21  22
ENDBRANCH  20  21
ENDBRANCH  19  20
ENDBRANCH  18  19
ENDBRANCH  17  18
ENDBRANCH  16  17
ENDBRANCH  15  16
ENDBRANCH   1  15
TORSDOF 22
ENDMDL
MODEL 4
REMARK VINA RESULT:    -2.136      4.477      7.144
REMARK INTER + INTRA:          -9.123
REMARK INTER:                  -5.714
REMARK INTRA:                  -3.409
REMARK UNBOUND:                -4.240
REMARK SMILES CCCCCCCCCCCCCCCCCCCCCCCC(=O)[O-]
REMARK SMILES IDX 13 1 14 2 15 3 16 4 17 5 18 6 19 7 20 8 21 9 22 10 23 11
REMARK SMILES IDX 24 12 25 13 26 14 12 15 11 16 10 17 9 18 8 19 7 20 6 21 5 22
REMARK SMILES IDX 4 23 3 24 2 25 1 26
REMARK H PARENT
REMARK Flexibility Score: inf
ROOT
ATOM      1  C   UNL     1      -0.150  13.576 -11.006  1.00  0.00     0.000 C 
ENDROOT
BRANCH   1   2
ATOM      2  C   UNL     1      -0.527  13.543  -9.512  1.00  0.00     0.000 C 
BRANCH   2   3
ATOM      3  C   UNL     1       0.668  13.493  -8.544  1.00  0.00     0.000 C 
BRANCH   3   4
ATOM      4  C   UNL     1       0.282  13.090  -7.102  1.00  0.00     0.000 C 
BRANCH   4   5
ATOM      5  C   UNL     1       1.501  12.676  -6.259  1.00  0.00     0.000 C 
BRANCH   5   6
ATOM      6  C   UNL     1       1.373  13.080  -4.778  1.00  0.00     0.000 C 
BRANCH   6   7
ATOM      7  C   UNL     1       1.039  14.563  -4.533  1.00  0.00     0.000 C 
BRANCH   7   8
ATOM      8  C   UNL     1       0.006  14.771  -3.412  1.00  0.00     0.000 C 
BRANCH   8   9
ATOM      9  C   UNL     1      -0.867  13.527  -3.181  1.00  0.00     0.000 C 
BRANCH   9  10
ATOM     10  C   UNL     1      -1.835  13.699  -1.996  1.00  0.00     0.006 C 
BRANCH  10  11
ATOM     11  C   UNL     1      -1.731  15.093  -1.362  1.00  0.00     0.053 C 
BRANCH  11  12
ATOM     12  C   UNL     1      -3.080  15.683  -1.082  1.00  0.00     0.041 C 
ATOM     13  O   UNL     1      -4.122  15.005  -1.279  1.00  0.00    -0.550 OA
ATOM     14  O   UNL     1      -3.186  16.991  -0.623  1.00  0.00    -0.550 OA
ENDBRANCH  11  12
ENDBRANCH  10  11
ENDBRANCH   9  10
ENDBRANCH   8   9
ENDBRANCH   7   8
ENDBRANCH   6   7
ENDBRANCH   5   6
ENDBRANCH   4   5
ENDBRANCH   3   4
ENDBRANCH   2   3
ENDBRANCH   1   2
BRANCH   1  15
ATOM     15  C   UNL     1      -1.299  13.159 -11.951  1.00  0.00     0.000 C 
BRANCH  15  16
ATOM     16  C   UNL     1      -2.686  13.273 -11.294  1.00  0.00     0.000 C 
BRANCH  16  17
ATOM     17  C   UNL     1      -3.647  12.161 -11.741  1.00  0.00     0.000 C 
BRANCH  17  18
ATOM     18  C   UNL     1      -2.910  10.940 -12.319  1.00  0.00    -0.000 C 
BRANCH  18  19
ATOM     19  C   UNL     1      -3.104   9.671 -11.472  1.00  0.00    -0.000 C 
BRANCH  19  20
ATOM     20  C   UNL     1      -4.039   9.840 -10.260  1.00  0.00    -0.000 C 
BRANCH  20  21
ATOM     21  C   UNL     1      -3.358   9.561  -8.902  1.00  0.00    -0.000 C 
BRANCH  21  22
ATOM     22  C   UNL     1      -2.103  10.426  -8.684  1.00  0.00    -0.000 C 
BRANCH  22  23
ATOM     23  C   UNL     1      -0.833   9.574  -8.471  1.00  0.00    -0.000 C 
BRANCH  23  24
ATOM     24  C   UNL     1       0.343   9.976  -9.382  1.00  0.00    -0.000 C 
BRANCH  24  25
ATOM     25  C   UNL     1       0.476   9.143 -10.667  1.00  0.00    -0.003 C 
ATOM     26  C   UNL     1       0.667  10.004 -11.915  1.00  0.00     0.004 C 
ENDBRANCH  24  25
ENDBRANCH  23  24
ENDBRANCH  22  23
ENDBRANCH  21  22
ENDBRANCH  20  21
ENDBRANCH  19  20
ENDBRANCH  18  19
ENDBRANCH  17  18
ENDBRANCH  16  17
ENDBRANCH  15  16
ENDBRANCH   1  15
TORSDOF 22
ENDMDL
MODEL 5
REMARK VINA RESULT:    -2.128      2.412      3.991
REMARK INTER + INTRA:          -9.104
REMARK INTER:                  -4.418
REMARK INTRA:                  -4.686
REMARK UNBOUND:                -4.240
REMARK SMILES CCCCCCCCCCCCCCCCCCCCCCCC(=O)[O-]
REMARK SMILES IDX 13 1 14 2 15 3 16 4 17 5 18 6 19 7 20 8 21 9 22 10 23 11
REMARK SMILES IDX 24 12 25 13 26 14 12 15 11 16 10 17 9 18 8 19 7 20 6 21 5 22
REMARK SMILES IDX 4 23 3 24 2 25 1 26
REMARK H PARENT
REMARK Flexibility Score: inf
ROOT
ATOM      1  C   UNL     1      -0.070   9.489 -10.177  1.00  0.00     0.000 C 
ENDROOT
BRANCH   1   2
ATOM      2  C   UNL     1       1.419   9.145  -9.975  1.00  0.00     0.000 C 
BRANCH   2   3
ATOM      3  C   UNL     1       1.695   7.692  -9.551  1.00  0.00     0.000 C 
BRANCH   3   4
ATOM      4  C   UNL     1       2.546   7.571  -8.266  1.00  0.00     0.000 C 
BRANCH   4   5
ATOM      5  C   UNL     1       1.750   7.923  -6.997  1.00  0.00     0.000 C 
BRANCH   5   6
ATOM      6  C   UNL     1       1.007   6.714  -6.398  1.00  0.00     0.000 C 
BRANCH   6   7
ATOM      7  C   UNL     1      -0.517   6.711  -6.617  1.00  0.00     0.000 C 
BRANCH   7   8
ATOM      8  C   UNL     1      -0.969   5.707  -7.692  1.00  0.00     0.000 C 
BRANCH   8   9
ATOM      9  C   UNL     1      -1.699   6.388  -8.862  1.00  0.00     0.000 C 
BRANCH   9  10
ATOM     10  C   UNL     1      -3.003   7.076  -8.422  1.00  0.00     0.006 C 
BRANCH  10  11
ATOM     11  C   UNL     1      -4.132   6.884  -9.443  1.00  0.00     0.053 C 
BRANCH  11  12
ATOM     12  C   UNL     1      -5.218   7.903  -9.277  1.00  0.00     0.041 C 
ATOM     13  O   UNL     1      -6.190   7.931 -10.076  1.00  0.00    -0.550 OA
ATOM     14  O   UNL     1      -5.144   8.838  -8.250  1.00  0.00    -0.550 OA
ENDBRANCH  11  12
ENDBRANCH  10  11
ENDBRANCH   9  10
ENDBRANCH   8   9
ENDBRANCH   7   8
ENDBRANCH   6   7
ENDBRANCH   5   6
ENDBRANCH   4   5
ENDBRANCH   3   4
ENDBRANCH   2   3
ENDBRANCH   1   2
BRANCH   1  15
ATOM     15  C   UNL     1      -0.766  10.025  -8.906  1.00  0.00     0.000 C 
BRANCH  15  16
ATOM     16  C   UNL     1      -2.132  10.671  -9.198  1.00  0.00     0.000 C 
BRANCH  16  17
ATOM     17  C   UNL     1      -2.711  10.248 -10.557  1.00  0.00     0.000 C 
BRANCH  17  18
ATOM     18  C   UNL     1      -3.005  11.448 -11.474  1.00  0.00    -0.000 C 
BRANCH  18  19
ATOM     19  C   UNL     1      -2.715  12.798 -10.798  1.00  0.00    -0.000 C 
BRANCH  19  20
ATOM     20  C   UNL     1      -1.606  13.631 -11.468  1.00  0.00    -0.000 C 
BRANCH  20  21
ATOM     21  C   UNL     1      -0.412  12.791 -11.973  1.00  0.00    -0.000 C 
BRANCH  21  22
ATOM     22  C   UNL     1       0.830  12.931 -11.073  1.00  0.00    -0.000 C 
BRANCH  22  23
ATOM     23  C   UNL     1       0.615  13.948  -9.931  1.00  0.00    -0.000 C 
BRANCH  23  24
ATOM     24  C   UNL     1       0.804  13.349  -8.524  1.00  0.00    -0.000 C 
BRANCH  24  25
ATOM     25  C   UNL     1       2.113  12.566  -8.331  1.00  0.00    -0.003 C 
ATOM     26  C   UNL     1       2.069  11.627  -7.125  1.00  0.00     0.004 C 
ENDBRANCH  24  25
ENDBRANCH  23  24
ENDBRANCH  22  23
ENDBRANCH  21  22
ENDBRANCH  20  21
ENDBRANCH  19  20
ENDBRANCH  18  19
ENDBRANCH  17  18
ENDBRANCH  16  17
ENDBRANCH  15  16
ENDBRANCH   1  15
TORSDOF 22
ENDMDL
MODEL 6
REMARK VINA RESULT:    -2.119      7.884     10.776
REMARK INTER + INTRA:          -9.083
REMARK INTER:                  -4.895
REMARK INTRA:                  -4.189
REMARK UNBOUND:                -4.240
REMARK SMILES CCCCCCCCCCCCCCCCCCCCCCCC(=O)[O-]
REMARK SMILES IDX 13 1 14 2 15 3 16 4 17 5 18 6 19 7 20 8 21 9 22 10 23 11
REMARK SMILES IDX 24 12 25 13 26 14 12 15 11 16 10 17 9 18 8 19 7 20 6 21 5 22
REMARK SMILES IDX 4 23 3 24 2 25 1 26
REMARK H PARENT
REMARK Flexibility Score: inf
ROOT
ATOM      1  C   UNL     1      -0.749  17.093  -1.297  1.00  0.00     0.000 C 
ENDROOT
BRANCH   1   2
ATOM      2  C   UNL     1      -0.484  16.080  -2.427  1.00  0.00     0.000 C 
BRANCH   2   3
ATOM      3  C   UNL     1      -0.233  14.636  -1.957  1.00  0.00     0.000 C 
BRANCH   3   4
ATOM      4  C   UNL     1      -1.146  13.593  -2.639  1.00  0.00     0.000 C 
BRANCH   4   5
ATOM      5  C   UNL     1      -0.682  13.245  -4.065  1.00  0.00     0.000 C 
BRANCH   5   6
ATOM      6  C   UNL     1       0.851  13.175  -4.197  1.00  0.00     0.000 C 
BRANCH   6   7
ATOM      7  C   UNL     1       1.477  14.249  -5.105  1.00  0.00     0.000 C 
BRANCH   7   8
ATOM      8  C   UNL     1       2.830  14.765  -4.583  1.00  0.00     0.000 C 
BRANCH   8   9
ATOM      9  C   UNL     1       3.417  13.866  -3.482  1.00  0.00     0.000 C 
BRANCH   9  10
ATOM     10  C   UNL     1       4.468  12.882  -4.024  1.00  0.00     0.006 C 
BRANCH  10  11
ATOM     11  C   UNL     1       4.695  11.697  -3.076  1.00  0.00     0.053 C 
BRANCH  11  12
ATOM     12  C   UNL     1       3.897  10.495  -3.479  1.00  0.00     0.041 C 
ATOM     13  O   UNL     1       3.241  10.500  -4.554  1.00  0.00    -0.550 OA
ATOM     14  O   UNL     1       3.858   9.376  -2.654  1.00  0.00    -0.550 OA
ENDBRANCH  11  12
ENDBRANCH  10  11
ENDBRANCH   9  10
ENDBRANCH   8   9
ENDBRANCH   7   8
ENDBRANCH   6   7
ENDBRANCH   5   6
ENDBRANCH   4   5
ENDBRANCH   3   4
ENDBRANCH   2   3
ENDBRANCH   1   2
BRANCH   1  15
ATOM     15  C   UNL     1      -2.020  17.946  -1.506  1.00  0.00     0.000 C 
BRANCH  15  16
ATOM     16  C   UNL     1      -3.206  17.477  -0.645  1.00  0.00     0.000 C 
BRANCH  16  17
ATOM     17  C   UNL     1      -4.050  16.394  -1.335  1.00  0.00     0.000 C 
BRANCH  17  18
ATOM     18  C   UNL     1      -3.873  15.007  -0.693  1.00  0.00    -0.000 C 
BRANCH  18  19
ATOM     19  C   UNL     1      -3.182  15.070   0.679  1.00  0.00    -0.000 C 
BRANCH  19  20
ATOM     20  C   UNL     1      -2.327  13.838   1.029  1.00  0.00    -0.000 C 
BRANCH  20  21
ATOM     21  C   UNL     1      -2.994  12.492   0.669  1.00  0.00    -0.000 C 
BRANCH  21  22
ATOM     22  C   UNL     1      -1.966  11.392   0.348  1.00  0.00    -0.000 C 
BRANCH  22  23
ATOM     23  C   UNL     1      -0.513  11.863   0.574  1.00  0.00    -0.000 C 
BRANCH  23  24
ATOM     24  C   UNL     1       0.546  10.911  -0.015  1.00  0.00    -0.000 C 
BRANCH  24  25
ATOM     25  C   UNL     1       1.611  11.596  -0.887  1.00  0.00    -0.003 C 
ATOM     26  C   UNL     1       2.363  12.701  -0.145  1.00  0.00     0.004 C 
ENDBRANCH  24  25
ENDBRANCH  23  24
ENDBRANCH  22  23
ENDBRANCH  21  22
ENDBRANCH  20  21
ENDBRANCH  19  20
ENDBRANCH  18  19
ENDBRANCH  17  18
ENDBRANCH  16  17
ENDBRANCH  15  16
ENDBRANCH   1  15
TORSDOF 22
ENDMDL
MODEL 7
REMARK VINA RESULT:    -2.112      3.050      6.844
REMARK INTER + INTRA:          -9.069
REMARK INTER:                  -4.691
REMARK INTRA:                  -4.377
REMARK UNBOUND:                -4.240
REMARK SMILES CCCCCCCCCCCCCCCCCCCCCCCC(=O)[O-]
REMARK SMILES IDX 13 1 14 2 15 3 16 4 17 5 18 6 19 7 20 8 21 9 22 10 23 11
REMARK SMILES IDX 24 12 25 13 26 14 12 15 11 16 10 17 9 18 8 19 7 20 6 21 5 22
REMARK SMILES IDX 4 23 3 24 2 25 1 26
REMARK H PARENT
REMARK Flexibility Score: inf
ROOT
ATOM      1  C   UNL     1      -1.858   5.437 -10.198  1.00  0.00     0.000 C 
ENDROOT
BRANCH   1   2
ATOM      2  C   UNL     1      -3.250   5.882  -9.707  1.00  0.00     0.000 C 
BRANCH   2   3
ATOM      3  C   UNL     1      -3.272   6.506  -8.301  1.00  0.00     0.000 C 
BRANCH   3   4
ATOM      4  C   UNL     1      -4.610   6.305  -7.553  1.00  0.00     0.000 C 
BRANCH   4   5
ATOM      5  C   UNL     1      -5.790   6.996  -8.259  1.00  0.00     0.000 C 
BRANCH   5   6
ATOM      6  C   UNL     1      -5.589   8.515  -8.419  1.00  0.00     0.000 C 
BRANCH   6   7
ATOM      7  C   UNL     1      -5.956   9.079  -9.804  1.00  0.00     0.000 C 
BRANCH   7   8
ATOM      8  C   UNL     1      -4.773   9.072 -10.789  1.00  0.00     0.000 C 
BRANCH   8   9
ATOM      9  C   UNL     1      -3.796  10.234 -10.542  1.00  0.00     0.000 C 
BRANCH   9  10
ATOM     10  C   UNL     1      -2.463   9.762  -9.934  1.00  0.00     0.006 C 
BRANCH  10  11
ATOM     11  C   UNL     1      -2.101  10.538  -8.661  1.00  0.00     0.053 C 
BRANCH  11  12
ATOM     12  C   UNL     1      -1.154  11.664  -8.941  1.00  0.00     0.041 C 
ATOM     13  O   UNL     1      -0.309  11.567  -9.869  1.00  0.00    -0.550 OA
ATOM     14  O   UNL     1      -1.190  12.815  -8.160  1.00  0.00    -0.550 OA
ENDBRANCH  11  12
ENDBRANCH  10  11
ENDBRANCH   9  10
ENDBRANCH   8   9
ENDBRANCH   7   8
ENDBRANCH   6   7
ENDBRANCH   5   6
ENDBRANCH   4   5
ENDBRANCH   3   4
ENDBRANCH   2   3
ENDBRANCH   1   2
BRANCH   1  15
ATOM     15  C   UNL     1      -1.009   6.583 -10.792  1.00  0.00     0.000 C 
BRANCH  15  16
ATOM     16  C   UNL     1       0.434   6.598 -10.258  1.00  0.00     0.000 C 
BRANCH  16  17
ATOM     17  C   UNL     1       0.754   7.865  -9.448  1.00  0.00     0.000 C 
BRANCH  17  18
ATOM     18  C   UNL     1       0.133   7.839  -8.041  1.00  0.00    -0.000 C 
BRANCH  18  19
ATOM     19  C   UNL     1       1.109   7.332  -6.968  1.00  0.00    -0.000 C 
BRANCH  19  20
ATOM     20  C   UNL     1       0.516   6.299  -5.990  1.00  0.00    -0.000 C 
BRANCH  20  21
ATOM     21  C   UNL     1      -0.391   5.248  -6.667  1.00  0.00    -0.000 C 
BRANCH  21  22
ATOM     22  C   UNL     1       0.310   3.888  -6.838  1.00  0.00    -0.000 C 
BRANCH  22  23
ATOM     23  C   UNL     1       0.663   3.591  -8.311  1.00  0.00    -0.000 C 
BRANCH  23  24
ATOM     24  C   UNL     1       2.152   3.804  -8.647  1.00  0.00    -0.000 C 
BRANCH  24  25
ATOM     25  C   UNL     1       3.075   3.925  -7.424  1.00  0.00    -0.003 C 
ATOM     26  C   UNL     1       4.033   5.112  -7.519  1.00  0.00     0.004 C 
ENDBRANCH  24  25
ENDBRANCH  23  24
ENDBRANCH  22  23
ENDBRANCH  21  22
ENDBRANCH  20  21
ENDBRANCH  19  20
ENDBRANCH  18  19
ENDBRANCH  17  18
ENDBRANCH  16  17
ENDBRANCH  15  16
ENDBRANCH   1  15
TORSDOF 22
ENDMDL
MODEL 8
REMARK VINA RESULT:    -2.108      3.136      7.178
REMARK INTER + INTRA:          -9.058
REMARK INTER:                  -4.621
REMARK INTRA:                  -4.437
REMARK UNBOUND:                -4.240
REMARK SMILES CCCCCCCCCCCCCCCCCCCCCCCC(=O)[O-]
REMARK SMILES IDX 13 1 14 2 15 3 16 4 17 5 18 6 19 7 20 8 21 9 22 10 23 11
REMARK SMILES IDX 24 12 25 13 26 14 12 15 11 16 10 17 9 18 8 19 7 20 6 21 5 22
REMARK SMILES IDX 4 23 3 24 2 25 1 26
REMARK H PARENT
REMARK Flexibility Score: inf
ROOT
ATOM      1  C   UNL     1       1.519   7.442 -10.677  1.00  0.00     0.000 C 
ENDROOT
BRANCH   1   2
ATOM      2  C   UNL     1       0.529   8.620 -10.587  1.00  0.00     0.000 C 
BRANCH   2   3
ATOM      3  C   UNL     1       0.964   9.762  -9.652  1.00  0.00     0.000 C 
BRANCH   3   4
ATOM      4  C   UNL     1       0.033   9.956  -8.434  1.00  0.00     0.000 C 
BRANCH   4   5
ATOM      5  C   UNL     1      -1.247   9.107  -8.529  1.00  0.00     0.000 C 
BRANCH   5   6
ATOM      6  C   UNL     1      -2.508   9.947  -8.805  1.00  0.00     0.000 C 
BRANCH   6   7
ATOM      7  C   UNL     1      -2.833  10.164 -10.295  1.00  0.00     0.000 C 
BRANCH   7   8
ATOM      8  C   UNL     1      -2.845  11.649 -10.699  1.00  0.00     0.000 C 
BRANCH   8   9
ATOM      9  C   UNL     1      -1.467  12.138 -11.177  1.00  0.00     0.000 C 
BRANCH   9  10
ATOM     10  C   UNL     1      -1.093  13.509 -10.587  1.00  0.00     0.006 C 
BRANCH  10  11
ATOM     11  C   UNL     1       0.255  13.474  -9.853  1.00  0.00     0.053 C 
BRANCH  11  12
ATOM     12  C   UNL     1       0.082  13.428  -8.365  1.00  0.00     0.041 C 
ATOM     13  O   UNL     1      -1.023  13.090  -7.865  1.00  0.00    -0.550 OA
ATOM     14  O   UNL     1       1.136  13.782  -7.531  1.00  0.00    -0.550 OA
ENDBRANCH  11  12
ENDBRANCH  10  11
ENDBRANCH   9  10
ENDBRANCH   8   9
ENDBRANCH   7   8
ENDBRANCH   6   7
ENDBRANCH   5   6
ENDBRANCH   4   5
ENDBRANCH   3   4
ENDBRANCH   2   3
ENDBRANCH   1   2
BRANCH   1  15
ATOM     15  C   UNL     1       0.878   6.064 -10.403  1.00  0.00     0.000 C 
BRANCH  15  16
ATOM     16  C   UNL     1      -0.659   6.091 -10.481  1.00  0.00     0.000 C 
BRANCH  16  17
ATOM     17  C   UNL     1      -1.328   5.535  -9.214  1.00  0.00     0.000 C 
BRANCH  17  18
ATOM     18  C   UNL     1      -0.478   4.453  -8.524  1.00  0.00    -0.000 C 
BRANCH  18  19
ATOM     19  C   UNL     1      -0.472   4.588  -6.993  1.00  0.00    -0.000 C 
BRANCH  19  20
ATOM     20  C   UNL     1      -0.443   6.037  -6.471  1.00  0.00    -0.000 C 
BRANCH  20  21
ATOM     21  C   UNL     1       0.924   6.466  -5.895  1.00  0.00    -0.000 C 
BRANCH  21  22
ATOM     22  C   UNL     1       1.781   7.232  -6.920  1.00  0.00    -0.000 C 
BRANCH  22  23
ATOM     23  C   UNL     1       3.216   6.670  -7.021  1.00  0.00    -0.000 C 
BRANCH  23  24
ATOM     24  C   UNL     1       3.321   5.388  -7.869  1.00  0.00    -0.000 C 
BRANCH  24  25
ATOM     25  C   UNL     1       3.931   4.182  -7.137  1.00  0.00    -0.003 C 
ATOM     26  C   UNL     1       2.874   3.265  -6.521  1.00  0.00     0.004 C 
ENDBRANCH  24  25
ENDBRANCH  23  24
ENDBRANCH  22  23
ENDBRANCH  21  22
ENDBRANCH  20  21
ENDBRANCH  19  20
ENDBRANCH  18  19
ENDBRANCH  17  18
ENDBRANCH  16  17
ENDBRANCH  15  16
ENDBRANCH   1  15
TORSDOF 22
ENDMDL
MODEL 9
REMARK VINA RESULT:    -2.049      2.184      4.556
REMARK INTER + INTRA:          -8.924
REMARK INTER:                  -4.200
REMARK INTRA:                  -4.724
REMARK UNBOUND:                -4.240
REMARK SMILES CCCCCCCCCCCCCCCCCCCCCCCC(=O)[O-]
REMARK SMILES IDX 13 1 14 2 15 3 16 4 17 5 18 6 19 7 20 8 21 9 22 10 23 11
REMARK SMILES IDX 24 12 25 13 26 14 12 15 11 16 10 17 9 18 8 19 7 20 6 21 5 22
REMARK SMILES IDX 4 23 3 24 2 25 1 26
REMARK H PARENT
REMARK Flexibility Score: inf
ROOT
ATOM      1  C   UNL     1      -0.139   8.431 -11.086  1.00  0.00     0.000 C 
ENDROOT
BRANCH   1   2
ATOM      2  C   UNL     1       0.966   8.252 -10.026  1.00  0.00     0.000 C 
BRANCH   2   3
ATOM      3  C   UNL     1       1.424   6.799  -9.807  1.00  0.00     0.000 C 
BRANCH   3   4
ATOM      4  C   UNL     1       1.749   6.466  -8.333  1.00  0.00     0.000 C 
BRANCH   4   5
ATOM      5  C   UNL     1       1.032   7.403  -7.345  1.00  0.00     0.000 C 
BRANCH   5   6
ATOM      6  C   UNL     1      -0.301   6.829  -6.830  1.00  0.00     0.000 C 
BRANCH   6   7
ATOM      7  C   UNL     1      -0.411   5.293  -6.877  1.00  0.00     0.000 C 
BRANCH   7   8
ATOM      8  C   UNL     1      -1.646   4.802  -7.652  1.00  0.00     0.000 C 
BRANCH   8   9
ATOM      9  C   UNL     1      -1.890   5.606  -8.940  1.00  0.00     0.000 C 
BRANCH   9  10
ATOM     10  C   UNL     1      -3.277   6.272  -8.965  1.00  0.00     0.006 C 
BRANCH  10  11
ATOM     11  C   UNL     1      -4.012   6.127  -7.625  1.00  0.00     0.053 C 
BRANCH  11  12
ATOM     12  C   UNL     1      -5.387   5.558  -7.799  1.00  0.00     0.041 C 
ATOM     13  O   UNL     1      -5.883   5.438  -8.950  1.00  0.00    -0.550 OA
ATOM     14  O   UNL     1      -6.130   5.180  -6.686  1.00  0.00    -0.550 OA
ENDBRANCH  11  12
ENDBRANCH  10  11
ENDBRANCH   9  10
ENDBRANCH   8   9
ENDBRANCH   7   8
ENDBRANCH   6   7
ENDBRANCH   5   6
ENDBRANCH   4   5
ENDBRANCH   3   4
ENDBRANCH   2   3
ENDBRANCH   1   2
BRANCH   1  15
ATOM     15  C   UNL     1      -1.449   9.029 -10.528  1.00  0.00     0.000 C 
BRANCH  15  16
ATOM     16  C   UNL     1      -1.335   9.453  -9.053  1.00  0.00     0.000 C 
BRANCH  16  17
ATOM     17  C   UNL     1      -1.998  10.811  -8.773  1.00  0.00     0.000 C 
BRANCH  17  18
ATOM     18  C   UNL     1      -0.989  11.875  -8.307  1.00  0.00    -0.000 C 
BRANCH  18  19
ATOM     19  C   UNL     1       0.430  11.313  -8.125  1.00  0.00    -0.000 C 
BRANCH  19  20
ATOM     20  C   UNL     1       1.465  11.829  -9.141  1.00  0.00    -0.000 C 
BRANCH  20  21
ATOM     21  C   UNL     1       0.880  12.799 -10.192  1.00  0.00    -0.000 C 
BRANCH  21  22
ATOM     22  C   UNL     1       0.766  12.158 -11.587  1.00  0.00    -0.000 C 
BRANCH  22  23
ATOM     23  C   UNL     1      -0.680  12.184 -12.129  1.00  0.00    -0.000 C 
BRANCH  23  24
ATOM     24  C   UNL     1      -1.451  13.470 -11.774  1.00  0.00    -0.000 C 
BRANCH  24  25
ATOM     25  C   UNL     1      -2.918  13.249 -11.373  1.00  0.00    -0.003 C 
ATOM     26  C   UNL     1      -3.500  11.955 -11.940  1.00  0.00     0.004 C 
ENDBRANCH  24  25
ENDBRANCH  23  24
ENDBRANCH  22  23
ENDBRANCH  21  22
ENDBRANCH  20  21
ENDBRANCH  19  20
ENDBRANCH  18  19
ENDBRANCH  17  18
ENDBRANCH  16  17
ENDBRANCH  15  16
ENDBRANCH   1  15
TORSDOF 22
ENDMDL
