MODEL 1
REMARK VINA RESULT:    -6.255      0.000      0.000
REMARK INTER + INTRA:          -7.954
REMARK INTER:                  -7.535
REMARK INTRA:                  -0.419
REMARK UNBOUND:                -0.419
REMARK SMILES O=c1c(O)c(-c2ccc(O)cc2O)oc2cc(O)cc(O)c12
REMARK SMILES IDX 5 1 3 2 2 3 1 4 22 5 20 6 19 7 17 8 16 9 15 10 14 11 6 12
REMARK SMILES IDX 8 13 7 14 9 15 11 16 12 17 10 18 13 20 4 22 21 24 18 26
REMARK H PARENT 10 19 13 21 4 23 21 25 18 27
REMARK Flexibility Score: inf
ROOT
ATOM      1  C   UNL     1      -3.079  52.157  10.289  1.00  0.00     0.184 A 
ATOM      2  C   UNL     1      -2.368  53.343  10.529  1.00  0.00     0.208 A 
ATOM      3  C   UNL     1      -2.202  53.780  11.852  1.00  0.00     0.238 A 
ATOM      4  O   UNL     1      -1.517  54.814  12.066  1.00  0.00    -0.285 OA
ATOM      5  C   UNL     1      -2.763  53.032  12.917  1.00  0.00     0.111 A 
ATOM      6  C   UNL     1      -2.692  53.402  14.294  1.00  0.00     0.134 A 
ATOM      7  C   UNL     1      -3.170  52.522  15.271  1.00  0.00     0.093 A 
ATOM      8  C   UNL     1      -3.777  51.316  14.920  1.00  0.00     0.123 A 
ATOM      9  C   UNL     1      -3.906  50.971  13.574  1.00  0.00     0.094 A 
ATOM     10  C   UNL     1      -3.406  51.812  12.577  1.00  0.00     0.146 A 
ATOM     11  O   UNL     1      -3.538  51.442  11.309  1.00  0.00    -0.451 OA
ENDROOT
BRANCH   1  12
ATOM     12  C   UNL     1      -3.305  51.650   8.918  1.00  0.00     0.063 A 
ATOM     13  C   UNL     1      -4.552  51.779   6.835  1.00  0.00     0.047 A 
ATOM     14  C   UNL     1      -4.317  52.230   8.136  1.00  0.00     0.020 A 
ATOM     15  C   UNL     1      -3.772  50.754   6.294  1.00  0.00     0.119 A 
ATOM     16  C   UNL     1      -2.744  50.185   7.058  1.00  0.00     0.093 A 
ATOM     17  C   UNL     1      -2.497  50.636   8.363  1.00  0.00     0.130 A 
BRANCH  15  18
ATOM     18  O   UNL     1      -4.022  50.312   4.997  1.00  0.00    -0.508 OA
ATOM     19  H   UNL     1      -4.367  49.377   4.814  1.00  0.00     0.293 HD
ENDBRANCH  15  18
BRANCH  17  20
ATOM     20  O   UNL     1      -1.440  50.096   9.096  1.00  0.00    -0.507 OA
ATOM     21  H   UNL     1      -0.938  49.275   8.778  1.00  0.00     0.293 HD
ENDBRANCH  17  20
ENDBRANCH   1  12
BRANCH   2  22
ATOM     22  O   UNL     1      -1.808  54.050   9.462  1.00  0.00    -0.502 OA
ATOM     23  H   UNL     1      -1.190  53.614   8.787  1.00  0.00     0.293 HD
ENDBRANCH   2  22
BRANCH   6  24
ATOM     24  O   UNL     1      -2.189  54.625  14.747  1.00  0.00    -0.507 OA
ATOM     25  H   UNL     1      -2.723  55.315  15.252  1.00  0.00     0.293 HD
ENDBRANCH   6  24
BRANCH   8  26
ATOM     26  O   UNL     1      -4.256  50.471  15.919  1.00  0.00    -0.508 OA
ATOM     27  H   UNL     1      -4.261  49.465  15.804  1.00  0.00     0.293 HD
ENDBRANCH   8  26
TORSDOF 6
ENDMDL
MODEL 2
REMARK VINA RESULT:    -5.998      2.190      2.488
REMARK INTER + INTRA:          -7.645
REMARK INTER:                  -7.236
REMARK INTRA:                  -0.408
REMARK UNBOUND:                -0.419
REMARK SMILES O=c1c(O)c(-c2ccc(O)cc2O)oc2cc(O)cc(O)c12
REMARK SMILES IDX 5 1 3 2 2 3 1 4 22 5 20 6 19 7 17 8 16 9 15 10 14 11 6 12
REMARK SMILES IDX 8 13 7 14 9 15 11 16 12 17 10 18 13 20 4 22 21 24 18 26
REMARK H PARENT 10 19 13 21 4 23 21 25 18 27
REMARK Flexibility Score: inf
ROOT
ATOM      1  C   UNL     1      -2.703  52.208  11.024  1.00  0.00     0.184 A 
ATOM      2  C   UNL     1      -1.316  51.987  11.037  1.00  0.00     0.208 A 
ATOM      3  C   UNL     1      -0.702  51.589  12.234  1.00  0.00     0.238 A 
ATOM      4  O   UNL     1       0.531  51.339  12.228  1.00  0.00    -0.285 OA
ATOM      5  C   UNL     1      -1.481  51.431  13.407  1.00  0.00     0.111 A 
ATOM      6  C   UNL     1      -0.959  51.069  14.685  1.00  0.00     0.134 A 
ATOM      7  C   UNL     1      -1.838  50.815  15.745  1.00  0.00     0.093 A 
ATOM      8  C   UNL     1      -3.216  50.974  15.591  1.00  0.00     0.123 A 
ATOM      9  C   UNL     1      -3.733  51.385  14.363  1.00  0.00     0.094 A 
ATOM     10  C   UNL     1      -2.884  51.611  13.276  1.00  0.00     0.146 A 
ATOM     11  O   UNL     1      -3.418  51.989  12.121  1.00  0.00    -0.451 OA
ENDROOT
BRANCH   1  12
ATOM     12  C   UNL     1      -3.408  52.646   9.801  1.00  0.00     0.063 A 
ATOM     13  C   UNL     1      -4.199  54.468   8.399  1.00  0.00     0.047 A 
ATOM     14  C   UNL     1      -3.543  54.021   9.548  1.00  0.00     0.020 A 
ATOM     15  C   UNL     1      -4.716  53.550   7.482  1.00  0.00     0.119 A 
ATOM     16  C   UNL     1      -4.566  52.177   7.713  1.00  0.00     0.093 A 
ATOM     17  C   UNL     1      -3.904  51.718   8.862  1.00  0.00     0.130 A 
BRANCH  15  18
ATOM     18  O   UNL     1      -5.372  54.012   6.343  1.00  0.00    -0.508 OA
ATOM     19  H   UNL     1      -6.321  53.728   6.126  1.00  0.00     0.293 HD
ENDBRANCH  15  18
BRANCH  17  20
ATOM     20  O   UNL     1      -3.718  50.350   9.056  1.00  0.00    -0.507 OA
ATOM     21  H   UNL     1      -4.427  49.674   8.798  1.00  0.00     0.293 HD
ENDBRANCH  17  20
ENDBRANCH   1  12
BRANCH   2  22
ATOM     22  O   UNL     1      -0.576  52.132   9.861  1.00  0.00    -0.502 OA
ATOM     23  H   UNL     1      -0.358  51.348   9.256  1.00  0.00     0.293 HD
ENDBRANCH   2  22
BRANCH   6  24
ATOM     24  O   UNL     1       0.406  50.973  14.971  1.00  0.00    -0.507 OA
ATOM     25  H   UNL     1       0.919  50.108  15.046  1.00  0.00     0.293 HD
ENDBRANCH   6  24
BRANCH   8  26
ATOM     26  O   UNL     1      -4.060  50.729  16.671  1.00  0.00    -0.508 OA
ATOM     27  H   UNL     1      -4.244  51.438  17.371  1.00  0.00     0.293 HD
ENDBRANCH   8  26
TORSDOF 6
ENDMDL
MODEL 3
REMARK VINA RESULT:    -5.992      1.714      6.401
REMARK INTER + INTRA:          -7.637
REMARK INTER:                  -7.220
REMARK INTRA:                  -0.417
REMARK UNBOUND:                -0.419
REMARK SMILES O=c1c(O)c(-c2ccc(O)cc2O)oc2cc(O)cc(O)c12
REMARK SMILES IDX 5 1 3 2 2 3 1 4 22 5 20 6 19 7 17 8 16 9 15 10 14 11 6 12
REMARK SMILES IDX 8 13 7 14 9 15 11 16 12 17 10 18 13 20 4 22 21 24 18 26
REMARK H PARENT 10 19 13 21 4 23 21 25 18 27
REMARK Flexibility Score: inf
ROOT
ATOM      1  C   UNL     1      -2.942  52.154  11.866  1.00  0.00     0.184 A 
ATOM      2  C   UNL     1      -3.283  53.471  11.519  1.00  0.00     0.208 A 
ATOM      3  C   UNL     1      -3.349  53.821  10.162  1.00  0.00     0.238 A 
ATOM      4  O   UNL     1      -3.708  54.988   9.855  1.00  0.00    -0.285 OA
ATOM      5  C   UNL     1      -3.058  52.854   9.169  1.00  0.00     0.111 A 
ATOM      6  C   UNL     1      -3.054  53.108   7.765  1.00  0.00     0.134 A 
ATOM      7  C   UNL     1      -2.879  52.045   6.871  1.00  0.00     0.093 A 
ATOM      8  C   UNL     1      -2.641  50.749   7.330  1.00  0.00     0.123 A 
ATOM      9  C   UNL     1      -2.583  50.500   8.701  1.00  0.00     0.094 A 
ATOM     10  C   UNL     1      -2.790  51.533   9.618  1.00  0.00     0.146 A 
ATOM     11  O   UNL     1      -2.738  51.251  10.914  1.00  0.00    -0.451 OA
ENDROOT
BRANCH   1  12
ATOM     12  C   UNL     1      -2.838  51.724  13.276  1.00  0.00     0.063 A 
ATOM     13  C   UNL     1      -3.954  51.121  15.351  1.00  0.00     0.047 A 
ATOM     14  C   UNL     1      -4.016  51.532  14.017  1.00  0.00     0.020 A 
ATOM     15  C   UNL     1      -2.718  50.882  15.957  1.00  0.00     0.119 A 
ATOM     16  C   UNL     1      -1.538  51.048  15.219  1.00  0.00     0.093 A 
ATOM     17  C   UNL     1      -1.591  51.456  13.878  1.00  0.00     0.130 A 
BRANCH  15  18
ATOM     18  O   UNL     1      -2.672  50.477  17.289  1.00  0.00    -0.508 OA
ATOM     19  H   UNL     1      -2.041  50.911  17.953  1.00  0.00     0.293 HD
ENDBRANCH  15  18
BRANCH  17  20
ATOM     20  O   UNL     1      -0.413  51.570  13.140  1.00  0.00    -0.507 OA
ATOM     21  H   UNL     1       0.021  52.469  12.966  1.00  0.00     0.293 HD
ENDBRANCH  17  20
ENDBRANCH   1  12
BRANCH   2  22
ATOM     22  O   UNL     1      -3.584  54.400  12.518  1.00  0.00    -0.502 OA
ATOM     23  H   UNL     1      -3.764  55.377  12.315  1.00  0.00     0.293 HD
ENDBRANCH   2  22
BRANCH   6  24
ATOM     24  O   UNL     1      -3.191  54.380   7.202  1.00  0.00    -0.507 OA
ATOM     25  H   UNL     1      -3.399  55.219   7.722  1.00  0.00     0.293 HD
ENDBRANCH   6  24
BRANCH   8  26
ATOM     26  O   UNL     1      -2.455  49.719   6.411  1.00  0.00    -0.508 OA
ATOM     27  H   UNL     1      -3.170  49.474   5.737  1.00  0.00     0.293 HD
ENDBRANCH   8  26
TORSDOF 6
ENDMDL
MODEL 4
REMARK VINA RESULT:    -5.843      1.874      2.331
REMARK INTER + INTRA:          -7.457
REMARK INTER:                  -7.110
REMARK INTRA:                  -0.347
REMARK UNBOUND:                -0.419
REMARK SMILES O=c1c(O)c(-c2ccc(O)cc2O)oc2cc(O)cc(O)c12
REMARK SMILES IDX 5 1 3 2 2 3 1 4 22 5 20 6 19 7 17 8 16 9 15 10 14 11 6 12
REMARK SMILES IDX 8 13 7 14 9 15 11 16 12 17 10 18 13 20 4 22 21 24 18 26
REMARK H PARENT 10 19 13 21 4 23 21 25 18 27
REMARK Flexibility Score: inf
ROOT
ATOM      1  C   UNL     1      -2.004  51.339  10.448  1.00  0.00     0.184 A 
ATOM      2  C   UNL     1      -0.621  51.362  10.691  1.00  0.00     0.208 A 
ATOM      3  C   UNL     1      -0.165  51.559  12.003  1.00  0.00     0.238 A 
ATOM      4  O   UNL     1       1.074  51.525  12.224  1.00  0.00    -0.285 OA
ATOM      5  C   UNL     1      -1.098  51.744  13.053  1.00  0.00     0.111 A 
ATOM      6  C   UNL     1      -0.748  51.991  14.415  1.00  0.00     0.134 A 
ATOM      7  C   UNL     1      -1.751  52.029  15.390  1.00  0.00     0.093 A 
ATOM      8  C   UNL     1      -3.096  51.896  15.045  1.00  0.00     0.123 A 
ATOM      9  C   UNL     1      -3.455  51.714  13.709  1.00  0.00     0.094 A 
ATOM     10  C   UNL     1      -2.474  51.635  12.718  1.00  0.00     0.146 A 
ATOM     11  O   UNL     1      -2.856  51.449  11.460  1.00  0.00    -0.451 OA
ENDROOT
BRANCH   1  12
ATOM     12  C   UNL     1      -2.550  51.154   9.087  1.00  0.00     0.063 A 
ATOM     13  C   UNL     1      -2.812  49.736   7.129  1.00  0.00     0.047 A 
ATOM     14  C   UNL     1      -2.306  49.946   8.414  1.00  0.00     0.020 A 
ATOM     15  C   UNL     1      -3.580  50.722   6.506  1.00  0.00     0.119 A 
ATOM     16  C   UNL     1      -3.851  51.921   7.178  1.00  0.00     0.093 A 
ATOM     17  C   UNL     1      -3.350  52.138   8.471  1.00  0.00     0.130 A 
BRANCH  15  18
ATOM     18  O   UNL     1      -4.075  50.500   5.223  1.00  0.00    -0.508 OA
ATOM     19  H   UNL     1      -5.067  50.377   5.052  1.00  0.00     0.293 HD
ENDBRANCH  15  18
BRANCH  17  20
ATOM     20  O   UNL     1      -3.667  53.316   9.149  1.00  0.00    -0.507 OA
ATOM     21  H   UNL     1      -4.069  53.302  10.078  1.00  0.00     0.293 HD
ENDBRANCH  17  20
ENDBRANCH   1  12
BRANCH   2  22
ATOM     22  O   UNL     1       0.276  51.158   9.639  1.00  0.00    -0.502 OA
ATOM     23  H   UNL     1      -0.012  50.769   8.748  1.00  0.00     0.293 HD
ENDBRANCH   2  22
BRANCH   6  24
ATOM     24  O   UNL     1       0.558  52.230  14.853  1.00  0.00    -0.507 OA
ATOM     25  H   UNL     1       1.125  51.568  15.360  1.00  0.00     0.293 HD
ENDBRANCH   6  24
BRANCH   8  26
ATOM     26  O   UNL     1      -4.070  51.956  16.040  1.00  0.00    -0.508 OA
ATOM     27  H   UNL     1      -4.637  51.150  16.274  1.00  0.00     0.293 HD
ENDBRANCH   8  26
TORSDOF 6
ENDMDL
MODEL 5
REMARK VINA RESULT:    -5.689      2.414      6.296
REMARK INTER + INTRA:          -7.272
REMARK INTER:                  -6.897
REMARK INTRA:                  -0.375
REMARK UNBOUND:                -0.419
REMARK SMILES O=c1c(O)c(-c2ccc(O)cc2O)oc2cc(O)cc(O)c12
REMARK SMILES IDX 5 1 3 2 2 3 1 4 22 5 20 6 19 7 17 8 16 9 15 10 14 11 6 12
REMARK SMILES IDX 8 13 7 14 9 15 11 16 12 17 10 18 13 20 4 22 21 24 18 26
REMARK H PARENT 10 19 13 21 4 23 21 25 18 27
REMARK Flexibility Score: inf
ROOT
ATOM      1  C   UNL     1      -2.156  52.341  10.857  1.00  0.00     0.184 A 
ATOM      2  C   UNL     1      -2.864  53.553  10.877  1.00  0.00     0.208 A 
ATOM      3  C   UNL     1      -3.671  53.887   9.778  1.00  0.00     0.238 A 
ATOM      4  O   UNL     1      -4.345  54.949   9.824  1.00  0.00    -0.285 OA
ATOM      5  C   UNL     1      -3.748  53.011   8.668  1.00  0.00     0.111 A 
ATOM      6  C   UNL     1      -4.503  53.266   7.484  1.00  0.00     0.134 A 
ATOM      7  C   UNL     1      -4.610  52.271   6.505  1.00  0.00     0.093 A 
ATOM      8  C   UNL     1      -3.937  51.056   6.636  1.00  0.00     0.123 A 
ATOM      9  C   UNL     1      -3.147  50.819   7.761  1.00  0.00     0.094 A 
ATOM     10  C   UNL     1      -3.050  51.778   8.773  1.00  0.00     0.146 A 
ATOM     11  O   UNL     1      -2.298  51.508   9.833  1.00  0.00    -0.451 OA
ENDROOT
BRANCH   1  12
ATOM     12  C   UNL     1      -1.275  51.938  11.974  1.00  0.00     0.063 A 
ATOM     13  C   UNL     1      -1.047  51.250  14.295  1.00  0.00     0.047 A 
ATOM     14  C   UNL     1      -1.850  51.639  13.220  1.00  0.00     0.020 A 
ATOM     15  C   UNL     1       0.337  51.139  14.135  1.00  0.00     0.119 A 
ATOM     16  C   UNL     1       0.917  51.412  12.889  1.00  0.00     0.093 A 
ATOM     17  C   UNL     1       0.118  51.799  11.804  1.00  0.00     0.130 A 
BRANCH  15  18
ATOM     18  O   UNL     1       1.125  50.754  15.217  1.00  0.00    -0.508 OA
ATOM     19  H   UNL     1       0.889  51.022  16.166  1.00  0.00     0.293 HD
ENDBRANCH  15  18
BRANCH  17  20
ATOM     20  O   UNL     1       0.702  52.020  10.556  1.00  0.00    -0.507 OA
ATOM     21  H   UNL     1       0.878  52.955  10.209  1.00  0.00     0.293 HD
ENDBRANCH  17  20
ENDBRANCH   1  12
BRANCH   2  22
ATOM     22  O   UNL     1      -2.784  54.390  11.993  1.00  0.00    -0.502 OA
ATOM     23  H   UNL     1      -3.586  54.900  12.347  1.00  0.00     0.293 HD
ENDBRANCH   2  22
BRANCH   6  24
ATOM     24  O   UNL     1      -5.139  54.481   7.211  1.00  0.00    -0.507 OA
ATOM     25  H   UNL     1      -6.061  54.571   6.813  1.00  0.00     0.293 HD
ENDBRANCH   6  24
BRANCH   8  26
ATOM     26  O   UNL     1      -4.053  50.095   5.634  1.00  0.00    -0.508 OA
ATOM     27  H   UNL     1      -4.750  49.362   5.682  1.00  0.00     0.293 HD
ENDBRANCH   8  26
TORSDOF 6
ENDMDL
MODEL 6
REMARK VINA RESULT:    -5.639      3.272      7.068
REMARK INTER + INTRA:          -7.212
REMARK INTER:                  -6.804
REMARK INTRA:                  -0.408
REMARK UNBOUND:                -0.419
REMARK SMILES O=c1c(O)c(-c2ccc(O)cc2O)oc2cc(O)cc(O)c12
REMARK SMILES IDX 5 1 3 2 2 3 1 4 22 5 20 6 19 7 17 8 16 9 15 10 14 11 6 12
REMARK SMILES IDX 8 13 7 14 9 15 11 16 12 17 10 18 13 20 4 22 21 24 18 26
REMARK H PARENT 10 19 13 21 4 23 21 25 18 27
REMARK Flexibility Score: inf
ROOT
ATOM      1  C   UNL     1      -4.560  51.591  15.113  1.00  0.00     0.184 A 
ATOM      2  C   UNL     1      -3.566  51.375  16.080  1.00  0.00     0.208 A 
ATOM      3  C   UNL     1      -2.226  51.295  15.672  1.00  0.00     0.238 A 
ATOM      4  O   UNL     1      -1.334  51.155  16.549  1.00  0.00    -0.285 OA
ATOM      5  C   UNL     1      -1.900  51.417  14.299  1.00  0.00     0.111 A 
ATOM      6  C   UNL     1      -0.579  51.312  13.766  1.00  0.00     0.134 A 
ATOM      7  C   UNL     1      -0.358  51.579  12.410  1.00  0.00     0.093 A 
ATOM      8  C   UNL     1      -1.416  51.882  11.554  1.00  0.00     0.123 A 
ATOM      9  C   UNL     1      -2.719  51.928  12.051  1.00  0.00     0.094 A 
ATOM     10  C   UNL     1      -2.968  51.703  13.407  1.00  0.00     0.146 A 
ATOM     11  O   UNL     1      -4.220  51.768  13.842  1.00  0.00    -0.451 OA
ENDROOT
BRANCH   1  12
ATOM     12  C   UNL     1      -5.992  51.668  15.474  1.00  0.00     0.063 A 
ATOM     13  C   UNL     1      -8.113  50.529  15.814  1.00  0.00     0.047 A 
ATOM     14  C   UNL     1      -6.759  50.492  15.472  1.00  0.00     0.020 A 
ATOM     15  C   UNL     1      -8.714  51.737  16.175  1.00  0.00     0.119 A 
ATOM     16  C   UNL     1      -7.952  52.912  16.203  1.00  0.00     0.093 A 
ATOM     17  C   UNL     1      -6.591  52.883  15.866  1.00  0.00     0.130 A 
BRANCH  15  18
ATOM     18  O   UNL     1     -10.067  51.758  16.509  1.00  0.00    -0.508 OA
ATOM     19  H   UNL     1     -10.375  51.685  17.472  1.00  0.00     0.293 HD
ENDBRANCH  15  18
BRANCH  17  20
ATOM     20  O   UNL     1      -5.832  54.051  15.945  1.00  0.00    -0.507 OA
ATOM     21  H   UNL     1      -6.009  54.753  16.653  1.00  0.00     0.293 HD
ENDBRANCH  17  20
ENDBRANCH   1  12
BRANCH   2  22
ATOM     22  O   UNL     1      -3.915  51.277  17.430  1.00  0.00    -0.502 OA
ATOM     23  H   UNL     1      -4.282  52.063  17.954  1.00  0.00     0.293 HD
ENDBRANCH   2  22
BRANCH   6  24
ATOM     24  O   UNL     1       0.535  50.926  14.517  1.00  0.00    -0.507 OA
ATOM     25  H   UNL     1       0.672  51.136  15.494  1.00  0.00     0.293 HD
ENDBRANCH   6  24
BRANCH   8  26
ATOM     26  O   UNL     1      -1.161  52.125  10.206  1.00  0.00    -0.508 OA
ATOM     27  H   UNL     1      -0.550  52.878   9.910  1.00  0.00     0.293 HD
ENDBRANCH   8  26
TORSDOF 6
ENDMDL
MODEL 7
REMARK VINA RESULT:    -5.593      2.147      6.758
REMARK INTER + INTRA:          -7.156
REMARK INTER:                  -6.850
REMARK INTRA:                  -0.306
REMARK UNBOUND:                -0.419
REMARK SMILES O=c1c(O)c(-c2ccc(O)cc2O)oc2cc(O)cc(O)c12
REMARK SMILES IDX 5 1 3 2 2 3 1 4 22 5 20 6 19 7 17 8 16 9 15 10 14 11 6 12
REMARK SMILES IDX 8 13 7 14 9 15 11 16 12 17 10 18 13 20 4 22 21 24 18 26
REMARK H PARENT 10 19 13 21 4 23 21 25 18 27
REMARK Flexibility Score: inf
ROOT
ATOM      1  C   UNL     1      -2.908  51.852  13.538  1.00  0.00     0.184 A 
ATOM      2  C   UNL     1      -1.506  51.829  13.594  1.00  0.00     0.208 A 
ATOM      3  C   UNL     1      -0.784  51.506  12.434  1.00  0.00     0.238 A 
ATOM      4  O   UNL     1       0.473  51.540  12.475  1.00  0.00    -0.285 OA
ATOM      5  C   UNL     1      -1.476  51.197  11.237  1.00  0.00     0.111 A 
ATOM      6  C   UNL     1      -0.849  50.818  10.012  1.00  0.00     0.134 A 
ATOM      7  C   UNL     1      -1.625  50.661   8.858  1.00  0.00     0.093 A 
ATOM      8  C   UNL     1      -3.012  50.805   8.898  1.00  0.00     0.123 A 
ATOM      9  C   UNL     1      -3.642  51.117  10.102  1.00  0.00     0.094 A 
ATOM     10  C   UNL     1      -2.892  51.316  11.264  1.00  0.00     0.146 A 
ATOM     11  O   UNL     1      -3.529  51.623  12.387  1.00  0.00    -0.451 OA
ENDROOT
BRANCH   1  12
ATOM     12  C   UNL     1      -3.728  52.167  14.727  1.00  0.00     0.063 A 
ATOM     13  C   UNL     1      -5.282  53.670  15.840  1.00  0.00     0.047 A 
ATOM     14  C   UNL     1      -4.492  53.345  14.734  1.00  0.00     0.020 A 
ATOM     15  C   UNL     1      -5.330  52.817  16.945  1.00  0.00     0.119 A 
ATOM     16  C   UNL     1      -4.590  51.627  16.938  1.00  0.00     0.093 A 
ATOM     17  C   UNL     1      -3.798  51.291  15.830  1.00  0.00     0.130 A 
BRANCH  15  18
ATOM     18  O   UNL     1      -6.119  53.156  18.042  1.00  0.00    -0.508 OA
ATOM     19  H   UNL     1      -7.082  52.848  18.117  1.00  0.00     0.293 HD
ENDBRANCH  15  18
BRANCH  17  20
ATOM     20  O   UNL     1      -3.104  50.081  15.815  1.00  0.00    -0.507 OA
ATOM     21  H   UNL     1      -3.504  49.234  16.201  1.00  0.00     0.293 HD
ENDBRANCH  17  20
ENDBRANCH   1  12
BRANCH   2  22
ATOM     22  O   UNL     1      -0.849  52.157  14.783  1.00  0.00    -0.502 OA
ATOM     23  H   UNL     1       0.161  52.215  14.847  1.00  0.00     0.293 HD
ENDBRANCH   2  22
BRANCH   6  24
ATOM     24  O   UNL     1       0.519  50.559   9.885  1.00  0.00    -0.507 OA
ATOM     25  H   UNL     1       0.921  49.897   9.239  1.00  0.00     0.293 HD
ENDBRANCH   6  24
BRANCH   8  26
ATOM     26  O   UNL     1      -3.755  50.625   7.733  1.00  0.00    -0.508 OA
ATOM     27  H   UNL     1      -3.312  50.593   6.822  1.00  0.00     0.293 HD
ENDBRANCH   8  26
TORSDOF 6
ENDMDL
MODEL 8
REMARK VINA RESULT:    -5.366      2.608      3.429
REMARK INTER + INTRA:          -6.883
REMARK INTER:                  -6.660
REMARK INTRA:                  -0.223
REMARK UNBOUND:                -0.419
REMARK SMILES O=c1c(O)c(-c2ccc(O)cc2O)oc2cc(O)cc(O)c12
REMARK SMILES IDX 5 1 3 2 2 3 1 4 22 5 20 6 19 7 17 8 16 9 15 10 14 11 6 12
REMARK SMILES IDX 8 13 7 14 9 15 11 16 12 17 10 18 13 20 4 22 21 24 18 26
REMARK H PARENT 10 19 13 21 4 23 21 25 18 27
REMARK Flexibility Score: inf
ROOT
ATOM      1  C   UNL     1      -2.608  52.846   9.740  1.00  0.00     0.184 A 
ATOM      2  C   UNL     1      -1.602  51.968   9.305  1.00  0.00     0.208 A 
ATOM      3  C   UNL     1      -0.739  51.400  10.255  1.00  0.00     0.238 A 
ATOM      4  O   UNL     1       0.126  50.572   9.867  1.00  0.00    -0.285 OA
ATOM      5  C   UNL     1      -0.884  51.730  11.625  1.00  0.00     0.111 A 
ATOM      6  C   UNL     1      -0.040  51.244  12.670  1.00  0.00     0.134 A 
ATOM      7  C   UNL     1      -0.356  51.533  14.003  1.00  0.00     0.093 A 
ATOM      8  C   UNL     1      -1.444  52.343  14.326  1.00  0.00     0.123 A 
ATOM      9  C   UNL     1      -2.240  52.872  13.310  1.00  0.00     0.094 A 
ATOM     10  C   UNL     1      -1.973  52.572  11.972  1.00  0.00     0.146 A 
ATOM     11  O   UNL     1      -2.762  53.086  11.036  1.00  0.00    -0.451 OA
ENDROOT
BRANCH   1  12
ATOM     12  C   UNL     1      -3.539  53.492   8.790  1.00  0.00     0.063 A 
ATOM     13  C   UNL     1      -4.358  55.528   7.745  1.00  0.00     0.047 A 
ATOM     14  C   UNL     1      -3.496  54.887   8.637  1.00  0.00     0.020 A 
ATOM     15  C   UNL     1      -5.262  54.785   6.983  1.00  0.00     0.119 A 
ATOM     16  C   UNL     1      -5.296  53.390   7.110  1.00  0.00     0.093 A 
ATOM     17  C   UNL     1      -4.431  52.737   8.001  1.00  0.00     0.130 A 
BRANCH  15  18
ATOM     18  O   UNL     1      -6.118  55.439   6.100  1.00  0.00    -0.508 OA
ATOM     19  H   UNL     1      -5.809  55.726   5.178  1.00  0.00     0.293 HD
ENDBRANCH  15  18
BRANCH  17  20
ATOM     20  O   UNL     1      -4.440  51.344   8.082  1.00  0.00    -0.507 OA
ATOM     21  H   UNL     1      -3.834  50.774   7.504  1.00  0.00     0.293 HD
ENDBRANCH  17  20
ENDBRANCH   1  12
BRANCH   2  22
ATOM     22  O   UNL     1      -1.494  51.646   7.950  1.00  0.00    -0.502 OA
ATOM     23  H   UNL     1      -0.940  52.196   7.304  1.00  0.00     0.293 HD
ENDBRANCH   2  22
BRANCH   6  24
ATOM     24  O   UNL     1       1.125  50.503  12.450  1.00  0.00    -0.507 OA
ATOM     25  H   UNL     1       1.430  50.164  11.551  1.00  0.00     0.293 HD
ENDBRANCH   6  24
BRANCH   8  26
ATOM     26  O   UNL     1      -1.719  52.623  15.663  1.00  0.00    -0.508 OA
ATOM     27  H   UNL     1      -1.688  53.570  16.022  1.00  0.00     0.293 HD
ENDBRANCH   8  26
TORSDOF 6
ENDMDL
