MODEL 1
REMARK VINA RESULT:    -4.124      0.000      0.000
REMARK INTER + INTRA:          -4.528
REMARK INTER:                  -4.365
REMARK INTRA:                  -0.163
REMARK UNBOUND:                -0.163
REMARK SMILES C=C(C)[C@@H]1CC=C(C)CC1
REMARK SMILES IDX 8 1 7 2 6 3 5 4 4 5 10 6 9 7 2 8 1 9 3 10
REMARK H PARENT
REMARK Flexibility Score: inf
ROOT
ATOM      1  C   UNL     1     140.925 137.875 136.346  1.00  0.00     0.039 C 
ATOM      2  C   UNL     1     139.639 138.525 136.776  1.00  0.00    -0.077 C 
ATOM      3  C   UNL     1     138.935 138.015 137.800  1.00  0.00    -0.027 C 
ATOM      4  C   UNL     1     137.627 138.650 138.184  1.00  0.00     0.035 C 
ATOM      5  C   UNL     1     136.772 138.928 136.924  1.00  0.00     0.018 C 
ATOM      6  C   UNL     1     137.590 139.524 135.733  1.00  0.00     0.013 C 
ATOM      7  C   UNL     1     139.085 139.727 136.046  1.00  0.00     0.031 C 
ENDROOT
BRANCH   5   8
ATOM      8  C   UNL     1     135.578 139.805 137.279  1.00  0.00    -0.077 C 
ATOM      9  C   UNL     1     135.044 139.762 138.509  1.00  0.00     0.008 C 
ATOM     10  C   UNL     1     134.992 140.755 136.265  1.00  0.00     0.039 C 
ENDBRANCH   5   8
TORSDOF 1
ENDMDL
MODEL 2
REMARK VINA RESULT:    -4.117      1.201      4.354
REMARK INTER + INTRA:          -4.520
REMARK INTER:                  -4.357
REMARK INTRA:                  -0.163
REMARK UNBOUND:                -0.163
REMARK SMILES C=C(C)[C@@H]1CC=C(C)CC1
REMARK SMILES IDX 8 1 7 2 6 3 5 4 4 5 10 6 9 7 2 8 1 9 3 10
REMARK H PARENT
REMARK Flexibility Score: inf
ROOT
ATOM      1  C   UNL     1     134.832 140.864 136.372  1.00  0.00     0.039 C 
ATOM      2  C   UNL     1     136.033 140.001 136.102  1.00  0.00    -0.077 C 
ATOM      3  C   UNL     1     136.551 139.240 137.079  1.00  0.00    -0.027 C 
ATOM      4  C   UNL     1     137.782 138.421 136.802  1.00  0.00     0.035 C 
ATOM      5  C   UNL     1     138.838 139.270 136.056  1.00  0.00     0.018 C 
ATOM      6  C   UNL     1     138.236 140.155 134.916  1.00  0.00     0.013 C 
ATOM      7  C   UNL     1     136.712 140.003 134.752  1.00  0.00     0.031 C 
ENDROOT
BRANCH   5   8
ATOM      8  C   UNL     1     139.963 138.382 135.542  1.00  0.00    -0.077 C 
ATOM      9  C   UNL     1     140.869 137.872 136.391  1.00  0.00     0.008 C 
ATOM     10  C   UNL     1     140.065 138.038 134.078  1.00  0.00     0.039 C 
ENDBRANCH   5   8
TORSDOF 1
ENDMDL
MODEL 3
REMARK VINA RESULT:    -4.116      3.653      5.306
REMARK INTER + INTRA:          -4.520
REMARK INTER:                  -4.357
REMARK INTRA:                  -0.163
REMARK UNBOUND:                -0.163
REMARK SMILES C=C(C)[C@@H]1CC=C(C)CC1
REMARK SMILES IDX 8 1 7 2 6 3 5 4 4 5 10 6 9 7 2 8 1 9 3 10
REMARK H PARENT
REMARK Flexibility Score: inf
ROOT
ATOM      1  C   UNL     1     134.826 140.907 136.284  1.00  0.00     0.039 C 
ATOM      2  C   UNL     1     134.161 139.636 136.731  1.00  0.00    -0.077 C 
ATOM      3  C   UNL     1     134.679 138.923 137.745  1.00  0.00    -0.027 C 
ATOM      4  C   UNL     1     134.027 137.628 138.145  1.00  0.00     0.035 C 
ATOM      5  C   UNL     1     133.706 136.777 136.893  1.00  0.00     0.018 C 
ATOM      6  C   UNL     1     133.101 137.604 135.713  1.00  0.00     0.013 C 
ATOM      7  C   UNL     1     132.934 139.103 136.028  1.00  0.00     0.031 C 
ENDROOT
BRANCH   5   8
ATOM      8  C   UNL     1     132.815 135.600 137.268  1.00  0.00    -0.077 C 
ATOM      9  C   UNL     1     132.849 135.090 138.509  1.00  0.00     0.008 C 
ATOM     10  C   UNL     1     131.861 135.005 136.263  1.00  0.00     0.039 C 
ENDBRANCH   5   8
TORSDOF 1
ENDMDL
MODEL 4
REMARK VINA RESULT:    -4.116      3.700      5.328
REMARK INTER + INTRA:          -4.519
REMARK INTER:                  -4.356
REMARK INTRA:                  -0.163
REMARK UNBOUND:                -0.163
REMARK SMILES C=C(C)[C@@H]1CC=C(C)CC1
REMARK SMILES IDX 8 1 7 2 6 3 5 4 4 5 10 6 9 7 2 8 1 9 3 10
REMARK H PARENT
REMARK Flexibility Score: inf
ROOT
ATOM      1  C   UNL     1     137.880 131.739 136.245  1.00  0.00     0.039 C 
ATOM      2  C   UNL     1     138.527 133.016 136.704  1.00  0.00    -0.077 C 
ATOM      3  C   UNL     1     137.997 133.714 137.721  1.00  0.00    -0.027 C 
ATOM      4  C   UNL     1     138.630 135.014 138.133  1.00  0.00     0.035 C 
ATOM      5  C   UNL     1     138.945 135.879 136.888  1.00  0.00     0.018 C 
ATOM      6  C   UNL     1     139.565 135.068 135.705  1.00  0.00     0.013 C 
ATOM      7  C   UNL     1     139.750 133.570 136.009  1.00  0.00     0.031 C 
ENDROOT
BRANCH   5   8
ATOM      8  C   UNL     1     139.820 137.064 137.276  1.00  0.00    -0.077 C 
ATOM      9  C   UNL     1     139.773 137.566 138.519  1.00  0.00     0.008 C 
ATOM     10  C   UNL     1     140.772 137.676 136.280  1.00  0.00     0.039 C 
ENDBRANCH   5   8
TORSDOF 1
ENDMDL
MODEL 5
REMARK VINA RESULT:    -4.114      4.016      5.539
REMARK INTER + INTRA:          -4.517
REMARK INTER:                  -4.354
REMARK INTRA:                  -0.163
REMARK UNBOUND:                -0.163
REMARK SMILES C=C(C)[C@@H]1CC=C(C)CC1
REMARK SMILES IDX 8 1 7 2 6 3 5 4 4 5 10 6 9 7 2 8 1 9 3 10
REMARK H PARENT
REMARK Flexibility Score: inf
ROOT
ATOM      1  C   UNL     1     131.791 134.802 136.408  1.00  0.00     0.039 C 
ATOM      2  C   UNL     1     132.640 136.010 136.126  1.00  0.00    -0.077 C 
ATOM      3  C   UNL     1     133.390 136.551 137.100  1.00  0.00    -0.027 C 
ATOM      4  C   UNL     1     134.194 137.789 136.811  1.00  0.00     0.035 C 
ATOM      5  C   UNL     1     133.334 138.824 136.048  1.00  0.00     0.018 C 
ATOM      6  C   UNL     1     132.463 138.197 134.912  1.00  0.00     0.013 C 
ATOM      7  C   UNL     1     132.635 136.673 134.768  1.00  0.00     0.031 C 
ENDROOT
BRANCH   5   8
ATOM      8  C   UNL     1     134.209 139.954 135.524  1.00  0.00    -0.077 C 
ATOM      9  C   UNL     1     134.709 140.874 136.365  1.00  0.00     0.008 C 
ATOM     10  C   UNL     1     134.553 140.047 134.059  1.00  0.00     0.039 C 
ENDBRANCH   5   8
TORSDOF 1
ENDMDL
MODEL 6
REMARK VINA RESULT:    -4.103      6.293      6.655
REMARK INTER + INTRA:          -4.506
REMARK INTER:                  -4.343
REMARK INTRA:                  -0.163
REMARK UNBOUND:                -0.163
REMARK SMILES C=C(C)[C@@H]1CC=C(C)CC1
REMARK SMILES IDX 8 1 7 2 6 3 5 4 4 5 10 6 9 7 2 8 1 9 3 10
REMARK H PARENT
REMARK Flexibility Score: inf
ROOT
ATOM      1  C   UNL     1     137.873 131.762 136.379  1.00  0.00     0.039 C 
ATOM      2  C   UNL     1     136.669 132.620 136.116  1.00  0.00    -0.077 C 
ATOM      3  C   UNL     1     136.151 133.377 137.097  1.00  0.00    -0.027 C 
ATOM      4  C   UNL     1     134.916 134.192 136.828  1.00  0.00     0.035 C 
ATOM      5  C   UNL     1     133.860 133.340 136.083  1.00  0.00     0.018 C 
ATOM      6  C   UNL     1     134.461 132.461 134.938  1.00  0.00     0.013 C 
ATOM      7  C   UNL     1     135.983 132.619 134.769  1.00  0.00     0.031 C 
ENDROOT
BRANCH   5   8
ATOM      8  C   UNL     1     132.729 134.225 135.576  1.00  0.00    -0.077 C 
ATOM      9  C   UNL     1     131.847 134.760 136.435  1.00  0.00     0.008 C 
ATOM     10  C   UNL     1     132.595 134.538 134.108  1.00  0.00     0.039 C 
ENDBRANCH   5   8
TORSDOF 1
ENDMDL
MODEL 7
REMARK VINA RESULT:    -4.097      4.158      5.702
REMARK INTER + INTRA:          -4.499
REMARK INTER:                  -4.336
REMARK INTRA:                  -0.163
REMARK UNBOUND:                -0.163
REMARK SMILES C=C(C)[C@@H]1CC=C(C)CC1
REMARK SMILES IDX 8 1 7 2 6 3 5 4 4 5 10 6 9 7 2 8 1 9 3 10
REMARK H PARENT
REMARK Flexibility Score: inf
ROOT
ATOM      1  C   UNL     1     140.877 137.875 136.377  1.00  0.00     0.039 C 
ATOM      2  C   UNL     1     140.022 136.667 136.113  1.00  0.00    -0.077 C 
ATOM      3  C   UNL     1     139.302 136.120 137.106  1.00  0.00    -0.027 C 
ATOM      4  C   UNL     1     138.492 134.882 136.834  1.00  0.00     0.035 C 
ATOM      5  C   UNL     1     139.331 133.852 136.039  1.00  0.00     0.018 C 
ATOM      6  C   UNL     1     140.167 134.488 134.882  1.00  0.00     0.013 C 
ATOM      7  C   UNL     1     139.988 136.012 134.752  1.00  0.00     0.031 C 
ENDROOT
BRANCH   5   8
ATOM      8  C   UNL     1     138.442 132.724 135.535  1.00  0.00    -0.077 C 
ATOM      9  C   UNL     1     137.919 131.834 136.393  1.00  0.00     0.008 C 
ATOM     10  C   UNL     1     138.111 132.600 134.069  1.00  0.00     0.039 C 
ENDBRANCH   5   8
TORSDOF 1
ENDMDL
MODEL 8
REMARK VINA RESULT:    -3.984      5.957      7.541
REMARK INTER + INTRA:          -4.379
REMARK INTER:                  -4.216
REMARK INTRA:                  -0.163
REMARK UNBOUND:                -0.163
REMARK SMILES C=C(C)[C@@H]1CC=C(C)CC1
REMARK SMILES IDX 8 1 7 2 6 3 5 4 4 5 10 6 9 7 2 8 1 9 3 10
REMARK H PARENT
REMARK Flexibility Score: inf
ROOT
ATOM      1  C   UNL     1     131.860 134.510 136.066  1.00  0.00     0.039 C 
ATOM      2  C   UNL     1     133.139 133.906 136.574  1.00  0.00    -0.077 C 
ATOM      3  C   UNL     1     133.686 134.346 137.719  1.00  0.00    -0.027 C 
ATOM      4  C   UNL     1     134.992 133.763 138.184  1.00  0.00     0.035 C 
ATOM      5  C   UNL     1     135.997 133.686 137.010  1.00  0.00     0.018 C 
ATOM      6  C   UNL     1     135.362 133.172 135.678  1.00  0.00     0.013 C 
ATOM      7  C   UNL     1     133.864 132.834 135.793  1.00  0.00     0.031 C 
ENDROOT
BRANCH   5   8
ATOM      8  C   UNL     1     137.213 132.860 137.408  1.00  0.00    -0.077 C 
ATOM      9  C   UNL     1     137.771 133.011 138.619  1.00  0.00     0.008 C 
ATOM     10  C   UNL     1     137.793 131.839 136.463  1.00  0.00     0.039 C 
ENDBRANCH   5   8
TORSDOF 1
ENDMDL
MODEL 9
REMARK VINA RESULT:    -3.844      5.326      6.595
REMARK INTER + INTRA:          -4.231
REMARK INTER:                  -4.059
REMARK INTRA:                  -0.172
REMARK UNBOUND:                -0.163
REMARK SMILES C=C(C)[C@@H]1CC=C(C)CC1
REMARK SMILES IDX 8 1 7 2 6 3 5 4 4 5 10 6 9 7 2 8 1 9 3 10
REMARK H PARENT
REMARK Flexibility Score: inf
ROOT
ATOM      1  C   UNL     1     137.900 131.917 136.168  1.00  0.00     0.039 C 
ATOM      2  C   UNL     1     138.673 132.860 135.290  1.00  0.00    -0.077 C 
ATOM      3  C   UNL     1     139.735 133.522 135.778  1.00  0.00    -0.027 C 
ATOM      4  C   UNL     1     140.465 134.498 134.898  1.00  0.00     0.035 C 
ATOM      5  C   UNL     1     139.459 135.410 134.154  1.00  0.00     0.018 C 
ATOM      6  C   UNL     1     138.224 134.641 133.582  1.00  0.00     0.013 C 
ATOM      7  C   UNL     1     138.251 133.127 133.863  1.00  0.00     0.031 C 
ENDROOT
BRANCH   5   8
ATOM      8  C   UNL     1     140.172 136.210 133.072  1.00  0.00    -0.077 C 
ATOM      9  C   UNL     1     141.098 135.628 132.295  1.00  0.00     0.008 C 
ATOM     10  C   UNL     1     139.833 137.660 132.837  1.00  0.00     0.039 C 
ENDBRANCH   5   8
TORSDOF 1
ENDMDL
