MODEL 1
REMARK VINA RESULT:    -4.424      0.000      0.000
REMARK INTER + INTRA:          -6.211
REMARK INTER:                  -5.976
REMARK INTRA:                  -0.236
REMARK UNBOUND:                -0.236
REMARK SMILES O=C[C@H](O)[C@H](O)[C@H](O)CO
REMARK SMILES IDX 7 1 9 2 10 3 5 5 3 6 2 7 1 8 4 9 6 11 8 13
REMARK H PARENT 10 4 4 10 6 12 8 14
REMARK Flexibility Score: inf
ROOT
ATOM      1  C   UNL     1      -1.829 -14.573  19.201  1.00  0.00     0.171 C 
ENDROOT
BRANCH   1   2
ATOM      2  C   UNL     1      -0.629 -13.710  19.628  1.00  0.00     0.190 C 
BRANCH   2   3
ATOM      3  O   UNL     1       0.157 -13.367  18.520  1.00  0.00    -0.394 OA
ATOM      4  H   UNL     1      -0.040 -14.046  17.822  1.00  0.00     0.210 HD
ENDBRANCH   2   3
ENDBRANCH   1   2
BRANCH   1   5
ATOM      5  C   UNL     1      -1.635 -16.098  19.420  1.00  0.00     0.181 C 
BRANCH   5   6
ATOM      6  C   UNL     1      -2.101 -16.655  20.798  1.00  0.00     0.209 C 
BRANCH   6   7
ATOM      7  C   UNL     1      -3.118 -17.756  20.666  1.00  0.00     0.258 C 
ATOM      8  O   UNL     1      -3.241 -18.583  21.554  1.00  0.00    -0.300 OA
ENDBRANCH   6   7
BRANCH   6   9
ATOM      9  O   UNL     1      -2.614 -15.639  21.619  1.00  0.00    -0.383 OA
ATOM     10  H   UNL     1      -1.911 -14.940  21.682  1.00  0.00     0.211 HD
ENDBRANCH   6   9
ENDBRANCH   5   6
BRANCH   5  11
ATOM     11  O   UNL     1      -0.269 -16.386  19.250  1.00  0.00    -0.387 OA
ATOM     12  H   UNL     1       0.164 -16.284  20.139  1.00  0.00     0.211 HD
ENDBRANCH   5  11
ENDBRANCH   1   5
BRANCH   1  13
ATOM     13  O   UNL     1      -2.181 -14.306  17.867  1.00  0.00    -0.388 OA
ATOM     14  H   UNL     1      -1.906 -15.096  17.331  1.00  0.00     0.211 HD
ENDBRANCH   1  13
TORSDOF 8
ENDMDL
MODEL 2
REMARK VINA RESULT:    -4.322      1.707      2.260
REMARK INTER + INTRA:          -6.073
REMARK INTER:                  -5.392
REMARK INTRA:                  -0.681
REMARK UNBOUND:                -0.236
REMARK SMILES O=C[C@H](O)[C@H](O)[C@H](O)CO
REMARK SMILES IDX 7 1 9 2 10 3 5 5 3 6 2 7 1 8 4 9 6 11 8 13
REMARK H PARENT 10 4 4 10 6 12 8 14
REMARK Flexibility Score: inf
ROOT
ATOM      1  C   UNL     1      -0.133 -12.972  19.923  1.00  0.00     0.171 C 
ENDROOT
BRANCH   1   2
ATOM      2  C   UNL     1       1.053 -12.543  19.041  1.00  0.00     0.190 C 
BRANCH   2   3
ATOM      3  O   UNL     1       2.104 -13.464  19.138  1.00  0.00    -0.394 OA
ATOM      4  H   UNL     1       2.830 -13.002  19.633  1.00  0.00     0.210 HD
ENDBRANCH   2   3
ENDBRANCH   1   2
BRANCH   1   5
ATOM      5  C   UNL     1      -0.916 -14.204  19.393  1.00  0.00     0.181 C 
BRANCH   5   6
ATOM      6  C   UNL     1      -2.096 -14.697  20.283  1.00  0.00     0.209 C 
BRANCH   6   7
ATOM      7  C   UNL     1      -2.489 -16.120  19.990  1.00  0.00     0.258 C 
ATOM      8  O   UNL     1      -1.891 -17.040  20.522  1.00  0.00    -0.300 OA
ENDBRANCH   6   7
BRANCH   6   9
ATOM      9  O   UNL     1      -3.220 -13.865  20.160  1.00  0.00    -0.383 OA
ATOM     10  H   UNL     1      -2.881 -12.959  19.939  1.00  0.00     0.211 HD
ENDBRANCH   6   9
ENDBRANCH   5   6
BRANCH   5  11
ATOM     11  O   UNL     1       0.001 -15.257  19.227  1.00  0.00    -0.387 OA
ATOM     12  H   UNL     1       0.744 -15.101  19.866  1.00  0.00     0.211 HD
ENDBRANCH   5  11
ENDBRANCH   1   5
BRANCH   1  13
ATOM     13  O   UNL     1      -1.002 -11.890  20.144  1.00  0.00    -0.388 OA
ATOM     14  H   UNL     1      -1.674 -12.191  20.811  1.00  0.00     0.211 HD
ENDBRANCH   1  13
TORSDOF 8
ENDMDL
MODEL 3
REMARK VINA RESULT:    -4.287      1.928      3.955
REMARK INTER + INTRA:          -6.026
REMARK INTER:                  -5.618
REMARK INTRA:                  -0.408
REMARK UNBOUND:                -0.236
REMARK SMILES O=C[C@H](O)[C@H](O)[C@H](O)CO
REMARK SMILES IDX 7 1 9 2 10 3 5 5 3 6 2 7 1 8 4 9 6 11 8 13
REMARK H PARENT 10 4 4 10 6 12 8 14
REMARK Flexibility Score: inf
ROOT
ATOM      1  C   UNL     1      -2.221 -15.569  20.219  1.00  0.00     0.171 C 
ENDROOT
BRANCH   1   2
ATOM      2  C   UNL     1      -1.321 -16.745  19.803  1.00  0.00     0.190 C 
BRANCH   2   3
ATOM      3  O   UNL     1      -0.178 -16.286  19.136  1.00  0.00    -0.394 OA
ATOM      4  H   UNL     1      -0.149 -16.772  18.271  1.00  0.00     0.210 HD
ENDBRANCH   2   3
ENDBRANCH   1   2
BRANCH   1   5
ATOM      5  C   UNL     1      -1.673 -14.169  19.827  1.00  0.00     0.181 C 
BRANCH   5   6
ATOM      6  C   UNL     1      -2.192 -12.971  20.677  1.00  0.00     0.209 C 
BRANCH   6   7
ATOM      7  C   UNL     1      -3.661 -12.712  20.478  1.00  0.00     0.258 C 
ATOM      8  O   UNL     1      -4.028 -11.844  19.702  1.00  0.00    -0.300 OA
ENDBRANCH   6   7
BRANCH   6   9
ATOM      9  O   UNL     1      -1.469 -11.797  20.413  1.00  0.00    -0.383 OA
ATOM     10  H   UNL     1      -0.989 -11.564  21.250  1.00  0.00     0.211 HD
ENDBRANCH   6   9
ENDBRANCH   5   6
BRANCH   5  11
ATOM     11  O   UNL     1      -1.995 -13.944  18.478  1.00  0.00    -0.387 OA
ATOM     12  H   UNL     1      -1.201 -13.526  18.053  1.00  0.00     0.211 HD
ENDBRANCH   5  11
ENDBRANCH   1   5
BRANCH   1  13
ATOM     13  O   UNL     1      -2.501 -15.623  21.596  1.00  0.00    -0.388 OA
ATOM     14  H   UNL     1      -2.880 -16.522  21.779  1.00  0.00     0.211 HD
ENDBRANCH   1  13
TORSDOF 8
ENDMDL
MODEL 4
REMARK VINA RESULT:    -4.271      1.657      3.954
REMARK INTER + INTRA:          -6.005
REMARK INTER:                  -5.739
REMARK INTRA:                  -0.266
REMARK UNBOUND:                -0.236
REMARK SMILES O=C[C@H](O)[C@H](O)[C@H](O)CO
REMARK SMILES IDX 7 1 9 2 10 3 5 5 3 6 2 7 1 8 4 9 6 11 8 13
REMARK H PARENT 10 4 4 10 6 12 8 14
REMARK Flexibility Score: inf
ROOT
ATOM      1  C   UNL     1      -1.048 -15.814  19.876  1.00  0.00     0.171 C 
ENDROOT
BRANCH   1   2
ATOM      2  C   UNL     1      -2.376 -16.576  20.021  1.00  0.00     0.190 C 
BRANCH   2   3
ATOM      3  O   UNL     1      -2.802 -16.583  21.356  1.00  0.00    -0.394 OA
ATOM      4  H   UNL     1      -2.738 -17.526  21.661  1.00  0.00     0.210 HD
ENDBRANCH   2   3
ENDBRANCH   1   2
BRANCH   1   5
ATOM      5  C   UNL     1      -1.197 -14.349  19.383  1.00  0.00     0.181 C 
BRANCH   5   6
ATOM      6  C   UNL     1      -1.718 -13.325  20.435  1.00  0.00     0.209 C 
BRANCH   6   7
ATOM      7  C   UNL     1      -3.214 -13.167  20.400  1.00  0.00     0.258 C 
ATOM      8  O   UNL     1      -3.713 -12.200  19.848  1.00  0.00    -0.300 OA
ENDBRANCH   6   7
BRANCH   6   9
ATOM      9  O   UNL     1      -1.111 -12.069  20.280  1.00  0.00    -0.383 OA
ATOM     10  H   UNL     1      -1.512 -11.656  19.472  1.00  0.00     0.211 HD
ENDBRANCH   6   9
ENDBRANCH   5   6
BRANCH   5  11
ATOM     11  O   UNL     1      -2.070 -14.353  18.281  1.00  0.00    -0.387 OA
ATOM     12  H   UNL     1      -2.629 -15.171  18.354  1.00  0.00     0.211 HD
ENDBRANCH   5  11
ENDBRANCH   1   5
BRANCH   1  13
ATOM     13  O   UNL     1      -0.158 -16.524  19.052  1.00  0.00    -0.388 OA
ATOM     14  H   UNL     1       0.500 -16.967  19.650  1.00  0.00     0.211 HD
ENDBRANCH   1  13
TORSDOF 8
ENDMDL
MODEL 5
REMARK VINA RESULT:    -4.184      2.202      4.053
REMARK INTER + INTRA:          -5.887
REMARK INTER:                  -5.589
REMARK INTRA:                  -0.297
REMARK UNBOUND:                -0.236
REMARK SMILES O=C[C@H](O)[C@H](O)[C@H](O)CO
REMARK SMILES IDX 7 1 9 2 10 3 5 5 3 6 2 7 1 8 4 9 6 11 8 13
REMARK H PARENT 10 4 4 10 6 12 8 14
REMARK Flexibility Score: inf
ROOT
ATOM      1  C   UNL     1      -1.496 -14.522  19.594  1.00  0.00     0.171 C 
ENDROOT
BRANCH   1   2
ATOM      2  C   UNL     1      -1.353 -16.048  19.726  1.00  0.00     0.190 C 
BRANCH   2   3
ATOM      3  O   UNL     1      -0.158 -16.488  19.140  1.00  0.00    -0.394 OA
ATOM      4  H   UNL     1       0.328 -16.986  19.847  1.00  0.00     0.210 HD
ENDBRANCH   2   3
ENDBRANCH   1   2
BRANCH   1   5
ATOM      5  C   UNL     1      -2.615 -13.902  20.475  1.00  0.00     0.181 C 
BRANCH   5   6
ATOM      6  C   UNL     1      -2.362 -12.449  20.978  1.00  0.00     0.209 C 
BRANCH   6   7
ATOM      7  C   UNL     1      -3.573 -11.567  20.837  1.00  0.00     0.258 C 
ATOM      8  O   UNL     1      -4.295 -11.673  19.858  1.00  0.00    -0.300 OA
ENDBRANCH   6   7
BRANCH   6   9
ATOM      9  O   UNL     1      -1.272 -11.857  20.322  1.00  0.00    -0.383 OA
ATOM     10  H   UNL     1      -1.640 -11.127  19.759  1.00  0.00     0.211 HD
ENDBRANCH   6   9
ENDBRANCH   5   6
BRANCH   5  11
ATOM     11  O   UNL     1      -2.802 -14.743  21.587  1.00  0.00    -0.387 OA
ATOM     12  H   UNL     1      -3.742 -14.630  21.884  1.00  0.00     0.211 HD
ENDBRANCH   5  11
ENDBRANCH   1   5
BRANCH   1  13
ATOM     13  O   UNL     1      -1.667 -14.155  18.248  1.00  0.00    -0.388 OA
ATOM     14  H   UNL     1      -2.615 -13.877  18.142  1.00  0.00     0.211 HD
ENDBRANCH   1  13
TORSDOF 8
ENDMDL
MODEL 6
REMARK VINA RESULT:    -4.098      3.886      5.670
REMARK INTER + INTRA:          -5.771
REMARK INTER:                  -5.137
REMARK INTRA:                  -0.634
REMARK UNBOUND:                -0.236
REMARK SMILES O=C[C@H](O)[C@H](O)[C@H](O)CO
REMARK SMILES IDX 7 1 9 2 10 3 5 5 3 6 2 7 1 8 4 9 6 11 8 13
REMARK H PARENT 10 4 4 10 6 12 8 14
REMARK Flexibility Score: inf
ROOT
ATOM      1  C   UNL     1       2.925 -11.246  17.893  1.00  0.00     0.171 C 
ENDROOT
BRANCH   1   2
ATOM      2  C   UNL     1       4.033 -11.987  17.125  1.00  0.00     0.190 C 
BRANCH   2   3
ATOM      3  O   UNL     1       3.512 -12.624  15.991  1.00  0.00    -0.394 OA
ATOM      4  H   UNL     1       3.069 -11.914  15.455  1.00  0.00     0.210 HD
ENDBRANCH   2   3
ENDBRANCH   1   2
BRANCH   1   5
ATOM      5  C   UNL     1       1.792 -12.162  18.432  1.00  0.00     0.181 C 
BRANCH   5   6
ATOM      6  C   UNL     1       0.934 -11.575  19.592  1.00  0.00     0.209 C 
BRANCH   6   7
ATOM      7  C   UNL     1      -0.181 -12.494  20.011  1.00  0.00     0.258 C 
ATOM      8  O   UNL     1      -0.300 -13.589  19.485  1.00  0.00    -0.300 OA
ENDBRANCH   6   7
BRANCH   6   9
ATOM      9  O   UNL     1       0.405 -10.318  19.260  1.00  0.00    -0.383 OA
ATOM     10  H   UNL     1       1.086  -9.861  18.700  1.00  0.00     0.211 HD
ENDBRANCH   6   9
ENDBRANCH   5   6
BRANCH   5  11
ATOM     11  O   UNL     1       2.380 -13.364  18.863  1.00  0.00    -0.387 OA
ATOM     12  H   UNL     1       2.317 -13.381  19.854  1.00  0.00     0.211 HD
ENDBRANCH   5  11
ENDBRANCH   1   5
BRANCH   1  13
ATOM     13  O   UNL     1       2.392 -10.206  17.112  1.00  0.00    -0.388 OA
ATOM     14  H   UNL     1       1.443 -10.098  17.384  1.00  0.00     0.211 HD
ENDBRANCH   1  13
TORSDOF 8
ENDMDL
MODEL 7
REMARK VINA RESULT:    -4.077      2.573      3.888
REMARK INTER + INTRA:          -5.742
REMARK INTER:                  -5.056
REMARK INTRA:                  -0.686
REMARK UNBOUND:                -0.236
REMARK SMILES O=C[C@H](O)[C@H](O)[C@H](O)CO
REMARK SMILES IDX 7 1 9 2 10 3 5 5 3 6 2 7 1 8 4 9 6 11 8 13
REMARK H PARENT 10 4 4 10 6 12 8 14
REMARK Flexibility Score: inf
ROOT
ATOM      1  C   UNL     1       1.122 -12.523  18.914  1.00  0.00     0.171 C 
ENDROOT
BRANCH   1   2
ATOM      2  C   UNL     1       1.561 -11.060  19.103  1.00  0.00     0.190 C 
BRANCH   2   3
ATOM      3  O   UNL     1       0.843 -10.212  18.249  1.00  0.00    -0.394 OA
ATOM      4  H   UNL     1      -0.050 -10.628  18.134  1.00  0.00     0.210 HD
ENDBRANCH   2   3
ENDBRANCH   1   2
BRANCH   1   5
ATOM      5  C   UNL     1      -0.044 -12.969  19.838  1.00  0.00     0.181 C 
BRANCH   5   6
ATOM      6  C   UNL     1      -0.890 -14.176  19.334  1.00  0.00     0.209 C 
BRANCH   6   7
ATOM      7  C   UNL     1      -2.120 -14.412  20.169  1.00  0.00     0.258 C 
ATOM      8  O   UNL     1      -3.107 -13.713  20.012  1.00  0.00    -0.300 OA
ENDBRANCH   6   7
BRANCH   6   9
ATOM      9  O   UNL     1      -0.129 -15.354  19.278  1.00  0.00    -0.383 OA
ATOM     10  H   UNL     1       0.586 -15.264  19.960  1.00  0.00     0.211 HD
ENDBRANCH   6   9
ENDBRANCH   5   6
BRANCH   5  11
ATOM     11  O   UNL     1      -0.892 -11.864  20.023  1.00  0.00    -0.387 OA
ATOM     12  H   UNL     1      -1.715 -12.197  20.469  1.00  0.00     0.211 HD
ENDBRANCH   5  11
ENDBRANCH   1   5
BRANCH   1  13
ATOM     13  O   UNL     1       2.220 -13.390  19.050  1.00  0.00    -0.388 OA
ATOM     14  H   UNL     1       2.524 -13.618  18.132  1.00  0.00     0.211 HD
ENDBRANCH   1  13
TORSDOF 8
ENDMDL
MODEL 8
REMARK VINA RESULT:    -3.965      1.976      2.868
REMARK INTER + INTRA:          -5.591
REMARK INTER:                  -4.838
REMARK INTRA:                  -0.753
REMARK UNBOUND:                -0.236
REMARK SMILES O=C[C@H](O)[C@H](O)[C@H](O)CO
REMARK SMILES IDX 7 1 9 2 10 3 5 5 3 6 2 7 1 8 4 9 6 11 8 13
REMARK H PARENT 10 4 4 10 6 12 8 14
REMARK Flexibility Score: inf
ROOT
ATOM      1  C   UNL     1      -2.730 -12.579  20.862  1.00  0.00     0.171 C 
ENDROOT
BRANCH   1   2
ATOM      2  C   UNL     1      -1.620 -11.529  21.041  1.00  0.00     0.190 C 
BRANCH   2   3
ATOM      3  O   UNL     1      -0.567 -11.760  20.146  1.00  0.00    -0.394 OA
ATOM      4  H   UNL     1       0.231 -11.318  20.538  1.00  0.00     0.210 HD
ENDBRANCH   2   3
ENDBRANCH   1   2
BRANCH   1   5
ATOM      5  C   UNL     1      -2.234 -14.051  20.885  1.00  0.00     0.181 C 
BRANCH   5   6
ATOM      6  C   UNL     1      -2.266 -14.803  19.520  1.00  0.00     0.209 C 
BRANCH   6   7
ATOM      7  C   UNL     1      -1.688 -16.189  19.608  1.00  0.00     0.258 C 
ATOM      8  O   UNL     1      -2.264 -17.051  20.251  1.00  0.00    -0.300 OA
ENDBRANCH   6   7
BRANCH   6   9
ATOM      9  O   UNL     1      -1.604 -14.081  18.516  1.00  0.00    -0.383 OA
ATOM     10  H   UNL     1      -1.461 -13.164  18.869  1.00  0.00     0.211 HD
ENDBRANCH   6   9
ENDBRANCH   5   6
BRANCH   5  11
ATOM     11  O   UNL     1      -3.021 -14.755  21.812  1.00  0.00    -0.387 OA
ATOM     12  H   UNL     1      -2.401 -15.281  22.382  1.00  0.00     0.211 HD
ENDBRANCH   5  11
ENDBRANCH   1   5
BRANCH   1  13
ATOM     13  O   UNL     1      -3.468 -12.324  19.693  1.00  0.00    -0.388 OA
ATOM     14  H   UNL     1      -3.937 -13.167  19.458  1.00  0.00     0.211 HD
ENDBRANCH   1  13
TORSDOF 8
ENDMDL
MODEL 9
REMARK VINA RESULT:    -3.932      6.065      7.474
REMARK INTER + INTRA:          -5.547
REMARK INTER:                  -4.868
REMARK INTRA:                  -0.679
REMARK UNBOUND:                -0.236
REMARK SMILES O=C[C@H](O)[C@H](O)[C@H](O)CO
REMARK SMILES IDX 7 1 9 2 10 3 5 5 3 6 2 7 1 8 4 9 6 11 8 13
REMARK H PARENT 10 4 4 10 6 12 8 14
REMARK Flexibility Score: inf
ROOT
ATOM      1  C   UNL     1       4.675 -11.677  17.116  1.00  0.00     0.171 C 
ENDROOT
BRANCH   1   2
ATOM      2  C   UNL     1       5.189 -12.591  15.990  1.00  0.00     0.190 C 
BRANCH   2   3
ATOM      3  O   UNL     1       4.141 -13.341  15.439  1.00  0.00    -0.394 OA
ATOM      4  H   UNL     1       3.350 -13.173  16.016  1.00  0.00     0.210 HD
ENDBRANCH   2   3
ENDBRANCH   1   2
BRANCH   1   5
ATOM      5  C   UNL     1       3.154 -11.806  17.405  1.00  0.00     0.181 C 
BRANCH   5   6
ATOM      6  C   UNL     1       2.473 -10.560  18.046  1.00  0.00     0.209 C 
BRANCH   6   7
ATOM      7  C   UNL     1       1.341 -10.926  18.967  1.00  0.00     0.258 C 
ATOM      8  O   UNL     1       1.570 -11.213  20.131  1.00  0.00    -0.300 OA
ENDBRANCH   6   7
BRANCH   6   9
ATOM      9  O   UNL     1       2.012  -9.664  17.069  1.00  0.00    -0.383 OA
ATOM     10  H   UNL     1       2.812  -9.206  16.701  1.00  0.00     0.211 HD
ENDBRANCH   6   9
ENDBRANCH   5   6
BRANCH   5  11
ATOM     11  O   UNL     1       2.971 -12.912  18.254  1.00  0.00    -0.387 OA
ATOM     12  H   UNL     1       3.377 -13.698  17.803  1.00  0.00     0.211 HD
ENDBRANCH   5  11
ENDBRANCH   1   5
BRANCH   1  13
ATOM     13  O   UNL     1       5.018 -10.338  16.861  1.00  0.00    -0.388 OA
ATOM     14  H   UNL     1       4.513 -10.059  16.052  1.00  0.00     0.211 HD
ENDBRANCH   1  13
TORSDOF 8
ENDMDL
