MODEL 1
REMARK VINA RESULT:     0.580      0.000      0.000
REMARK INTER + INTRA:           0.362
REMARK INTER:                   0.818
REMARK INTRA:                  -0.456
REMARK UNBOUND:                -0.456
REMARK SMILES C=CCCCCCCC(=O)[O-]
REMARK SMILES IDX 6 1 7 2 8 3 9 4 10 5 11 6 5 7 4 8 3 9 2 10 1 11
REMARK H PARENT
REMARK Flexibility Score: inf
ROOT
ATOM      1  C   UNL     1     -12.764  17.827 -10.641  1.00  0.00     0.000 C 
ENDROOT
BRANCH   1   2
ATOM      2  C   UNL     1     -13.317  19.025 -11.436  1.00  0.00     0.006 C 
BRANCH   2   3
ATOM      3  C   UNL     1     -12.274  19.748 -12.304  1.00  0.00     0.053 C 
BRANCH   3   4
ATOM      4  C   UNL     1     -12.420  19.410 -13.756  1.00  0.00     0.041 C 
ATOM      5  O   UNL     1     -13.540  19.064 -14.217  1.00  0.00    -0.550 OA
ATOM      6  O   UNL     1     -11.313  19.445 -14.594  1.00  0.00    -0.550 OA
ENDBRANCH   3   4
ENDBRANCH   2   3
ENDBRANCH   1   2
BRANCH   1   7
ATOM      7  C   UNL     1     -12.759  18.073  -9.122  1.00  0.00     0.000 C 
BRANCH   7   8
ATOM      8  C   UNL     1     -13.454  19.389  -8.738  1.00  0.00     0.004 C 
BRANCH   8   9
ATOM      9  C   UNL     1     -13.143  19.824  -7.297  1.00  0.00     0.027 C 
BRANCH   9  10
ATOM     10  C   UNL     1     -12.441  21.154  -7.272  1.00  0.00    -0.035 C 
ATOM     11  C   UNL     1     -11.618  21.533  -8.255  1.00  0.00     0.004 C 
ENDBRANCH   9  10
ENDBRANCH   8   9
ENDBRANCH   7   8
ENDBRANCH   1   7
TORSDOF 7
ENDMDL
MODEL 2
REMARK VINA RESULT:     1.396     15.878     17.379
REMARK INTER + INTRA:           1.511
REMARK INTER:                   1.991
REMARK INTRA:                  -0.480
REMARK UNBOUND:                -0.456
REMARK SMILES C=CCCCCCCC(=O)[O-]
REMARK SMILES IDX 6 1 7 2 8 3 9 4 10 5 11 6 5 7 4 8 3 9 2 10 1 11
REMARK H PARENT
REMARK Flexibility Score: inf
ROOT
ATOM      1  C   UNL     1     -18.144   4.420  -3.836  1.00  0.00     0.000 C 
ENDROOT
BRANCH   1   2
ATOM      2  C   UNL     1     -17.255   5.439  -3.098  1.00  0.00     0.006 C 
BRANCH   2   3
ATOM      3  C   UNL     1     -17.913   6.811  -2.875  1.00  0.00     0.053 C 
BRANCH   3   4
ATOM      4  C   UNL     1     -17.238   7.893  -3.662  1.00  0.00     0.041 C 
ATOM      5  O   UNL     1     -16.789   8.914  -3.078  1.00  0.00    -0.550 OA
ATOM      6  O   UNL     1     -17.137   7.789  -5.043  1.00  0.00    -0.550 OA
ENDBRANCH   3   4
ENDBRANCH   2   3
ENDBRANCH   1   2
BRANCH   1   7
ATOM      7  C   UNL     1     -18.908   3.492  -2.876  1.00  0.00     0.000 C 
BRANCH   7   8
ATOM      8  C   UNL     1     -20.161   2.880  -3.522  1.00  0.00     0.004 C 
BRANCH   8   9
ATOM      9  C   UNL     1     -21.464   3.405  -2.900  1.00  0.00     0.027 C 
BRANCH   9  10
ATOM     10  C   UNL     1     -21.965   4.618  -3.636  1.00  0.00    -0.035 C 
ATOM     11  C   UNL     1     -22.063   5.811  -3.041  1.00  0.00     0.004 C 
ENDBRANCH   9  10
ENDBRANCH   8   9
ENDBRANCH   7   8
ENDBRANCH   1   7
TORSDOF 7
ENDMDL
MODEL 3
REMARK VINA RESULT:     1.472      3.256      5.450
REMARK INTER + INTRA:           1.618
REMARK INTER:                   1.918
REMARK INTRA:                  -0.299
REMARK UNBOUND:                -0.456
REMARK SMILES C=CCCCCCCC(=O)[O-]
REMARK SMILES IDX 6 1 7 2 8 3 9 4 10 5 11 6 5 7 4 8 3 9 2 10 1 11
REMARK H PARENT
REMARK Flexibility Score: inf
ROOT
ATOM      1  C   UNL     1     -12.738  18.040  -9.307  1.00  0.00     0.000 C 
ENDROOT
BRANCH   1   2
ATOM      2  C   UNL     1     -13.452  19.323  -8.840  1.00  0.00     0.006 C 
BRANCH   2   3
ATOM      3  C   UNL     1     -13.120  19.746  -7.400  1.00  0.00     0.053 C 
BRANCH   3   4
ATOM      4  C   UNL     1     -12.329  21.017  -7.354  1.00  0.00     0.041 C 
ATOM      5  O   UNL     1     -12.315  21.717  -6.308  1.00  0.00    -0.550 OA
ATOM      6  O   UNL     1     -11.635  21.445  -8.479  1.00  0.00    -0.550 OA
ENDBRANCH   3   4
ENDBRANCH   2   3
ENDBRANCH   1   2
BRANCH   1   7
ATOM      7  C   UNL     1     -12.770  17.866 -10.836  1.00  0.00     0.000 C 
BRANCH   7   8
ATOM      8  C   UNL     1     -13.094  19.176 -11.570  1.00  0.00     0.004 C 
BRANCH   8   9
ATOM      9  C   UNL     1     -13.066  19.020 -13.099  1.00  0.00     0.027 C 
BRANCH   9  10
ATOM     10  C   UNL     1     -11.872  19.718 -13.692  1.00  0.00    -0.035 C 
ATOM     11  C   UNL     1     -11.263  19.259 -14.790  1.00  0.00     0.004 C 
ENDBRANCH   9  10
ENDBRANCH   8   9
ENDBRANCH   7   8
ENDBRANCH   1   7
TORSDOF 7
ENDMDL
MODEL 4
REMARK VINA RESULT:     1.913     15.970     17.406
REMARK INTER + INTRA:           2.241
REMARK INTER:                   1.635
REMARK INTRA:                   0.606
REMARK UNBOUND:                -0.456
REMARK SMILES C=CCCCCCCC(=O)[O-]
REMARK SMILES IDX 6 1 7 2 8 3 9 4 10 5 11 6 5 7 4 8 3 9 2 10 1 11
REMARK H PARENT
REMARK Flexibility Score: inf
ROOT
ATOM      1  C   UNL     1     -20.232   6.673  -3.092  1.00  0.00     0.000 C 
ENDROOT
BRANCH   1   2
ATOM      2  C   UNL     1     -21.681   6.193  -3.304  1.00  0.00     0.006 C 
BRANCH   2   3
ATOM      3  C   UNL     1     -21.938   4.739  -2.875  1.00  0.00     0.053 C 
BRANCH   3   4
ATOM      4  C   UNL     1     -21.454   3.757  -3.897  1.00  0.00     0.041 C 
ATOM      5  O   UNL     1     -20.443   3.044  -3.661  1.00  0.00    -0.550 OA
ATOM      6  O   UNL     1     -22.098   3.653  -5.123  1.00  0.00    -0.550 OA
ENDBRANCH   3   4
ENDBRANCH   2   3
ENDBRANCH   1   2
BRANCH   1   7
ATOM      7  C   UNL     1     -19.247   5.510  -2.877  1.00  0.00     0.000 C 
BRANCH   7   8
ATOM      8  C   UNL     1     -17.786   5.929  -3.103  1.00  0.00     0.004 C 
BRANCH   8   9
ATOM      9  C   UNL     1     -17.650   7.095  -4.095  1.00  0.00     0.027 C 
BRANCH   9  10
ATOM     10  C   UNL     1     -16.753   8.171  -3.546  1.00  0.00    -0.035 C 
ATOM     11  C   UNL     1     -15.532   7.896  -3.076  1.00  0.00     0.004 C 
ENDBRANCH   9  10
ENDBRANCH   8   9
ENDBRANCH   7   8
ENDBRANCH   1   7
TORSDOF 7
ENDMDL
MODEL 5
REMARK VINA RESULT:     3.410     18.234     19.716
REMARK INTER + INTRA:           4.350
REMARK INTER:                   3.370
REMARK INTRA:                   0.980
REMARK UNBOUND:                -0.456
REMARK SMILES C=CCCCCCCC(=O)[O-]
REMARK SMILES IDX 6 1 7 2 8 3 9 4 10 5 11 6 5 7 4 8 3 9 2 10 1 11
REMARK H PARENT
REMARK Flexibility Score: inf
ROOT
ATOM      1  C   UNL     1      -8.265   4.900 -20.365  1.00  0.00     0.000 C 
ENDROOT
BRANCH   1   2
ATOM      2  C   UNL     1      -9.269   3.989 -21.097  1.00  0.00     0.006 C 
BRANCH   2   3
ATOM      3  C   UNL     1      -9.345   4.218 -22.616  1.00  0.00     0.053 C 
BRANCH   3   4
ATOM      4  C   UNL     1      -9.574   5.659 -22.957  1.00  0.00     0.041 C 
ATOM      5  O   UNL     1      -8.596   6.434 -23.123  1.00  0.00    -0.550 OA
ATOM      6  O   UNL     1     -10.869   6.152 -23.057  1.00  0.00    -0.550 OA
ENDBRANCH   3   4
ENDBRANCH   2   3
ENDBRANCH   1   2
BRANCH   1   7
ATOM      7  C   UNL     1      -6.801   4.541 -20.676  1.00  0.00     0.000 C 
BRANCH   7   8
ATOM      8  C   UNL     1      -6.632   3.071 -21.089  1.00  0.00     0.004 C 
BRANCH   8   9
ATOM      9  C   UNL     1      -6.439   2.899 -22.604  1.00  0.00     0.027 C 
BRANCH   9  10
ATOM     10  C   UNL     1      -5.384   3.837 -23.125  1.00  0.00    -0.035 C 
ATOM     11  C   UNL     1      -5.525   5.164 -23.054  1.00  0.00     0.004 C 
ENDBRANCH   9  10
ENDBRANCH   8   9
ENDBRANCH   7   8
ENDBRANCH   1   7
TORSDOF 7
ENDMDL
