MODEL 1
REMARK VINA RESULT:    -5.471      0.000      0.000
REMARK INTER + INTRA:          -7.986
REMARK INTER:                  -7.390
REMARK INTRA:                  -0.597
REMARK UNBOUND:                -0.597
REMARK SMILES CC(=O)CCC=C(C)CCC=C(C)C
REMARK SMILES IDX 7 1 6 2 8 3 9 4 10 5 11 6 13 7 12 8 14 9 5 10 4 11 2 12 3 13
REMARK SMILES IDX 1 14
REMARK H PARENT
REMARK Flexibility Score: inf
ROOT
ATOM      1  C   UNL     1      14.438 -32.167  21.692  1.00  0.00    -0.077 C 
ATOM      2  C   UNL     1      14.839 -31.360  22.701  1.00  0.00    -0.028 C 
ATOM      3  C   UNL     1      13.422 -31.722  20.667  1.00  0.00     0.039 C 
ENDROOT
BRANCH   1   4
ATOM      4  C   UNL     1      15.022 -33.559  21.590  1.00  0.00     0.034 C 
BRANCH   4   5
ATOM      5  C   UNL     1      14.969 -34.067  20.144  1.00  0.00     0.032 C 
BRANCH   5   6
ATOM      6  C   UNL     1      15.678 -35.391  20.017  1.00  0.00    -0.028 C 
ATOM      7  C   UNL     1      17.504 -36.934  19.443  1.00  0.00     0.039 C 
ATOM      8  C   UNL     1      16.939 -35.541  19.553  1.00  0.00    -0.080 C 
ATOM      9  C   UNL     1      17.794 -34.358  19.162  1.00  0.00     0.039 C 
ENDBRANCH   5   6
ENDBRANCH   4   5
ENDBRANCH   1   4
BRANCH   2  10
ATOM     10  C   UNL     1      14.301 -29.973  22.966  1.00  0.00     0.035 C 
BRANCH  10  11
ATOM     11  C   UNL     1      13.166 -30.012  23.996  1.00  0.00     0.079 C 
BRANCH  11  12
ATOM     12  C   UNL     1      12.050 -29.070  23.624  1.00  0.00     0.130 C 
ATOM     13  O   UNL     1      11.868 -28.061  24.289  1.00  0.00    -0.300 OA
ATOM     14  C   UNL     1      11.160 -29.344  22.449  1.00  0.00     0.087 C 
ENDBRANCH  11  12
ENDBRANCH  10  11
ENDBRANCH   2  10
TORSDOF 6
ENDMDL
MODEL 2
REMARK VINA RESULT:    -5.321      3.302      6.822
REMARK INTER + INTRA:          -7.784
REMARK INTER:                  -7.210
REMARK INTRA:                  -0.574
REMARK UNBOUND:                -0.597
REMARK SMILES CC(=O)CCC=C(C)CCC=C(C)C
REMARK SMILES IDX 7 1 6 2 8 3 9 4 10 5 11 6 13 7 12 8 14 9 5 10 4 11 2 12 3 13
REMARK SMILES IDX 1 14
REMARK H PARENT
REMARK Flexibility Score: inf
ROOT
ATOM      1  C   UNL     1      15.278 -33.077  23.584  1.00  0.00    -0.077 C 
ATOM      2  C   UNL     1      15.181 -33.629  22.353  1.00  0.00    -0.028 C 
ATOM      3  C   UNL     1      16.520 -33.225  24.431  1.00  0.00     0.039 C 
ENDROOT
BRANCH   1   4
ATOM      4  C   UNL     1      14.108 -32.290  24.130  1.00  0.00     0.034 C 
BRANCH   4   5
ATOM      5  C   UNL     1      14.130 -30.848  23.610  1.00  0.00     0.032 C 
BRANCH   5   6
ATOM      6  C   UNL     1      12.755 -30.418  23.166  1.00  0.00    -0.028 C 
ATOM      7  C   UNL     1      10.875 -30.099  21.615  1.00  0.00     0.039 C 
ATOM      8  C   UNL     1      12.254 -30.621  21.927  1.00  0.00    -0.080 C 
ATOM      9  C   UNL     1      13.027 -31.365  20.862  1.00  0.00     0.039 C 
ENDBRANCH   5   6
ENDBRANCH   4   5
ENDBRANCH   1   4
BRANCH   2  10
ATOM     10  C   UNL     1      16.240 -34.489  21.703  1.00  0.00     0.035 C 
BRANCH  10  11
ATOM     11  C   UNL     1      15.750 -35.043  20.361  1.00  0.00     0.079 C 
BRANCH  11  12
ATOM     12  C   UNL     1      16.901 -35.351  19.438  1.00  0.00     0.130 C 
ATOM     13  O   UNL     1      17.063 -36.495  19.040  1.00  0.00    -0.300 OA
ATOM     14  C   UNL     1      17.850 -34.279  18.993  1.00  0.00     0.087 C 
ENDBRANCH  11  12
ENDBRANCH  10  11
ENDBRANCH   2  10
TORSDOF 6
ENDMDL
MODEL 3
REMARK VINA RESULT:    -5.249      2.819      4.892
REMARK INTER + INTRA:          -7.686
REMARK INTER:                  -6.410
REMARK INTRA:                  -1.276
REMARK UNBOUND:                -0.597
REMARK SMILES CC(=O)CCC=C(C)CCC=C(C)C
REMARK SMILES IDX 7 1 6 2 8 3 9 4 10 5 11 6 13 7 12 8 14 9 5 10 4 11 2 12 3 13
REMARK SMILES IDX 1 14
REMARK H PARENT
REMARK Flexibility Score: inf
ROOT
ATOM      1  C   UNL     1      17.787 -33.894  20.235  1.00  0.00    -0.077 C 
ATOM      2  C   UNL     1      17.925 -32.553  20.116  1.00  0.00    -0.028 C 
ATOM      3  C   UNL     1      18.576 -34.692  21.246  1.00  0.00     0.039 C 
ENDROOT
BRANCH   1   4
ATOM      4  C   UNL     1      16.816 -34.615  19.328  1.00  0.00     0.034 C 
BRANCH   4   5
ATOM      5  C   UNL     1      15.483 -34.864  20.043  1.00  0.00     0.032 C 
BRANCH   5   6
ATOM      6  C   UNL     1      14.588 -33.655  19.941  1.00  0.00    -0.028 C 
ATOM      7  C   UNL     1      13.320 -31.705  20.736  1.00  0.00     0.039 C 
ATOM      8  C   UNL     1      14.260 -32.857  20.981  1.00  0.00    -0.080 C 
ATOM      9  C   UNL     1      14.821 -33.079  22.368  1.00  0.00     0.039 C 
ENDBRANCH   5   6
ENDBRANCH   4   5
ENDBRANCH   1   4
BRANCH   2  10
ATOM     10  C   UNL     1      18.896 -31.709  20.909  1.00  0.00     0.035 C 
BRANCH  10  11
ATOM     11  C   UNL     1      18.193 -31.023  22.086  1.00  0.00     0.079 C 
BRANCH  11  12
ATOM     12  C   UNL     1      17.508 -29.752  21.655  1.00  0.00     0.130 C 
ATOM     13  O   UNL     1      18.153 -28.885  21.084  1.00  0.00    -0.300 OA
ATOM     14  C   UNL     1      16.047 -29.531  21.909  1.00  0.00     0.087 C 
ENDBRANCH  11  12
ENDBRANCH  10  11
ENDBRANCH   2  10
TORSDOF 6
ENDMDL
MODEL 4
REMARK VINA RESULT:    -5.171      3.271      6.475
REMARK INTER + INTRA:          -7.582
REMARK INTER:                  -6.442
REMARK INTRA:                  -1.140
REMARK UNBOUND:                -0.597
REMARK SMILES CC(=O)CCC=C(C)CCC=C(C)C
REMARK SMILES IDX 7 1 6 2 8 3 9 4 10 5 11 6 13 7 12 8 14 9 5 10 4 11 2 12 3 13
REMARK SMILES IDX 1 14
REMARK H PARENT
REMARK Flexibility Score: inf
ROOT
ATOM      1  C   UNL     1      17.765 -31.980  21.823  1.00  0.00    -0.077 C 
ATOM      2  C   UNL     1      17.971 -32.208  20.505  1.00  0.00    -0.028 C 
ATOM      3  C   UNL     1      17.782 -33.096  22.840  1.00  0.00     0.039 C 
ENDROOT
BRANCH   1   4
ATOM      4  C   UNL     1      17.509 -30.565  22.292  1.00  0.00     0.034 C 
BRANCH   4   5
ATOM      5  C   UNL     1      16.601 -30.555  23.527  1.00  0.00     0.032 C 
BRANCH   5   6
ATOM      6  C   UNL     1      15.184 -30.207  23.147  1.00  0.00    -0.028 C 
ATOM      7  C   UNL     1      12.770 -30.560  22.848  1.00  0.00     0.039 C 
ATOM      8  C   UNL     1      14.125 -31.030  23.313  1.00  0.00    -0.080 C 
ATOM      9  C   UNL     1      14.259 -32.388  23.962  1.00  0.00     0.039 C 
ENDBRANCH   5   6
ENDBRANCH   4   5
ENDBRANCH   1   4
BRANCH   2  10
ATOM     10  C   UNL     1      18.179 -33.571  19.885  1.00  0.00     0.035 C 
BRANCH  10  11
ATOM     11  C   UNL     1      16.976 -33.970  19.023  1.00  0.00     0.079 C 
BRANCH  11  12
ATOM     12  C   UNL     1      16.004 -34.826  19.793  1.00  0.00     0.130 C 
ATOM     13  O   UNL     1      16.078 -36.043  19.713  1.00  0.00    -0.300 OA
ATOM     14  C   UNL     1      14.948 -34.212  20.663  1.00  0.00     0.087 C 
ENDBRANCH  11  12
ENDBRANCH  10  11
ENDBRANCH   2  10
TORSDOF 6
ENDMDL
MODEL 5
REMARK VINA RESULT:    -5.153      1.985      2.570
REMARK INTER + INTRA:          -7.558
REMARK INTER:                  -6.473
REMARK INTRA:                  -1.085
REMARK UNBOUND:                -0.597
REMARK SMILES CC(=O)CCC=C(C)CCC=C(C)C
REMARK SMILES IDX 7 1 6 2 8 3 9 4 10 5 11 6 13 7 12 8 14 9 5 10 4 11 2 12 3 13
REMARK SMILES IDX 1 14
REMARK H PARENT
REMARK Flexibility Score: inf
ROOT
ATOM      1  C   UNL     1      17.107 -32.113  22.339  1.00  0.00    -0.077 C 
ATOM      2  C   UNL     1      16.202 -31.696  23.254  1.00  0.00    -0.028 C 
ATOM      3  C   UNL     1      17.288 -31.411  21.014  1.00  0.00     0.039 C 
ENDROOT
BRANCH   1   4
ATOM      4  C   UNL     1      17.964 -33.320  22.653  1.00  0.00     0.034 C 
BRANCH   4   5
ATOM      5  C   UNL     1      17.108 -34.589  22.733  1.00  0.00     0.032 C 
BRANCH   5   6
ATOM      6  C   UNL     1      17.352 -35.475  21.538  1.00  0.00    -0.028 C 
ATOM      7  C   UNL     1      16.875 -36.530  19.370  1.00  0.00     0.039 C 
ATOM      8  C   UNL     1      16.521 -35.570  20.476  1.00  0.00    -0.080 C 
ATOM      9  C   UNL     1      15.268 -34.732  20.362  1.00  0.00     0.039 C 
ENDBRANCH   5   6
ENDBRANCH   4   5
ENDBRANCH   1   4
BRANCH   2  10
ATOM     10  C   UNL     1      15.239 -30.548  23.056  1.00  0.00     0.035 C 
BRANCH  10  11
ATOM     11  C   UNL     1      13.803 -30.972  23.386  1.00  0.00     0.079 C 
BRANCH  11  12
ATOM     12  C   UNL     1      12.924 -30.945  22.163  1.00  0.00     0.130 C 
ATOM     13  O   UNL     1      11.817 -30.432  22.229  1.00  0.00    -0.300 OA
ATOM     14  C   UNL     1      13.384 -31.531  20.862  1.00  0.00     0.087 C 
ENDBRANCH  11  12
ENDBRANCH  10  11
ENDBRANCH   2  10
TORSDOF 6
ENDMDL
MODEL 6
REMARK VINA RESULT:    -5.149      2.970      6.958
REMARK INTER + INTRA:          -7.552
REMARK INTER:                  -6.636
REMARK INTRA:                  -0.917
REMARK UNBOUND:                -0.597
REMARK SMILES CC(=O)CCC=C(C)CCC=C(C)C
REMARK SMILES IDX 7 1 6 2 8 3 9 4 10 5 11 6 13 7 12 8 14 9 5 10 4 11 2 12 3 13
REMARK SMILES IDX 1 14
REMARK H PARENT
REMARK Flexibility Score: inf
ROOT
ATOM      1  C   UNL     1      15.821 -32.553  22.033  1.00  0.00    -0.077 C 
ATOM      2  C   UNL     1      14.996 -33.438  21.428  1.00  0.00    -0.028 C 
ATOM      3  C   UNL     1      16.984 -31.918  21.308  1.00  0.00     0.039 C 
ENDROOT
BRANCH   1   4
ATOM      4  C   UNL     1      15.572 -32.189  23.480  1.00  0.00     0.034 C 
BRANCH   4   5
ATOM      5  C   UNL     1      14.086 -32.326  23.829  1.00  0.00     0.032 C 
BRANCH   5   6
ATOM      6  C   UNL     1      13.505 -30.993  24.227  1.00  0.00    -0.028 C 
ATOM      7  C   UNL     1      12.282 -28.881  23.936  1.00  0.00     0.039 C 
ATOM      8  C   UNL     1      12.763 -30.209  23.413  1.00  0.00    -0.080 C 
ATOM      9  C   UNL     1      12.392 -30.636  22.011  1.00  0.00     0.039 C 
ENDBRANCH   5   6
ENDBRANCH   4   5
ENDBRANCH   1   4
BRANCH   2  10
ATOM     10  C   UNL     1      15.156 -33.941  20.012  1.00  0.00     0.035 C 
BRANCH  10  11
ATOM     11  C   UNL     1      15.500 -35.435  19.995  1.00  0.00     0.079 C 
BRANCH  11  12
ATOM     12  C   UNL     1      16.972 -35.661  19.770  1.00  0.00     0.130 C 
ATOM     13  O   UNL     1      17.635 -34.798  19.216  1.00  0.00    -0.300 OA
ATOM     14  C   UNL     1      17.642 -36.925  20.218  1.00  0.00     0.087 C 
ENDBRANCH  11  12
ENDBRANCH  10  11
ENDBRANCH   2  10
TORSDOF 6
ENDMDL
MODEL 7
REMARK VINA RESULT:    -5.129      2.698      4.526
REMARK INTER + INTRA:          -7.525
REMARK INTER:                  -6.081
REMARK INTRA:                  -1.444
REMARK UNBOUND:                -0.597
REMARK SMILES CC(=O)CCC=C(C)CCC=C(C)C
REMARK SMILES IDX 7 1 6 2 8 3 9 4 10 5 11 6 13 7 12 8 14 9 5 10 4 11 2 12 3 13
REMARK SMILES IDX 1 14
REMARK H PARENT
REMARK Flexibility Score: inf
ROOT
ATOM      1  C   UNL     1      16.601 -35.113  19.529  1.00  0.00    -0.077 C 
ATOM      2  C   UNL     1      15.400 -34.925  20.123  1.00  0.00    -0.028 C 
ATOM      3  C   UNL     1      17.322 -33.997  18.812  1.00  0.00     0.039 C 
ENDROOT
BRANCH   1   4
ATOM      4  C   UNL     1      17.241 -36.483  19.585  1.00  0.00     0.034 C 
BRANCH   4   5
ATOM      5  C   UNL     1      17.638 -36.841  21.022  1.00  0.00     0.032 C 
BRANCH   5   6
ATOM      6  C   UNL     1      18.704 -35.905  21.531  1.00  0.00    -0.028 C 
ATOM      7  C   UNL     1      19.679 -34.130  22.925  1.00  0.00     0.039 C 
ATOM      8  C   UNL     1      18.533 -35.034  22.551  1.00  0.00    -0.080 C 
ATOM      9  C   UNL     1      17.239 -34.956  23.328  1.00  0.00     0.039 C 
ENDBRANCH   5   6
ENDBRANCH   4   5
ENDBRANCH   1   4
BRANCH   2  10
ATOM     10  C   UNL     1      14.614 -33.635  20.097  1.00  0.00     0.035 C 
BRANCH  10  11
ATOM     11  C   UNL     1      14.649 -32.943  21.465  1.00  0.00     0.079 C 
BRANCH  11  12
ATOM     12  C   UNL     1      15.438 -31.661  21.415  1.00  0.00     0.130 C 
ATOM     13  O   UNL     1      14.851 -30.598  21.280  1.00  0.00    -0.300 OA
ATOM     14  C   UNL     1      16.933 -31.662  21.535  1.00  0.00     0.087 C 
ENDBRANCH  11  12
ENDBRANCH  10  11
ENDBRANCH   2  10
TORSDOF 6
ENDMDL
MODEL 8
REMARK VINA RESULT:    -5.112      2.947      6.425
REMARK INTER + INTRA:          -7.502
REMARK INTER:                  -6.462
REMARK INTRA:                  -1.040
REMARK UNBOUND:                -0.597
REMARK SMILES CC(=O)CCC=C(C)CCC=C(C)C
REMARK SMILES IDX 7 1 6 2 8 3 9 4 10 5 11 6 13 7 12 8 14 9 5 10 4 11 2 12 3 13
REMARK SMILES IDX 1 14
REMARK H PARENT
REMARK Flexibility Score: inf
ROOT
ATOM      1  C   UNL     1      16.967 -33.666  23.013  1.00  0.00    -0.077 C 
ATOM      2  C   UNL     1      17.172 -32.994  21.856  1.00  0.00    -0.028 C 
ATOM      3  C   UNL     1      17.548 -35.039  23.255  1.00  0.00     0.039 C 
ENDROOT
BRANCH   1   4
ATOM      4  C   UNL     1      16.129 -33.023  24.096  1.00  0.00     0.034 C 
BRANCH   4   5
ATOM      5  C   UNL     1      14.636 -33.252  23.838  1.00  0.00     0.032 C 
BRANCH   5   6
ATOM      6  C   UNL     1      13.875 -31.952  23.909  1.00  0.00    -0.028 C 
ATOM      7  C   UNL     1      12.749 -29.940  23.057  1.00  0.00     0.039 C 
ATOM      8  C   UNL     1      13.466 -31.246  22.832  1.00  0.00    -0.080 C 
ATOM      9  C   UNL     1      13.693 -31.737  21.420  1.00  0.00     0.039 C 
ENDBRANCH   5   6
ENDBRANCH   4   5
ENDBRANCH   1   4
BRANCH   2  10
ATOM     10  C   UNL     1      17.933 -33.532  20.667  1.00  0.00     0.035 C 
BRANCH  10  11
ATOM     11  C   UNL     1      16.983 -33.860  19.510  1.00  0.00     0.079 C 
BRANCH  11  12
ATOM     12  C   UNL     1      16.205 -35.123  19.775  1.00  0.00     0.130 C 
ATOM     13  O   UNL     1      15.019 -35.051  20.058  1.00  0.00    -0.300 OA
ATOM     14  C   UNL     1      16.858 -36.470  19.693  1.00  0.00     0.087 C 
ENDBRANCH  11  12
ENDBRANCH  10  11
ENDBRANCH   2  10
TORSDOF 6
ENDMDL
MODEL 9
REMARK VINA RESULT:    -5.064      3.421      6.107
REMARK INTER + INTRA:          -7.437
REMARK INTER:                  -6.266
REMARK INTRA:                  -1.170
REMARK UNBOUND:                -0.597
REMARK SMILES CC(=O)CCC=C(C)CCC=C(C)C
REMARK SMILES IDX 7 1 6 2 8 3 9 4 10 5 11 6 13 7 12 8 14 9 5 10 4 11 2 12 3 13
REMARK SMILES IDX 1 14
REMARK H PARENT
REMARK Flexibility Score: inf
ROOT
ATOM      1  C   UNL     1      14.392 -32.468  21.859  1.00  0.00    -0.077 C 
ATOM      2  C   UNL     1      15.001 -33.655  21.633  1.00  0.00    -0.028 C 
ATOM      3  C   UNL     1      13.553 -31.786  20.805  1.00  0.00     0.039 C 
ENDROOT
BRANCH   1   4
ATOM      4  C   UNL     1      14.559 -31.803  23.207  1.00  0.00     0.034 C 
BRANCH   4   5
ATOM      5  C   UNL     1      16.043 -31.618  23.545  1.00  0.00     0.032 C 
BRANCH   5   6
ATOM      6  C   UNL     1      16.653 -30.534  22.694  1.00  0.00    -0.028 C 
ATOM      7  C   UNL     1      18.238 -29.524  21.109  1.00  0.00     0.039 C 
ATOM      8  C   UNL     1      17.709 -30.713  21.869  1.00  0.00    -0.080 C 
ATOM      9  C   UNL     1      18.355 -32.066  21.678  1.00  0.00     0.039 C 
ENDBRANCH   5   6
ENDBRANCH   4   5
ENDBRANCH   1   4
BRANCH   2  10
ATOM     10  C   UNL     1      14.975 -34.405  20.321  1.00  0.00     0.035 C 
BRANCH  10  11
ATOM     11  C   UNL     1      16.192 -34.046  19.459  1.00  0.00     0.079 C 
BRANCH  11  12
ATOM     12  C   UNL     1      17.232 -35.135  19.492  1.00  0.00     0.130 C 
ATOM     13  O   UNL     1      18.382 -34.879  19.170  1.00  0.00    -0.300 OA
ATOM     14  C   UNL     1      16.884 -36.531  19.917  1.00  0.00     0.087 C 
ENDBRANCH  11  12
ENDBRANCH  10  11
ENDBRANCH   2  10
TORSDOF 6
ENDMDL
