MODEL 1
REMARK VINA RESULT:    -4.726      0.000      0.000
REMARK INTER + INTRA:          -7.144
REMARK INTER:                  -7.212
REMARK INTRA:                   0.068
REMARK UNBOUND:                 0.068
REMARK SMILES CC1=CCC[C@H](C)C(=O)C[C@@H](C(C)C)C(=O)C1
REMARK SMILES IDX 8 1 9 2 6 3 7 4 5 5 4 6 3 7 2 8 1 9 10 11 11 12 15 13 16 14
REMARK SMILES IDX 17 15 12 17 13 18 14 19
REMARK H PARENT
REMARK Flexibility Score: 70.00
ROOT
ATOM      1  C   UNL     1      -2.673 -13.180  31.479  1.00  0.00     0.136 C 
ATOM      2  O   UNL     1      -2.604 -13.916  32.454  1.00  0.00    -0.299 OA
ENDROOT
BRANCH   1   3
ATOM      3  C   UNL     1      -1.411 -12.588  30.876  1.00  0.00     0.053 C 
ATOM      4  C   UNL     1      -0.608 -11.757  31.893  1.00  0.00     0.016 C 
BRANCH   3   5
ATOM      5  C   UNL     1      -0.536 -13.675  30.217  1.00  0.00     0.015 C 
BRANCH   5   6
ATOM      6  C   UNL     1      -0.999 -14.071  28.803  1.00  0.00     0.028 C 
BRANCH   6   7
ATOM      7  C   UNL     1      -1.458 -12.859  28.033  1.00  0.00    -0.028 C 
ATOM      8  C   UNL     1      -2.686 -12.717  27.481  1.00  0.00    -0.070 CG0
ATOM      9  C   UNL     1      -3.008 -11.411  26.800  1.00  0.00     0.039 C 
ATOM     10  G   UNL     1      -3.737 -13.816  27.501  1.00  0.00     0.000 G0
ENDBRANCH   6   7
ENDBRANCH   5   6
ENDBRANCH   3   5
ENDBRANCH   1   3
BRANCH   1  11
ATOM     11  C   UNL     1      -4.030 -12.878  30.888  1.00  0.00     0.087 C 
BRANCH  11  12
ATOM     12  C   UNL     1      -4.557 -14.040  30.007  1.00  0.00     0.066 C 
BRANCH  12  13
ATOM     13  C   UNL     1      -4.793 -13.588  28.573  1.00  0.00     0.140 C 
ATOM     14  O   UNL     1      -5.863 -13.087  28.260  1.00  0.00    -0.299 OA
BRANCH  13  15
ATOM     15  C   UNL     1      -3.746 -13.812  27.508  1.00  0.00     0.106 CG0
ATOM     16  G   UNL     1      -2.701 -12.707  27.478  1.00  0.00     0.000 G0
ENDBRANCH  13  15
ENDBRANCH  12  13
BRANCH  12  17
ATOM     17  C   UNL     1      -5.810 -14.725  30.634  1.00  0.00    -0.006 C 
ATOM     18  C   UNL     1      -6.473 -15.779  29.728  1.00  0.00     0.008 C 
ATOM     19  C   UNL     1      -5.490 -15.335  32.007  1.00  0.00     0.008 C 
ENDBRANCH  12  17
ENDBRANCH  11  12
ENDBRANCH   1  11
TORSDOF 1
ENDMDL
MODEL 2
REMARK VINA RESULT:    -4.701      1.481      4.045
REMARK INTER + INTRA:          -7.106
REMARK INTER:                  -7.161
REMARK INTRA:                   0.055
REMARK UNBOUND:                 0.068
REMARK SMILES CC1=CCC[C@H](C)C(=O)C[C@@H](C(C)C)C(=O)C1
REMARK SMILES IDX 8 1 9 2 6 3 7 4 5 5 4 6 3 7 2 8 1 9 10 11 11 12 15 13 16 14
REMARK SMILES IDX 17 15 12 17 13 18 14 19
REMARK H PARENT
REMARK Flexibility Score: 70.00
ROOT
ATOM      1  C   UNL     1      -3.837 -13.598  31.543  1.00  0.00     0.136 C 
ATOM      2  O   UNL     1      -4.210 -12.506  31.948  1.00  0.00    -0.299 OA
ENDROOT
BRANCH   1   3
ATOM      3  C   UNL     1      -4.838 -14.722  31.337  1.00  0.00     0.053 C 
ATOM      4  C   UNL     1      -5.565 -15.105  32.638  1.00  0.00     0.016 C 
BRANCH   3   5
ATOM      5  C   UNL     1      -5.836 -14.390  30.208  1.00  0.00     0.015 C 
BRANCH   5   6
ATOM      6  C   UNL     1      -5.322 -14.748  28.801  1.00  0.00     0.028 C 
BRANCH   6   7
ATOM      7  C   UNL     1      -4.869 -13.511  28.068  1.00  0.00    -0.028 C 
ATOM      8  C   UNL     1      -3.601 -13.287  27.648  1.00  0.00    -0.070 CG0
ATOM      9  C   UNL     1      -3.328 -12.026  26.868  1.00  0.00     0.039 C 
ATOM     10  G   UNL     1      -2.449 -14.235  27.944  1.00  0.00     0.000 G0
ENDBRANCH   6   7
ENDBRANCH   5   6
ENDBRANCH   3   5
ENDBRANCH   1   3
BRANCH   1  11
ATOM     11  C   UNL     1      -2.370 -13.803  31.246  1.00  0.00     0.087 C 
BRANCH  11  12
ATOM     12  C   UNL     1      -1.864 -12.867  30.118  1.00  0.00     0.066 C 
BRANCH  12  13
ATOM     13  C   UNL     1      -1.424 -13.658  28.894  1.00  0.00     0.140 C 
ATOM     14  O   UNL     1      -0.234 -13.774  28.639  1.00  0.00    -0.299 OA
BRANCH  13  15
ATOM     15  C   UNL     1      -2.441 -14.248  27.947  1.00  0.00     0.106 CG0
ATOM     16  G   UNL     1      -3.589 -13.293  27.658  1.00  0.00     0.000 G0
ENDBRANCH  13  15
ENDBRANCH  12  13
BRANCH  12  17
ATOM     17  C   UNL     1      -0.762 -11.885  30.625  1.00  0.00    -0.006 C 
ATOM     18  C   UNL     1      -1.292 -10.499  31.035  1.00  0.00     0.008 C 
ATOM     19  C   UNL     1       0.054 -12.499  31.772  1.00  0.00     0.008 C 
ENDBRANCH  12  17
ENDBRANCH  11  12
ENDBRANCH   1  11
TORSDOF 1
ENDMDL
MODEL 3
REMARK VINA RESULT:    -4.475      2.063      3.079
REMARK INTER + INTRA:          -6.761
REMARK INTER:                  -7.282
REMARK INTRA:                   0.521
REMARK UNBOUND:                 0.068
REMARK SMILES CC1=CCC[C@H](C)C(=O)C[C@@H](C(C)C)C(=O)C1
REMARK SMILES IDX 8 1 9 2 6 3 7 4 5 5 4 6 3 7 2 8 1 9 10 11 11 12 15 13 16 14
REMARK SMILES IDX 17 15 12 17 13 18 14 19
REMARK H PARENT
REMARK Flexibility Score: 70.00
ROOT
ATOM      1  C   UNL     1      -3.347 -10.561  29.402  1.00  0.00     0.136 C 
ATOM      2  O   UNL     1      -2.621  -9.961  28.622  1.00  0.00    -0.299 OA
ENDROOT
BRANCH   1   3
ATOM      3  C   UNL     1      -3.122 -10.447  30.900  1.00  0.00     0.053 C 
ATOM      4  C   UNL     1      -4.288 -11.032  31.715  1.00  0.00     0.016 C 
BRANCH   3   5
ATOM      5  C   UNL     1      -1.773 -11.070  31.317  1.00  0.00     0.015 C 
BRANCH   5   6
ATOM      6  C   UNL     1      -1.724 -12.602  31.168  1.00  0.00     0.028 C 
BRANCH   6   7
ATOM      7  C   UNL     1      -0.551 -13.017  30.316  1.00  0.00    -0.028 C 
ATOM      8  C   UNL     1      -0.646 -13.751  29.181  1.00  0.00    -0.070 CG0
ATOM      9  C   UNL     1       0.620 -14.022  28.409  1.00  0.00     0.039 C 
ATOM     10  G   UNL     1      -1.959 -14.323  28.671  1.00  0.00     0.000 G0
ENDBRANCH   6   7
ENDBRANCH   5   6
ENDBRANCH   3   5
ENDBRANCH   1   3
BRANCH   1  11
ATOM     11  C   UNL     1      -4.469 -11.408  28.850  1.00  0.00     0.087 C 
BRANCH  11  12
ATOM     12  C   UNL     1      -4.162 -12.925  28.948  1.00  0.00     0.066 C 
BRANCH  12  13
ATOM     13  C   UNL     1      -2.919 -13.294  28.149  1.00  0.00     0.140 C 
ATOM     14  O   UNL     1      -2.722 -12.779  27.058  1.00  0.00    -0.299 OA
BRANCH  13  15
ATOM     15  C   UNL     1      -1.957 -14.343  28.653  1.00  0.00     0.106 CG0
ATOM     16  G   UNL     1      -0.660 -13.741  29.170  1.00  0.00     0.000 G0
ENDBRANCH  13  15
ENDBRANCH  12  13
BRANCH  12  17
ATOM     17  C   UNL     1      -5.399 -13.797  28.569  1.00  0.00    -0.006 C 
ATOM     18  C   UNL     1      -5.239 -14.583  27.256  1.00  0.00     0.008 C 
ATOM     19  C   UNL     1      -5.787 -14.748  29.711  1.00  0.00     0.008 C 
ENDBRANCH  12  17
ENDBRANCH  11  12
ENDBRANCH   1  11
TORSDOF 1
ENDMDL
MODEL 4
REMARK VINA RESULT:    -4.316      2.286      4.038
REMARK INTER + INTRA:          -6.518
REMARK INTER:                  -7.413
REMARK INTRA:                   0.895
REMARK UNBOUND:                 0.068
REMARK SMILES CC1=CCC[C@H](C)C(=O)C[C@@H](C(C)C)C(=O)C1
REMARK SMILES IDX 8 1 9 2 6 3 7 4 5 5 4 6 3 7 2 8 1 9 10 11 11 12 15 13 16 14
REMARK SMILES IDX 17 15 12 17 13 18 14 19
REMARK H PARENT
REMARK Flexibility Score: 70.00
ROOT
ATOM      1  C   UNL     1      -2.696 -12.804  28.290  1.00  0.00     0.136 C 
ATOM      2  O   UNL     1      -1.485 -12.721  28.443  1.00  0.00    -0.299 OA
ENDROOT
BRANCH   1   3
ATOM      3  C   UNL     1      -3.449 -11.723  27.533  1.00  0.00     0.053 C 
ATOM      4  C   UNL     1      -3.516 -12.005  26.022  1.00  0.00     0.016 C 
BRANCH   3   5
ATOM      5  C   UNL     1      -4.853 -11.491  28.128  1.00  0.00     0.015 C 
BRANCH   5   6
ATOM      6  C   UNL     1      -4.921 -10.312  29.117  1.00  0.00     0.028 C 
BRANCH   6   7
ATOM      7  C   UNL     1      -3.545  -9.960  29.621  1.00  0.00    -0.028 C 
ATOM      8  C   UNL     1      -2.955 -10.521  30.703  1.00  0.00    -0.070 CG0
ATOM      9  C   UNL     1      -1.544 -10.105  31.034  1.00  0.00     0.039 C 
ATOM     10  G   UNL     1      -3.656 -11.529  31.600  1.00  0.00     0.000 G0
ENDBRANCH   6   7
ENDBRANCH   5   6
ENDBRANCH   3   5
ENDBRANCH   1   3
BRANCH   1  11
ATOM     11  C   UNL     1      -3.422 -13.999  28.862  1.00  0.00     0.087 C 
BRANCH  11  12
ATOM     12  C   UNL     1      -4.263 -13.631  30.112  1.00  0.00     0.066 C 
BRANCH  12  13
ATOM     13  C   UNL     1      -3.407 -12.971  31.184  1.00  0.00     0.140 C 
ATOM     14  O   UNL     1      -2.541 -13.617  31.755  1.00  0.00    -0.299 OA
BRANCH  13  15
ATOM     15  C   UNL     1      -3.657 -11.542  31.603  1.00  0.00     0.106 CG0
ATOM     16  G   UNL     1      -2.949 -10.540  30.705  1.00  0.00     0.000 G0
ENDBRANCH  13  15
ENDBRANCH  12  13
BRANCH  12  17
ATOM     17  C   UNL     1      -5.066 -14.853  30.655  1.00  0.00    -0.006 C 
ATOM     18  C   UNL     1      -5.417 -14.764  32.151  1.00  0.00     0.008 C 
ATOM     19  C   UNL     1      -6.337 -15.103  29.828  1.00  0.00     0.008 C 
ENDBRANCH  12  17
ENDBRANCH  11  12
ENDBRANCH   1  11
TORSDOF 1
ENDMDL
MODEL 5
REMARK VINA RESULT:    -4.314      1.951      3.927
REMARK INTER + INTRA:          -6.515
REMARK INTER:                  -7.225
REMARK INTRA:                   0.709
REMARK UNBOUND:                 0.068
REMARK SMILES CC1=CCC[C@H](C)C(=O)C[C@@H](C(C)C)C(=O)C1
REMARK SMILES IDX 8 1 9 2 6 3 7 4 5 5 4 6 3 7 2 8 1 9 10 11 11 12 15 13 16 14
REMARK SMILES IDX 17 15 12 17 13 18 14 19
REMARK H PARENT
REMARK Flexibility Score: 70.00
ROOT
ATOM      1  C   UNL     1      -0.592 -13.333  29.142  1.00  0.00     0.136 C 
ATOM      2  O   UNL     1       0.538 -13.273  28.677  1.00  0.00    -0.299 OA
ENDROOT
BRANCH   1   3
ATOM      3  C   UNL     1      -0.899 -12.704  30.490  1.00  0.00     0.053 C 
ATOM      4  C   UNL     1       0.267 -12.847  31.484  1.00  0.00     0.016 C 
BRANCH   3   5
ATOM      5  C   UNL     1      -1.337 -11.232  30.340  1.00  0.00     0.015 C 
BRANCH   5   6
ATOM      6  C   UNL     1      -2.742 -10.942  30.901  1.00  0.00     0.028 C 
BRANCH   6   7
ATOM      7  C   UNL     1      -3.257 -12.123  31.684  1.00  0.00    -0.028 C 
ATOM      8  C   UNL     1      -4.161 -13.019  31.221  1.00  0.00    -0.070 CG0
ATOM      9  C   UNL     1      -4.520 -14.183  32.108  1.00  0.00     0.039 C 
ATOM     10  G   UNL     1      -4.837 -12.889  29.865  1.00  0.00     0.000 G0
ENDBRANCH   6   7
ENDBRANCH   5   6
ENDBRANCH   3   5
ENDBRANCH   1   3
BRANCH   1  11
ATOM     11  C   UNL     1      -1.669 -14.035  28.351  1.00  0.00     0.087 C 
BRANCH  11  12
ATOM     12  C   UNL     1      -2.901 -13.127  28.103  1.00  0.00     0.066 C 
BRANCH  12  13
ATOM     13  C   UNL     1      -4.146 -13.680  28.782  1.00  0.00     0.140 C 
ATOM     14  O   UNL     1      -4.618 -14.746  28.415  1.00  0.00    -0.299 OA
BRANCH  13  15
ATOM     15  C   UNL     1      -4.853 -12.895  29.862  1.00  0.00     0.106 CG0
ATOM     16  G   UNL     1      -4.163 -13.013  31.212  1.00  0.00     0.000 G0
ENDBRANCH  13  15
ENDBRANCH  12  13
BRANCH  12  17
ATOM     17  C   UNL     1      -3.122 -12.844  26.585  1.00  0.00    -0.006 C 
ATOM     18  C   UNL     1      -4.283 -13.635  25.957  1.00  0.00     0.008 C 
ATOM     19  C   UNL     1      -3.297 -11.342  26.312  1.00  0.00     0.008 C 
ENDBRANCH  12  17
ENDBRANCH  11  12
ENDBRANCH   1  11
TORSDOF 1
ENDMDL
MODEL 6
REMARK VINA RESULT:    -4.245      2.288      3.486
REMARK INTER + INTRA:          -6.410
REMARK INTER:                  -6.583
REMARK INTRA:                   0.172
REMARK UNBOUND:                 0.068
REMARK SMILES CC1=CCC[C@H](C)C(=O)C[C@@H](C(C)C)C(=O)C1
REMARK SMILES IDX 8 1 9 2 6 3 7 4 5 5 4 6 3 7 2 8 1 9 10 11 11 12 15 13 16 14
REMARK SMILES IDX 17 15 12 17 13 18 14 19
REMARK H PARENT
REMARK Flexibility Score: 70.00
ROOT
ATOM      1  C   UNL     1      -1.730 -14.069  29.054  1.00  0.00     0.136 C 
ATOM      2  O   UNL     1      -1.691 -14.748  28.037  1.00  0.00    -0.299 OA
ENDROOT
BRANCH   1   3
ATOM      3  C   UNL     1      -0.472 -13.849  29.877  1.00  0.00     0.053 C 
ATOM      4  C   UNL     1       0.631 -13.131  29.081  1.00  0.00     0.016 C 
BRANCH   3   5
ATOM      5  C   UNL     1      -0.783 -13.118  31.200  1.00  0.00     0.015 C 
BRANCH   5   6
ATOM      6  C   UNL     1      -0.710 -11.583  31.092  1.00  0.00     0.028 C 
BRANCH   6   7
ATOM      7  C   UNL     1      -1.936 -10.948  31.698  1.00  0.00    -0.028 C 
ATOM      8  C   UNL     1      -2.964 -10.428  30.987  1.00  0.00    -0.070 CG0
ATOM      9  C   UNL     1      -4.148  -9.890  31.749  1.00  0.00     0.039 C 
ATOM     10  G   UNL     1      -2.965 -10.347  29.468  1.00  0.00     0.000 G0
ENDBRANCH   6   7
ENDBRANCH   5   6
ENDBRANCH   3   5
ENDBRANCH   1   3
BRANCH   1  11
ATOM     11  C   UNL     1      -3.045 -13.454  29.470  1.00  0.00     0.087 C 
BRANCH  11  12
ATOM     12  C   UNL     1      -3.687 -12.618  28.333  1.00  0.00     0.066 C 
BRANCH  12  13
ATOM     13  C   UNL     1      -4.018 -11.207  28.798  1.00  0.00     0.140 C 
ATOM     14  O   UNL     1      -5.130 -10.743  28.595  1.00  0.00    -0.299 OA
BRANCH  13  15
ATOM     15  C   UNL     1      -2.966 -10.340  29.449  1.00  0.00     0.106 CG0
ATOM     16  G   UNL     1      -2.988 -10.440  30.967  1.00  0.00     0.000 G0
ENDBRANCH  13  15
ENDBRANCH  12  13
BRANCH  12  17
ATOM     17  C   UNL     1      -4.913 -13.342  27.696  1.00  0.00    -0.006 C 
ATOM     18  C   UNL     1      -4.564 -14.232  26.490  1.00  0.00     0.008 C 
ATOM     19  C   UNL     1      -5.693 -14.152  28.743  1.00  0.00     0.008 C 
ENDBRANCH  12  17
ENDBRANCH  11  12
ENDBRANCH   1  11
TORSDOF 1
ENDMDL
MODEL 7
REMARK VINA RESULT:    -4.180      1.660      4.005
REMARK INTER + INTRA:          -6.310
REMARK INTER:                  -6.804
REMARK INTRA:                   0.494
REMARK UNBOUND:                 0.068
REMARK SMILES CC1=CCC[C@H](C)C(=O)C[C@@H](C(C)C)C(=O)C1
REMARK SMILES IDX 8 1 9 2 6 3 7 4 5 5 4 6 3 7 2 8 1 9 10 11 11 12 15 13 16 14
REMARK SMILES IDX 17 15 12 17 13 18 14 19
REMARK H PARENT
REMARK Flexibility Score: 70.00
ROOT
ATOM      1  C   UNL     1      -4.939 -14.249  30.314  1.00  0.00     0.136 C 
ATOM      2  O   UNL     1      -5.969 -14.781  30.703  1.00  0.00    -0.299 OA
ENDROOT
BRANCH   1   3
ATOM      3  C   UNL     1      -4.727 -13.980  28.834  1.00  0.00     0.053 C 
ATOM      4  C   UNL     1      -5.739 -14.731  27.951  1.00  0.00     0.016 C 
BRANCH   3   5
ATOM      5  C   UNL     1      -4.724 -12.467  28.530  1.00  0.00     0.015 C 
BRANCH   5   6
ATOM      6  C   UNL     1      -3.503 -12.000  27.715  1.00  0.00     0.028 C 
BRANCH   6   7
ATOM      7  C   UNL     1      -2.431 -13.061  27.706  1.00  0.00    -0.028 C 
ATOM      8  C   UNL     1      -1.407 -13.127  28.590  1.00  0.00    -0.070 CG0
ATOM      9  C   UNL     1      -0.457 -14.292  28.484  1.00  0.00     0.039 C 
ATOM     10  G   UNL     1      -1.166 -12.074  29.661  1.00  0.00     0.000 G0
ENDBRANCH   6   7
ENDBRANCH   5   6
ENDBRANCH   3   5
ENDBRANCH   1   3
BRANCH   1  11
ATOM     11  C   UNL     1      -3.891 -13.861  31.330  1.00  0.00     0.087 C 
BRANCH  11  12
ATOM     12  C   UNL     1      -3.349 -12.427  31.096  1.00  0.00     0.066 C 
BRANCH  12  13
ATOM     13  C   UNL     1      -1.831 -12.417  30.981  1.00  0.00     0.140 C 
ATOM     14  O   UNL     1      -1.144 -12.630  31.969  1.00  0.00    -0.299 OA
BRANCH  13  15
ATOM     15  C   UNL     1      -1.157 -12.079  29.673  1.00  0.00     0.106 CG0
ATOM     16  G   UNL     1      -1.407 -13.128  28.601  1.00  0.00     0.000 G0
ENDBRANCH  13  15
ENDBRANCH  12  13
BRANCH  12  17
ATOM     17  C   UNL     1      -3.876 -11.423  32.168  1.00  0.00    -0.006 C 
ATOM     18  C   UNL     1      -4.481 -10.135  31.582  1.00  0.00     0.008 C 
ATOM     19  C   UNL     1      -4.878 -12.092  33.120  1.00  0.00     0.008 C 
ENDBRANCH  12  17
ENDBRANCH  11  12
ENDBRANCH   1  11
TORSDOF 1
ENDMDL
MODEL 8
REMARK VINA RESULT:    -4.159      2.023      5.149
REMARK INTER + INTRA:          -6.279
REMARK INTER:                  -7.226
REMARK INTRA:                   0.946
REMARK UNBOUND:                 0.068
REMARK SMILES CC1=CCC[C@H](C)C(=O)C[C@@H](C(C)C)C(=O)C1
REMARK SMILES IDX 8 1 9 2 6 3 7 4 5 5 4 6 3 7 2 8 1 9 10 11 11 12 15 13 16 14
REMARK SMILES IDX 17 15 12 17 13 18 14 19
REMARK H PARENT
REMARK Flexibility Score: 70.00
ROOT
ATOM      1  C   UNL     1      -3.261 -11.843  27.582  1.00  0.00     0.136 C 
ATOM      2  O   UNL     1      -2.522 -11.527  26.660  1.00  0.00    -0.299 OA
ENDROOT
BRANCH   1   3
ATOM      3  C   UNL     1      -4.517 -12.654  27.313  1.00  0.00     0.053 C 
ATOM      4  C   UNL     1      -4.233 -13.917  26.482  1.00  0.00     0.016 C 
BRANCH   3   5
ATOM      5  C   UNL     1      -5.261 -12.994  28.622  1.00  0.00     0.015 C 
BRANCH   5   6
ATOM      6  C   UNL     1      -5.087 -14.457  29.073  1.00  0.00     0.028 C 
BRANCH   6   7
ATOM      7  C   UNL     1      -5.602 -14.646  30.477  1.00  0.00    -0.028 C 
ATOM      8  C   UNL     1      -4.850 -14.516  31.596  1.00  0.00    -0.070 CG0
ATOM      9  C   UNL     1      -5.536 -14.672  32.929  1.00  0.00     0.039 C 
ATOM     10  G   UNL     1      -3.355 -14.241  31.564  1.00  0.00     0.000 G0
ENDBRANCH   6   7
ENDBRANCH   5   6
ENDBRANCH   3   5
ENDBRANCH   1   3
BRANCH   1  11
ATOM     11  C   UNL     1      -2.898 -11.420  28.986  1.00  0.00     0.087 C 
BRANCH  11  12
ATOM     12  C   UNL     1      -2.281 -12.581  29.808  1.00  0.00     0.066 C 
BRANCH  12  13
ATOM     13  C   UNL     1      -3.061 -12.830  31.091  1.00  0.00     0.140 C 
ATOM     14  O   UNL     1      -3.400 -11.886  31.791  1.00  0.00    -0.299 OA
BRANCH  13  15
ATOM     15  C   UNL     1      -3.366 -14.235  31.552  1.00  0.00     0.106 CG0
ATOM     16  G   UNL     1      -4.860 -14.510  31.631  1.00  0.00     0.000 G0
ENDBRANCH  13  15
ENDBRANCH  12  13
BRANCH  12  17
ATOM     17  C   UNL     1      -0.757 -12.369  30.064  1.00  0.00    -0.006 C 
ATOM     18  C   UNL     1      -0.319 -12.623  31.517  1.00  0.00     0.008 C 
ATOM     19  C   UNL     1       0.097 -13.207  29.101  1.00  0.00     0.008 C 
ENDBRANCH  12  17
ENDBRANCH  11  12
ENDBRANCH   1  11
TORSDOF 1
ENDMDL
MODEL 9
REMARK VINA RESULT:    -3.902      1.395      2.104
REMARK INTER + INTRA:          -5.887
REMARK INTER:                  -6.133
REMARK INTRA:                   0.246
REMARK UNBOUND:                 0.068
REMARK SMILES CC1=CCC[C@H](C)C(=O)C[C@@H](C(C)C)C(=O)C1
REMARK SMILES IDX 8 1 9 2 6 3 7 4 5 5 4 6 3 7 2 8 1 9 10 11 11 12 15 13 16 14
REMARK SMILES IDX 17 15 12 17 13 18 14 19
REMARK H PARENT
REMARK Flexibility Score: 70.00
ROOT
ATOM      1  C   UNL     1      -3.975 -13.307  31.328  1.00  0.00     0.136 C 
ATOM      2  O   UNL     1      -4.349 -14.199  32.076  1.00  0.00    -0.299 OA
ENDROOT
BRANCH   1   3
ATOM      3  C   UNL     1      -2.826 -12.399  31.734  1.00  0.00     0.053 C 
ATOM      4  C   UNL     1      -1.456 -13.082  31.579  1.00  0.00     0.016 C 
BRANCH   3   5
ATOM      5  C   UNL     1      -2.876 -11.054  30.981  1.00  0.00     0.015 C 
BRANCH   5   6
ATOM      6  C   UNL     1      -1.766 -10.893  29.924  1.00  0.00     0.028 C 
BRANCH   6   7
ATOM      7  C   UNL     1      -2.361 -10.653  28.559  1.00  0.00    -0.028 C 
ATOM      8  C   UNL     1      -2.692 -11.630  27.681  1.00  0.00    -0.070 CG0
ATOM      9  C   UNL     1      -3.341 -11.223  26.383  1.00  0.00     0.039 C 
ATOM     10  G   UNL     1      -2.419 -13.104  27.939  1.00  0.00     0.000 G0
ENDBRANCH   6   7
ENDBRANCH   5   6
ENDBRANCH   3   5
ENDBRANCH   1   3
BRANCH   1  11
ATOM     11  C   UNL     1      -4.670 -13.130  29.999  1.00  0.00     0.087 C 
BRANCH  11  12
ATOM     12  C   UNL     1      -4.464 -14.349  29.063  1.00  0.00     0.066 C 
BRANCH  12  13
ATOM     13  C   UNL     1      -3.658 -13.971  27.827  1.00  0.00     0.140 C 
ATOM     14  O   UNL     1      -3.984 -14.406  26.732  1.00  0.00    -0.299 OA
BRANCH  13  15
ATOM     15  C   UNL     1      -2.417 -13.119  27.943  1.00  0.00     0.106 CG0
ATOM     16  G   UNL     1      -2.696 -11.647  27.684  1.00  0.00     0.000 G0
ENDBRANCH  13  15
ENDBRANCH  12  13
BRANCH  12  17
ATOM     17  C   UNL     1      -5.813 -15.048  28.709  1.00  0.00    -0.006 C 
ATOM     18  C   UNL     1      -6.546 -15.654  29.919  1.00  0.00     0.008 C 
ATOM     19  C   UNL     1      -6.751 -14.104  27.942  1.00  0.00     0.008 C 
ENDBRANCH  12  17
ENDBRANCH  11  12
ENDBRANCH   1  11
TORSDOF 1
ENDMDL
