MODEL 1
REMARK VINA RESULT:    -4.830      0.000      0.000
REMARK INTER + INTRA:          -9.299
REMARK INTER:                  -7.513
REMARK INTRA:                  -1.786
REMARK UNBOUND:                -1.786
REMARK SMILES COc1cc(CNC(=O)CCCCC=CC(C)C)ccc1O
REMARK SMILES IDX 11 1 12 2 13 3 14 4 15 5 16 6 17 7 18 8 10 9 8 10 9 11 7 12
REMARK SMILES IDX 6 14 5 15 4 16 19 17 3 18 20 19 21 20 2 21 1 22 22 23
REMARK H PARENT 7 13 22 24
REMARK Flexibility Score: inf
ROOT
ATOM      1  C   UNL     1      11.754 -31.818  12.645  1.00  0.00     0.010 C 
ENDROOT
BRANCH   1   2
ATOM      2  C   UNL     1      11.207 -33.187  13.088  1.00  0.00     0.005 C 
BRANCH   2   3
ATOM      3  C   UNL     1       9.738 -33.427  12.693  1.00  0.00     0.027 C 
BRANCH   3   4
ATOM      4  C   UNL     1       8.793 -33.278  13.860  1.00  0.00    -0.031 C 
ATOM      5  C   UNL     1       7.635 -32.587  13.839  1.00  0.00    -0.028 C 
BRANCH   5   6
ATOM      6  C   UNL     1       7.086 -31.830  12.647  1.00  0.00     0.005 C 
ATOM      7  C   UNL     1       6.692 -30.414  13.074  1.00  0.00     0.012 C 
ATOM      8  C   UNL     1       5.876 -32.576  12.078  1.00  0.00     0.012 C 
ENDBRANCH   5   6
ENDBRANCH   3   4
ENDBRANCH   2   3
ENDBRANCH   1   2
BRANCH   1   9
ATOM      9  C   UNL     1      10.697 -30.958  11.943  1.00  0.00     0.100 C 
BRANCH   9  10
ATOM     10  C   UNL     1      10.339 -29.775  12.790  1.00  0.00     0.220 C 
ATOM     11  O   UNL     1       9.695 -28.818  12.281  1.00  0.00    -0.275 OA
ATOM     12  N   UNL     1      10.770 -29.715  14.157  1.00  0.00    -0.352 N 
ATOM     13  H   UNL     1      11.343 -30.498  14.543  1.00  0.00     0.163 HD
BRANCH  12  14
ATOM     14  C   UNL     1      10.481 -28.573  15.022  1.00  0.00     0.151 C 
BRANCH  14  15
ATOM     15  C   UNL     1       9.737 -29.023  16.251  1.00  0.00    -0.025 A 
ATOM     16  C   UNL     1       8.812 -30.077  16.168  1.00  0.00     0.056 A 
ATOM     17  C   UNL     1       9.946 -28.385  17.483  1.00  0.00     0.009 A 
ATOM     18  C   UNL     1       8.101 -30.501  17.309  1.00  0.00     0.160 A 
ATOM     19  C   UNL     1       9.246 -28.800  18.618  1.00  0.00     0.050 A 
ATOM     20  C   UNL     1       8.328 -29.853  18.538  1.00  0.00     0.157 A 
BRANCH  18  21
ATOM     21  O   UNL     1       7.171 -31.552  17.257  1.00  0.00    -0.493 OA
ATOM     22  C   UNL     1       7.477 -32.917  17.522  1.00  0.00     0.278 C 
ENDBRANCH  18  21
BRANCH  20  23
ATOM     23  O   UNL     1       7.650 -30.243  19.692  1.00  0.00    -0.504 OA
ATOM     24  H   UNL     1       6.844 -30.856  19.665  1.00  0.00     0.293 HD
ENDBRANCH  20  23
ENDBRANCH  14  15
ENDBRANCH  12  14
ENDBRANCH   9  10
ENDBRANCH   1   9
TORSDOF 10
ENDMDL
MODEL 2
REMARK VINA RESULT:    -4.490      2.320      5.449
REMARK INTER + INTRA:          -8.770
REMARK INTER:                  -6.634
REMARK INTRA:                  -2.136
REMARK UNBOUND:                -1.786
REMARK SMILES COc1cc(CNC(=O)CCCCC=CC(C)C)ccc1O
REMARK SMILES IDX 11 1 12 2 13 3 14 4 15 5 16 6 17 7 18 8 10 9 8 10 9 11 7 12
REMARK SMILES IDX 6 14 5 15 4 16 19 17 3 18 20 19 21 20 2 21 1 22 22 23
REMARK H PARENT 7 13 22 24
REMARK Flexibility Score: inf
ROOT
ATOM      1  C   UNL     1       9.266 -29.267  18.080  1.00  0.00     0.010 C 
ENDROOT
BRANCH   1   2
ATOM      2  C   UNL     1       7.902 -28.736  18.557  1.00  0.00     0.005 C 
BRANCH   2   3
ATOM      3  C   UNL     1       6.766 -29.771  18.470  1.00  0.00     0.027 C 
BRANCH   3   4
ATOM      4  C   UNL     1       6.332 -30.036  17.049  1.00  0.00    -0.031 C 
ATOM      5  C   UNL     1       6.415 -31.225  16.419  1.00  0.00    -0.028 C 
BRANCH   5   6
ATOM      6  C   UNL     1       6.970 -32.500  17.021  1.00  0.00     0.005 C 
ATOM      7  C   UNL     1       8.488 -32.541  16.834  1.00  0.00     0.012 C 
ATOM      8  C   UNL     1       6.313 -33.712  16.353  1.00  0.00     0.012 C 
ENDBRANCH   5   6
ENDBRANCH   3   4
ENDBRANCH   2   3
ENDBRANCH   1   2
BRANCH   1   9
ATOM      9  C   UNL     1      10.100 -28.196  17.367  1.00  0.00     0.100 C 
BRANCH   9  10
ATOM     10  C   UNL     1      10.311 -28.568  15.931  1.00  0.00     0.220 C 
ATOM     11  O   UNL     1      11.431 -28.355  15.392  1.00  0.00    -0.275 OA
ATOM     12  N   UNL     1       9.229 -29.117  15.166  1.00  0.00    -0.352 N 
ATOM     13  H   UNL     1       8.297 -29.239  15.621  1.00  0.00     0.163 HD
BRANCH  12  14
ATOM     14  C   UNL     1       9.365 -29.467  13.754  1.00  0.00     0.151 C 
BRANCH  14  15
ATOM     15  C   UNL     1       9.202 -30.952  13.564  1.00  0.00    -0.025 A 
ATOM     16  C   UNL     1      10.311 -31.804  13.700  1.00  0.00     0.056 A 
ATOM     17  C   UNL     1       7.952 -31.495  13.233  1.00  0.00     0.009 A 
ATOM     18  C   UNL     1      10.175 -33.194  13.515  1.00  0.00     0.160 A 
ATOM     19  C   UNL     1       7.810 -32.871  13.049  1.00  0.00     0.050 A 
ATOM     20  C   UNL     1       8.911 -33.723  13.189  1.00  0.00     0.157 A 
BRANCH  18  21
ATOM     21  O   UNL     1      11.264 -34.071  13.645  1.00  0.00    -0.493 OA
ATOM     22  C   UNL     1      12.152 -34.421  12.589  1.00  0.00     0.278 C 
ENDBRANCH  18  21
BRANCH  20  23
ATOM     23  O   UNL     1       8.731 -35.092  13.002  1.00  0.00    -0.504 OA
ATOM     24  H   UNL     1       9.501 -35.716  12.792  1.00  0.00     0.293 HD
ENDBRANCH  20  23
ENDBRANCH  14  15
ENDBRANCH  12  14
ENDBRANCH   9  10
ENDBRANCH   1   9
TORSDOF 10
ENDMDL
MODEL 3
REMARK VINA RESULT:    -4.237      1.873      4.659
REMARK INTER + INTRA:          -8.377
REMARK INTER:                  -6.675
REMARK INTRA:                  -1.702
REMARK UNBOUND:                -1.786
REMARK SMILES COc1cc(CNC(=O)CCCCC=CC(C)C)ccc1O
REMARK SMILES IDX 11 1 12 2 13 3 14 4 15 5 16 6 17 7 18 8 10 9 8 10 9 11 7 12
REMARK SMILES IDX 6 14 5 15 4 16 19 17 3 18 20 19 21 20 2 21 1 22 22 23
REMARK H PARENT 7 13 22 24
REMARK Flexibility Score: inf
ROOT
ATOM      1  C   UNL     1       5.931 -34.062  16.200  1.00  0.00     0.010 C 
ENDROOT
BRANCH   1   2
ATOM      2  C   UNL     1       6.498 -34.942  15.070  1.00  0.00     0.005 C 
BRANCH   2   3
ATOM      3  C   UNL     1       6.142 -34.446  13.657  1.00  0.00     0.027 C 
BRANCH   3   4
ATOM      4  C   UNL     1       6.524 -33.002  13.437  1.00  0.00    -0.031 C 
ATOM      5  C   UNL     1       7.781 -32.549  13.258  1.00  0.00    -0.028 C 
BRANCH   5   6
ATOM      6  C   UNL     1       9.031 -33.405  13.258  1.00  0.00     0.005 C 
ATOM      7  C   UNL     1      10.000 -32.903  14.331  1.00  0.00     0.012 C 
ATOM      8  C   UNL     1       9.688 -33.356  11.875  1.00  0.00     0.012 C 
ENDBRANCH   5   6
ENDBRANCH   3   4
ENDBRANCH   2   3
ENDBRANCH   1   2
BRANCH   1   9
ATOM      9  C   UNL     1       7.028 -33.457  17.084  1.00  0.00     0.100 C 
BRANCH   9  10
ATOM     10  C   UNL     1       6.978 -31.961  17.027  1.00  0.00     0.220 C 
ATOM     11  O   UNL     1       6.051 -31.394  16.388  1.00  0.00    -0.275 OA
ATOM     12  N   UNL     1       8.008 -31.184  17.655  1.00  0.00    -0.352 N 
ATOM     13  H   UNL     1       8.792 -31.678  18.137  1.00  0.00     0.163 HD
BRANCH  12  14
ATOM     14  C   UNL     1       8.032 -29.724  17.603  1.00  0.00     0.151 C 
BRANCH  14  15
ATOM     15  C   UNL     1       9.102 -29.251  16.655  1.00  0.00    -0.025 A 
ATOM     16  C   UNL     1       9.083 -29.662  15.312  1.00  0.00     0.056 A 
ATOM     17  C   UNL     1      10.133 -28.414  17.106  1.00  0.00     0.009 A 
ATOM     18  C   UNL     1      10.085 -29.236  14.417  1.00  0.00     0.160 A 
ATOM     19  C   UNL     1      11.127 -27.986  16.224  1.00  0.00     0.050 A 
ATOM     20  C   UNL     1      11.109 -28.390  14.885  1.00  0.00     0.157 A 
BRANCH  18  21
ATOM     21  O   UNL     1      10.092 -29.629  13.069  1.00  0.00    -0.493 OA
ATOM     22  C   UNL     1       9.192 -29.143  12.078  1.00  0.00     0.278 C 
ENDBRANCH  18  21
BRANCH  20  23
ATOM     23  O   UNL     1      12.116 -27.941  14.032  1.00  0.00    -0.504 OA
ATOM     24  H   UNL     1      11.941 -27.269  13.294  1.00  0.00     0.293 HD
ENDBRANCH  20  23
ENDBRANCH  14  15
ENDBRANCH  12  14
ENDBRANCH   9  10
ENDBRANCH   1   9
TORSDOF 10
ENDMDL
MODEL 4
REMARK VINA RESULT:    -4.085      1.062      2.488
REMARK INTER + INTRA:          -8.140
REMARK INTER:                  -6.671
REMARK INTRA:                  -1.470
REMARK UNBOUND:                -1.786
REMARK SMILES COc1cc(CNC(=O)CCCCC=CC(C)C)ccc1O
REMARK SMILES IDX 11 1 12 2 13 3 14 4 15 5 16 6 17 7 18 8 10 9 8 10 9 11 7 12
REMARK SMILES IDX 6 14 5 15 4 16 19 17 3 18 20 19 21 20 2 21 1 22 22 23
REMARK H PARENT 7 13 22 24
REMARK Flexibility Score: inf
ROOT
ATOM      1  C   UNL     1       8.538 -29.665  11.927  1.00  0.00     0.010 C 
ENDROOT
BRANCH   1   2
ATOM      2  C   UNL     1       7.675 -30.701  12.672  1.00  0.00     0.005 C 
BRANCH   2   3
ATOM      3  C   UNL     1       7.448 -32.004  11.884  1.00  0.00     0.027 C 
BRANCH   3   4
ATOM      4  C   UNL     1       7.419 -33.221  12.776  1.00  0.00    -0.031 C 
ATOM      5  C   UNL     1       8.489 -33.972  13.102  1.00  0.00    -0.028 C 
BRANCH   5   6
ATOM      6  C   UNL     1       9.907 -33.734  12.624  1.00  0.00     0.005 C 
ATOM      7  C   UNL     1      10.459 -35.013  11.989  1.00  0.00     0.012 C 
ATOM      8  C   UNL     1      10.782 -33.300  13.804  1.00  0.00     0.012 C 
ENDBRANCH   5   6
ENDBRANCH   3   4
ENDBRANCH   2   3
ENDBRANCH   1   2
BRANCH   1   9
ATOM      9  C   UNL     1      10.020 -30.054  11.883  1.00  0.00     0.100 C 
BRANCH   9  10
ATOM     10  C   UNL     1      10.701 -29.659  13.159  1.00  0.00     0.220 C 
ATOM     11  O   UNL     1      11.843 -30.124  13.423  1.00  0.00    -0.275 OA
ATOM     12  N   UNL     1      10.034 -28.796  14.090  1.00  0.00    -0.352 N 
ATOM     13  H   UNL     1       9.069 -28.462  13.871  1.00  0.00     0.163 HD
BRANCH  12  14
ATOM     14  C   UNL     1      10.633 -28.404  15.365  1.00  0.00     0.151 C 
BRANCH  14  15
ATOM     15  C   UNL     1       9.805 -28.920  16.512  1.00  0.00    -0.025 A 
ATOM     16  C   UNL     1       8.849 -29.926  16.294  1.00  0.00     0.056 A 
ATOM     17  C   UNL     1       9.967 -28.390  17.801  1.00  0.00     0.009 A 
ATOM     18  C   UNL     1       8.061 -30.410  17.357  1.00  0.00     0.160 A 
ATOM     19  C   UNL     1       9.190 -28.866  18.859  1.00  0.00     0.050 A 
ATOM     20  C   UNL     1       8.241 -29.871  18.646  1.00  0.00     0.157 A 
BRANCH  18  21
ATOM     21  O   UNL     1       7.098 -31.415  17.171  1.00  0.00    -0.493 OA
ATOM     22  C   UNL     1       7.369 -32.705  16.632  1.00  0.00     0.278 C 
ENDBRANCH  18  21
BRANCH  20  23
ATOM     23  O   UNL     1       7.486 -30.324  19.726  1.00  0.00    -0.504 OA
ATOM     24  H   UNL     1       6.548 -29.987  19.911  1.00  0.00     0.293 HD
ENDBRANCH  20  23
ENDBRANCH  14  15
ENDBRANCH  12  14
ENDBRANCH   9  10
ENDBRANCH   1   9
TORSDOF 10
ENDMDL
MODEL 5
REMARK VINA RESULT:    -3.822      2.436      5.388
REMARK INTER + INTRA:          -7.730
REMARK INTER:                  -6.128
REMARK INTRA:                  -1.602
REMARK UNBOUND:                -1.786
REMARK SMILES COc1cc(CNC(=O)CCCCC=CC(C)C)ccc1O
REMARK SMILES IDX 11 1 12 2 13 3 14 4 15 5 16 6 17 7 18 8 10 9 8 10 9 11 7 12
REMARK SMILES IDX 6 14 5 15 4 16 19 17 3 18 20 19 21 20 2 21 1 22 22 23
REMARK H PARENT 7 13 22 24
REMARK Flexibility Score: inf
ROOT
ATOM      1  C   UNL     1       9.267 -28.428  17.139  1.00  0.00     0.010 C 
ENDROOT
BRANCH   1   2
ATOM      2  C   UNL     1       9.126 -29.441  18.290  1.00  0.00     0.005 C 
BRANCH   2   3
ATOM      3  C   UNL     1       7.666 -29.763  18.659  1.00  0.00     0.027 C 
BRANCH   3   4
ATOM      4  C   UNL     1       6.787 -29.942  17.445  1.00  0.00    -0.031 C 
ATOM      5  C   UNL     1       6.697 -31.069  16.710  1.00  0.00    -0.028 C 
BRANCH   5   6
ATOM      6  C   UNL     1       7.469 -32.348  16.966  1.00  0.00     0.005 C 
ATOM      7  C   UNL     1       8.694 -32.402  16.049  1.00  0.00     0.012 C 
ATOM      8  C   UNL     1       6.559 -33.554  16.719  1.00  0.00     0.012 C 
ENDBRANCH   5   6
ENDBRANCH   3   4
ENDBRANCH   2   3
ENDBRANCH   1   2
BRANCH   1   9
ATOM      9  C   UNL     1      10.720 -28.255  16.679  1.00  0.00     0.100 C 
BRANCH   9  10
ATOM     10  C   UNL     1      10.847 -28.571  15.220  1.00  0.00     0.220 C 
ATOM     11  O   UNL     1      11.930 -28.326  14.623  1.00  0.00    -0.275 OA
ATOM     12  N   UNL     1       9.725 -29.103  14.501  1.00  0.00    -0.352 N 
ATOM     13  H   UNL     1       8.824 -29.252  15.006  1.00  0.00     0.163 HD
BRANCH  12  14
ATOM     14  C   UNL     1       9.778 -29.397  13.070  1.00  0.00     0.151 C 
BRANCH  14  15
ATOM     15  C   UNL     1      10.016 -30.867  12.847  1.00  0.00    -0.025 A 
ATOM     16  C   UNL     1       8.935 -31.720  12.567  1.00  0.00     0.056 A 
ATOM     17  C   UNL     1      11.311 -31.400  12.933  1.00  0.00     0.009 A 
ATOM     18  C   UNL     1       9.142 -33.100  12.366  1.00  0.00     0.160 A 
ATOM     19  C   UNL     1      11.523 -32.766  12.734  1.00  0.00     0.050 A 
ATOM     20  C   UNL     1      10.449 -33.617  12.450  1.00  0.00     0.157 A 
BRANCH  18  21
ATOM     21  O   UNL     1       8.083 -33.977  12.085  1.00  0.00    -0.493 OA
ATOM     22  C   UNL     1       7.302 -34.647  13.070  1.00  0.00     0.278 C 
ENDBRANCH  18  21
BRANCH  20  23
ATOM     23  O   UNL     1      10.700 -34.973  12.254  1.00  0.00    -0.504 OA
ATOM     24  H   UNL     1      11.564 -35.413  12.549  1.00  0.00     0.293 HD
ENDBRANCH  20  23
ENDBRANCH  14  15
ENDBRANCH  12  14
ENDBRANCH   9  10
ENDBRANCH   1   9
TORSDOF 10
ENDMDL
MODEL 6
REMARK VINA RESULT:    -3.754      1.914      3.172
REMARK INTER + INTRA:          -7.625
REMARK INTER:                  -6.364
REMARK INTRA:                  -1.260
REMARK UNBOUND:                -1.786
REMARK SMILES COc1cc(CNC(=O)CCCCC=CC(C)C)ccc1O
REMARK SMILES IDX 11 1 12 2 13 3 14 4 15 5 16 6 17 7 18 8 10 9 8 10 9 11 7 12
REMARK SMILES IDX 6 14 5 15 4 16 19 17 3 18 20 19 21 20 2 21 1 22 22 23
REMARK H PARENT 7 13 22 24
REMARK Flexibility Score: inf
ROOT
ATOM      1  C   UNL     1       6.987 -32.683  12.026  1.00  0.00     0.010 C 
ENDROOT
BRANCH   1   2
ATOM      2  C   UNL     1       6.038 -33.894  11.999  1.00  0.00     0.005 C 
BRANCH   2   3
ATOM      3  C   UNL     1       6.136 -34.791  13.246  1.00  0.00     0.027 C 
BRANCH   3   4
ATOM      4  C   UNL     1       7.455 -34.639  13.965  1.00  0.00    -0.031 C 
ATOM      5  C   UNL     1       7.607 -34.168  15.219  1.00  0.00    -0.028 C 
BRANCH   5   6
ATOM      6  C   UNL     1       6.484 -33.697  16.122  1.00  0.00     0.005 C 
ATOM      7  C   UNL     1       5.906 -32.386  15.586  1.00  0.00     0.012 C 
ATOM      8  C   UNL     1       7.016 -33.508  17.546  1.00  0.00     0.012 C 
ENDBRANCH   5   6
ENDBRANCH   3   4
ENDBRANCH   2   3
ENDBRANCH   1   2
BRANCH   1   9
ATOM      9  C   UNL     1       6.260 -31.369  12.337  1.00  0.00     0.100 C 
BRANCH   9  10
ATOM     10  C   UNL     1       7.244 -30.302  12.709  1.00  0.00     0.220 C 
ATOM     11  O   UNL     1       7.030 -29.110  12.359  1.00  0.00    -0.275 OA
ATOM     12  N   UNL     1       8.444 -30.648  13.415  1.00  0.00    -0.352 N 
ATOM     13  H   UNL     1       8.622 -31.650  13.651  1.00  0.00     0.163 HD
BRANCH  12  14
ATOM     14  C   UNL     1       9.457 -29.658  13.774  1.00  0.00     0.151 C 
BRANCH  14  15
ATOM     15  C   UNL     1       9.370 -29.328  15.241  1.00  0.00    -0.025 A 
ATOM     16  C   UNL     1       8.251 -29.734  15.988  1.00  0.00     0.056 A 
ATOM     17  C   UNL     1      10.392 -28.602  15.869  1.00  0.00     0.009 A 
ATOM     18  C   UNL     1       8.153 -29.423  17.359  1.00  0.00     0.160 A 
ATOM     19  C   UNL     1      10.301 -28.291  17.227  1.00  0.00     0.050 A 
ATOM     20  C   UNL     1       9.191 -28.698  17.975  1.00  0.00     0.157 A 
BRANCH  18  21
ATOM     21  O   UNL     1       7.048 -29.815  18.132  1.00  0.00    -0.493 OA
ATOM     22  C   UNL     1       5.875 -29.031  18.324  1.00  0.00     0.278 C 
ENDBRANCH  18  21
BRANCH  20  23
ATOM     23  O   UNL     1       9.136 -28.373  19.329  1.00  0.00    -0.504 OA
ATOM     24  H   UNL     1       8.262 -28.321  19.838  1.00  0.00     0.293 HD
ENDBRANCH  20  23
ENDBRANCH  14  15
ENDBRANCH  12  14
ENDBRANCH   9  10
ENDBRANCH   1   9
TORSDOF 10
ENDMDL
MODEL 7
REMARK VINA RESULT:    -3.694      1.776      4.847
REMARK INTER + INTRA:          -7.532
REMARK INTER:                  -5.937
REMARK INTRA:                  -1.595
REMARK UNBOUND:                -1.786
REMARK SMILES COc1cc(CNC(=O)CCCCC=CC(C)C)ccc1O
REMARK SMILES IDX 11 1 12 2 13 3 14 4 15 5 16 6 17 7 18 8 10 9 8 10 9 11 7 12
REMARK SMILES IDX 6 14 5 15 4 16 19 17 3 18 20 19 21 20 2 21 1 22 22 23
REMARK H PARENT 7 13 22 24
REMARK Flexibility Score: inf
ROOT
ATOM      1  C   UNL     1       7.698 -32.485  18.110  1.00  0.00     0.010 C 
ENDROOT
BRANCH   1   2
ATOM      2  C   UNL     1       6.796 -32.522  16.863  1.00  0.00     0.005 C 
BRANCH   2   3
ATOM      3  C   UNL     1       7.494 -33.072  15.606  1.00  0.00     0.027 C 
BRANCH   3   4
ATOM      4  C   UNL     1       8.919 -32.591  15.479  1.00  0.00    -0.031 C 
ATOM      5  C   UNL     1       9.766 -32.924  14.484  1.00  0.00    -0.028 C 
BRANCH   5   6
ATOM      6  C   UNL     1       9.442 -33.848  13.328  1.00  0.00     0.005 C 
ATOM      7  C   UNL     1      10.621 -34.790  13.074  1.00  0.00     0.012 C 
ATOM      8  C   UNL     1       9.138 -33.018  12.077  1.00  0.00     0.012 C 
ENDBRANCH   5   6
ENDBRANCH   3   4
ENDBRANCH   2   3
ENDBRANCH   1   2
BRANCH   1   9
ATOM      9  C   UNL     1       7.387 -31.298  19.030  1.00  0.00     0.100 C 
BRANCH   9  10
ATOM     10  C   UNL     1       7.821 -30.014  18.390  1.00  0.00     0.220 C 
ATOM     11  O   UNL     1       6.954 -29.160  18.062  1.00  0.00    -0.275 OA
ATOM     12  N   UNL     1       9.209 -29.786  18.111  1.00  0.00    -0.352 N 
ATOM     13  H   UNL     1       9.903 -30.529  18.349  1.00  0.00     0.163 HD
BRANCH  12  14
ATOM     14  C   UNL     1       9.689 -28.570  17.459  1.00  0.00     0.151 C 
BRANCH  14  15
ATOM     15  C   UNL     1       9.882 -28.808  15.985  1.00  0.00    -0.025 A 
ATOM     16  C   UNL     1       8.806 -29.253  15.197  1.00  0.00     0.056 A 
ATOM     17  C   UNL     1      11.135 -28.605  15.388  1.00  0.00     0.009 A 
ATOM     18  C   UNL     1       8.976 -29.489  13.818  1.00  0.00     0.160 A 
ATOM     19  C   UNL     1      11.309 -28.837  14.022  1.00  0.00     0.050 A 
ATOM     20  C   UNL     1      10.239 -29.276  13.235  1.00  0.00     0.157 A 
BRANCH  18  21
ATOM     21  O   UNL     1       7.920 -29.934  13.006  1.00  0.00    -0.493 OA
ATOM     22  C   UNL     1       6.622 -30.278  13.480  1.00  0.00     0.278 C 
ENDBRANCH  18  21
BRANCH  20  23
ATOM     23  O   UNL     1      10.449 -29.493  11.875  1.00  0.00    -0.504 OA
ATOM     24  H   UNL     1      10.755 -30.387  11.510  1.00  0.00     0.293 HD
ENDBRANCH  20  23
ENDBRANCH  14  15
ENDBRANCH  12  14
ENDBRANCH   9  10
ENDBRANCH   1   9
TORSDOF 10
ENDMDL
MODEL 8
REMARK VINA RESULT:    -3.674      2.096      5.398
REMARK INTER + INTRA:          -7.501
REMARK INTER:                  -5.943
REMARK INTRA:                  -1.558
REMARK UNBOUND:                -1.786
REMARK SMILES COc1cc(CNC(=O)CCCCC=CC(C)C)ccc1O
REMARK SMILES IDX 11 1 12 2 13 3 14 4 15 5 16 6 17 7 18 8 10 9 8 10 9 11 7 12
REMARK SMILES IDX 6 14 5 15 4 16 19 17 3 18 20 19 21 20 2 21 1 22 22 23
REMARK H PARENT 7 13 22 24
REMARK Flexibility Score: inf
ROOT
ATOM      1  C   UNL     1       9.949 -27.887  17.145  1.00  0.00     0.010 C 
ENDROOT
BRANCH   1   2
ATOM      2  C   UNL     1      10.809 -28.479  16.014  1.00  0.00     0.005 C 
BRANCH   2   3
ATOM      3  C   UNL     1      10.003 -29.266  14.965  1.00  0.00     0.027 C 
BRANCH   3   4
ATOM      4  C   UNL     1      10.655 -29.252  13.604  1.00  0.00    -0.031 C 
ATOM      5  C   UNL     1      10.776 -30.319  12.789  1.00  0.00    -0.028 C 
BRANCH   5   6
ATOM      6  C   UNL     1      10.291 -31.720  13.100  1.00  0.00     0.005 C 
ATOM      7  C   UNL     1      11.479 -32.601  13.497  1.00  0.00     0.012 C 
ATOM      8  C   UNL     1       9.578 -32.301  11.875  1.00  0.00     0.012 C 
ENDBRANCH   5   6
ENDBRANCH   3   4
ENDBRANCH   2   3
ENDBRANCH   1   2
BRANCH   1   9
ATOM      9  C   UNL     1       9.744 -28.867  18.307  1.00  0.00     0.100 C 
BRANCH   9  10
ATOM     10  C   UNL     1       8.405 -29.530  18.200  1.00  0.00     0.220 C 
ATOM     11  O   UNL     1       7.368 -28.892  18.529  1.00  0.00    -0.275 OA
ATOM     12  N   UNL     1       8.313 -30.896  17.773  1.00  0.00    -0.352 N 
ATOM     13  H   UNL     1       9.190 -31.419  17.553  1.00  0.00     0.163 HD
BRANCH  12  14
ATOM     14  C   UNL     1       7.039 -31.606  17.683  1.00  0.00     0.151 C 
BRANCH  14  15
ATOM     15  C   UNL     1       6.856 -32.182  16.304  1.00  0.00    -0.025 A 
ATOM     16  C   UNL     1       6.775 -31.328  15.191  1.00  0.00     0.056 A 
ATOM     17  C   UNL     1       6.749 -33.568  16.120  1.00  0.00     0.009 A 
ATOM     18  C   UNL     1       6.593 -31.854  13.896  1.00  0.00     0.160 A 
ATOM     19  C   UNL     1       6.571 -34.095  14.839  1.00  0.00     0.050 A 
ATOM     20  C   UNL     1       6.494 -33.248  13.728  1.00  0.00     0.157 A 
BRANCH  18  21
ATOM     21  O   UNL     1       6.509 -31.027  12.764  1.00  0.00    -0.493 OA
ATOM     22  C   UNL     1       6.969 -29.680  12.709  1.00  0.00     0.278 C 
ENDBRANCH  18  21
BRANCH  20  23
ATOM     23  O   UNL     1       6.319 -33.810  12.465  1.00  0.00    -0.504 OA
ATOM     24  H   UNL     1       7.038 -33.775  11.752  1.00  0.00     0.293 HD
ENDBRANCH  20  23
ENDBRANCH  14  15
ENDBRANCH  12  14
ENDBRANCH   9  10
ENDBRANCH   1   9
TORSDOF 10
ENDMDL
MODEL 9
REMARK VINA RESULT:    -3.622      2.116      5.083
REMARK INTER + INTRA:          -7.420
REMARK INTER:                  -6.794
REMARK INTRA:                  -0.626
REMARK UNBOUND:                -1.786
REMARK SMILES COc1cc(CNC(=O)CCCCC=CC(C)C)ccc1O
REMARK SMILES IDX 11 1 12 2 13 3 14 4 15 5 16 6 17 7 18 8 10 9 8 10 9 11 7 12
REMARK SMILES IDX 6 14 5 15 4 16 19 17 3 18 20 19 21 20 2 21 1 22 22 23
REMARK H PARENT 7 13 22 24
REMARK Flexibility Score: inf
ROOT
ATOM      1  C   UNL     1       9.910 -28.373  17.073  1.00  0.00     0.010 C 
ENDROOT
BRANCH   1   2
ATOM      2  C   UNL     1       9.369 -29.228  15.912  1.00  0.00     0.005 C 
BRANCH   2   3
ATOM      3  C   UNL     1      10.327 -29.321  14.711  1.00  0.00     0.027 C 
BRANCH   3   4
ATOM      4  C   UNL     1       9.596 -29.481  13.400  1.00  0.00    -0.031 C 
ATOM      5  C   UNL     1       9.578 -30.602  12.651  1.00  0.00    -0.028 C 
BRANCH   5   6
ATOM      6  C   UNL     1      10.296 -31.894  12.987  1.00  0.00     0.005 C 
ATOM      7  C   UNL     1      11.786 -31.753  12.666  1.00  0.00     0.012 C 
ATOM      8  C   UNL     1       9.681 -33.046  12.188  1.00  0.00     0.012 C 
ENDBRANCH   5   6
ENDBRANCH   3   4
ENDBRANCH   2   3
ENDBRANCH   1   2
BRANCH   1   9
ATOM      9  C   UNL     1       9.361 -28.812  18.436  1.00  0.00     0.100 C 
BRANCH   9  10
ATOM     10  C   UNL     1       8.042 -29.504  18.269  1.00  0.00     0.220 C 
ATOM     11  O   UNL     1       7.737 -30.454  19.040  1.00  0.00    -0.275 OA
ATOM     12  N   UNL     1       7.158 -29.116  17.208  1.00  0.00    -0.352 N 
ATOM     13  H   UNL     1       7.454 -28.359  16.553  1.00  0.00     0.163 HD
BRANCH  12  14
ATOM     14  C   UNL     1       5.875 -29.776  16.975  1.00  0.00     0.151 C 
BRANCH  14  15
ATOM     15  C   UNL     1       6.034 -30.890  15.975  1.00  0.00    -0.025 A 
ATOM     16  C   UNL     1       6.054 -32.227  16.408  1.00  0.00     0.056 A 
ATOM     17  C   UNL     1       6.181 -30.606  14.609  1.00  0.00     0.009 A 
ATOM     18  C   UNL     1       6.212 -33.279  15.484  1.00  0.00     0.160 A 
ATOM     19  C   UNL     1       6.338 -31.644  13.688  1.00  0.00     0.050 A 
ATOM     20  C   UNL     1       6.353 -32.976  14.116  1.00  0.00     0.157 A 
BRANCH  18  21
ATOM     21  O   UNL     1       6.235 -34.624  15.887  1.00  0.00    -0.493 OA
ATOM     22  C   UNL     1       6.042 -35.073  17.224  1.00  0.00     0.278 C 
ENDBRANCH  18  21
BRANCH  20  23
ATOM     23  O   UNL     1       6.507 -33.985  13.168  1.00  0.00    -0.504 OA
ATOM     24  H   UNL     1       6.014 -34.868  13.232  1.00  0.00     0.293 HD
ENDBRANCH  20  23
ENDBRANCH  14  15
ENDBRANCH  12  14
ENDBRANCH   9  10
ENDBRANCH   1   9
TORSDOF 10
ENDMDL
