MODEL 1
REMARK VINA RESULT:    -8.126      0.000      0.000
REMARK INTER + INTRA:          -9.076
REMARK INTER:                  -9.076
REMARK INTRA:                   0.000
REMARK UNBOUND:                 0.000
REMARK SMILES Oc1cc(O)c2c(ccc3ccc(O)c(O)c32)c1
REMARK SMILES IDX 9 1 8 2 7 3 18 4 2 5 3 6 4 7 6 8 17 9 10 10 11 11 12 12
REMARK SMILES IDX 13 13 15 14 16 15 1 17 5 19 14 21
REMARK H PARENT 16 16 1 18 5 20 14 22
REMARK Flexibility Score: inf
ROOT
ATOM      1  C   UNL     1       8.007 -54.245 -31.521  1.00  0.00     0.009 A 
ATOM      2  C   UNL     1       6.793 -54.809 -31.891  1.00  0.00     0.009 A 
ATOM      3  C   UNL     1       6.106 -55.653 -31.012  1.00  0.00    -0.010 A 
ATOM      4  C   UNL     1       4.846 -56.148 -31.382  1.00  0.00     0.055 A 
ATOM      5  C   UNL     1       4.082 -56.879 -30.478  1.00  0.00     0.119 A 
ATOM      6  C   UNL     1       4.545 -57.067 -29.175  1.00  0.00     0.093 A 
ATOM      7  C   UNL     1       5.790 -56.560 -28.777  1.00  0.00     0.127 A 
ATOM      8  C   UNL     1       6.657 -55.964 -29.736  1.00  0.00     0.035 A 
ATOM      9  C   UNL     1       8.008 -55.571 -29.461  1.00  0.00     0.039 A 
ATOM     10  C   UNL     1       8.626 -54.621 -30.323  1.00  0.00    -0.014 A 
ATOM     11  C   UNL     1       9.882 -54.086 -30.006  1.00  0.00     0.013 A 
ATOM     12  C   UNL     1      10.573 -54.533 -28.886  1.00  0.00     0.051 A 
ATOM     13  C   UNL     1      10.063 -55.583 -28.119  1.00  0.00     0.158 A 
ATOM     14  C   UNL     1       8.812 -56.147 -28.435  1.00  0.00     0.166 A 
ENDROOT
BRANCH  14  15
ATOM     15  O   UNL     1       8.428 -57.331 -27.804  1.00  0.00    -0.504 OA
ATOM     16  H   UNL     1       8.021 -57.350 -26.877  1.00  0.00     0.293 HD
ENDBRANCH  14  15
BRANCH   5  17
ATOM     17  O   UNL     1       2.844 -57.383 -30.872  1.00  0.00    -0.508 OA
ATOM     18  H   UNL     1       2.478 -58.248 -30.493  1.00  0.00     0.293 HD
ENDBRANCH   5  17
BRANCH   7  19
ATOM     19  O   UNL     1       6.102 -56.565 -27.418  1.00  0.00    -0.507 OA
ATOM     20  H   UNL     1       5.655 -57.201 -26.767  1.00  0.00     0.293 HD
ENDBRANCH   7  19
BRANCH  13  21
ATOM     21  O   UNL     1      10.807 -56.089 -27.056  1.00  0.00    -0.504 OA
ATOM     22  H   UNL     1      10.480 -56.028 -26.098  1.00  0.00     0.293 HD
ENDBRANCH  13  21
TORSDOF 4
ENDMDL
MODEL 2
REMARK VINA RESULT:    -7.477      0.999      4.923
REMARK INTER + INTRA:          -8.351
REMARK INTER:                  -8.351
REMARK INTRA:                   0.000
REMARK UNBOUND:                 0.000
REMARK SMILES Oc1cc(O)c2c(ccc3ccc(O)c(O)c32)c1
REMARK SMILES IDX 9 1 8 2 7 3 18 4 2 5 3 6 4 7 6 8 17 9 10 10 11 11 12 12
REMARK SMILES IDX 13 13 15 14 16 15 1 17 5 19 14 21
REMARK H PARENT 16 16 1 18 5 20 14 22
REMARK Flexibility Score: inf
ROOT
ATOM      1  C   UNL     1       6.490 -54.907 -32.012  1.00  0.00     0.009 A 
ATOM      2  C   UNL     1       7.727 -54.349 -31.713  1.00  0.00     0.009 A 
ATOM      3  C   UNL     1       8.379 -54.671 -30.518  1.00  0.00    -0.010 A 
ATOM      4  C   UNL     1       9.660 -54.151 -30.275  1.00  0.00     0.055 A 
ATOM      5  C   UNL     1      10.386 -54.558 -29.160  1.00  0.00     0.119 A 
ATOM      6  C   UNL     1       9.863 -55.535 -28.313  1.00  0.00     0.093 A 
ATOM      7  C   UNL     1       8.595 -56.085 -28.550  1.00  0.00     0.127 A 
ATOM      8  C   UNL     1       7.769 -55.555 -29.582  1.00  0.00     0.035 A 
ATOM      9  C   UNL     1       6.403 -55.936 -29.791  1.00  0.00     0.039 A 
ATOM     10  C   UNL     1       5.819 -55.688 -31.065  1.00  0.00    -0.014 A 
ATOM     11  C   UNL     1       4.544 -56.184 -31.370  1.00  0.00     0.013 A 
ATOM     12  C   UNL     1       3.803 -56.858 -30.405  1.00  0.00     0.051 A 
ATOM     13  C   UNL     1       4.286 -56.966 -29.099  1.00  0.00     0.158 A 
ATOM     14  C   UNL     1       5.556 -56.456 -28.770  1.00  0.00     0.166 A 
ENDROOT
BRANCH  14  15
ATOM     15  O   UNL     1       5.920 -56.371 -27.425  1.00  0.00    -0.504 OA
ATOM     16  H   UNL     1       6.836 -56.644 -27.089  1.00  0.00     0.293 HD
ENDBRANCH  14  15
BRANCH   5  17
ATOM     17  O   UNL     1      11.647 -54.013 -28.924  1.00  0.00    -0.508 OA
ATOM     18  H   UNL     1      12.405 -54.123 -29.586  1.00  0.00     0.293 HD
ENDBRANCH   5  17
BRANCH   7  19
ATOM     19  O   UNL     1       8.218 -57.214 -27.824  1.00  0.00    -0.507 OA
ATOM     20  H   UNL     1       8.166 -57.209 -26.812  1.00  0.00     0.293 HD
ENDBRANCH   7  19
BRANCH  13  21
ATOM     21  O   UNL     1       3.496 -57.558 -28.116  1.00  0.00    -0.504 OA
ATOM     22  H   UNL     1       3.715 -57.470 -27.130  1.00  0.00     0.293 HD
ENDBRANCH  13  21
TORSDOF 4
ENDMDL
MODEL 3
REMARK VINA RESULT:    -7.387      2.705      3.855
REMARK INTER + INTRA:          -8.251
REMARK INTER:                  -8.251
REMARK INTRA:                   0.000
REMARK UNBOUND:                 0.000
REMARK SMILES Oc1cc(O)c2c(ccc3ccc(O)c(O)c32)c1
REMARK SMILES IDX 9 1 8 2 7 3 18 4 2 5 3 6 4 7 6 8 17 9 10 10 11 11 12 12
REMARK SMILES IDX 13 13 15 14 16 15 1 17 5 19 14 21
REMARK H PARENT 16 16 1 18 5 20 14 22
REMARK Flexibility Score: inf
ROOT
ATOM      1  C   UNL     1       8.501 -56.280 -28.759  1.00  0.00     0.009 A 
ATOM      2  C   UNL     1       7.431 -56.229 -27.874  1.00  0.00     0.009 A 
ATOM      3  C   UNL     1       6.124 -56.091 -28.351  1.00  0.00    -0.010 A 
ATOM      4  C   UNL     1       5.057 -56.117 -27.440  1.00  0.00     0.055 A 
ATOM      5  C   UNL     1       3.741 -56.116 -27.894  1.00  0.00     0.119 A 
ATOM      6  C   UNL     1       3.483 -56.151 -29.265  1.00  0.00     0.093 A 
ATOM      7  C   UNL     1       4.535 -56.149 -30.192  1.00  0.00     0.127 A 
ATOM      8  C   UNL     1       5.877 -55.975 -29.749  1.00  0.00     0.035 A 
ATOM      9  C   UNL     1       6.994 -55.793 -30.628  1.00  0.00     0.039 A 
ATOM     10  C   UNL     1       8.300 -56.056 -30.126  1.00  0.00    -0.014 A 
ATOM     11  C   UNL     1       9.406 -56.048 -30.987  1.00  0.00     0.013 A 
ATOM     12  C   UNL     1       9.252 -55.708 -32.326  1.00  0.00     0.051 A 
ATOM     13  C   UNL     1       8.010 -55.284 -32.803  1.00  0.00     0.158 A 
ATOM     14  C   UNL     1       6.892 -55.265 -31.948  1.00  0.00     0.166 A 
ENDROOT
BRANCH  14  15
ATOM     15  O   UNL     1       5.726 -54.630 -32.377  1.00  0.00    -0.504 OA
ATOM     16  H   UNL     1       5.671 -53.629 -32.524  1.00  0.00     0.293 HD
ENDBRANCH  14  15
BRANCH   5  17
ATOM     17  O   UNL     1       2.695 -56.119 -26.973  1.00  0.00    -0.508 OA
ATOM     18  H   UNL     1       2.736 -56.671 -26.125  1.00  0.00     0.293 HD
ENDBRANCH   5  17
BRANCH   7  19
ATOM     19  O   UNL     1       4.239 -56.423 -31.527  1.00  0.00    -0.507 OA
ATOM     20  H   UNL     1       4.312 -55.715 -32.249  1.00  0.00     0.293 HD
ENDBRANCH   7  19
BRANCH  13  21
ATOM     21  O   UNL     1       7.886 -54.853 -34.123  1.00  0.00    -0.504 OA
ATOM     22  H   UNL     1       8.530 -55.154 -34.845  1.00  0.00     0.293 HD
ENDBRANCH  13  21
TORSDOF 4
ENDMDL
MODEL 4
REMARK VINA RESULT:    -7.218      2.544      5.168
REMARK INTER + INTRA:          -8.062
REMARK INTER:                  -8.062
REMARK INTRA:                   0.000
REMARK UNBOUND:                 0.000
REMARK SMILES Oc1cc(O)c2c(ccc3ccc(O)c(O)c32)c1
REMARK SMILES IDX 9 1 8 2 7 3 18 4 2 5 3 6 4 7 6 8 17 9 10 10 11 11 12 12
REMARK SMILES IDX 13 13 15 14 16 15 1 17 5 19 14 21
REMARK H PARENT 16 16 1 18 5 20 14 22
REMARK Flexibility Score: inf
ROOT
ATOM      1  C   UNL     1       8.140 -56.204 -28.172  1.00  0.00     0.009 A 
ATOM      2  C   UNL     1       9.097 -56.108 -29.175  1.00  0.00     0.009 A 
ATOM      3  C   UNL     1       8.718 -55.814 -30.489  1.00  0.00    -0.010 A 
ATOM      4  C   UNL     1       9.712 -55.649 -31.466  1.00  0.00     0.055 A 
ATOM      5  C   UNL     1       9.375 -55.226 -32.749  1.00  0.00     0.119 A 
ATOM      6  C   UNL     1       8.050 -54.906 -33.046  1.00  0.00     0.093 A 
ATOM      7  C   UNL     1       7.046 -55.041 -32.077  1.00  0.00     0.127 A 
ATOM      8  C   UNL     1       7.344 -55.635 -30.818  1.00  0.00     0.035 A 
ATOM      9  C   UNL     1       6.357 -55.967 -29.834  1.00  0.00     0.039 A 
ATOM     10  C   UNL     1       6.778 -56.146 -28.486  1.00  0.00    -0.014 A 
ATOM     11  C   UNL     1       5.834 -56.312 -27.463  1.00  0.00     0.013 A 
ATOM     12  C   UNL     1       4.478 -56.381 -27.763  1.00  0.00     0.051 A 
ATOM     13  C   UNL     1       4.053 -56.376 -29.094  1.00  0.00     0.158 A 
ATOM     14  C   UNL     1       4.989 -56.232 -30.135  1.00  0.00     0.166 A 
ENDROOT
BRANCH  14  15
ATOM     15  O   UNL     1       4.575 -56.456 -31.449  1.00  0.00    -0.504 OA
ATOM     16  H   UNL     1       3.600 -56.476 -31.719  1.00  0.00     0.293 HD
ENDBRANCH  14  15
BRANCH   5  17
ATOM     17  O   UNL     1      10.373 -55.090 -33.713  1.00  0.00    -0.508 OA
ATOM     18  H   UNL     1      11.005 -55.851 -33.932  1.00  0.00     0.293 HD
ENDBRANCH   5  17
BRANCH   7  19
ATOM     19  O   UNL     1       5.793 -54.489 -32.342  1.00  0.00    -0.507 OA
ATOM     20  H   UNL     1       4.946 -54.855 -31.923  1.00  0.00     0.293 HD
ENDBRANCH   7  19
BRANCH  13  21
ATOM     21  O   UNL     1       2.701 -56.543 -29.389  1.00  0.00    -0.504 OA
ATOM     22  H   UNL     1       2.254 -57.452 -29.347  1.00  0.00     0.293 HD
ENDBRANCH  13  21
TORSDOF 4
ENDMDL
MODEL 5
REMARK VINA RESULT:    -6.686      9.115     10.879
REMARK INTER + INTRA:          -7.468
REMARK INTER:                  -7.468
REMARK INTRA:                   0.000
REMARK UNBOUND:                 0.000
REMARK SMILES Oc1cc(O)c2c(ccc3ccc(O)c(O)c32)c1
REMARK SMILES IDX 9 1 8 2 7 3 18 4 2 5 3 6 4 7 6 8 17 9 10 10 11 11 12 12
REMARK SMILES IDX 13 13 15 14 16 15 1 17 5 19 14 21
REMARK H PARENT 16 16 1 18 5 20 14 22
REMARK Flexibility Score: inf
ROOT
ATOM      1  C   UNL     1       0.016 -57.275 -34.507  1.00  0.00     0.009 A 
ATOM      2  C   UNL     1      -1.205 -56.646 -34.713  1.00  0.00     0.009 A 
ATOM      3  C   UNL     1      -2.401 -57.305 -34.411  1.00  0.00    -0.010 A 
ATOM      4  C   UNL     1      -3.617 -56.619 -34.559  1.00  0.00     0.055 A 
ATOM      5  C   UNL     1      -4.810 -57.201 -34.142  1.00  0.00     0.119 A 
ATOM      6  C   UNL     1      -4.790 -58.448 -33.516  1.00  0.00     0.093 A 
ATOM      7  C   UNL     1      -3.583 -59.140 -33.337  1.00  0.00     0.127 A 
ATOM      8  C   UNL     1      -2.381 -58.639 -33.912  1.00  0.00     0.035 A 
ATOM      9  C   UNL     1      -1.140 -59.355 -33.927  1.00  0.00     0.039 A 
ATOM     10  C   UNL     1       0.064 -58.621 -34.126  1.00  0.00    -0.014 A 
ATOM     11  C   UNL     1       1.309 -59.249 -33.989  1.00  0.00     0.013 A 
ATOM     12  C   UNL     1       1.384 -60.613 -33.732  1.00  0.00     0.051 A 
ATOM     13  C   UNL     1       0.221 -61.385 -33.699  1.00  0.00     0.158 A 
ATOM     14  C   UNL     1      -1.038 -60.775 -33.856  1.00  0.00     0.166 A 
ENDROOT
BRANCH  14  15
ATOM     15  O   UNL     1      -2.160 -61.584 -34.045  1.00  0.00    -0.504 OA
ATOM     16  H   UNL     1      -2.895 -61.353 -34.703  1.00  0.00     0.293 HD
ENDBRANCH  14  15
BRANCH   5  17
ATOM     17  O   UNL     1      -6.010 -56.514 -34.319  1.00  0.00    -0.508 OA
ATOM     18  H   UNL     1      -6.327 -55.821 -33.652  1.00  0.00     0.293 HD
ENDBRANCH   5  17
BRANCH   7  19
ATOM     19  O   UNL     1      -3.580 -60.258 -32.505  1.00  0.00    -0.507 OA
ATOM     20  H   UNL     1      -2.963 -61.046 -32.666  1.00  0.00     0.293 HD
ENDBRANCH   7  19
BRANCH  13  21
ATOM     21  O   UNL     1       0.312 -62.766 -33.537  1.00  0.00    -0.504 OA
ATOM     22  H   UNL     1       1.072 -63.194 -33.021  1.00  0.00     0.293 HD
ENDBRANCH  13  21
TORSDOF 4
ENDMDL
MODEL 6
REMARK VINA RESULT:    -6.592      1.958      4.577
REMARK INTER + INTRA:          -7.363
REMARK INTER:                  -7.363
REMARK INTRA:                   0.000
REMARK UNBOUND:                 0.000
REMARK SMILES Oc1cc(O)c2c(ccc3ccc(O)c(O)c32)c1
REMARK SMILES IDX 9 1 8 2 7 3 18 4 2 5 3 6 4 7 6 8 17 9 10 10 11 11 12 12
REMARK SMILES IDX 13 13 15 14 16 15 1 17 5 19 14 21
REMARK H PARENT 16 16 1 18 5 20 14 22
REMARK Flexibility Score: inf
ROOT
ATOM      1  C   UNL     1       4.695 -55.526 -31.689  1.00  0.00     0.009 A 
ATOM      2  C   UNL     1       5.763 -55.002 -32.407  1.00  0.00     0.009 A 
ATOM      3  C   UNL     1       7.060 -55.054 -31.886  1.00  0.00    -0.010 A 
ATOM      4  C   UNL     1       8.130 -54.586 -32.665  1.00  0.00     0.055 A 
ATOM      5  C   UNL     1       9.442 -54.746 -32.229  1.00  0.00     0.119 A 
ATOM      6  C   UNL     1       9.698 -55.430 -31.040  1.00  0.00     0.093 A 
ATOM      7  C   UNL     1       8.645 -55.927 -30.259  1.00  0.00     0.127 A 
ATOM      8  C   UNL     1       7.297 -55.621 -30.601  1.00  0.00     0.035 A 
ATOM      9  C   UNL     1       6.169 -55.939 -29.776  1.00  0.00     0.039 A 
ATOM     10  C   UNL     1       4.880 -55.984 -30.380  1.00  0.00    -0.014 A 
ATOM     11  C   UNL     1       3.773 -56.446 -29.655  1.00  0.00     0.013 A 
ATOM     12  C   UNL     1       3.904 -56.793 -28.315  1.00  0.00     0.051 A 
ATOM     13  C   UNL     1       5.120 -56.598 -27.657  1.00  0.00     0.158 A 
ATOM     14  C   UNL     1       6.238 -56.115 -28.363  1.00  0.00     0.166 A 
ENDROOT
BRANCH  14  15
ATOM     15  O   UNL     1       7.367 -55.715 -27.647  1.00  0.00    -0.504 OA
ATOM     16  H   UNL     1       8.249 -56.212 -27.695  1.00  0.00     0.293 HD
ENDBRANCH  14  15
BRANCH   5  17
ATOM     17  O   UNL     1      10.490 -54.253 -33.006  1.00  0.00    -0.508 OA
ATOM     18  H   UNL     1      11.275 -53.768 -32.589  1.00  0.00     0.293 HD
ENDBRANCH   5  17
BRANCH   7  19
ATOM     19  O   UNL     1       8.951 -56.800 -29.217  1.00  0.00    -0.507 OA
ATOM     20  H   UNL     1       9.837 -56.762 -28.726  1.00  0.00     0.293 HD
ENDBRANCH   7  19
BRANCH  13  21
ATOM     21  O   UNL     1       5.217 -56.856 -26.291  1.00  0.00    -0.504 OA
ATOM     22  H   UNL     1       5.039 -56.138 -25.598  1.00  0.00     0.293 HD
ENDBRANCH  13  21
TORSDOF 4
ENDMDL
MODEL 7
REMARK VINA RESULT:    -6.572      9.978     10.917
REMARK INTER + INTRA:          -7.341
REMARK INTER:                  -7.341
REMARK INTRA:                   0.000
REMARK UNBOUND:                 0.000
REMARK SMILES Oc1cc(O)c2c(ccc3ccc(O)c(O)c32)c1
REMARK SMILES IDX 9 1 8 2 7 3 18 4 2 5 3 6 4 7 6 8 17 9 10 10 11 11 12 12
REMARK SMILES IDX 13 13 15 14 16 15 1 17 5 19 14 21
REMARK H PARENT 16 16 1 18 5 20 14 22
REMARK Flexibility Score: inf
ROOT
ATOM      1  C   UNL     1      -2.254 -55.009 -33.008  1.00  0.00     0.009 A 
ATOM      2  C   UNL     1      -1.521 -54.061 -33.714  1.00  0.00     0.009 A 
ATOM      3  C   UNL     1      -0.804 -54.428 -34.857  1.00  0.00    -0.010 A 
ATOM      4  C   UNL     1      -0.135 -53.436 -35.592  1.00  0.00     0.055 A 
ATOM      5  C   UNL     1       0.474 -53.748 -36.804  1.00  0.00     0.119 A 
ATOM      6  C   UNL     1       0.366 -55.039 -37.320  1.00  0.00     0.093 A 
ATOM      7  C   UNL     1      -0.319 -56.039 -36.614  1.00  0.00     0.127 A 
ATOM      8  C   UNL     1      -0.796 -55.782 -35.297  1.00  0.00     0.035 A 
ATOM      9  C   UNL     1      -1.354 -56.783 -34.437  1.00  0.00     0.039 A 
ATOM     10  C   UNL     1      -2.172 -56.363 -33.350  1.00  0.00    -0.014 A 
ATOM     11  C   UNL     1      -2.869 -57.305 -32.581  1.00  0.00     0.013 A 
ATOM     12  C   UNL     1      -2.710 -58.665 -32.821  1.00  0.00     0.051 A 
ATOM     13  C   UNL     1      -1.786 -59.106 -33.771  1.00  0.00     0.158 A 
ATOM     14  C   UNL     1      -1.061 -58.174 -34.538  1.00  0.00     0.166 A 
ENDROOT
BRANCH  14  15
ATOM     15  O   UNL     1       0.010 -58.626 -35.311  1.00  0.00    -0.504 OA
ATOM     16  H   UNL     1       0.674 -57.997 -35.746  1.00  0.00     0.293 HD
ENDBRANCH  14  15
BRANCH   5  17
ATOM     17  O   UNL     1       1.154 -52.755 -37.507  1.00  0.00    -0.508 OA
ATOM     18  H   UNL     1       1.789 -52.117 -37.043  1.00  0.00     0.293 HD
ENDBRANCH   5  17
BRANCH   7  19
ATOM     19  O   UNL     1      -0.603 -57.235 -37.270  1.00  0.00    -0.507 OA
ATOM     20  H   UNL     1      -1.552 -57.569 -37.391  1.00  0.00     0.293 HD
ENDBRANCH   7  19
BRANCH  13  21
ATOM     21  O   UNL     1      -1.563 -60.471 -33.937  1.00  0.00    -0.504 OA
ATOM     22  H   UNL     1      -2.030 -61.162 -33.361  1.00  0.00     0.293 HD
ENDBRANCH  13  21
TORSDOF 4
ENDMDL
MODEL 8
REMARK VINA RESULT:    -6.420      9.862     10.868
REMARK INTER + INTRA:          -7.170
REMARK INTER:                  -7.170
REMARK INTRA:                   0.000
REMARK UNBOUND:                 0.000
REMARK SMILES Oc1cc(O)c2c(ccc3ccc(O)c(O)c32)c1
REMARK SMILES IDX 9 1 8 2 7 3 18 4 2 5 3 6 4 7 6 8 17 9 10 10 11 11 12 12
REMARK SMILES IDX 13 13 15 14 16 15 1 17 5 19 14 21
REMARK H PARENT 16 16 1 18 5 20 14 22
REMARK Flexibility Score: inf
ROOT
ATOM      1  C   UNL     1      -3.210 -57.602 -32.742  1.00  0.00     0.009 A 
ATOM      2  C   UNL     1      -3.269 -58.990 -32.697  1.00  0.00     0.009 A 
ATOM      3  C   UNL     1      -2.302 -59.761 -33.350  1.00  0.00    -0.010 A 
ATOM      4  C   UNL     1      -2.343 -61.159 -33.226  1.00  0.00     0.055 A 
ATOM      5  C   UNL     1      -1.321 -61.944 -33.752  1.00  0.00     0.119 A 
ATOM      6  C   UNL     1      -0.220 -61.333 -34.352  1.00  0.00     0.093 A 
ATOM      7  C   UNL     1      -0.147 -59.938 -34.465  1.00  0.00     0.127 A 
ATOM      8  C   UNL     1      -1.260 -59.133 -34.090  1.00  0.00     0.035 A 
ATOM      9  C   UNL     1      -1.344 -57.721 -34.325  1.00  0.00     0.039 A 
ATOM     10  C   UNL     1      -2.267 -56.960 -33.552  1.00  0.00    -0.014 A 
ATOM     11  C   UNL     1      -2.273 -55.561 -33.630  1.00  0.00     0.013 A 
ATOM     12  C   UNL     1      -1.430 -54.903 -34.518  1.00  0.00     0.051 A 
ATOM     13  C   UNL     1      -0.636 -55.634 -35.405  1.00  0.00     0.158 A 
ATOM     14  C   UNL     1      -0.633 -57.041 -35.356  1.00  0.00     0.166 A 
ENDROOT
BRANCH  14  15
ATOM     15  O   UNL     1      -0.016 -57.750 -36.388  1.00  0.00    -0.504 OA
ATOM     16  H   UNL     1       0.974 -57.964 -36.388  1.00  0.00     0.293 HD
ENDBRANCH  14  15
BRANCH   5  17
ATOM     17  O   UNL     1      -1.392 -63.331 -33.639  1.00  0.00    -0.508 OA
ATOM     18  H   UNL     1      -2.102 -63.867 -34.123  1.00  0.00     0.293 HD
ENDBRANCH   5  17
BRANCH   7  19
ATOM     19  O   UNL     1       1.065 -59.368 -34.852  1.00  0.00    -0.507 OA
ATOM     20  H   UNL     1       1.911 -59.918 -34.944  1.00  0.00     0.293 HD
ENDBRANCH   7  19
BRANCH  13  21
ATOM     21  O   UNL     1       0.132 -54.967 -36.356  1.00  0.00    -0.504 OA
ATOM     22  H   UNL     1       0.568 -54.073 -36.160  1.00  0.00     0.293 HD
ENDBRANCH  13  21
TORSDOF 4
ENDMDL
MODEL 9
REMARK VINA RESULT:    -6.415      2.317      4.584
REMARK INTER + INTRA:          -7.165
REMARK INTER:                  -7.165
REMARK INTRA:                   0.000
REMARK UNBOUND:                 0.000
REMARK SMILES Oc1cc(O)c2c(ccc3ccc(O)c(O)c32)c1
REMARK SMILES IDX 9 1 8 2 7 3 18 4 2 5 3 6 4 7 6 8 17 9 10 10 11 11 12 12
REMARK SMILES IDX 13 13 15 14 16 15 1 17 5 19 14 21
REMARK H PARENT 16 16 1 18 5 20 14 22
REMARK Flexibility Score: inf
ROOT
ATOM      1  C   UNL     1       4.804 -56.021 -29.469  1.00  0.00     0.009 A 
ATOM      2  C   UNL     1       5.110 -56.732 -28.315  1.00  0.00     0.009 A 
ATOM      3  C   UNL     1       6.443 -56.968 -27.962  1.00  0.00    -0.010 A 
ATOM      4  C   UNL     1       6.724 -57.624 -26.754  1.00  0.00     0.055 A 
ATOM      5  C   UNL     1       8.037 -57.755 -26.312  1.00  0.00     0.119 A 
ATOM      6  C   UNL     1       9.074 -57.178 -27.046  1.00  0.00     0.093 A 
ATOM      7  C   UNL     1       8.813 -56.498 -28.244  1.00  0.00     0.127 A 
ATOM      8  C   UNL     1       7.500 -56.505 -28.796  1.00  0.00     0.035 A 
ATOM      9  C   UNL     1       7.173 -55.985 -30.091  1.00  0.00     0.039 A 
ATOM     10  C   UNL     1       5.815 -55.653 -30.363  1.00  0.00    -0.014 A 
ATOM     11  C   UNL     1       5.471 -54.994 -31.551  1.00  0.00     0.013 A 
ATOM     12  C   UNL     1       6.439 -54.727 -32.513  1.00  0.00     0.051 A 
ATOM     13  C   UNL     1       7.744 -55.192 -32.342  1.00  0.00     0.158 A 
ATOM     14  C   UNL     1       8.104 -55.874 -31.164  1.00  0.00     0.166 A 
ENDROOT
BRANCH  14  15
ATOM     15  O   UNL     1       9.338 -56.523 -31.111  1.00  0.00    -0.504 OA
ATOM     16  H   UNL     1      10.219 -56.025 -31.132  1.00  0.00     0.293 HD
ENDBRANCH  14  15
BRANCH   5  17
ATOM     17  O   UNL     1       8.299 -58.430 -25.121  1.00  0.00    -0.508 OA
ATOM     18  H   UNL     1       8.089 -58.017 -24.221  1.00  0.00     0.293 HD
ENDBRANCH   5  17
BRANCH   7  19
ATOM     19  O   UNL     1       9.837 -55.742 -28.812  1.00  0.00    -0.507 OA
ATOM     20  H   UNL     1      10.471 -56.129 -29.502  1.00  0.00     0.293 HD
ENDBRANCH   7  19
BRANCH  13  21
ATOM     21  O   UNL     1       8.684 -55.003 -33.353  1.00  0.00    -0.504 OA
ATOM     22  H   UNL     1       9.340 -55.731 -33.614  1.00  0.00     0.293 HD
ENDBRANCH  13  21
TORSDOF 4
ENDMDL
