MODEL 1
REMARK VINA RESULT:    -3.843      0.000      0.000
REMARK INTER + INTRA:          -8.209
REMARK INTER:                  -6.988
REMARK INTRA:                  -1.220
REMARK UNBOUND:                -1.220
REMARK SMILES CCCCCCCCCCCCCCCC(=O)[O-]
REMARK SMILES IDX 9 1 10 2 11 3 12 4 13 5 14 6 15 7 16 8 17 9 18 10 8 11 7 12
REMARK SMILES IDX 6 13 5 14 4 15 3 16 2 17 1 18
REMARK H PARENT
REMARK Flexibility Score: inf
ROOT
ATOM      1  C   UNL     1       2.372  14.359  17.886  1.00  0.00     0.000 C 
ENDROOT
BRANCH   1   2
ATOM      2  C   UNL     1       2.741  13.141  18.748  1.00  0.00     0.000 C 
BRANCH   2   3
ATOM      3  C   UNL     1       3.683  12.163  18.023  1.00  0.00     0.000 C 
BRANCH   3   4
ATOM      4  C   UNL     1       5.154  12.360  18.424  1.00  0.00     0.000 C 
BRANCH   4   5
ATOM      5  C   UNL     1       6.071  12.580  17.208  1.00  0.00     0.000 C 
BRANCH   5   6
ATOM      6  C   UNL     1       5.381  13.374  16.086  1.00  0.00     0.006 C 
BRANCH   6   7
ATOM      7  C   UNL     1       5.405  12.637  14.740  1.00  0.00     0.053 C 
BRANCH   7   8
ATOM      8  C   UNL     1       4.026  12.552  14.166  1.00  0.00     0.041 C 
ATOM      9  O   UNL     1       3.114  13.306  14.595  1.00  0.00    -0.550 OA
ATOM     10  O   UNL     1       3.735  11.607  13.189  1.00  0.00    -0.550 OA
ENDBRANCH   7   8
ENDBRANCH   6   7
ENDBRANCH   5   6
ENDBRANCH   4   5
ENDBRANCH   3   4
ENDBRANCH   2   3
ENDBRANCH   1   2
BRANCH   1  11
ATOM     11  C   UNL     1       1.641  15.453  18.686  1.00  0.00     0.000 C 
BRANCH  11  12
ATOM     12  C   UNL     1       0.436  16.031  17.924  1.00  0.00    -0.000 C 
BRANCH  12  13
ATOM     13  C   UNL     1      -0.864  15.969  18.738  1.00  0.00    -0.000 C 
BRANCH  13  14
ATOM     14  C   UNL     1      -1.631  17.295  18.649  1.00  0.00    -0.000 C 
BRANCH  14  15
ATOM     15  C   UNL     1      -1.458  18.174  19.900  1.00  0.00    -0.000 C 
BRANCH  15  16
ATOM     16  C   UNL     1      -0.325  19.214  19.773  1.00  0.00    -0.000 C 
BRANCH  16  17
ATOM     17  C   UNL     1      -0.178  19.741  18.337  1.00  0.00    -0.003 C 
ATOM     18  C   UNL     1       1.291  19.843  17.936  1.00  0.00     0.004 C 
ENDBRANCH  16  17
ENDBRANCH  15  16
ENDBRANCH  14  15
ENDBRANCH  13  14
ENDBRANCH  12  13
ENDBRANCH  11  12
ENDBRANCH   1  11
TORSDOF 14
ENDMDL
MODEL 2
REMARK VINA RESULT:    -3.742      0.846      1.649
REMARK INTER + INTRA:          -8.024
REMARK INTER:                  -7.038
REMARK INTRA:                  -0.987
REMARK UNBOUND:                -1.220
REMARK SMILES CCCCCCCCCCCCCCCC(=O)[O-]
REMARK SMILES IDX 9 1 10 2 11 3 12 4 13 5 14 6 15 7 16 8 17 9 18 10 8 11 7 12
REMARK SMILES IDX 6 13 5 14 4 15 3 16 2 17 1 18
REMARK H PARENT
REMARK Flexibility Score: inf
ROOT
ATOM      1  C   UNL     1       1.552  15.822  18.514  1.00  0.00     0.000 C 
ENDROOT
BRANCH   1   2
ATOM      2  C   UNL     1       2.248  14.574  17.947  1.00  0.00     0.000 C 
BRANCH   2   3
ATOM      3  C   UNL     1       2.423  13.463  18.997  1.00  0.00     0.000 C 
BRANCH   3   4
ATOM      4  C   UNL     1       3.646  12.575  18.713  1.00  0.00     0.000 C 
BRANCH   4   5
ATOM      5  C   UNL     1       3.645  12.012  17.281  1.00  0.00     0.000 C 
BRANCH   5   6
ATOM      6  C   UNL     1       4.669  12.711  16.372  1.00  0.00     0.006 C 
BRANCH   6   7
ATOM      7  C   UNL     1       4.669  12.151  14.943  1.00  0.00     0.053 C 
BRANCH   7   8
ATOM      8  C   UNL     1       3.426  12.567  14.219  1.00  0.00     0.041 C 
ATOM      9  O   UNL     1       3.041  11.929  13.205  1.00  0.00    -0.550 OA
ATOM     10  O   UNL     1       2.719  13.687  14.638  1.00  0.00    -0.550 OA
ENDBRANCH   7   8
ENDBRANCH   6   7
ENDBRANCH   5   6
ENDBRANCH   4   5
ENDBRANCH   3   4
ENDBRANCH   2   3
ENDBRANCH   1   2
BRANCH   1  11
ATOM     11  C   UNL     1       0.133  16.016  17.950  1.00  0.00     0.000 C 
BRANCH  11  12
ATOM     12  C   UNL     1      -0.951  15.893  19.034  1.00  0.00    -0.000 C 
BRANCH  12  13
ATOM     13  C   UNL     1      -1.888  17.109  19.077  1.00  0.00    -0.000 C 
BRANCH  13  14
ATOM     14  C   UNL     1      -1.872  17.766  20.464  1.00  0.00    -0.000 C 
BRANCH  14  15
ATOM     15  C   UNL     1      -1.636  19.285  20.407  1.00  0.00    -0.000 C 
BRANCH  15  16
ATOM     16  C   UNL     1      -1.005  19.763  19.081  1.00  0.00    -0.000 C 
BRANCH  16  17
ATOM     17  C   UNL     1       0.504  20.018  19.214  1.00  0.00    -0.003 C 
ATOM     18  C   UNL     1       1.228  19.737  17.900  1.00  0.00     0.004 C 
ENDBRANCH  16  17
ENDBRANCH  15  16
ENDBRANCH  14  15
ENDBRANCH  13  14
ENDBRANCH  12  13
ENDBRANCH  11  12
ENDBRANCH   1  11
TORSDOF 14
ENDMDL
MODEL 3
REMARK VINA RESULT:    -3.716      2.967      7.805
REMARK INTER + INTRA:          -7.978
REMARK INTER:                  -6.928
REMARK INTRA:                  -1.050
REMARK UNBOUND:                -1.220
REMARK SMILES CCCCCCCCCCCCCCCC(=O)[O-]
REMARK SMILES IDX 9 1 10 2 11 3 12 4 13 5 14 6 15 7 16 8 17 9 18 10 8 11 7 12
REMARK SMILES IDX 6 13 5 14 4 15 3 16 2 17 1 18
REMARK H PARENT
REMARK Flexibility Score: inf
ROOT
ATOM      1  C   UNL     1       1.510  15.791  18.452  1.00  0.00     0.000 C 
ENDROOT
BRANCH   1   2
ATOM      2  C   UNL     1       0.079  16.044  17.951  1.00  0.00     0.000 C 
BRANCH   2   3
ATOM      3  C   UNL     1      -0.962  16.012  19.084  1.00  0.00     0.000 C 
BRANCH   3   4
ATOM      4  C   UNL     1      -1.794  17.304  19.154  1.00  0.00     0.000 C 
BRANCH   4   5
ATOM      5  C   UNL     1      -1.301  18.262  20.252  1.00  0.00     0.000 C 
BRANCH   5   6
ATOM      6  C   UNL     1      -0.953  19.656  19.706  1.00  0.00     0.006 C 
BRANCH   6   7
ATOM      7  C   UNL     1      -0.953  19.707  18.171  1.00  0.00     0.053 C 
BRANCH   7   8
ATOM      8  C   UNL     1       0.442  19.866  17.653  1.00  0.00     0.041 C 
ATOM      9  O   UNL     1       0.640  20.125  16.437  1.00  0.00    -0.550 OA
ATOM     10  O   UNL     1       1.525  19.681  18.504  1.00  0.00    -0.550 OA
ENDBRANCH   7   8
ENDBRANCH   6   7
ENDBRANCH   5   6
ENDBRANCH   4   5
ENDBRANCH   3   4
ENDBRANCH   2   3
ENDBRANCH   1   2
BRANCH   1  11
ATOM     11  C   UNL     1       2.108  14.483  17.902  1.00  0.00     0.000 C 
BRANCH  11  12
ATOM     12  C   UNL     1       2.732  13.613  19.007  1.00  0.00    -0.000 C 
BRANCH  12  13
ATOM     13  C   UNL     1       3.122  12.214  18.510  1.00  0.00    -0.000 C 
BRANCH  13  14
ATOM     14  C   UNL     1       3.472  12.241  17.015  1.00  0.00    -0.000 C 
BRANCH  14  15
ATOM     15  C   UNL     1       4.947  12.590  16.750  1.00  0.00    -0.000 C 
BRANCH  15  16
ATOM     16  C   UNL     1       5.271  12.811  15.257  1.00  0.00    -0.000 C 
BRANCH  16  17
ATOM     17  C   UNL     1       4.003  12.978  14.405  1.00  0.00    -0.003 C 
ATOM     18  C   UNL     1       3.795  11.778  13.485  1.00  0.00     0.004 C 
ENDBRANCH  16  17
ENDBRANCH  15  16
ENDBRANCH  14  15
ENDBRANCH  13  14
ENDBRANCH  12  13
ENDBRANCH  11  12
ENDBRANCH   1  11
TORSDOF 14
ENDMDL
MODEL 4
REMARK VINA RESULT:    -3.705      2.878      7.848
REMARK INTER + INTRA:          -7.957
REMARK INTER:                  -6.661
REMARK INTRA:                  -1.296
REMARK UNBOUND:                -1.220
REMARK SMILES CCCCCCCCCCCCCCCC(=O)[O-]
REMARK SMILES IDX 9 1 10 2 11 3 12 4 13 5 14 6 15 7 16 8 17 9 18 10 8 11 7 12
REMARK SMILES IDX 6 13 5 14 4 15 3 16 2 17 1 18
REMARK H PARENT
REMARK Flexibility Score: inf
ROOT
ATOM      1  C   UNL     1       2.392  14.285  17.914  1.00  0.00     0.000 C 
ENDROOT
BRANCH   1   2
ATOM      2  C   UNL     1       1.643  15.352  18.728  1.00  0.00     0.000 C 
BRANCH   2   3
ATOM      3  C   UNL     1       0.475  15.983  17.949  1.00  0.00     0.000 C 
BRANCH   3   4
ATOM      4  C   UNL     1      -0.812  16.064  18.786  1.00  0.00     0.000 C 
BRANCH   4   5
ATOM      5  C   UNL     1      -1.508  17.431  18.664  1.00  0.00     0.000 C 
BRANCH   5   6
ATOM      6  C   UNL     1      -1.132  18.389  19.807  1.00  0.00     0.006 C 
BRANCH   6   7
ATOM      7  C   UNL     1      -0.769  19.794  19.306  1.00  0.00     0.053 C 
BRANCH   7   8
ATOM      8  C   UNL     1       0.243  19.711  18.207  1.00  0.00     0.041 C 
ATOM      9  O   UNL     1       1.411  19.308  18.450  1.00  0.00    -0.550 OA
ATOM     10  O   UNL     1      -0.089  20.125  16.922  1.00  0.00    -0.550 OA
ENDBRANCH   7   8
ENDBRANCH   6   7
ENDBRANCH   5   6
ENDBRANCH   4   5
ENDBRANCH   3   4
ENDBRANCH   2   3
ENDBRANCH   1   2
BRANCH   1  11
ATOM     11  C   UNL     1       2.747  13.042  18.750  1.00  0.00     0.000 C 
BRANCH  11  12
ATOM     12  C   UNL     1       3.802  12.157  18.066  1.00  0.00    -0.000 C 
BRANCH  12  13
ATOM     13  C   UNL     1       5.239  12.609  18.365  1.00  0.00    -0.000 C 
BRANCH  13  14
ATOM     14  C   UNL     1       6.094  12.600  17.090  1.00  0.00    -0.000 C 
BRANCH  14  15
ATOM     15  C   UNL     1       5.475  13.423  15.947  1.00  0.00    -0.000 C 
BRANCH  15  16
ATOM     16  C   UNL     1       5.546  12.723  14.573  1.00  0.00    -0.000 C 
BRANCH  16  17
ATOM     17  C   UNL     1       4.247  11.977  14.233  1.00  0.00    -0.003 C 
ATOM     18  C   UNL     1       3.024  12.856  14.484  1.00  0.00     0.004 C 
ENDBRANCH  16  17
ENDBRANCH  15  16
ENDBRANCH  14  15
ENDBRANCH  13  14
ENDBRANCH  12  13
ENDBRANCH  11  12
ENDBRANCH   1  11
TORSDOF 14
ENDMDL
MODEL 5
REMARK VINA RESULT:    -3.597      3.227      7.569
REMARK INTER + INTRA:          -7.760
REMARK INTER:                  -6.413
REMARK INTRA:                  -1.347
REMARK UNBOUND:                -1.220
REMARK SMILES CCCCCCCCCCCCCCCC(=O)[O-]
REMARK SMILES IDX 9 1 10 2 11 3 12 4 13 5 14 6 15 7 16 8 17 9 18 10 8 11 7 12
REMARK SMILES IDX 6 13 5 14 4 15 3 16 2 17 1 18
REMARK H PARENT
REMARK Flexibility Score: inf
ROOT
ATOM      1  C   UNL     1       3.899  11.398  19.041  1.00  0.00     0.000 C 
ENDROOT
BRANCH   1   2
ATOM      2  C   UNL     1       2.771  12.219  18.396  1.00  0.00     0.000 C 
BRANCH   2   3
ATOM      3  C   UNL     1       2.753  13.682  18.873  1.00  0.00     0.000 C 
BRANCH   3   4
ATOM      4  C   UNL     1       2.023  14.611  17.888  1.00  0.00     0.000 C 
BRANCH   4   5
ATOM      5  C   UNL     1       1.395  15.830  18.586  1.00  0.00     0.000 C 
BRANCH   5   6
ATOM      6  C   UNL     1       0.066  16.258  17.942  1.00  0.00     0.006 C 
BRANCH   6   7
ATOM      7  C   UNL     1      -1.046  16.482  18.976  1.00  0.00     0.053 C 
BRANCH   7   8
ATOM      8  C   UNL     1      -1.050  17.905  19.440  1.00  0.00     0.041 C 
ATOM      9  O   UNL     1      -0.384  18.775  18.820  1.00  0.00    -0.550 OA
ATOM     10  O   UNL     1      -1.752  18.261  20.585  1.00  0.00    -0.550 OA
ENDBRANCH   7   8
ENDBRANCH   6   7
ENDBRANCH   5   6
ENDBRANCH   4   5
ENDBRANCH   3   4
ENDBRANCH   2   3
ENDBRANCH   1   2
BRANCH   1  11
ATOM     11  C   UNL     1       5.078  12.273  19.504  1.00  0.00     0.000 C 
BRANCH  11  12
ATOM     12  C   UNL     1       6.248  12.256  18.506  1.00  0.00    -0.000 C 
BRANCH  12  13
ATOM     13  C   UNL     1       6.037  13.219  17.329  1.00  0.00    -0.000 C 
BRANCH  13  14
ATOM     14  C   UNL     1       6.497  12.582  16.010  1.00  0.00    -0.000 C 
BRANCH  14  15
ATOM     15  C   UNL     1       5.622  12.986  14.811  1.00  0.00    -0.000 C 
BRANCH  15  16
ATOM     16  C   UNL     1       4.154  13.279  15.189  1.00  0.00    -0.000 C 
BRANCH  16  17
ATOM     17  C   UNL     1       3.162  12.490  14.321  1.00  0.00    -0.003 C 
ATOM     18  C   UNL     1       3.892  11.555  13.361  1.00  0.00     0.004 C 
ENDBRANCH  16  17
ENDBRANCH  15  16
ENDBRANCH  14  15
ENDBRANCH  13  14
ENDBRANCH  12  13
ENDBRANCH  11  12
ENDBRANCH   1  11
TORSDOF 14
ENDMDL
MODEL 6
REMARK VINA RESULT:    -3.401      3.438      7.592
REMARK INTER + INTRA:          -7.404
REMARK INTER:                  -6.406
REMARK INTRA:                  -0.998
REMARK UNBOUND:                -1.220
REMARK SMILES CCCCCCCCCCCCCCCC(=O)[O-]
REMARK SMILES IDX 9 1 10 2 11 3 12 4 13 5 14 6 15 7 16 8 17 9 18 10 8 11 7 12
REMARK SMILES IDX 6 13 5 14 4 15 3 16 2 17 1 18
REMARK H PARENT
REMARK Flexibility Score: inf
ROOT
ATOM      1  C   UNL     1       3.237  12.245  14.876  1.00  0.00     0.000 C 
ENDROOT
BRANCH   1   2
ATOM      2  C   UNL     1       2.856  13.722  15.069  1.00  0.00     0.000 C 
BRANCH   2   3
ATOM      3  C   UNL     1       2.679  14.101  16.550  1.00  0.00     0.000 C 
BRANCH   3   4
ATOM      4  C   UNL     1       1.671  15.246  16.746  1.00  0.00     0.000 C 
BRANCH   4   5
ATOM      5  C   UNL     1       1.228  15.395  18.212  1.00  0.00     0.000 C 
BRANCH   5   6
ATOM      6  C   UNL     1       0.040  16.357  18.375  1.00  0.00     0.006 C 
BRANCH   6   7
ATOM      7  C   UNL     1       0.481  17.817  18.550  1.00  0.00     0.053 C 
BRANCH   7   8
ATOM      8  C   UNL     1      -0.556  18.589  19.303  1.00  0.00     0.041 C 
ATOM      9  O   UNL     1      -1.141  18.069  20.289  1.00  0.00    -0.550 OA
ATOM     10  O   UNL     1      -0.910  19.867  18.887  1.00  0.00    -0.550 OA
ENDBRANCH   7   8
ENDBRANCH   6   7
ENDBRANCH   5   6
ENDBRANCH   4   5
ENDBRANCH   3   4
ENDBRANCH   2   3
ENDBRANCH   1   2
BRANCH   1  11
ATOM     11  C   UNL     1       4.627  12.071  14.237  1.00  0.00     0.000 C 
BRANCH  11  12
ATOM     12  C   UNL     1       5.621  13.155  14.688  1.00  0.00    -0.000 C 
BRANCH  12  13
ATOM     13  C   UNL     1       6.489  12.708  15.873  1.00  0.00    -0.000 C 
BRANCH  13  14
ATOM     14  C   UNL     1       5.875  13.162  17.204  1.00  0.00    -0.000 C 
BRANCH  14  15
ATOM     15  C   UNL     1       6.289  12.273  18.390  1.00  0.00    -0.000 C 
BRANCH  15  16
ATOM     16  C   UNL     1       5.256  12.252  19.537  1.00  0.00    -0.000 C 
BRANCH  16  17
ATOM     17  C   UNL     1       3.824  12.489  19.034  1.00  0.00    -0.003 C 
ATOM     18  C   UNL     1       3.162  11.178  18.618  1.00  0.00     0.004 C 
ENDBRANCH  16  17
ENDBRANCH  15  16
ENDBRANCH  14  15
ENDBRANCH  13  14
ENDBRANCH  12  13
ENDBRANCH  11  12
ENDBRANCH   1  11
TORSDOF 14
ENDMDL
MODEL 7
REMARK VINA RESULT:    -3.334      1.476      2.682
REMARK INTER + INTRA:          -7.283
REMARK INTER:                  -6.803
REMARK INTRA:                  -0.480
REMARK UNBOUND:                -1.220
REMARK SMILES CCCCCCCCCCCCCCCC(=O)[O-]
REMARK SMILES IDX 9 1 10 2 11 3 12 4 13 5 14 6 15 7 16 8 17 9 18 10 8 11 7 12
REMARK SMILES IDX 6 13 5 14 4 15 3 16 2 17 1 18
REMARK H PARENT
REMARK Flexibility Score: inf
ROOT
ATOM      1  C   UNL     1       2.010  15.059  18.108  1.00  0.00     0.000 C 
ENDROOT
BRANCH   1   2
ATOM      2  C   UNL     1       2.109  13.866  19.072  1.00  0.00     0.000 C 
BRANCH   2   3
ATOM      3  C   UNL     1       3.477  13.163  19.008  1.00  0.00     0.000 C 
BRANCH   3   4
ATOM      4  C   UNL     1       3.421  11.840  18.227  1.00  0.00     0.000 C 
BRANCH   4   5
ATOM      5  C   UNL     1       3.684  12.033  16.723  1.00  0.00     0.000 C 
BRANCH   5   6
ATOM      6  C   UNL     1       5.002  12.775  16.446  1.00  0.00     0.006 C 
BRANCH   6   7
ATOM      7  C   UNL     1       5.299  12.911  14.946  1.00  0.00     0.053 C 
BRANCH   7   8
ATOM      8  C   UNL     1       4.178  12.337  14.137  1.00  0.00     0.041 C 
ATOM      9  O   UNL     1       3.078  12.944  14.058  1.00  0.00    -0.550 OA
ATOM     10  O   UNL     1       4.332  11.107  13.509  1.00  0.00    -0.550 OA
ENDBRANCH   7   8
ENDBRANCH   6   7
ENDBRANCH   5   6
ENDBRANCH   4   5
ENDBRANCH   3   4
ENDBRANCH   2   3
ENDBRANCH   1   2
BRANCH   1  11
ATOM     11  C   UNL     1       0.588  15.643  18.031  1.00  0.00     0.000 C 
BRANCH  11  12
ATOM     12  C   UNL     1       0.542  17.131  18.417  1.00  0.00    -0.000 C 
BRANCH  12  13
ATOM     13  C   UNL     1      -0.890  17.650  18.607  1.00  0.00    -0.000 C 
BRANCH  13  14
ATOM     14  C   UNL     1      -0.989  18.543  19.852  1.00  0.00    -0.000 C 
BRANCH  14  15
ATOM     15  C   UNL     1      -1.526  17.796  21.085  1.00  0.00    -0.000 C 
BRANCH  15  16
ATOM     16  C   UNL     1      -2.125  16.411  20.757  1.00  0.00    -0.000 C 
BRANCH  16  17
ATOM     17  C   UNL     1      -2.116  15.471  21.972  1.00  0.00    -0.003 C 
ATOM     18  C   UNL     1      -1.771  14.042  21.560  1.00  0.00     0.004 C 
ENDBRANCH  16  17
ENDBRANCH  15  16
ENDBRANCH  14  15
ENDBRANCH  13  14
ENDBRANCH  12  13
ENDBRANCH  11  12
ENDBRANCH   1  11
TORSDOF 14
ENDMDL
MODEL 8
REMARK VINA RESULT:    -3.275      3.450      7.752
REMARK INTER + INTRA:          -7.176
REMARK INTER:                  -6.130
REMARK INTRA:                  -1.046
REMARK UNBOUND:                -1.220
REMARK SMILES CCCCCCCCCCCCCCCC(=O)[O-]
REMARK SMILES IDX 9 1 10 2 11 3 12 4 13 5 14 6 15 7 16 8 17 9 18 10 8 11 7 12
REMARK SMILES IDX 6 13 5 14 4 15 3 16 2 17 1 18
REMARK H PARENT
REMARK Flexibility Score: inf
ROOT
ATOM      1  C   UNL     1       2.363  13.228  14.890  1.00  0.00     0.000 C 
ENDROOT
BRANCH   1   2
ATOM      2  C   UNL     1       2.314  14.486  15.772  1.00  0.00     0.000 C 
BRANCH   2   3
ATOM      3  C   UNL     1       2.373  14.161  17.275  1.00  0.00     0.000 C 
BRANCH   3   4
ATOM      4  C   UNL     1       1.999  15.367  18.152  1.00  0.00     0.000 C 
BRANCH   4   5
ATOM      5  C   UNL     1       0.524  15.775  17.992  1.00  0.00     0.000 C 
BRANCH   5   6
ATOM      6  C   UNL     1       0.227  17.161  18.588  1.00  0.00     0.006 C 
BRANCH   6   7
ATOM      7  C   UNL     1      -1.243  17.325  18.998  1.00  0.00     0.053 C 
BRANCH   7   8
ATOM      8  C   UNL     1      -1.602  18.775  19.087  1.00  0.00     0.041 C 
ATOM      9  O   UNL     1      -1.629  19.486  18.049  1.00  0.00    -0.550 OA
ATOM     10  O   UNL     1      -1.861  19.353  20.325  1.00  0.00    -0.550 OA
ENDBRANCH   7   8
ENDBRANCH   6   7
ENDBRANCH   5   6
ENDBRANCH   4   5
ENDBRANCH   3   4
ENDBRANCH   2   3
ENDBRANCH   1   2
BRANCH   1  11
ATOM     11  C   UNL     1       3.642  13.152  14.036  1.00  0.00     0.000 C 
BRANCH  11  12
ATOM     12  C   UNL     1       4.702  12.221  14.647  1.00  0.00    -0.000 C 
BRANCH  12  13
ATOM     13  C   UNL     1       5.987  12.963  15.041  1.00  0.00    -0.000 C 
BRANCH  13  14
ATOM     14  C   UNL     1       6.152  13.003  16.567  1.00  0.00    -0.000 C 
BRANCH  14  15
ATOM     15  C   UNL     1       5.013  12.285  17.312  1.00  0.00    -0.000 C 
BRANCH  15  16
ATOM     16  C   UNL     1       5.043  12.500  18.841  1.00  0.00    -0.000 C 
BRANCH  16  17
ATOM     17  C   UNL     1       4.144  11.502  19.586  1.00  0.00    -0.003 C 
ATOM     18  C   UNL     1       2.919  11.134  18.752  1.00  0.00     0.004 C 
ENDBRANCH  16  17
ENDBRANCH  15  16
ENDBRANCH  14  15
ENDBRANCH  13  14
ENDBRANCH  12  13
ENDBRANCH  11  12
ENDBRANCH   1  11
TORSDOF 14
ENDMDL
