MODEL 1
REMARK VINA RESULT:    -5.436      0.000      0.000
REMARK INTER + INTRA:          -5.772
REMARK INTER:                  -5.754
REMARK INTRA:                  -0.019
REMARK UNBOUND:                -0.019
REMARK SMILES O=C([O-])c1cccnc1
REMARK SMILES IDX 4 1 5 2 9 3 6 4 8 5 7 6 2 7 1 8 3 9
REMARK H PARENT
REMARK Flexibility Score: inf
ROOT
ATOM      1  C   UNL     1      18.242  29.878  25.589  1.00  0.00     0.016 A 
ATOM      2  C   UNL     1      18.551  28.511  25.678  1.00  0.00     0.013 A 
ATOM      3  C   UNL     1      18.746  30.743  26.576  1.00  0.00     0.120 A 
ATOM      4  C   UNL     1      19.340  28.037  26.728  1.00  0.00     0.021 A 
ATOM      5  N   UNL     1      19.512  30.255  27.589  1.00  0.00    -0.264 NA
ATOM      6  C   UNL     1      19.816  28.934  27.684  1.00  0.00     0.111 A 
ENDROOT
BRANCH   1   7
ATOM      7  C   UNL     1      17.408  30.391  24.481  1.00  0.00     0.073 C 
ATOM      8  O   UNL     1      17.788  31.378  23.797  1.00  0.00    -0.545 OA
ATOM      9  O   UNL     1      16.191  29.791  24.179  1.00  0.00    -0.545 OA
ENDBRANCH   1   7
TORSDOF 1
ENDMDL
MODEL 2
REMARK VINA RESULT:    -5.375      0.911      1.601
REMARK INTER + INTRA:          -5.708
REMARK INTER:                  -5.689
REMARK INTRA:                  -0.019
REMARK UNBOUND:                -0.019
REMARK SMILES O=C([O-])c1cccnc1
REMARK SMILES IDX 4 1 5 2 9 3 6 4 8 5 7 6 2 7 1 8 3 9
REMARK H PARENT
REMARK Flexibility Score: inf
ROOT
ATOM      1  C   UNL     1      18.259  29.840  25.609  1.00  0.00     0.016 A 
ATOM      2  C   UNL     1      18.752  30.727  26.580  1.00  0.00     0.013 A 
ATOM      3  C   UNL     1      18.574  28.475  25.729  1.00  0.00     0.120 A 
ATOM      4  C   UNL     1      19.537  30.251  27.631  1.00  0.00     0.021 A 
ATOM      5  N   UNL     1      19.341  28.037  26.764  1.00  0.00    -0.264 NA
ATOM      6  C   UNL     1      19.824  28.887  27.707  1.00  0.00     0.111 A 
ENDROOT
BRANCH   1   7
ATOM      7  C   UNL     1      17.426  30.333  24.492  1.00  0.00     0.073 C 
ATOM      8  O   UNL     1      17.793  31.326  23.808  1.00  0.00    -0.545 OA
ATOM      9  O   UNL     1      16.223  29.709  24.180  1.00  0.00    -0.545 OA
ENDBRANCH   1   7
TORSDOF 1
ENDMDL
MODEL 3
REMARK VINA RESULT:    -4.687      2.661      3.923
REMARK INTER + INTRA:          -4.980
REMARK INTER:                  -4.959
REMARK INTRA:                  -0.021
REMARK UNBOUND:                -0.019
REMARK SMILES O=C([O-])c1cccnc1
REMARK SMILES IDX 4 1 5 2 9 3 6 4 8 5 7 6 2 7 1 8 3 9
REMARK H PARENT
REMARK Flexibility Score: inf
ROOT
ATOM      1  C   UNL     1      17.736  29.548  25.016  1.00  0.00     0.016 A 
ATOM      2  C   UNL     1      16.468  29.076  24.641  1.00  0.00     0.013 A 
ATOM      3  C   UNL     1      18.157  30.797  24.528  1.00  0.00     0.120 A 
ATOM      4  C   UNL     1      15.655  29.840  23.802  1.00  0.00     0.021 A 
ATOM      5  N   UNL     1      17.345  31.522  23.711  1.00  0.00    -0.264 NA
ATOM      6  C   UNL     1      16.117  31.074  23.342  1.00  0.00     0.111 A 
ENDROOT
BRANCH   1   7
ATOM      7  C   UNL     1      18.605  28.746  25.905  1.00  0.00     0.073 C 
ATOM      8  O   UNL     1      18.644  27.491  25.802  1.00  0.00    -0.545 OA
ATOM      9  O   UNL     1      19.389  29.367  26.871  1.00  0.00    -0.545 OA
ENDBRANCH   1   7
TORSDOF 1
ENDMDL
MODEL 4
REMARK VINA RESULT:    -4.626      3.153      4.008
REMARK INTER + INTRA:          -4.915
REMARK INTER:                  -4.899
REMARK INTRA:                  -0.016
REMARK UNBOUND:                -0.019
REMARK SMILES O=C([O-])c1cccnc1
REMARK SMILES IDX 4 1 5 2 9 3 6 4 8 5 7 6 2 7 1 8 3 9
REMARK H PARENT
REMARK Flexibility Score: inf
ROOT
ATOM      1  C   UNL     1      18.753  29.451  27.183  1.00  0.00     0.016 A 
ATOM      2  C   UNL     1      18.797  30.666  26.480  1.00  0.00     0.013 A 
ATOM      3  C   UNL     1      18.219  28.323  26.536  1.00  0.00     0.120 A 
ATOM      4  C   UNL     1      18.317  30.737  25.171  1.00  0.00     0.021 A 
ATOM      5  N   UNL     1      17.757  28.419  25.259  1.00  0.00    -0.264 NA
ATOM      6  C   UNL     1      17.795  29.590  24.571  1.00  0.00     0.111 A 
ENDROOT
BRANCH   1   7
ATOM      7  C   UNL     1      19.259  29.365  28.569  1.00  0.00     0.073 C 
ATOM      8  O   UNL     1      20.478  29.139  28.794  1.00  0.00    -0.545 OA
ATOM      9  O   UNL     1      18.396  29.529  29.647  1.00  0.00    -0.545 OA
ENDBRANCH   1   7
TORSDOF 1
ENDMDL
MODEL 5
REMARK VINA RESULT:    -4.594      3.066      3.703
REMARK INTER + INTRA:          -4.881
REMARK INTER:                  -4.865
REMARK INTRA:                  -0.016
REMARK UNBOUND:                -0.019
REMARK SMILES O=C([O-])c1cccnc1
REMARK SMILES IDX 4 1 5 2 9 3 6 4 8 5 7 6 2 7 1 8 3 9
REMARK H PARENT
REMARK Flexibility Score: inf
ROOT
ATOM      1  C   UNL     1      18.778  29.469  27.173  1.00  0.00     0.016 A 
ATOM      2  C   UNL     1      18.299  28.334  26.499  1.00  0.00     0.013 A 
ATOM      3  C   UNL     1      18.770  30.702  26.497  1.00  0.00     0.120 A 
ATOM      4  C   UNL     1      17.831  28.442  25.189  1.00  0.00     0.021 A 
ATOM      5  N   UNL     1      18.308  30.780  25.219  1.00  0.00    -0.264 NA
ATOM      6  C   UNL     1      17.843  29.687  24.559  1.00  0.00     0.111 A 
ENDROOT
BRANCH   1   7
ATOM      7  C   UNL     1      19.276  29.367  28.562  1.00  0.00     0.073 C 
ATOM      8  O   UNL     1      20.491  29.127  28.791  1.00  0.00    -0.545 OA
ATOM      9  O   UNL     1      18.409  29.531  29.635  1.00  0.00    -0.545 OA
ENDBRANCH   1   7
TORSDOF 1
ENDMDL
MODEL 6
REMARK VINA RESULT:    -4.532      2.857      3.988
REMARK INTER + INTRA:          -4.816
REMARK INTER:                  -4.798
REMARK INTRA:                  -0.018
REMARK UNBOUND:                -0.019
REMARK SMILES O=C([O-])c1cccnc1
REMARK SMILES IDX 4 1 5 2 9 3 6 4 8 5 7 6 2 7 1 8 3 9
REMARK H PARENT
REMARK Flexibility Score: inf
ROOT
ATOM      1  C   UNL     1      18.271  29.273  25.526  1.00  0.00     0.016 A 
ATOM      2  C   UNL     1      18.614  30.547  25.044  1.00  0.00     0.013 A 
ATOM      3  C   UNL     1      17.040  28.719  25.132  1.00  0.00     0.120 A 
ATOM      4  C   UNL     1      17.744  31.234  24.196  1.00  0.00     0.021 A 
ATOM      5  N   UNL     1      16.210  29.410  24.305  1.00  0.00    -0.264 NA
ATOM      6  C   UNL     1      16.533  30.643  23.835  1.00  0.00     0.111 A 
ENDROOT
BRANCH   1   7
ATOM      7  C   UNL     1      19.185  28.536  26.423  1.00  0.00     0.073 C 
ATOM      8  O   UNL     1      19.589  27.381  26.120  1.00  0.00    -0.545 OA
ATOM      9  O   UNL     1      19.613  29.105  27.617  1.00  0.00    -0.545 OA
ENDBRANCH   1   7
TORSDOF 1
ENDMDL
MODEL 7
REMARK VINA RESULT:    -4.155      2.968      4.700
REMARK INTER + INTRA:          -4.416
REMARK INTER:                  -4.394
REMARK INTRA:                  -0.022
REMARK UNBOUND:                -0.019
REMARK SMILES O=C([O-])c1cccnc1
REMARK SMILES IDX 4 1 5 2 9 3 6 4 8 5 7 6 2 7 1 8 3 9
REMARK H PARENT
REMARK Flexibility Score: inf
ROOT
ATOM      1  C   UNL     1      16.901  30.240  24.257  1.00  0.00     0.016 A 
ATOM      2  C   UNL     1      17.050  31.494  23.643  1.00  0.00     0.013 A 
ATOM      3  C   UNL     1      15.785  29.455  23.915  1.00  0.00     0.120 A 
ATOM      4  C   UNL     1      16.103  31.938  22.718  1.00  0.00     0.021 A 
ATOM      5  N   UNL     1      14.878  29.912  23.011  1.00  0.00    -0.264 NA
ATOM      6  C   UNL     1      15.012  31.124  22.412  1.00  0.00     0.111 A 
ENDROOT
BRANCH   1   7
ATOM      7  C   UNL     1      17.898  29.759  25.238  1.00  0.00     0.073 C 
ATOM      8  O   UNL     1      18.027  28.527  25.469  1.00  0.00    -0.545 OA
ATOM      9  O   UNL     1      18.705  30.660  25.922  1.00  0.00    -0.545 OA
ENDBRANCH   1   7
TORSDOF 1
ENDMDL
MODEL 8
REMARK VINA RESULT:    -3.986      3.235      4.034
REMARK INTER + INTRA:          -4.238
REMARK INTER:                  -4.220
REMARK INTRA:                  -0.018
REMARK UNBOUND:                -0.019
REMARK SMILES O=C([O-])c1cccnc1
REMARK SMILES IDX 4 1 5 2 9 3 6 4 8 5 7 6 2 7 1 8 3 9
REMARK H PARENT
REMARK Flexibility Score: inf
ROOT
ATOM      1  C   UNL     1      15.431  30.548  23.081  1.00  0.00     0.016 A 
ATOM      2  C   UNL     1      15.703  29.416  23.868  1.00  0.00     0.013 A 
ATOM      3  C   UNL     1      16.356  31.607  23.090  1.00  0.00     0.120 A 
ATOM      4  C   UNL     1      16.868  29.360  24.635  1.00  0.00     0.021 A 
ATOM      5  N   UNL     1      17.483  31.526  23.847  1.00  0.00    -0.264 NA
ATOM      6  C   UNL     1      17.755  30.437  24.612  1.00  0.00     0.111 A 
ENDROOT
BRANCH   1   7
ATOM      7  C   UNL     1      14.201  30.618  22.264  1.00  0.00     0.073 C 
ATOM      8  O   UNL     1      13.983  29.768  21.359  1.00  0.00    -0.545 OA
ATOM      9  O   UNL     1      13.267  31.624  22.481  1.00  0.00    -0.545 OA
ENDBRANCH   1   7
TORSDOF 1
ENDMDL
MODEL 9
REMARK VINA RESULT:    -3.913      9.539     10.394
REMARK INTER + INTRA:          -4.161
REMARK INTER:                  -4.137
REMARK INTRA:                  -0.024
REMARK UNBOUND:                -0.019
REMARK SMILES O=C([O-])c1cccnc1
REMARK SMILES IDX 4 1 5 2 9 3 6 4 8 5 7 6 2 7 1 8 3 9
REMARK H PARENT
REMARK Flexibility Score: inf
ROOT
ATOM      1  C   UNL     1       8.781  33.329  23.737  1.00  0.00     0.016 A 
ATOM      2  C   UNL     1       9.996  33.890  24.163  1.00  0.00     0.013 A 
ATOM      3  C   UNL     1       8.145  32.396  24.575  1.00  0.00     0.120 A 
ATOM      4  C   UNL     1      10.548  33.520  25.390  1.00  0.00     0.021 A 
ATOM      5  N   UNL     1       8.705  32.052  25.767  1.00  0.00    -0.264 NA
ATOM      6  C   UNL     1       9.880  32.589  26.187  1.00  0.00     0.111 A 
ENDROOT
BRANCH   1   7
ATOM      7  C   UNL     1       8.186  33.715  22.439  1.00  0.00     0.073 C 
ATOM      8  O   UNL     1       8.792  34.506  21.667  1.00  0.00    -0.545 OA
ATOM      9  O   UNL     1       6.949  33.212  22.053  1.00  0.00    -0.545 OA
ENDBRANCH   1   7
TORSDOF 1
ENDMDL
