MODEL 1
REMARK VINA RESULT:    -4.447      0.000      0.000
REMARK INTER + INTRA:          -4.447
REMARK INTER:                  -4.447
REMARK INTRA:                   0.000
REMARK UNBOUND:                 0.000
REMARK SMILES CC1=CC(=O)[C@H]2C[C@@H]1C2(C)C
REMARK SMILES IDX 1 1 2 2 3 3 4 4 5 5 6 6 7 7 8 8 9 9 10 10 11 11
REMARK H PARENT
REMARK Flexibility Score: inf
ROOT
ATOM      1  C   UNL     1     -18.113  -3.446   9.015  1.00  0.00     0.040 C 
ATOM      2  C   UNL     1     -18.271  -2.263   9.917  1.00  0.00    -0.066 C 
ATOM      3  C   UNL     1     -17.373  -2.001  10.907  1.00  0.00     0.047 C 
ATOM      4  C   UNL     1     -17.659  -0.804  11.762  1.00  0.00     0.159 C 
ATOM      5  O   UNL     1     -16.925  -0.482  12.733  1.00  0.00    -0.295 OA
ATOM      6  C   UNL     1     -18.902  -0.005  11.375  1.00  0.00     0.067 C 
ATOM      7  C   UNL     1     -18.800   0.131   9.840  1.00  0.00     0.021 C 
ATOM      8  C   UNL     1     -19.444  -1.272   9.760  1.00  0.00     0.022 C 
ATOM      9  C   UNL     1     -20.080  -0.997  11.153  1.00  0.00    -0.019 C 
ATOM     10  C   UNL     1     -21.446  -0.275  11.047  1.00  0.00     0.012 C 
ATOM     11  C   UNL     1     -20.236  -2.189  12.139  1.00  0.00     0.012 C 
ENDROOT
TORSDOF 0
ENDMDL
MODEL 2
REMARK VINA RESULT:    -4.227      1.760      2.537
REMARK INTER + INTRA:          -4.227
REMARK INTER:                  -4.227
REMARK INTRA:                   0.000
REMARK UNBOUND:                 0.000
REMARK SMILES CC1=CC(=O)[C@H]2C[C@@H]1C2(C)C
REMARK SMILES IDX 1 1 2 2 3 3 4 4 5 5 6 6 7 7 8 8 9 9 10 10 11 11
REMARK H PARENT
REMARK Flexibility Score: inf
ROOT
ATOM      1  C   UNL     1     -18.123  -3.446   9.142  1.00  0.00     0.040 C 
ATOM      2  C   UNL     1     -18.809  -2.447  10.018  1.00  0.00    -0.066 C 
ATOM      3  C   UNL     1     -19.859  -2.802  10.811  1.00  0.00     0.047 C 
ATOM      4  C   UNL     1     -20.481  -1.703  11.619  1.00  0.00     0.159 C 
ATOM      5  O   UNL     1     -21.481  -1.898  12.358  1.00  0.00    -0.295 OA
ATOM      6  C   UNL     1     -19.819  -0.333  11.480  1.00  0.00     0.067 C 
ATOM      7  C   UNL     1     -18.307  -0.632  11.590  1.00  0.00     0.021 C 
ATOM      8  C   UNL     1     -18.354  -0.973  10.083  1.00  0.00     0.022 C 
ATOM      9  C   UNL     1     -19.595  -0.042   9.968  1.00  0.00    -0.019 C 
ATOM     10  C   UNL     1     -19.203   1.434   9.704  1.00  0.00     0.012 C 
ATOM     11  C   UNL     1     -20.718  -0.433   8.967  1.00  0.00     0.012 C 
ENDROOT
TORSDOF 0
ENDMDL
MODEL 3
REMARK VINA RESULT:    -4.179     11.636     13.203
REMARK INTER + INTRA:          -4.179
REMARK INTER:                  -4.179
REMARK INTRA:                   0.000
REMARK UNBOUND:                 0.000
REMARK SMILES CC1=CC(=O)[C@H]2C[C@@H]1C2(C)C
REMARK SMILES IDX 1 1 2 2 3 3 4 4 5 5 6 6 7 7 8 8 9 9 10 10 11 11
REMARK H PARENT
REMARK Flexibility Score: inf
ROOT
ATOM      1  C   UNL     1      -6.581   0.306   9.315  1.00  0.00     0.040 C 
ATOM      2  C   UNL     1      -6.116  -0.705  10.314  1.00  0.00    -0.066 C 
ATOM      3  C   UNL     1      -6.076  -2.033  10.014  1.00  0.00     0.047 C 
ATOM      4  C   UNL     1      -5.621  -2.948  11.111  1.00  0.00     0.159 C 
ATOM      5  O   UNL     1      -5.579  -4.198  10.968  1.00  0.00    -0.295 OA
ATOM      6  C   UNL     1      -5.214  -2.257  12.412  1.00  0.00     0.067 C 
ATOM      7  C   UNL     1      -4.330  -1.078  11.954  1.00  0.00     0.021 C 
ATOM      8  C   UNL     1      -5.643  -0.295  11.726  1.00  0.00     0.022 C 
ATOM      9  C   UNL     1      -6.310  -1.218  12.785  1.00  0.00    -0.019 C 
ATOM     10  C   UNL     1      -6.144  -0.678  14.228  1.00  0.00     0.012 C 
ATOM     11  C   UNL     1      -7.801  -1.612  12.583  1.00  0.00     0.012 C 
ENDROOT
TORSDOF 0
ENDMDL
MODEL 4
REMARK VINA RESULT:    -4.088      1.692      3.437
REMARK INTER + INTRA:          -4.088
REMARK INTER:                  -4.088
REMARK INTRA:                   0.000
REMARK UNBOUND:                 0.000
REMARK SMILES CC1=CC(=O)[C@H]2C[C@@H]1C2(C)C
REMARK SMILES IDX 1 1 2 2 3 3 4 4 5 5 6 6 7 7 8 8 9 9 10 10 11 11
REMARK H PARENT
REMARK Flexibility Score: inf
ROOT
ATOM      1  C   UNL     1     -21.864  -1.573  12.477  1.00  0.00     0.040 C 
ATOM      2  C   UNL     1     -20.713  -1.138  11.628  1.00  0.00    -0.066 C 
ATOM      3  C   UNL     1     -20.715   0.066  10.991  1.00  0.00     0.047 C 
ATOM      4  C   UNL     1     -19.517   0.371  10.144  1.00  0.00     0.159 C 
ATOM      5  O   UNL     1     -19.421   1.434   9.476  1.00  0.00    -0.295 OA
ATOM      6  C   UNL     1     -18.423  -0.696  10.149  1.00  0.00     0.067 C 
ATOM      7  C   UNL     1     -18.261  -1.064  11.639  1.00  0.00     0.021 C 
ATOM      8  C   UNL     1     -19.459  -2.021  11.444  1.00  0.00     0.022 C 
ATOM      9  C   UNL     1     -19.088  -2.086   9.935  1.00  0.00    -0.019 C 
ATOM     10  C   UNL     1     -18.049  -3.195   9.630  1.00  0.00     0.012 C 
ATOM     11  C   UNL     1     -20.241  -2.203   8.898  1.00  0.00     0.012 C 
ENDROOT
TORSDOF 0
ENDMDL
MODEL 5
REMARK VINA RESULT:    -4.076     12.410     13.718
REMARK INTER + INTRA:          -4.076
REMARK INTER:                  -4.076
REMARK INTRA:                   0.000
REMARK UNBOUND:                 0.000
REMARK SMILES CC1=CC(=O)[C@H]2C[C@@H]1C2(C)C
REMARK SMILES IDX 1 1 2 2 3 3 4 4 5 5 6 6 7 7 8 8 9 9 10 10 11 11
REMARK H PARENT
REMARK Flexibility Score: inf
ROOT
ATOM      1  C   UNL     1      -6.437  -0.884  13.854  1.00  0.00     0.040 C 
ATOM      2  C   UNL     1      -5.980  -1.325  12.500  1.00  0.00    -0.066 C 
ATOM      3  C   UNL     1      -6.479  -0.764  11.364  1.00  0.00     0.047 C 
ATOM      4  C   UNL     1      -5.964  -1.314  10.069  1.00  0.00     0.159 C 
ATOM      5  O   UNL     1      -6.378  -0.905   8.953  1.00  0.00    -0.295 OA
ATOM      6  C   UNL     1      -4.903  -2.407  10.199  1.00  0.00     0.067 C 
ATOM      7  C   UNL     1      -3.929  -1.862  11.266  1.00  0.00     0.021 C 
ATOM      8  C   UNL     1      -4.909  -2.423  12.322  1.00  0.00     0.022 C 
ATOM      9  C   UNL     1      -5.388  -3.445  11.251  1.00  0.00    -0.019 C 
ATOM     10  C   UNL     1      -4.531  -4.736  11.243  1.00  0.00     0.012 C 
ATOM     11  C   UNL     1      -6.887  -3.857  11.246  1.00  0.00     0.012 C 
ENDROOT
TORSDOF 0
ENDMDL
MODEL 6
REMARK VINA RESULT:    -4.007     12.227     13.447
REMARK INTER + INTRA:          -4.007
REMARK INTER:                  -4.007
REMARK INTRA:                   0.000
REMARK UNBOUND:                 0.000
REMARK SMILES CC1=CC(=O)[C@H]2C[C@@H]1C2(C)C
REMARK SMILES IDX 1 1 2 2 3 3 4 4 5 5 6 6 7 7 8 8 9 9 10 10 11 11
REMARK H PARENT
REMARK Flexibility Score: inf
ROOT
ATOM      1  C   UNL     1      -6.812  -3.851  10.447  1.00  0.00     0.040 C 
ATOM      2  C   UNL     1      -6.254  -2.739  11.277  1.00  0.00    -0.066 C 
ATOM      3  C   UNL     1      -6.882  -2.316  12.410  1.00  0.00     0.047 C 
ATOM      4  C   UNL     1      -6.239  -1.174  13.138  1.00  0.00     0.159 C 
ATOM      5  O   UNL     1      -6.745  -0.669  14.174  1.00  0.00    -0.295 OA
ATOM      6  C   UNL     1      -4.931  -0.666  12.533  1.00  0.00     0.067 C 
ATOM      7  C   UNL     1      -4.133  -1.951  12.225  1.00  0.00     0.021 C 
ATOM      8  C   UNL     1      -4.935  -2.029  10.906  1.00  0.00     0.022 C 
ATOM      9  C   UNL     1      -5.131  -0.489  11.000  1.00  0.00    -0.019 C 
ATOM     10  C   UNL     1      -3.968   0.296  10.342  1.00  0.00     0.012 C 
ATOM     11  C   UNL     1      -6.471   0.115  10.495  1.00  0.00     0.012 C 
ENDROOT
TORSDOF 0
ENDMDL
MODEL 7
REMARK VINA RESULT:    -3.937     12.227     13.456
REMARK INTER + INTRA:          -3.937
REMARK INTER:                  -3.937
REMARK INTRA:                   0.000
REMARK UNBOUND:                 0.000
REMARK SMILES CC1=CC(=O)[C@H]2C[C@@H]1C2(C)C
REMARK SMILES IDX 1 1 2 2 3 3 4 4 5 5 6 6 7 7 8 8 9 9 10 10 11 11
REMARK H PARENT
REMARK Flexibility Score: inf
ROOT
ATOM      1  C   UNL     1      -6.405  -0.875  14.148  1.00  0.00     0.040 C 
ATOM      2  C   UNL     1      -6.355  -1.358  12.734  1.00  0.00    -0.066 C 
ATOM      3  C   UNL     1      -6.865  -2.571  12.379  1.00  0.00     0.047 C 
ATOM      4  C   UNL     1      -6.726  -2.953  10.937  1.00  0.00     0.159 C 
ATOM      5  O   UNL     1      -7.122  -4.064  10.496  1.00  0.00    -0.295 OA
ATOM      6  C   UNL     1      -6.071  -1.902  10.041  1.00  0.00     0.067 C 
ATOM      7  C   UNL     1      -6.762  -0.581  10.442  1.00  0.00     0.021 C 
ATOM      8  C   UNL     1      -5.744  -0.502  11.603  1.00  0.00     0.022 C 
ATOM      9  C   UNL     1      -4.787  -1.381  10.748  1.00  0.00    -0.019 C 
ATOM     10  C   UNL     1      -3.896  -0.536   9.802  1.00  0.00     0.012 C 
ATOM     11  C   UNL     1      -3.879  -2.408  11.481  1.00  0.00     0.012 C 
ENDROOT
TORSDOF 0
ENDMDL
MODEL 8
REMARK VINA RESULT:    -3.926      2.526      3.406
REMARK INTER + INTRA:          -3.926
REMARK INTER:                  -3.926
REMARK INTRA:                   0.000
REMARK UNBOUND:                 0.000
REMARK SMILES CC1=CC(=O)[C@H]2C[C@@H]1C2(C)C
REMARK SMILES IDX 1 1 2 2 3 3 4 4 5 5 6 6 7 7 8 8 9 9 10 10 11 11
REMARK H PARENT
REMARK Flexibility Score: inf
ROOT
ATOM      1  C   UNL     1     -17.797  -3.008   9.762  1.00  0.00     0.040 C 
ATOM      2  C   UNL     1     -19.185  -2.582  10.120  1.00  0.00    -0.066 C 
ATOM      3  C   UNL     1     -20.268  -3.042   9.433  1.00  0.00     0.047 C 
ATOM      4  C   UNL     1     -21.602  -2.517   9.869  1.00  0.00     0.159 C 
ATOM      5  O   UNL     1     -22.672  -2.837   9.288  1.00  0.00    -0.295 OA
ATOM      6  C   UNL     1     -21.572  -1.566  11.065  1.00  0.00     0.067 C 
ATOM      7  C   UNL     1     -20.631  -2.259  12.075  1.00  0.00     0.021 C 
ATOM      8  C   UNL     1     -19.462  -1.617  11.293  1.00  0.00     0.022 C 
ATOM      9  C   UNL     1     -20.453  -0.511  10.831  1.00  0.00    -0.019 C 
ATOM     10  C   UNL     1     -20.534   0.666  11.836  1.00  0.00     0.012 C 
ATOM     11  C   UNL     1     -20.283   0.080   9.403  1.00  0.00     0.012 C 
ENDROOT
TORSDOF 0
ENDMDL
MODEL 9
REMARK VINA RESULT:    -3.864      1.870      3.576
REMARK INTER + INTRA:          -3.864
REMARK INTER:                  -3.864
REMARK INTRA:                   0.000
REMARK UNBOUND:                 0.000
REMARK SMILES CC1=CC(=O)[C@H]2C[C@@H]1C2(C)C
REMARK SMILES IDX 1 1 2 2 3 3 4 4 5 5 6 6 7 7 8 8 9 9 10 10 11 11
REMARK H PARENT
REMARK Flexibility Score: inf
ROOT
ATOM      1  C   UNL     1     -20.415   1.296   9.429  1.00  0.00     0.040 C 
ATOM      2  C   UNL     1     -20.461  -0.052  10.076  1.00  0.00    -0.066 C 
ATOM      3  C   UNL     1     -21.107  -0.250  11.259  1.00  0.00     0.047 C 
ATOM      4  C   UNL     1     -21.055  -1.639  11.819  1.00  0.00     0.159 C 
ATOM      5  O   UNL     1     -21.579  -1.937  12.924  1.00  0.00    -0.295 OA
ATOM      6  C   UNL     1     -20.321  -2.665  10.956  1.00  0.00     0.067 C 
ATOM      7  C   UNL     1     -20.855  -2.411   9.530  1.00  0.00     0.021 C 
ATOM      8  C   UNL     1     -19.799  -1.287   9.428  1.00  0.00     0.022 C 
ATOM      9  C   UNL     1     -18.967  -2.050  10.499  1.00  0.00    -0.019 C 
ATOM     10  C   UNL     1     -18.022  -3.106   9.872  1.00  0.00     0.012 C 
ATOM     11  C   UNL     1     -18.150  -1.217  11.527  1.00  0.00     0.012 C 
ENDROOT
TORSDOF 0
ENDMDL
