MODEL 1
REMARK VINA RESULT:    -4.782      0.000      0.000
REMARK INTER + INTRA:          -5.578
REMARK INTER:                  -5.481
REMARK INTRA:                  -0.096
REMARK UNBOUND:                -0.096
REMARK SMILES COc1cc(C(=O)[O-])ccc1O
REMARK SMILES IDX 5 1 9 2 4 3 10 4 3 5 11 6 6 7 7 8 8 9 2 10 1 11 12 12
REMARK H PARENT 12 13
REMARK Flexibility Score: inf
ROOT
ATOM      1  C   UNL     1     104.554 106.459 109.582  1.00  0.00     0.001 A 
ATOM      2  C   UNL     1     104.094 105.660 108.524  1.00  0.00     0.014 A 
ATOM      3  C   UNL     1     104.188 106.126 110.899  1.00  0.00     0.060 A 
ATOM      4  C   UNL     1     103.284 104.552 108.775  1.00  0.00     0.051 A 
ATOM      5  C   UNL     1     103.371 105.008 111.159  1.00  0.00     0.161 A 
ATOM      6  C   UNL     1     102.921 104.221 110.084  1.00  0.00     0.157 A 
ENDROOT
BRANCH   1   7
ATOM      7  C   UNL     1     105.413 107.634 109.310  1.00  0.00     0.072 C 
ATOM      8  O   UNL     1     104.931 108.673 108.787  1.00  0.00    -0.545 OA
ATOM      9  O   UNL     1     106.766 107.605 109.628  1.00  0.00    -0.545 OA
ENDBRANCH   1   7
BRANCH   5  10
ATOM     10  O   UNL     1     102.990 104.651 112.463  1.00  0.00    -0.493 OA
ATOM     11  C   UNL     1     101.962 105.295 113.210  1.00  0.00     0.278 C 
ENDBRANCH   5  10
BRANCH   6  12
ATOM     12  O   UNL     1     102.111 103.105 110.296  1.00  0.00    -0.504 OA
ATOM     13  H   UNL     1     102.462 102.159 110.209  1.00  0.00     0.293 HD
ENDBRANCH   6  12
TORSDOF 3
ENDMDL
MODEL 2
REMARK VINA RESULT:    -4.741      2.057      2.704
REMARK INTER + INTRA:          -5.530
REMARK INTER:                  -5.435
REMARK INTRA:                  -0.096
REMARK UNBOUND:                -0.096
REMARK SMILES COc1cc(C(=O)[O-])ccc1O
REMARK SMILES IDX 5 1 9 2 4 3 10 4 3 5 11 6 6 7 7 8 8 9 2 10 1 11 12 12
REMARK H PARENT 12 13
REMARK Flexibility Score: inf
ROOT
ATOM      1  C   UNL     1     103.184 104.790 110.620  1.00  0.00     0.001 A 
ATOM      2  C   UNL     1     102.965 103.445 110.285  1.00  0.00     0.014 A 
ATOM      3  C   UNL     1     102.960 105.209 111.944  1.00  0.00     0.060 A 
ATOM      4  C   UNL     1     102.531 102.537 111.251  1.00  0.00     0.051 A 
ATOM      5  C   UNL     1     102.522 104.297 112.924  1.00  0.00     0.161 A 
ATOM      6  C   UNL     1     102.308 102.954 112.567  1.00  0.00     0.157 A 
ENDROOT
BRANCH   1   7
ATOM      7  C   UNL     1     103.645 105.749 109.590  1.00  0.00     0.072 C 
ATOM      8  O   UNL     1     103.209 105.681 108.411  1.00  0.00    -0.545 OA
ATOM      9  O   UNL     1     104.568 106.738 109.912  1.00  0.00    -0.545 OA
ENDBRANCH   1   7
BRANCH   5  10
ATOM     10  O   UNL     1     102.290 104.687 114.254  1.00  0.00    -0.493 OA
ATOM     11  C   UNL     1     103.286 104.728 115.270  1.00  0.00     0.278 C 
ENDBRANCH   5  10
BRANCH   6  12
ATOM     12  O   UNL     1     101.875 102.017 113.505  1.00  0.00    -0.504 OA
ATOM     13  H   UNL     1     101.408 101.160 113.236  1.00  0.00     0.293 HD
ENDBRANCH   6  12
TORSDOF 3
ENDMDL
MODEL 3
REMARK VINA RESULT:    -4.687      1.489      1.865
REMARK INTER + INTRA:          -5.468
REMARK INTER:                  -5.392
REMARK INTRA:                  -0.076
REMARK UNBOUND:                -0.096
REMARK SMILES COc1cc(C(=O)[O-])ccc1O
REMARK SMILES IDX 5 1 9 2 4 3 10 4 3 5 11 6 6 7 7 8 8 9 2 10 1 11 12 12
REMARK H PARENT 12 13
REMARK Flexibility Score: inf
ROOT
ATOM      1  C   UNL     1     104.176 106.158 108.845  1.00  0.00     0.001 A 
ATOM      2  C   UNL     1     103.388 105.022 108.602  1.00  0.00     0.014 A 
ATOM      3  C   UNL     1     104.559 106.454 110.166  1.00  0.00     0.060 A 
ATOM      4  C   UNL     1     102.989 104.199 109.656  1.00  0.00     0.051 A 
ATOM      5  C   UNL     1     104.160 105.626 111.235  1.00  0.00     0.161 A 
ATOM      6  C   UNL     1     103.370 104.493 110.968  1.00  0.00     0.157 A 
ENDROOT
BRANCH   1   7
ATOM      7  C   UNL     1     104.596 107.027 107.723  1.00  0.00     0.072 C 
ATOM      8  O   UNL     1     103.756 107.430 106.875  1.00  0.00    -0.545 OA
ATOM      9  O   UNL     1     105.926 107.411 107.589  1.00  0.00    -0.545 OA
ENDBRANCH   1   7
BRANCH   5  10
ATOM     10  O   UNL     1     104.527 105.897 112.563  1.00  0.00    -0.493 OA
ATOM     11  C   UNL     1     105.129 107.110 113.005  1.00  0.00     0.278 C 
ENDBRANCH   5  10
BRANCH   6  12
ATOM     12  O   UNL     1     102.953 103.647 111.996  1.00  0.00    -0.504 OA
ATOM     13  H   UNL     1     102.458 103.990 112.810  1.00  0.00     0.293 HD
ENDBRANCH   6  12
TORSDOF 3
ENDMDL
MODEL 4
REMARK VINA RESULT:    -4.620      1.982      2.946
REMARK INTER + INTRA:          -5.392
REMARK INTER:                  -5.292
REMARK INTRA:                  -0.100
REMARK UNBOUND:                -0.096
REMARK SMILES COc1cc(C(=O)[O-])ccc1O
REMARK SMILES IDX 5 1 9 2 4 3 10 4 3 5 11 6 6 7 7 8 8 9 2 10 1 11 12 12
REMARK H PARENT 12 13
REMARK Flexibility Score: inf
ROOT
ATOM      1  C   UNL     1     104.663 106.627 111.721  1.00  0.00     0.001 A 
ATOM      2  C   UNL     1     104.995 107.156 110.464  1.00  0.00     0.014 A 
ATOM      3  C   UNL     1     103.731 105.575 111.795  1.00  0.00     0.060 A 
ATOM      4  C   UNL     1     104.410 106.646 109.305  1.00  0.00     0.051 A 
ATOM      5  C   UNL     1     103.137 105.056 110.627  1.00  0.00     0.161 A 
ATOM      6  C   UNL     1     103.484 105.601 109.378  1.00  0.00     0.157 A 
ENDROOT
BRANCH   1   7
ATOM      7  C   UNL     1     105.287 107.172 112.948  1.00  0.00     0.072 C 
ATOM      8  O   UNL     1     106.147 108.089 112.876  1.00  0.00    -0.545 OA
ATOM      9  O   UNL     1     104.932 106.677 114.198  1.00  0.00    -0.545 OA
ENDBRANCH   1   7
BRANCH   5  10
ATOM     10  O   UNL     1     102.204 104.006 110.671  1.00  0.00    -0.493 OA
ATOM     11  C   UNL     1     102.513 102.664 111.033  1.00  0.00     0.278 C 
ENDBRANCH   5  10
BRANCH   6  12
ATOM     12  O   UNL     1     102.921 105.117 108.198  1.00  0.00    -0.504 OA
ATOM     13  H   UNL     1     102.896 105.666 107.347  1.00  0.00     0.293 HD
ENDBRANCH   6  12
TORSDOF 3
ENDMDL
MODEL 5
REMARK VINA RESULT:    -4.604      1.368      4.265
REMARK INTER + INTRA:          -5.373
REMARK INTER:                  -5.293
REMARK INTRA:                  -0.080
REMARK UNBOUND:                -0.096
REMARK SMILES COc1cc(C(=O)[O-])ccc1O
REMARK SMILES IDX 5 1 9 2 4 3 10 4 3 5 11 6 6 7 7 8 8 9 2 10 1 11 12 12
REMARK H PARENT 12 13
REMARK Flexibility Score: inf
ROOT
ATOM      1  C   UNL     1     103.080 104.310 110.610  1.00  0.00     0.001 A 
ATOM      2  C   UNL     1     103.039 104.508 109.221  1.00  0.00     0.014 A 
ATOM      3  C   UNL     1     103.796 105.220 111.409  1.00  0.00     0.060 A 
ATOM      4  C   UNL     1     103.699 105.592 108.641  1.00  0.00     0.051 A 
ATOM      5  C   UNL     1     104.464 106.317 110.829  1.00  0.00     0.161 A 
ATOM      6  C   UNL     1     104.410 106.496 109.435  1.00  0.00     0.157 A 
ENDROOT
BRANCH   1   7
ATOM      7  C   UNL     1     102.378 103.158 111.219  1.00  0.00     0.072 C 
ATOM      8  O   UNL     1     101.924 102.229 110.499  1.00  0.00    -0.545 OA
ATOM      9  O   UNL     1     102.208 103.086 112.597  1.00  0.00    -0.545 OA
ENDBRANCH   1   7
BRANCH   5  10
ATOM     10  O   UNL     1     105.186 107.242 111.602  1.00  0.00    -0.493 OA
ATOM     11  C   UNL     1     105.275 107.214 113.023  1.00  0.00     0.278 C 
ENDBRANCH   5  10
BRANCH   6  12
ATOM     12  O   UNL     1     105.057 107.568 108.820  1.00  0.00    -0.504 OA
ATOM     13  H   UNL     1     105.451 108.337 109.349  1.00  0.00     0.293 HD
ENDBRANCH   6  12
TORSDOF 3
ENDMDL
MODEL 6
REMARK VINA RESULT:    -4.586      1.873      2.542
REMARK INTER + INTRA:          -5.353
REMARK INTER:                  -5.260
REMARK INTRA:                  -0.093
REMARK UNBOUND:                -0.096
REMARK SMILES COc1cc(C(=O)[O-])ccc1O
REMARK SMILES IDX 5 1 9 2 4 3 10 4 3 5 11 6 6 7 7 8 8 9 2 10 1 11 12 12
REMARK H PARENT 12 13
REMARK Flexibility Score: inf
ROOT
ATOM      1  C   UNL     1     106.187 106.571 110.206  1.00  0.00     0.001 A 
ATOM      2  C   UNL     1     105.693 107.289 109.106  1.00  0.00     0.014 A 
ATOM      3  C   UNL     1     105.543 105.379 110.588  1.00  0.00     0.060 A 
ATOM      4  C   UNL     1     104.579 106.829 108.403  1.00  0.00     0.051 A 
ATOM      5  C   UNL     1     104.418 104.909 109.882  1.00  0.00     0.161 A 
ATOM      6  C   UNL     1     103.940 105.646 108.784  1.00  0.00     0.157 A 
ENDROOT
BRANCH   1   7
ATOM      7  C   UNL     1     107.370 107.063 110.948  1.00  0.00     0.072 C 
ATOM      8  O   UNL     1     107.973 108.104 110.574  1.00  0.00    -0.545 OA
ATOM      9  O   UNL     1     107.831 106.382 112.069  1.00  0.00    -0.545 OA
ENDBRANCH   1   7
BRANCH   5  10
ATOM     10  O   UNL     1     103.756 103.724 110.241  1.00  0.00    -0.493 OA
ATOM     11  C   UNL     1     102.684 103.647 111.176  1.00  0.00     0.278 C 
ENDBRANCH   5  10
BRANCH   6  12
ATOM     12  O   UNL     1     102.829 105.217 108.056  1.00  0.00    -0.504 OA
ATOM     13  H   UNL     1     102.412 105.781 107.326  1.00  0.00     0.293 HD
ENDBRANCH   6  12
TORSDOF 3
ENDMDL
MODEL 7
REMARK VINA RESULT:    -4.563      1.542      4.139
REMARK INTER + INTRA:          -5.326
REMARK INTER:                  -5.232
REMARK INTRA:                  -0.094
REMARK UNBOUND:                -0.096
REMARK SMILES COc1cc(C(=O)[O-])ccc1O
REMARK SMILES IDX 5 1 9 2 4 3 10 4 3 5 11 6 6 7 7 8 8 9 2 10 1 11 12 12
REMARK H PARENT 12 13
REMARK Flexibility Score: inf
ROOT
ATOM      1  C   UNL     1     103.359 105.155 111.732  1.00  0.00     0.001 A 
ATOM      2  C   UNL     1     102.699 104.220 110.919  1.00  0.00     0.014 A 
ATOM      3  C   UNL     1     104.327 105.999 111.156  1.00  0.00     0.060 A 
ATOM      4  C   UNL     1     103.000 104.128 109.560  1.00  0.00     0.051 A 
ATOM      5  C   UNL     1     104.635 105.910 109.784  1.00  0.00     0.161 A 
ATOM      6  C   UNL     1     103.962 104.966 108.987  1.00  0.00     0.157 A 
ENDROOT
BRANCH   1   7
ATOM      7  C   UNL     1     103.036 105.249 113.173  1.00  0.00     0.072 C 
ATOM      8  O   UNL     1     101.875 104.990 113.588  1.00  0.00    -0.545 OA
ATOM      9  O   UNL     1     104.011 105.625 114.090  1.00  0.00    -0.545 OA
ENDBRANCH   1   7
BRANCH   5  10
ATOM     10  O   UNL     1     105.596 106.739 109.182  1.00  0.00    -0.493 OA
ATOM     11  C   UNL     1     105.326 108.025 108.633  1.00  0.00     0.278 C 
ENDBRANCH   5  10
BRANCH   6  12
ATOM     12  O   UNL     1     104.235 104.845 107.625  1.00  0.00    -0.504 OA
ATOM     13  H   UNL     1     103.787 104.146 107.045  1.00  0.00     0.293 HD
ENDBRANCH   6  12
TORSDOF 3
ENDMDL
MODEL 8
REMARK VINA RESULT:    -4.545      1.495      2.614
REMARK INTER + INTRA:          -5.305
REMARK INTER:                  -5.233
REMARK INTRA:                  -0.072
REMARK UNBOUND:                -0.096
REMARK SMILES COc1cc(C(=O)[O-])ccc1O
REMARK SMILES IDX 5 1 9 2 4 3 10 4 3 5 11 6 6 7 7 8 8 9 2 10 1 11 12 12
REMARK H PARENT 12 13
REMARK Flexibility Score: inf
ROOT
ATOM      1  C   UNL     1     104.483 106.592 109.130  1.00  0.00     0.001 A 
ATOM      2  C   UNL     1     105.183 107.062 110.252  1.00  0.00     0.014 A 
ATOM      3  C   UNL     1     103.509 105.591 109.302  1.00  0.00     0.060 A 
ATOM      4  C   UNL     1     104.918 106.543 111.519  1.00  0.00     0.051 A 
ATOM      5  C   UNL     1     103.236 105.064 110.580  1.00  0.00     0.161 A 
ATOM      6  C   UNL     1     103.950 105.549 111.691  1.00  0.00     0.157 A 
ENDROOT
BRANCH   1   7
ATOM      7  C   UNL     1     104.769 107.146 107.787  1.00  0.00     0.072 C 
ATOM      8  O   UNL     1     105.232 106.410 106.876  1.00  0.00    -0.545 OA
ATOM      9  O   UNL     1     104.530 108.488 107.513  1.00  0.00    -0.545 OA
ENDBRANCH   1   7
BRANCH   5  10
ATOM     10  O   UNL     1     102.270 104.065 110.782  1.00  0.00    -0.493 OA
ATOM     11  C   UNL     1     102.541 102.667 110.792  1.00  0.00     0.278 C 
ENDBRANCH   5  10
BRANCH   6  12
ATOM     12  O   UNL     1     103.712 105.056 112.974  1.00  0.00    -0.504 OA
ATOM     13  H   UNL     1     103.378 104.113 113.136  1.00  0.00     0.293 HD
ENDBRANCH   6  12
TORSDOF 3
ENDMDL
MODEL 9
REMARK VINA RESULT:    -4.391     11.899     13.927
REMARK INTER + INTRA:          -5.130
REMARK INTER:                  -5.034
REMARK INTRA:                  -0.096
REMARK UNBOUND:                -0.096
REMARK SMILES COc1cc(C(=O)[O-])ccc1O
REMARK SMILES IDX 5 1 9 2 4 3 10 4 3 5 11 6 6 7 7 8 8 9 2 10 1 11 12 12
REMARK H PARENT 12 13
REMARK Flexibility Score: inf
ROOT
ATOM      1  C   UNL     1     103.460 105.647 124.378  1.00  0.00     0.001 A 
ATOM      2  C   UNL     1     103.000 104.452 124.954  1.00  0.00     0.014 A 
ATOM      3  C   UNL     1     104.263 105.585 123.224  1.00  0.00     0.060 A 
ATOM      4  C   UNL     1     103.335 103.221 124.390  1.00  0.00     0.051 A 
ATOM      5  C   UNL     1     104.604 104.344 122.650  1.00  0.00     0.161 A 
ATOM      6  C   UNL     1     104.132 103.159 123.243  1.00  0.00     0.157 A 
ENDROOT
BRANCH   1   7
ATOM      7  C   UNL     1     103.102 106.951 124.981  1.00  0.00     0.072 C 
ATOM      8  O   UNL     1     101.924 107.391 124.903  1.00  0.00    -0.545 OA
ATOM      9  O   UNL     1     104.063 107.709 125.641  1.00  0.00    -0.545 OA
ENDBRANCH   1   7
BRANCH   5  10
ATOM     10  O   UNL     1     105.403 104.252 121.498  1.00  0.00    -0.493 OA
ATOM     11  C   UNL     1     106.813 104.446 121.474  1.00  0.00     0.278 C 
ENDBRANCH   5  10
BRANCH   6  12
ATOM     12  O   UNL     1     104.445 101.910 122.708  1.00  0.00    -0.504 OA
ATOM     13  H   UNL     1     105.401 101.585 122.618  1.00  0.00     0.293 HD
ENDBRANCH   6  12
TORSDOF 3
ENDMDL
