MODEL 1
REMARK VINA RESULT:    -4.077      0.000      0.000
REMARK INTER + INTRA:          -7.899
REMARK INTER:                  -6.460
REMARK INTRA:                  -1.439
REMARK UNBOUND:                -1.439
REMARK SMILES CCCCCCCCCCCC(=O)[O-]
REMARK SMILES IDX 7 1 8 2 9 3 10 4 11 5 12 6 13 7 14 8 6 9 5 10 4 11 3 12 2 13
REMARK SMILES IDX 1 14
REMARK H PARENT
REMARK Flexibility Score: inf
ROOT
ATOM      1  C   UNL     1      14.762  17.225   0.016  1.00  0.00     0.000 C 
ENDROOT
BRANCH   1   2
ATOM      2  C   UNL     1      15.510  16.469  -1.094  1.00  0.00     0.000 C 
BRANCH   2   3
ATOM      3  C   UNL     1      16.051  17.402  -2.188  1.00  0.00     0.000 C 
BRANCH   3   4
ATOM      4  C   UNL     1      15.201  18.674  -2.355  1.00  0.00     0.006 C 
BRANCH   4   5
ATOM      5  C   UNL     1      14.687  18.840  -3.792  1.00  0.00     0.053 C 
BRANCH   5   6
ATOM      6  C   UNL     1      13.914  17.641  -4.250  1.00  0.00     0.041 C 
ATOM      7  O   UNL     1      14.224  17.060  -5.323  1.00  0.00    -0.550 OA
ATOM      8  O   UNL     1      12.834  17.183  -3.506  1.00  0.00    -0.550 OA
ENDBRANCH   5   6
ENDBRANCH   4   5
ENDBRANCH   3   4
ENDBRANCH   2   3
ENDBRANCH   1   2
BRANCH   1   9
ATOM      9  C   UNL     1      15.674  17.455   1.232  1.00  0.00     0.000 C 
BRANCH   9  10
ATOM     10  C   UNL     1      16.227  18.892   1.293  1.00  0.00    -0.000 C 
BRANCH  10  11
ATOM     11  C   UNL     1      17.758  18.971   1.131  1.00  0.00    -0.000 C 
BRANCH  11  12
ATOM     12  C   UNL     1      18.459  17.604   1.300  1.00  0.00    -0.000 C 
BRANCH  12  13
ATOM     13  C   UNL     1      19.182  17.126   0.030  1.00  0.00    -0.003 C 
ATOM     14  C   UNL     1      19.041  15.622  -0.200  1.00  0.00     0.004 C 
ENDBRANCH  12  13
ENDBRANCH  11  12
ENDBRANCH  10  11
ENDBRANCH   9  10
ENDBRANCH   1   9
TORSDOF 10
ENDMDL
MODEL 2
REMARK VINA RESULT:    -3.963     13.900     15.534
REMARK INTER + INTRA:          -7.719
REMARK INTER:                  -6.532
REMARK INTRA:                  -1.187
REMARK UNBOUND:                -1.439
REMARK SMILES CCCCCCCCCCCC(=O)[O-]
REMARK SMILES IDX 7 1 8 2 9 3 10 4 11 5 12 6 13 7 14 8 6 9 5 10 4 11 3 12 2 13
REMARK SMILES IDX 1 14
REMARK H PARENT
REMARK Flexibility Score: inf
ROOT
ATOM      1  C   UNL     1      16.352   2.301  -0.229  1.00  0.00     0.000 C 
ENDROOT
BRANCH   1   2
ATOM      2  C   UNL     1      15.753   2.076   1.168  1.00  0.00     0.000 C 
BRANCH   2   3
ATOM      3  C   UNL     1      15.169   3.360   1.778  1.00  0.00     0.000 C 
BRANCH   3   4
ATOM      4  C   UNL     1      13.642   3.292   1.951  1.00  0.00     0.006 C 
BRANCH   4   5
ATOM      5  C   UNL     1      12.972   4.653   1.714  1.00  0.00     0.053 C 
BRANCH   5   6
ATOM      6  C   UNL     1      11.635   4.741   2.384  1.00  0.00     0.041 C 
ATOM      7  O   UNL     1      11.517   4.449   3.603  1.00  0.00    -0.550 OA
ATOM      8  O   UNL     1      10.514   5.116   1.654  1.00  0.00    -0.550 OA
ENDBRANCH   5   6
ENDBRANCH   4   5
ENDBRANCH   3   4
ENDBRANCH   2   3
ENDBRANCH   1   2
BRANCH   1   9
ATOM      9  C   UNL     1      16.062   3.727  -0.725  1.00  0.00     0.000 C 
BRANCH   9  10
ATOM     10  C   UNL     1      15.139   3.748  -1.958  1.00  0.00    -0.000 C 
BRANCH  10  11
ATOM     11  C   UNL     1      13.834   2.949  -1.766  1.00  0.00    -0.000 C 
BRANCH  11  12
ATOM     12  C   UNL     1      13.708   1.748  -2.730  1.00  0.00    -0.000 C 
BRANCH  12  13
ATOM     13  C   UNL     1      13.765   0.385  -2.022  1.00  0.00    -0.003 C 
ATOM     14  C   UNL     1      15.037  -0.398  -2.345  1.00  0.00     0.004 C 
ENDBRANCH  12  13
ENDBRANCH  11  12
ENDBRANCH  10  11
ENDBRANCH   9  10
ENDBRANCH   1   9
TORSDOF 10
ENDMDL
MODEL 3
REMARK VINA RESULT:    -3.901     14.197     15.999
REMARK INTER + INTRA:          -7.621
REMARK INTER:                  -6.066
REMARK INTRA:                  -1.555
REMARK UNBOUND:                -1.439
REMARK SMILES CCCCCCCCCCCC(=O)[O-]
REMARK SMILES IDX 7 1 8 2 9 3 10 4 11 5 12 6 13 7 14 8 6 9 5 10 4 11 3 12 2 13
REMARK SMILES IDX 1 14
REMARK H PARENT
REMARK Flexibility Score: inf
ROOT
ATOM      1  C   UNL     1      16.469   2.413  -1.687  1.00  0.00     0.000 C 
ENDROOT
BRANCH   1   2
ATOM      2  C   UNL     1      16.241   3.279  -0.438  1.00  0.00     0.000 C 
BRANCH   2   3
ATOM      3  C   UNL     1      15.833   2.451   0.792  1.00  0.00     0.000 C 
BRANCH   3   4
ATOM      4  C   UNL     1      15.254   3.317   1.923  1.00  0.00     0.006 C 
BRANCH   4   5
ATOM      5  C   UNL     1      14.371   4.454   1.387  1.00  0.00     0.053 C 
BRANCH   5   6
ATOM      6  C   UNL     1      12.971   4.368   1.913  1.00  0.00     0.041 C 
ATOM      7  O   UNL     1      12.663   3.480   2.751  1.00  0.00    -0.550 OA
ATOM      8  O   UNL     1      12.000   5.250   1.456  1.00  0.00    -0.550 OA
ENDBRANCH   5   6
ENDBRANCH   4   5
ENDBRANCH   3   4
ENDBRANCH   2   3
ENDBRANCH   1   2
BRANCH   1   9
ATOM      9  C   UNL     1      16.608   0.930  -1.308  1.00  0.00     0.000 C 
BRANCH   9  10
ATOM     10  C   UNL     1      15.622   0.029  -2.076  1.00  0.00    -0.000 C 
BRANCH  10  11
ATOM     11  C   UNL     1      14.327   0.751  -2.498  1.00  0.00    -0.000 C 
BRANCH  11  12
ATOM     12  C   UNL     1      13.111   0.387  -1.615  1.00  0.00    -0.000 C 
BRANCH  12  13
ATOM     13  C   UNL     1      12.594   1.563  -0.770  1.00  0.00    -0.003 C 
ATOM     14  C   UNL     1      12.708   2.905  -1.490  1.00  0.00     0.004 C 
ENDBRANCH  12  13
ENDBRANCH  11  12
ENDBRANCH  10  11
ENDBRANCH   9  10
ENDBRANCH   1   9
TORSDOF 10
ENDMDL
MODEL 4
REMARK VINA RESULT:    -3.882      3.059      5.743
REMARK INTER + INTRA:          -7.590
REMARK INTER:                  -6.448
REMARK INTRA:                  -1.142
REMARK UNBOUND:                -1.439
REMARK SMILES CCCCCCCCCCCC(=O)[O-]
REMARK SMILES IDX 7 1 8 2 9 3 10 4 11 5 12 6 13 7 14 8 6 9 5 10 4 11 3 12 2 13
REMARK SMILES IDX 1 14
REMARK H PARENT
REMARK Flexibility Score: inf
ROOT
ATOM      1  C   UNL     1      15.419  16.535  -1.101  1.00  0.00     0.000 C 
ENDROOT
BRANCH   1   2
ATOM      2  C   UNL     1      14.960  17.521  -0.016  1.00  0.00     0.000 C 
BRANCH   2   3
ATOM      3  C   UNL     1      15.914  17.565   1.188  1.00  0.00     0.000 C 
BRANCH   3   4
ATOM      4  C   UNL     1      16.663  18.904   1.302  1.00  0.00     0.006 C 
BRANCH   4   5
ATOM      5  C   UNL     1      18.016  18.874   0.576  1.00  0.00     0.053 C 
BRANCH   5   6
ATOM      6  C   UNL     1      18.800  17.641   0.908  1.00  0.00     0.041 C 
ATOM      7  O   UNL     1      19.380  17.541   2.021  1.00  0.00    -0.550 OA
ATOM      8  O   UNL     1      18.913  16.616  -0.022  1.00  0.00    -0.550 OA
ENDBRANCH   5   6
ENDBRANCH   4   5
ENDBRANCH   3   4
ENDBRANCH   2   3
ENDBRANCH   1   2
BRANCH   1   9
ATOM      9  C   UNL     1      16.134  17.273  -2.244  1.00  0.00     0.000 C 
BRANCH   9  10
ATOM     10  C   UNL     1      15.702  18.747  -2.358  1.00  0.00    -0.000 C 
BRANCH  10  11
ATOM     11  C   UNL     1      14.507  18.968  -3.308  1.00  0.00    -0.000 C 
BRANCH  11  12
ATOM     12  C   UNL     1      14.293  17.801  -4.298  1.00  0.00    -0.000 C 
BRANCH  12  13
ATOM     13  C   UNL     1      12.885  17.187  -4.226  1.00  0.00    -0.003 C 
ATOM     14  C   UNL     1      12.880  15.684  -4.504  1.00  0.00     0.004 C 
ENDBRANCH  12  13
ENDBRANCH  11  12
ENDBRANCH  10  11
ENDBRANCH   9  10
ENDBRANCH   1   9
TORSDOF 10
ENDMDL
MODEL 5
REMARK VINA RESULT:    -3.832     13.807     15.104
REMARK INTER + INTRA:          -7.511
REMARK INTER:                  -6.272
REMARK INTRA:                  -1.239
REMARK UNBOUND:                -1.439
REMARK SMILES CCCCCCCCCCCC(=O)[O-]
REMARK SMILES IDX 7 1 8 2 9 3 10 4 11 5 12 6 13 7 14 8 6 9 5 10 4 11 3 12 2 13
REMARK SMILES IDX 1 14
REMARK H PARENT
REMARK Flexibility Score: inf
ROOT
ATOM      1  C   UNL     1      15.714   1.882   0.987  1.00  0.00     0.000 C 
ENDROOT
BRANCH   1   2
ATOM      2  C   UNL     1      15.273   2.992   1.953  1.00  0.00     0.000 C 
BRANCH   2   3
ATOM      3  C   UNL     1      13.744   3.104   2.072  1.00  0.00     0.000 C 
BRANCH   3   4
ATOM      4  C   UNL     1      13.219   4.494   1.672  1.00  0.00     0.006 C 
BRANCH   4   5
ATOM      5  C   UNL     1      11.873   4.816   2.336  1.00  0.00     0.053 C 
BRANCH   5   6
ATOM      6  C   UNL     1      10.737   4.735   1.363  1.00  0.00     0.041 C 
ATOM      7  O   UNL     1      10.524   5.679   0.558  1.00  0.00    -0.550 OA
ATOM      8  O   UNL     1       9.896   3.629   1.366  1.00  0.00    -0.550 OA
ENDBRANCH   5   6
ENDBRANCH   4   5
ENDBRANCH   3   4
ENDBRANCH   2   3
ENDBRANCH   1   2
BRANCH   1   9
ATOM      9  C   UNL     1      16.533   2.464  -0.177  1.00  0.00     0.000 C 
BRANCH   9  10
ATOM     10  C   UNL     1      15.916   3.755  -0.747  1.00  0.00    -0.000 C 
BRANCH  10  11
ATOM     11  C   UNL     1      15.144   3.541  -2.064  1.00  0.00    -0.000 C 
BRANCH  11  12
ATOM     12  C   UNL     1      13.630   3.313  -1.852  1.00  0.00    -0.000 C 
BRANCH  12  13
ATOM     13  C   UNL     1      13.251   1.832  -1.686  1.00  0.00    -0.003 C 
ATOM     14  C   UNL     1      14.093   0.903  -2.559  1.00  0.00     0.004 C 
ENDBRANCH  12  13
ENDBRANCH  11  12
ENDBRANCH  10  11
ENDBRANCH   9  10
ENDBRANCH   1   9
TORSDOF 10
ENDMDL
MODEL 6
REMARK VINA RESULT:    -3.828     14.517     15.797
REMARK INTER + INTRA:          -7.505
REMARK INTER:                  -6.301
REMARK INTRA:                  -1.204
REMARK UNBOUND:                -1.439
REMARK SMILES CCCCCCCCCCCC(=O)[O-]
REMARK SMILES IDX 7 1 8 2 9 3 10 4 11 5 12 6 13 7 14 8 6 9 5 10 4 11 3 12 2 13
REMARK SMILES IDX 1 14
REMARK H PARENT
REMARK Flexibility Score: inf
ROOT
ATOM      1  C   UNL     1      16.192   3.736  -0.763  1.00  0.00     0.000 C 
ENDROOT
BRANCH   1   2
ATOM      2  C   UNL     1      15.287   3.774  -2.005  1.00  0.00     0.000 C 
BRANCH   2   3
ATOM      3  C   UNL     1      13.890   3.190  -1.740  1.00  0.00     0.000 C 
BRANCH   3   4
ATOM      4  C   UNL     1      13.697   1.804  -2.380  1.00  0.00     0.006 C 
BRANCH   4   5
ATOM      5  C   UNL     1      14.122   0.668  -1.438  1.00  0.00     0.053 C 
BRANCH   5   6
ATOM      6  C   UNL     1      15.484   0.143  -1.776  1.00  0.00     0.041 C 
ATOM      7  O   UNL     1      16.402   0.163  -0.915  1.00  0.00    -0.550 OA
ATOM      8  O   UNL     1      15.746  -0.340  -3.052  1.00  0.00    -0.550 OA
ENDBRANCH   5   6
ENDBRANCH   4   5
ENDBRANCH   3   4
ENDBRANCH   2   3
ENDBRANCH   1   2
BRANCH   1   9
ATOM      9  C   UNL     1      15.369   3.933   0.520  1.00  0.00     0.000 C 
BRANCH   9  10
ATOM     10  C   UNL     1      15.590   2.803   1.544  1.00  0.00    -0.000 C 
BRANCH  10  11
ATOM     11  C   UNL     1      14.341   2.483   2.388  1.00  0.00    -0.000 C 
BRANCH  11  12
ATOM     12  C   UNL     1      13.050   3.126   1.833  1.00  0.00    -0.000 C 
BRANCH  12  13
ATOM     13  C   UNL     1      12.273   3.943   2.878  1.00  0.00    -0.003 C 
ATOM     14  C   UNL     1      11.288   4.927   2.249  1.00  0.00     0.004 C 
ENDBRANCH  12  13
ENDBRANCH  11  12
ENDBRANCH  10  11
ENDBRANCH   9  10
ENDBRANCH   1   9
TORSDOF 10
ENDMDL
MODEL 7
REMARK VINA RESULT:    -3.820     14.353     15.814
REMARK INTER + INTRA:          -7.492
REMARK INTER:                  -6.155
REMARK INTRA:                  -1.337
REMARK UNBOUND:                -1.439
REMARK SMILES CCCCCCCCCCCC(=O)[O-]
REMARK SMILES IDX 7 1 8 2 9 3 10 4 11 5 12 6 13 7 14 8 6 9 5 10 4 11 3 12 2 13
REMARK SMILES IDX 1 14
REMARK H PARENT
REMARK Flexibility Score: inf
ROOT
ATOM      1  C   UNL     1      16.854   1.855  -1.709  1.00  0.00     0.000 C 
ENDROOT
BRANCH   1   2
ATOM      2  C   UNL     1      16.137   0.513  -1.922  1.00  0.00     0.000 C 
BRANCH   2   3
ATOM      3  C   UNL     1      14.694   0.683  -2.425  1.00  0.00     0.000 C 
BRANCH   3   4
ATOM      4  C   UNL     1      13.673  -0.078  -1.562  1.00  0.00     0.006 C 
BRANCH   4   5
ATOM      5  C   UNL     1      12.962   0.842  -0.560  1.00  0.00     0.053 C 
BRANCH   5   6
ATOM      6  C   UNL     1      12.008   1.776  -1.239  1.00  0.00     0.041 C 
ATOM      7  O   UNL     1      10.961   1.329  -1.779  1.00  0.00    -0.550 OA
ATOM      8  O   UNL     1      12.289   3.135  -1.302  1.00  0.00    -0.550 OA
ENDBRANCH   5   6
ENDBRANCH   4   5
ENDBRANCH   3   4
ENDBRANCH   2   3
ENDBRANCH   1   2
BRANCH   1   9
ATOM      9  C   UNL     1      15.840   3.004  -1.588  1.00  0.00     0.000 C 
BRANCH   9  10
ATOM     10  C   UNL     1      15.969   3.768  -0.256  1.00  0.00    -0.000 C 
BRANCH  10  11
ATOM     11  C   UNL     1      15.810   2.870   0.988  1.00  0.00    -0.000 C 
BRANCH  11  12
ATOM     12  C   UNL     1      14.525   3.169   1.793  1.00  0.00    -0.000 C 
BRANCH  12  13
ATOM     13  C   UNL     1      13.926   4.554   1.500  1.00  0.00    -0.003 C 
ATOM     14  C   UNL     1      12.455   4.659   1.897  1.00  0.00     0.004 C 
ENDBRANCH  12  13
ENDBRANCH  11  12
ENDBRANCH  10  11
ENDBRANCH   9  10
ENDBRANCH   1   9
TORSDOF 10
ENDMDL
MODEL 8
REMARK VINA RESULT:    -3.797      1.742      2.933
REMARK INTER + INTRA:          -7.455
REMARK INTER:                  -6.475
REMARK INTRA:                  -0.980
REMARK UNBOUND:                -1.439
REMARK SMILES CCCCCCCCCCCC(=O)[O-]
REMARK SMILES IDX 7 1 8 2 9 3 10 4 11 5 12 6 13 7 14 8 6 9 5 10 4 11 3 12 2 13
REMARK SMILES IDX 1 14
REMARK H PARENT
REMARK Flexibility Score: inf
ROOT
ATOM      1  C   UNL     1      14.363  19.032  -1.882  1.00  0.00     0.000 C 
ENDROOT
BRANCH   1   2
ATOM      2  C   UNL     1      14.996  19.032  -3.283  1.00  0.00     0.000 C 
BRANCH   2   3
ATOM      3  C   UNL     1      14.234  18.143  -4.279  1.00  0.00     0.000 C 
BRANCH   3   4
ATOM      4  C   UNL     1      13.620  16.899  -3.613  1.00  0.00     0.006 C 
BRANCH   4   5
ATOM      5  C   UNL     1      13.110  15.884  -4.645  1.00  0.00     0.053 C 
BRANCH   5   6
ATOM      6  C   UNL     1      11.615  15.887  -4.739  1.00  0.00     0.041 C 
ATOM      7  O   UNL     1      10.923  16.374  -3.806  1.00  0.00    -0.550 OA
ATOM      8  O   UNL     1      10.985  15.327  -5.843  1.00  0.00    -0.550 OA
ENDBRANCH   5   6
ENDBRANCH   4   5
ENDBRANCH   3   4
ENDBRANCH   2   3
ENDBRANCH   1   2
BRANCH   1   9
ATOM      9  C   UNL     1      15.436  18.847  -0.797  1.00  0.00     0.000 C 
BRANCH   9  10
ATOM     10  C   UNL     1      15.246  17.547   0.007  1.00  0.00    -0.000 C 
BRANCH  10  11
ATOM     11  C   UNL     1      15.813  16.298  -0.698  1.00  0.00    -0.000 C 
BRANCH  11  12
ATOM     12  C   UNL     1      17.123  16.577  -1.470  1.00  0.00    -0.000 C 
BRANCH  12  13
ATOM     13  C   UNL     1      18.314  15.740  -0.977  1.00  0.00    -0.003 C 
ATOM     14  C   UNL     1      19.112  16.436   0.125  1.00  0.00     0.004 C 
ENDBRANCH  12  13
ENDBRANCH  11  12
ENDBRANCH  10  11
ENDBRANCH   9  10
ENDBRANCH   1   9
TORSDOF 10
ENDMDL
MODEL 9
REMARK VINA RESULT:    -3.726     14.413     15.989
REMARK INTER + INTRA:          -7.343
REMARK INTER:                  -5.920
REMARK INTRA:                  -1.423
REMARK UNBOUND:                -1.439
REMARK SMILES CCCCCCCCCCCC(=O)[O-]
REMARK SMILES IDX 7 1 8 2 9 3 10 4 11 5 12 6 13 7 14 8 6 9 5 10 4 11 3 12 2 13
REMARK SMILES IDX 1 14
REMARK H PARENT
REMARK Flexibility Score: inf
ROOT
ATOM      1  C   UNL     1      13.519   0.382  -1.413  1.00  0.00     0.000 C 
ENDROOT
BRANCH   1   2
ATOM      2  C   UNL     1      12.261   1.262  -1.497  1.00  0.00     0.000 C 
BRANCH   2   3
ATOM      3  C   UNL     1      12.269   2.407  -0.473  1.00  0.00     0.000 C 
BRANCH   3   4
ATOM      4  C   UNL     1      13.128   2.091   0.764  1.00  0.00     0.006 C 
BRANCH   4   5
ATOM      5  C   UNL     1      12.751   2.965   1.968  1.00  0.00     0.053 C 
BRANCH   5   6
ATOM      6  C   UNL     1      12.983   4.420   1.696  1.00  0.00     0.041 C 
ATOM      7  O   UNL     1      12.017   5.227   1.701  1.00  0.00    -0.550 OA
ATOM      8  O   UNL     1      14.263   4.879   1.410  1.00  0.00    -0.550 OA
ENDBRANCH   5   6
ENDBRANCH   4   5
ENDBRANCH   3   4
ENDBRANCH   2   3
ENDBRANCH   1   2
BRANCH   1   9
ATOM      9  C   UNL     1      14.306   0.426  -2.733  1.00  0.00     0.000 C 
BRANCH   9  10
ATOM     10  C   UNL     1      15.780   0.013  -2.557  1.00  0.00    -0.000 C 
BRANCH  10  11
ATOM     11  C   UNL     1      16.403   0.501  -1.234  1.00  0.00    -0.000 C 
BRANCH  11  12
ATOM     12  C   UNL     1      17.160   1.841  -1.376  1.00  0.00    -0.000 C 
BRANCH  12  13
ATOM     13  C   UNL     1      16.423   3.032  -0.742  1.00  0.00    -0.003 C 
ATOM     14  C   UNL     1      15.523   3.767  -1.733  1.00  0.00     0.004 C 
ENDBRANCH  12  13
ENDBRANCH  11  12
ENDBRANCH  10  11
ENDBRANCH   9  10
ENDBRANCH   1   9
TORSDOF 10
ENDMDL
