MODEL 1
REMARK VINA RESULT:    -3.727      0.000      0.000
REMARK INTER + INTRA:          -5.867
REMARK INTER:                  -5.688
REMARK INTRA:                  -0.178
REMARK UNBOUND:                -0.178
REMARK SMILES CC1=CCC[C@@H](C)C(=O)C[C@H](C(C)C)C(=O)C1
REMARK SMILES IDX 8 1 9 2 6 3 7 4 5 5 4 6 3 7 2 8 1 9 10 11 11 12 15 13 16 14
REMARK SMILES IDX 17 15 12 17 13 18 14 19
REMARK H PARENT
REMARK Flexibility Score: 70.00
ROOT
ATOM      1  C   UNL     1      17.228  25.956  28.357  1.00  0.00     0.136 C 
ATOM      2  O   UNL     1      16.311  25.990  27.552  1.00  0.00    -0.299 OA
ENDROOT
BRANCH   1   3
ATOM      3  C   UNL     1      17.400  27.133  29.306  1.00  0.00     0.053 C 
ATOM      4  C   UNL     1      16.246  27.201  30.314  1.00  0.00     0.016 C 
BRANCH   3   5
ATOM      5  C   UNL     1      17.556  28.463  28.546  1.00  0.00     0.015 C 
BRANCH   5   6
ATOM      6  C   UNL     1      18.909  28.535  27.818  1.00  0.00     0.028 C 
BRANCH   6   7
ATOM      7  C   UNL     1      20.069  28.890  28.715  1.00  0.00    -0.028 C 
ATOM      8  C   UNL     1      21.123  28.090  29.024  1.00  0.00    -0.070 CG0
ATOM      9  C   UNL     1      22.082  28.598  30.073  1.00  0.00     0.039 C 
ATOM     10  G   UNL     1      21.463  26.783  28.314  1.00  0.00     0.000 G0
ENDBRANCH   6   7
ENDBRANCH   5   6
ENDBRANCH   3   5
ENDBRANCH   1   3
BRANCH   1  11
ATOM     11  C   UNL     1      18.190  24.783  28.341  1.00  0.00     0.087 C 
BRANCH  11  12
ATOM     12  C   UNL     1      19.595  25.050  27.719  1.00  0.00     0.066 C 
BRANCH  12  13
ATOM     13  C   UNL     1      20.609  25.595  28.717  1.00  0.00     0.140 C 
ATOM     14  O   UNL     1      20.822  25.008  29.768  1.00  0.00    -0.299 OA
BRANCH  13  15
ATOM     15  C   UNL     1      21.460  26.780  28.333  1.00  0.00     0.106 CG0
ATOM     16  G   UNL     1      21.120  28.098  29.025  1.00  0.00     0.000 G0
ENDBRANCH  13  15
ENDBRANCH  12  13
BRANCH  12  17
ATOM     17  C   UNL     1      20.173  23.908  26.817  1.00  0.00    -0.006 C 
ATOM     18  C   UNL     1      19.125  22.918  26.291  1.00  0.00     0.008 C 
ATOM     19  C   UNL     1      20.993  24.469  25.641  1.00  0.00     0.008 C 
ENDBRANCH  12  17
ENDBRANCH  11  12
ENDBRANCH   1  11
TORSDOF 1
ENDMDL
MODEL 2
REMARK VINA RESULT:    -3.542      2.126      4.545
REMARK INTER + INTRA:          -5.584
REMARK INTER:                  -5.553
REMARK INTRA:                  -0.031
REMARK UNBOUND:                -0.178
REMARK SMILES CC1=CCC[C@@H](C)C(=O)C[C@H](C(C)C)C(=O)C1
REMARK SMILES IDX 8 1 9 2 6 3 7 4 5 5 4 6 3 7 2 8 1 9 10 11 11 12 15 13 16 14
REMARK SMILES IDX 17 15 12 17 13 18 14 19
REMARK H PARENT
REMARK Flexibility Score: 70.00
ROOT
ATOM      1  C   UNL     1      20.541  25.899  28.161  1.00  0.00     0.136 C 
ATOM      2  O   UNL     1      21.429  25.662  27.357  1.00  0.00    -0.299 OA
ENDROOT
BRANCH   1   3
ATOM      3  C   UNL     1      19.218  25.163  28.013  1.00  0.00     0.053 C 
ATOM      4  C   UNL     1      19.311  24.071  26.940  1.00  0.00     0.016 C 
BRANCH   3   5
ATOM      5  C   UNL     1      18.054  26.131  27.724  1.00  0.00     0.015 C 
BRANCH   5   6
ATOM      6  C   UNL     1      17.301  26.499  29.014  1.00  0.00     0.028 C 
BRANCH   6   7
ATOM      7  C   UNL     1      16.839  27.933  29.065  1.00  0.00    -0.028 C 
ATOM      8  C   UNL     1      17.473  28.964  29.682  1.00  0.00    -0.070 CG0
ATOM      9  C   UNL     1      16.740  30.282  29.742  1.00  0.00     0.039 C 
ATOM     10  G   UNL     1      18.903  28.914  30.213  1.00  0.00     0.000 G0
ENDBRANCH   6   7
ENDBRANCH   5   6
ENDBRANCH   3   5
ENDBRANCH   1   3
BRANCH   1  11
ATOM     11  C   UNL     1      20.766  26.950  29.232  1.00  0.00     0.087 C 
BRANCH  11  12
ATOM     12  C   UNL     1      21.003  28.407  28.731  1.00  0.00     0.066 C 
BRANCH  12  13
ATOM     13  C   UNL     1      19.990  29.409  29.270  1.00  0.00     0.140 C 
ATOM     14  O   UNL     1      19.972  30.558  28.855  1.00  0.00    -0.299 OA
BRANCH  13  15
ATOM     15  C   UNL     1      18.909  28.933  30.211  1.00  0.00     0.106 CG0
ATOM     16  G   UNL     1      17.485  28.965  29.662  1.00  0.00     0.000 G0
ENDBRANCH  13  15
ENDBRANCH  12  13
BRANCH  12  17
ATOM     17  C   UNL     1      22.478  28.925  28.803  1.00  0.00    -0.006 C 
ATOM     18  C   UNL     1      23.078  28.948  30.215  1.00  0.00     0.008 C 
ATOM     19  C   UNL     1      23.406  28.142  27.857  1.00  0.00     0.008 C 
ENDBRANCH  12  17
ENDBRANCH  11  12
ENDBRANCH   1  11
TORSDOF 1
ENDMDL
MODEL 3
REMARK VINA RESULT:    -3.513      1.919      3.838
REMARK INTER + INTRA:          -5.540
REMARK INTER:                  -5.128
REMARK INTRA:                  -0.412
REMARK UNBOUND:                -0.178
REMARK SMILES CC1=CCC[C@@H](C)C(=O)C[C@H](C(C)C)C(=O)C1
REMARK SMILES IDX 8 1 9 2 6 3 7 4 5 5 4 6 3 7 2 8 1 9 10 11 11 12 15 13 16 14
REMARK SMILES IDX 17 15 12 17 13 18 14 19
REMARK H PARENT
REMARK Flexibility Score: 70.00
ROOT
ATOM      1  C   UNL     1      19.696  25.343  27.424  1.00  0.00     0.136 C 
ATOM      2  O   UNL     1      19.621  24.301  26.791  1.00  0.00    -0.299 OA
ENDROOT
BRANCH   1   3
ATOM      3  C   UNL     1      20.936  25.586  28.271  1.00  0.00     0.053 C 
ATOM      4  C   UNL     1      20.735  25.073  29.702  1.00  0.00     0.016 C 
BRANCH   3   5
ATOM      5  C   UNL     1      21.353  27.069  28.263  1.00  0.00     0.015 C 
BRANCH   5   6
ATOM      6  C   UNL     1      21.472  27.623  29.693  1.00  0.00     0.028 C 
BRANCH   6   7
ATOM      7  C   UNL     1      20.817  28.967  29.886  1.00  0.00    -0.028 C 
ATOM      8  C   UNL     1      19.494  29.198  30.088  1.00  0.00    -0.070 CG0
ATOM      9  C   UNL     1      19.043  30.639  30.091  1.00  0.00     0.039 C 
ATOM     10  G   UNL     1      18.463  28.124  30.421  1.00  0.00     0.000 G0
ENDBRANCH   6   7
ENDBRANCH   5   6
ENDBRANCH   3   5
ENDBRANCH   1   3
BRANCH   1  11
ATOM     11  C   UNL     1      18.535  26.319  27.391  1.00  0.00     0.087 C 
BRANCH  11  12
ATOM     12  C   UNL     1      17.629  26.358  28.659  1.00  0.00     0.066 C 
BRANCH  12  13
ATOM     13  C   UNL     1      17.520  27.742  29.287  1.00  0.00     0.140 C 
ATOM     14  O   UNL     1      16.614  28.498  28.970  1.00  0.00    -0.299 OA
BRANCH  13  15
ATOM     15  C   UNL     1      18.450  28.117  30.416  1.00  0.00     0.106 CG0
ATOM     16  G   UNL     1      19.495  29.182  30.094  1.00  0.00     0.000 G0
ENDBRANCH  13  15
ENDBRANCH  12  13
BRANCH  12  17
ATOM     17  C   UNL     1      16.249  25.628  28.538  1.00  0.00    -0.006 C 
ATOM     18  C   UNL     1      16.188  24.557  27.440  1.00  0.00     0.008 C 
ATOM     19  C   UNL     1      15.805  25.021  29.881  1.00  0.00     0.008 C 
ENDBRANCH  12  17
ENDBRANCH  11  12
ENDBRANCH   1  11
TORSDOF 1
ENDMDL
MODEL 4
REMARK VINA RESULT:    -3.446      2.764      5.662
REMARK INTER + INTRA:          -5.437
REMARK INTER:                  -4.989
REMARK INTRA:                  -0.448
REMARK UNBOUND:                -0.178
REMARK SMILES CC1=CCC[C@@H](C)C(=O)C[C@H](C(C)C)C(=O)C1
REMARK SMILES IDX 8 1 9 2 6 3 7 4 5 5 4 6 3 7 2 8 1 9 10 11 11 12 15 13 16 14
REMARK SMILES IDX 17 15 12 17 13 18 14 19
REMARK H PARENT
REMARK Flexibility Score: 70.00
ROOT
ATOM      1  C   UNL     1      20.302  27.587  29.283  1.00  0.00     0.136 C 
ATOM      2  O   UNL     1      21.188  27.989  28.544  1.00  0.00    -0.299 OA
ENDROOT
BRANCH   1   3
ATOM      3  C   UNL     1      19.777  26.175  29.078  1.00  0.00     0.053 C 
ATOM      4  C   UNL     1      20.862  25.134  29.378  1.00  0.00     0.016 C 
BRANCH   3   5
ATOM      5  C   UNL     1      19.193  25.980  27.666  1.00  0.00     0.015 C 
BRANCH   5   6
ATOM      6  C   UNL     1      17.866  26.742  27.500  1.00  0.00     0.028 C 
BRANCH   6   7
ATOM      7  C   UNL     1      16.754  26.232  28.381  1.00  0.00    -0.028 C 
ATOM      8  C   UNL     1      16.082  26.942  29.325  1.00  0.00    -0.070 CG0
ATOM      9  C   UNL     1      15.119  26.178  30.200  1.00  0.00     0.039 C 
ATOM     10  G   UNL     1      16.148  28.458  29.485  1.00  0.00     0.000 G0
ENDBRANCH   6   7
ENDBRANCH   5   6
ENDBRANCH   3   5
ENDBRANCH   1   3
BRANCH   1  11
ATOM     11  C   UNL     1      19.722  28.523  30.327  1.00  0.00     0.087 C 
BRANCH  11  12
ATOM     12  C   UNL     1      18.536  29.424  29.865  1.00  0.00     0.066 C 
BRANCH  12  13
ATOM     13  C   UNL     1      17.188  28.994  30.431  1.00  0.00     0.140 C 
ATOM     14  O   UNL     1      16.918  29.188  31.607  1.00  0.00    -0.299 OA
BRANCH  13  15
ATOM     15  C   UNL     1      16.130  28.464  29.495  1.00  0.00     0.106 CG0
ATOM     16  G   UNL     1      16.101  26.949  29.309  1.00  0.00     0.000 G0
ENDBRANCH  13  15
ENDBRANCH  12  13
BRANCH  12  17
ATOM     17  C   UNL     1      18.775  30.968  29.953  1.00  0.00    -0.006 C 
ATOM     18  C   UNL     1      20.179  31.423  29.530  1.00  0.00     0.008 C 
ATOM     19  C   UNL     1      17.714  31.756  29.164  1.00  0.00     0.008 C 
ENDBRANCH  12  17
ENDBRANCH  11  12
ENDBRANCH   1  11
TORSDOF 1
ENDMDL
MODEL 5
REMARK VINA RESULT:    -3.431      2.270      5.573
REMARK INTER + INTRA:          -5.415
REMARK INTER:                  -5.232
REMARK INTRA:                  -0.183
REMARK UNBOUND:                -0.178
REMARK SMILES CC1=CCC[C@@H](C)C(=O)C[C@H](C(C)C)C(=O)C1
REMARK SMILES IDX 8 1 9 2 6 3 7 4 5 5 4 6 3 7 2 8 1 9 10 11 11 12 15 13 16 14
REMARK SMILES IDX 17 15 12 17 13 18 14 19
REMARK H PARENT
REMARK Flexibility Score: 70.00
ROOT
ATOM      1  C   UNL     1      20.869  28.220  29.351  1.00  0.00     0.136 C 
ATOM      2  O   UNL     1      21.305  29.093  28.617  1.00  0.00    -0.299 OA
ENDROOT
BRANCH   1   3
ATOM      3  C   UNL     1      21.613  26.895  29.418  1.00  0.00     0.053 C 
ATOM      4  C   UNL     1      22.726  26.833  28.365  1.00  0.00     0.016 C 
BRANCH   3   5
ATOM      5  C   UNL     1      20.656  25.694  29.288  1.00  0.00     0.015 C 
BRANCH   5   6
ATOM      6  C   UNL     1      20.238  25.469  27.825  1.00  0.00     0.028 C 
BRANCH   6   7
ATOM      7  C   UNL     1      18.792  25.079  27.655  1.00  0.00    -0.028 C 
ATOM      8  C   UNL     1      17.727  25.922  27.634  1.00  0.00    -0.070 CG0
ATOM      9  C   UNL     1      16.355  25.293  27.617  1.00  0.00     0.039 C 
ATOM     10  G   UNL     1      17.820  27.441  27.514  1.00  0.00     0.000 G0
ENDBRANCH   6   7
ENDBRANCH   5   6
ENDBRANCH   3   5
ENDBRANCH   1   3
BRANCH   1  11
ATOM     11  C   UNL     1      19.581  28.464  30.114  1.00  0.00     0.087 C 
BRANCH  11  12
ATOM     12  C   UNL     1      18.443  29.190  29.335  1.00  0.00     0.066 C 
BRANCH  12  13
ATOM     13  C   UNL     1      17.427  28.240  28.713  1.00  0.00     0.140 C 
ATOM     14  O   UNL     1      16.274  28.212  29.117  1.00  0.00    -0.299 OA
BRANCH  13  15
ATOM     15  C   UNL     1      17.815  27.440  27.492  1.00  0.00     0.106 CG0
ATOM     16  G   UNL     1      17.732  25.923  27.635  1.00  0.00     0.000 G0
ENDBRANCH  13  15
ENDBRANCH  12  13
BRANCH  12  17
ATOM     17  C   UNL     1      17.779  30.405  30.066  1.00  0.00    -0.006 C 
ATOM     18  C   UNL     1      18.476  30.826  31.367  1.00  0.00     0.008 C 
ATOM     19  C   UNL     1      17.637  31.623  29.136  1.00  0.00     0.008 C 
ENDBRANCH  12  17
ENDBRANCH  11  12
ENDBRANCH   1  11
TORSDOF 1
ENDMDL
MODEL 6
REMARK VINA RESULT:    -3.415      2.007      4.355
REMARK INTER + INTRA:          -5.390
REMARK INTER:                  -5.063
REMARK INTRA:                  -0.327
REMARK UNBOUND:                -0.178
REMARK SMILES CC1=CCC[C@@H](C)C(=O)C[C@H](C(C)C)C(=O)C1
REMARK SMILES IDX 8 1 9 2 6 3 7 4 5 5 4 6 3 7 2 8 1 9 10 11 11 12 15 13 16 14
REMARK SMILES IDX 17 15 12 17 13 18 14 19
REMARK H PARENT
REMARK Flexibility Score: 70.00
ROOT
ATOM      1  C   UNL     1      17.723  27.551  27.873  1.00  0.00     0.136 C 
ATOM      2  O   UNL     1      18.251  28.068  26.901  1.00  0.00    -0.299 OA
ENDROOT
BRANCH   1   3
ATOM      3  C   UNL     1      17.389  26.068  27.810  1.00  0.00     0.053 C 
ATOM      4  C   UNL     1      16.565  25.636  29.029  1.00  0.00     0.016 C 
BRANCH   3   5
ATOM      5  C   UNL     1      18.654  25.203  27.657  1.00  0.00     0.015 C 
BRANCH   5   6
ATOM      6  C   UNL     1      19.617  25.408  28.839  1.00  0.00     0.028 C 
BRANCH   6   7
ATOM      7  C   UNL     1      20.968  25.946  28.441  1.00  0.00    -0.028 C 
ATOM      8  C   UNL     1      21.525  27.114  28.856  1.00  0.00    -0.070 CG0
ATOM      9  C   UNL     1      22.819  27.528  28.199  1.00  0.00     0.039 C 
ATOM     10  G   UNL     1      21.000  27.969  30.006  1.00  0.00     0.000 G0
ENDBRANCH   6   7
ENDBRANCH   5   6
ENDBRANCH   3   5
ENDBRANCH   1   3
BRANCH   1  11
ATOM     11  C   UNL     1      17.368  28.409  29.073  1.00  0.00     0.087 C 
BRANCH  11  12
ATOM     12  C   UNL     1      18.448  28.514  30.191  1.00  0.00     0.066 C 
BRANCH  12  13
ATOM     13  C   UNL     1      19.834  28.873  29.668  1.00  0.00     0.140 C 
ATOM     14  O   UNL     1      20.022  29.932  29.087  1.00  0.00    -0.299 OA
BRANCH  13  15
ATOM     15  C   UNL     1      21.004  27.982  30.005  1.00  0.00     0.106 CG0
ATOM     16  G   UNL     1      21.536  27.119  28.863  1.00  0.00     0.000 G0
ENDBRANCH  13  15
ENDBRANCH  12  13
BRANCH  12  17
ATOM     17  C   UNL     1      18.041  29.331  31.463  1.00  0.00    -0.006 C 
ATOM     18  C   UNL     1      17.419  30.703  31.168  1.00  0.00     0.008 C 
ATOM     19  C   UNL     1      17.108  28.526  32.385  1.00  0.00     0.008 C 
ENDBRANCH  12  17
ENDBRANCH  11  12
ENDBRANCH   1  11
TORSDOF 1
ENDMDL
MODEL 7
REMARK VINA RESULT:    -3.408      3.425      6.642
REMARK INTER + INTRA:          -5.379
REMARK INTER:                  -5.258
REMARK INTRA:                  -0.122
REMARK UNBOUND:                -0.178
REMARK SMILES CC1=CCC[C@@H](C)C(=O)C[C@H](C(C)C)C(=O)C1
REMARK SMILES IDX 8 1 9 2 6 3 7 4 5 5 4 6 3 7 2 8 1 9 10 11 11 12 15 13 16 14
REMARK SMILES IDX 17 15 12 17 13 18 14 19
REMARK H PARENT
REMARK Flexibility Score: 70.00
ROOT
ATOM      1  C   UNL     1      18.801  30.193  29.628  1.00  0.00     0.136 C 
ATOM      2  O   UNL     1      19.227  31.218  29.120  1.00  0.00    -0.299 OA
ENDROOT
BRANCH   1   3
ATOM      3  C   UNL     1      19.520  28.886  29.332  1.00  0.00     0.053 C 
ATOM      4  C   UNL     1      20.982  29.137  28.944  1.00  0.00     0.016 C 
BRANCH   3   5
ATOM      5  C   UNL     1      18.790  28.063  28.253  1.00  0.00     0.015 C 
BRANCH   5   6
ATOM      6  C   UNL     1      18.307  26.714  28.813  1.00  0.00     0.028 C 
BRANCH   6   7
ATOM      7  C   UNL     1      16.867  26.400  28.494  1.00  0.00    -0.028 C 
ATOM      8  C   UNL     1      15.776  26.839  29.176  1.00  0.00    -0.070 CG0
ATOM      9  C   UNL     1      14.440  26.263  28.774  1.00  0.00     0.039 C 
ATOM     10  G   UNL     1      15.793  27.943  30.229  1.00  0.00     0.000 G0
ENDBRANCH   6   7
ENDBRANCH   5   6
ENDBRANCH   3   5
ENDBRANCH   1   3
BRANCH   1  11
ATOM     11  C   UNL     1      17.546  30.250  30.480  1.00  0.00     0.087 C 
BRANCH  11  12
ATOM     12  C   UNL     1      16.204  30.476  29.719  1.00  0.00     0.066 C 
BRANCH  12  13
ATOM     13  C   UNL     1      15.247  29.294  29.809  1.00  0.00     0.140 C 
ATOM     14  O   UNL     1      14.092  29.401  29.424  1.00  0.00    -0.299 OA
BRANCH  13  15
ATOM     15  C   UNL     1      15.775  27.946  30.236  1.00  0.00     0.106 CG0
ATOM     16  G   UNL     1      15.773  26.859  29.164  1.00  0.00     0.000 G0
ENDBRANCH  13  15
ENDBRANCH  12  13
BRANCH  12  17
ATOM     17  C   UNL     1      15.503  31.854  29.960  1.00  0.00    -0.006 C 
ATOM     18  C   UNL     1      15.366  32.252  31.436  1.00  0.00     0.008 C 
ATOM     19  C   UNL     1      16.189  32.989  29.179  1.00  0.00     0.008 C 
ENDBRANCH  12  17
ENDBRANCH  11  12
ENDBRANCH   1  11
TORSDOF 1
ENDMDL
MODEL 8
REMARK VINA RESULT:    -3.392      3.782      6.359
REMARK INTER + INTRA:          -5.355
REMARK INTER:                  -4.919
REMARK INTRA:                  -0.436
REMARK UNBOUND:                -0.178
REMARK SMILES CC1=CCC[C@@H](C)C(=O)C[C@H](C(C)C)C(=O)C1
REMARK SMILES IDX 8 1 9 2 6 3 7 4 5 5 4 6 3 7 2 8 1 9 10 11 11 12 15 13 16 14
REMARK SMILES IDX 17 15 12 17 13 18 14 19
REMARK H PARENT
REMARK Flexibility Score: 70.00
ROOT
ATOM      1  C   UNL     1      18.742  32.381  31.767  1.00  0.00     0.136 C 
ATOM      2  O   UNL     1      18.202  33.349  32.278  1.00  0.00    -0.299 OA
ENDROOT
BRANCH   1   3
ATOM      3  C   UNL     1      20.233  32.456  31.475  1.00  0.00     0.053 C 
ATOM      4  C   UNL     1      20.516  33.379  30.283  1.00  0.00     0.016 C 
BRANCH   3   5
ATOM      5  C   UNL     1      20.845  31.059  31.256  1.00  0.00     0.015 C 
BRANCH   5   6
ATOM      6  C   UNL     1      21.061  30.773  29.760  1.00  0.00     0.028 C 
BRANCH   6   7
ATOM      7  C   UNL     1      21.029  29.307  29.406  1.00  0.00    -0.028 C 
ATOM      8  C   UNL     1      19.969  28.622  28.903  1.00  0.00    -0.070 CG0
ATOM      9  C   UNL     1      20.118  27.125  28.780  1.00  0.00     0.039 C 
ATOM     10  G   UNL     1      18.698  29.264  28.355  1.00  0.00     0.000 G0
ENDBRANCH   6   7
ENDBRANCH   5   6
ENDBRANCH   3   5
ENDBRANCH   1   3
BRANCH   1  11
ATOM     11  C   UNL     1      17.905  31.173  31.389  1.00  0.00     0.087 C 
BRANCH  11  12
ATOM     12  C   UNL     1      17.517  31.045  29.884  1.00  0.00     0.066 C 
BRANCH  12  13
ATOM     13  C   UNL     1      17.611  29.621  29.350  1.00  0.00     0.140 C 
ATOM     14  O   UNL     1      16.756  28.795  29.632  1.00  0.00    -0.299 OA
BRANCH  13  15
ATOM     15  C   UNL     1      18.686  29.277  28.348  1.00  0.00     0.106 CG0
ATOM     16  G   UNL     1      19.943  28.624  28.916  1.00  0.00     0.000 G0
ENDBRANCH  13  15
ENDBRANCH  12  13
BRANCH  12  17
ATOM     17  C   UNL     1      16.204  31.778  29.450  1.00  0.00    -0.006 C 
ATOM     18  C   UNL     1      15.079  31.746  30.494  1.00  0.00     0.008 C 
ATOM     19  C   UNL     1      16.476  33.233  29.025  1.00  0.00     0.008 C 
ENDBRANCH  12  17
ENDBRANCH  11  12
ENDBRANCH   1  11
TORSDOF 1
ENDMDL
MODEL 9
REMARK VINA RESULT:    -3.349      3.888      6.291
REMARK INTER + INTRA:          -5.290
REMARK INTER:                  -4.928
REMARK INTRA:                  -0.362
REMARK UNBOUND:                -0.178
REMARK SMILES CC1=CCC[C@@H](C)C(=O)C[C@H](C(C)C)C(=O)C1
REMARK SMILES IDX 8 1 9 2 6 3 7 4 5 5 4 6 3 7 2 8 1 9 10 11 11 12 15 13 16 14
REMARK SMILES IDX 17 15 12 17 13 18 14 19
REMARK H PARENT
REMARK Flexibility Score: 70.00
ROOT
ATOM      1  C   UNL     1      18.192  29.401  29.039  1.00  0.00     0.136 C 
ATOM      2  O   UNL     1      17.082  28.929  29.231  1.00  0.00    -0.299 OA
ENDROOT
BRANCH   1   3
ATOM      3  C   UNL     1      19.349  28.445  28.786  1.00  0.00     0.053 C 
ATOM      4  C   UNL     1      19.130  27.112  29.511  1.00  0.00     0.016 C 
BRANCH   3   5
ATOM      5  C   UNL     1      20.703  29.072  29.168  1.00  0.00     0.015 C 
BRANCH   5   6
ATOM      6  C   UNL     1      21.001  28.888  30.665  1.00  0.00     0.028 C 
BRANCH   6   7
ATOM      7  C   UNL     1      21.789  30.019  31.277  1.00  0.00    -0.028 C 
ATOM      8  C   UNL     1      21.278  31.146  31.837  1.00  0.00    -0.070 CG0
ATOM      9  C   UNL     1      22.263  32.218  32.238  1.00  0.00     0.039 C 
ATOM     10  G   UNL     1      19.808  31.356  32.189  1.00  0.00     0.000 G0
ENDBRANCH   6   7
ENDBRANCH   5   6
ENDBRANCH   3   5
ENDBRANCH   1   3
BRANCH   1  11
ATOM     11  C   UNL     1      18.388  30.903  29.118  1.00  0.00     0.087 C 
BRANCH  11  12
ATOM     12  C   UNL     1      17.889  31.597  30.423  1.00  0.00     0.066 C 
BRANCH  12  13
ATOM     13  C   UNL     1      19.008  32.229  31.242  1.00  0.00     0.140 C 
ATOM     14  O   UNL     1      19.185  33.438  31.220  1.00  0.00    -0.299 OA
BRANCH  13  15
ATOM     15  C   UNL     1      19.799  31.371  32.198  1.00  0.00     0.106 CG0
ATOM     16  G   UNL     1      21.264  31.144  31.835  1.00  0.00     0.000 G0
ENDBRANCH  13  15
ENDBRANCH  12  13
BRANCH  12  17
ATOM     17  C   UNL     1      16.639  32.526  30.270  1.00  0.00    -0.006 C 
ATOM     18  C   UNL     1      16.462  33.134  28.872  1.00  0.00     0.008 C 
ATOM     19  C   UNL     1      15.342  31.813  30.694  1.00  0.00     0.008 C 
ENDBRANCH  12  17
ENDBRANCH  11  12
ENDBRANCH   1  11
TORSDOF 1
ENDMDL
