MODEL 1
REMARK VINA RESULT:    -5.081      0.000      0.000
REMARK INTER + INTRA:          -8.986
REMARK INTER:                  -8.051
REMARK INTRA:                  -0.934
REMARK UNBOUND:                -0.934
REMARK SMILES CCCCCCCCCCCC(=O)[O-]
REMARK SMILES IDX 7 1 8 2 9 3 10 4 11 5 12 6 13 7 14 8 6 9 5 10 4 11 3 12 2 13
REMARK SMILES IDX 1 14
REMARK H PARENT
REMARK Flexibility Score: inf
ROOT
ATOM      1  C   UNL     1       7.238  53.619  24.261  1.00  0.00     0.000 C 
ENDROOT
BRANCH   1   2
ATOM      2  C   UNL     1       6.445  54.617  23.393  1.00  0.00     0.000 C 
BRANCH   2   3
ATOM      3  C   UNL     1       7.269  55.786  22.824  1.00  0.00     0.000 C 
BRANCH   3   4
ATOM      4  C   UNL     1       8.044  55.406  21.551  1.00  0.00     0.006 C 
BRANCH   4   5
ATOM      5  C   UNL     1       7.307  55.837  20.275  1.00  0.00     0.053 C 
BRANCH   5   6
ATOM      6  C   UNL     1       6.914  54.660  19.435  1.00  0.00     0.041 C 
ATOM      7  O   UNL     1       6.675  54.809  18.207  1.00  0.00    -0.550 OA
ATOM      8  O   UNL     1       6.838  53.394  20.001  1.00  0.00    -0.550 OA
ENDBRANCH   5   6
ENDBRANCH   4   5
ENDBRANCH   3   4
ENDBRANCH   2   3
ENDBRANCH   1   2
BRANCH   1   9
ATOM      9  C   UNL     1       7.850  54.211  25.542  1.00  0.00     0.000 C 
BRANCH   9  10
ATOM     10  C   UNL     1       9.191  54.919  25.291  1.00  0.00    -0.000 C 
BRANCH  10  11
ATOM     11  C   UNL     1      10.278  53.908  24.898  1.00  0.00    -0.000 C 
BRANCH  11  12
ATOM     12  C   UNL     1      10.632  53.960  23.400  1.00  0.00    -0.000 C 
BRANCH  12  13
ATOM     13  C   UNL     1      10.385  52.651  22.632  1.00  0.00    -0.003 C 
ATOM     14  C   UNL     1      10.150  51.453  23.551  1.00  0.00     0.004 C 
ENDBRANCH  12  13
ENDBRANCH  11  12
ENDBRANCH  10  11
ENDBRANCH   9  10
ENDBRANCH   1   9
TORSDOF 10
ENDMDL
MODEL 2
REMARK VINA RESULT:    -4.980      1.043      2.155
REMARK INTER + INTRA:          -8.825
REMARK INTER:                  -7.603
REMARK INTRA:                  -1.222
REMARK UNBOUND:                -0.934
REMARK SMILES CCCCCCCCCCCC(=O)[O-]
REMARK SMILES IDX 7 1 8 2 9 3 10 4 11 5 12 6 13 7 14 8 6 9 5 10 4 11 3 12 2 13
REMARK SMILES IDX 1 14
REMARK H PARENT
REMARK Flexibility Score: inf
ROOT
ATOM      1  C   UNL     1       6.111  54.193  23.332  1.00  0.00     0.000 C 
ENDROOT
BRANCH   1   2
ATOM      2  C   UNL     1       5.955  55.631  22.796  1.00  0.00     0.000 C 
BRANCH   2   3
ATOM      3  C   UNL     1       7.264  56.433  22.685  1.00  0.00     0.000 C 
BRANCH   3   4
ATOM      4  C   UNL     1       8.061  56.100  21.412  1.00  0.00     0.006 C 
BRANCH   4   5
ATOM      5  C   UNL     1       7.159  55.995  20.174  1.00  0.00     0.053 C 
BRANCH   5   6
ATOM      6  C   UNL     1       7.173  54.615  19.591  1.00  0.00     0.041 C 
ATOM      7  O   UNL     1       7.866  53.709  20.124  1.00  0.00    -0.550 OA
ATOM      8  O   UNL     1       6.401  54.323  18.474  1.00  0.00    -0.550 OA
ENDBRANCH   5   6
ENDBRANCH   4   5
ENDBRANCH   3   4
ENDBRANCH   2   3
ENDBRANCH   1   2
BRANCH   1   9
ATOM      9  C   UNL     1       7.279  53.986  24.313  1.00  0.00     0.000 C 
BRANCH   9  10
ATOM     10  C   UNL     1       8.283  52.927  23.830  1.00  0.00    -0.000 C 
BRANCH  10  11
ATOM     11  C   UNL     1       9.668  53.550  23.603  1.00  0.00    -0.000 C 
BRANCH  11  12
ATOM     12  C   UNL     1       9.930  54.774  24.500  1.00  0.00    -0.000 C 
BRANCH  12  13
ATOM     13  C   UNL     1      10.740  54.480  25.774  1.00  0.00    -0.003 C 
ATOM     14  C   UNL     1       9.970  54.791  27.057  1.00  0.00     0.004 C 
ENDBRANCH  12  13
ENDBRANCH  11  12
ENDBRANCH  10  11
ENDBRANCH   9  10
ENDBRANCH   1   9
TORSDOF 10
ENDMDL
MODEL 3
REMARK VINA RESULT:    -4.979      3.044      5.271
REMARK INTER + INTRA:          -8.824
REMARK INTER:                  -7.801
REMARK INTRA:                  -1.023
REMARK UNBOUND:                -0.934
REMARK SMILES CCCCCCCCCCCC(=O)[O-]
REMARK SMILES IDX 7 1 8 2 9 3 10 4 11 5 12 6 13 7 14 8 6 9 5 10 4 11 3 12 2 13
REMARK SMILES IDX 1 14
REMARK H PARENT
REMARK Flexibility Score: inf
ROOT
ATOM      1  C   UNL     1       7.024  54.150  24.057  1.00  0.00     0.000 C 
ENDROOT
BRANCH   1   2
ATOM      2  C   UNL     1       7.791  52.902  23.574  1.00  0.00     0.000 C 
BRANCH   2   3
ATOM      3  C   UNL     1       9.150  53.188  22.909  1.00  0.00     0.000 C 
BRANCH   3   4
ATOM      4  C   UNL     1       9.884  54.382  23.541  1.00  0.00     0.006 C 
BRANCH   4   5
ATOM      5  C   UNL     1      10.737  53.965  24.748  1.00  0.00     0.053 C 
BRANCH   5   6
ATOM      6  C   UNL     1      10.334  54.692  25.994  1.00  0.00     0.041 C 
ATOM      7  O   UNL     1       9.261  55.351  26.024  1.00  0.00    -0.550 OA
ATOM      8  O   UNL     1      11.128  54.621  27.130  1.00  0.00    -0.550 OA
ENDBRANCH   5   6
ENDBRANCH   4   5
ENDBRANCH   3   4
ENDBRANCH   2   3
ENDBRANCH   1   2
BRANCH   1   9
ATOM      9  C   UNL     1       5.701  54.428  23.320  1.00  0.00     0.000 C 
BRANCH   9  10
ATOM     10  C   UNL     1       5.693  55.785  22.600  1.00  0.00    -0.000 C 
BRANCH  10  11
ATOM     11  C   UNL     1       7.125  56.287  22.361  1.00  0.00    -0.000 C 
BRANCH  11  12
ATOM     12  C   UNL     1       7.586  56.114  20.902  1.00  0.00    -0.000 C 
BRANCH  12  13
ATOM     13  C   UNL     1       7.246  54.752  20.274  1.00  0.00    -0.003 C 
ATOM     14  C   UNL     1       6.970  54.837  18.773  1.00  0.00     0.004 C 
ENDBRANCH  12  13
ENDBRANCH  11  12
ENDBRANCH  10  11
ENDBRANCH   9  10
ENDBRANCH   1   9
TORSDOF 10
ENDMDL
MODEL 4
REMARK VINA RESULT:    -4.881      2.135      3.416
REMARK INTER + INTRA:          -8.668
REMARK INTER:                  -7.730
REMARK INTRA:                  -0.938
REMARK UNBOUND:                -0.934
REMARK SMILES CCCCCCCCCCCC(=O)[O-]
REMARK SMILES IDX 7 1 8 2 9 3 10 4 11 5 12 6 13 7 14 8 6 9 5 10 4 11 3 12 2 13
REMARK SMILES IDX 1 14
REMARK H PARENT
REMARK Flexibility Score: inf
ROOT
ATOM      1  C   UNL     1       9.651  53.508  23.045  1.00  0.00     0.000 C 
ENDROOT
BRANCH   1   2
ATOM      2  C   UNL     1       9.000  54.694  22.304  1.00  0.00     0.000 C 
BRANCH   2   3
ATOM      3  C   UNL     1       8.124  54.310  21.099  1.00  0.00     0.000 C 
BRANCH   3   4
ATOM      4  C   UNL     1       7.195  55.451  20.649  1.00  0.00     0.006 C 
BRANCH   4   5
ATOM      5  C   UNL     1       7.059  56.543  21.720  1.00  0.00     0.053 C 
BRANCH   5   6
ATOM      6  C   UNL     1       5.716  56.510  22.382  1.00  0.00     0.041 C 
ATOM      7  O   UNL     1       5.227  55.416  22.769  1.00  0.00    -0.550 OA
ATOM      8  O   UNL     1       5.016  57.690  22.597  1.00  0.00    -0.550 OA
ENDBRANCH   5   6
ENDBRANCH   4   5
ENDBRANCH   3   4
ENDBRANCH   2   3
ENDBRANCH   1   2
BRANCH   1   9
ATOM      9  C   UNL     1       8.685  52.654  23.885  1.00  0.00     0.000 C 
BRANCH   9  10
ATOM     10  C   UNL     1       7.490  53.457  24.421  1.00  0.00    -0.000 C 
BRANCH  10  11
ATOM     11  C   UNL     1       7.733  53.896  25.872  1.00  0.00    -0.000 C 
BRANCH  11  12
ATOM     12  C   UNL     1       8.753  55.043  25.988  1.00  0.00    -0.000 C 
BRANCH  12  13
ATOM     13  C   UNL     1       9.901  54.790  26.981  1.00  0.00    -0.003 C 
ATOM     14  C   UNL     1      11.256  54.614  26.297  1.00  0.00     0.004 C 
ENDBRANCH  12  13
ENDBRANCH  11  12
ENDBRANCH  10  11
ENDBRANCH   9  10
ENDBRANCH   1   9
TORSDOF 10
ENDMDL
MODEL 5
REMARK VINA RESULT:    -4.757      1.848      2.547
REMARK INTER + INTRA:          -8.472
REMARK INTER:                  -7.415
REMARK INTRA:                  -1.057
REMARK UNBOUND:                -0.934
REMARK SMILES CCCCCCCCCCCC(=O)[O-]
REMARK SMILES IDX 7 1 8 2 9 3 10 4 11 5 12 6 13 7 14 8 6 9 5 10 4 11 3 12 2 13
REMARK SMILES IDX 1 14
REMARK H PARENT
REMARK Flexibility Score: inf
ROOT
ATOM      1  C   UNL     1       8.071  54.345  25.690  1.00  0.00     0.000 C 
ENDROOT
BRANCH   1   2
ATOM      2  C   UNL     1       7.279  53.486  24.684  1.00  0.00     0.000 C 
BRANCH   2   3
ATOM      3  C   UNL     1       6.320  54.268  23.769  1.00  0.00     0.000 C 
BRANCH   3   4
ATOM      4  C   UNL     1       6.551  53.980  22.276  1.00  0.00     0.006 C 
BRANCH   4   5
ATOM      5  C   UNL     1       7.289  55.128  21.572  1.00  0.00     0.053 C 
BRANCH   5   6
ATOM      6  C   UNL     1       6.947  56.459  22.169  1.00  0.00     0.041 C 
ATOM      7  O   UNL     1       7.796  57.078  22.864  1.00  0.00    -0.550 OA
ATOM      8  O   UNL     1       5.702  57.028  21.936  1.00  0.00    -0.550 OA
ENDBRANCH   5   6
ENDBRANCH   4   5
ENDBRANCH   3   4
ENDBRANCH   2   3
ENDBRANCH   1   2
BRANCH   1   9
ATOM      9  C   UNL     1       9.314  55.046  25.114  1.00  0.00     0.000 C 
BRANCH   9  10
ATOM     10  C   UNL     1      10.436  54.063  24.745  1.00  0.00    -0.000 C 
BRANCH  10  11
ATOM     11  C   UNL     1      10.573  53.936  23.220  1.00  0.00    -0.000 C 
BRANCH  11  12
ATOM     12  C   UNL     1      10.222  52.530  22.702  1.00  0.00    -0.000 C 
BRANCH  12  13
ATOM     13  C   UNL     1       9.691  51.560  23.772  1.00  0.00    -0.003 C 
ATOM     14  C   UNL     1      10.436  50.226  23.792  1.00  0.00     0.004 C 
ENDBRANCH  12  13
ENDBRANCH  11  12
ENDBRANCH  10  11
ENDBRANCH   9  10
ENDBRANCH   1   9
TORSDOF 10
ENDMDL
MODEL 6
REMARK VINA RESULT:    -4.647      3.644      6.417
REMARK INTER + INTRA:          -8.299
REMARK INTER:                  -7.546
REMARK INTRA:                  -0.753
REMARK UNBOUND:                -0.934
REMARK SMILES CCCCCCCCCCCC(=O)[O-]
REMARK SMILES IDX 7 1 8 2 9 3 10 4 11 5 12 6 13 7 14 8 6 9 5 10 4 11 3 12 2 13
REMARK SMILES IDX 1 14
REMARK H PARENT
REMARK Flexibility Score: inf
ROOT
ATOM      1  C   UNL     1       7.967  55.289  21.785  1.00  0.00     0.000 C 
ENDROOT
BRANCH   1   2
ATOM      2  C   UNL     1       7.180  54.017  22.162  1.00  0.00     0.000 C 
BRANCH   2   3
ATOM      3  C   UNL     1       6.769  53.916  23.642  1.00  0.00     0.000 C 
BRANCH   3   4
ATOM      4  C   UNL     1       7.854  53.270  24.520  1.00  0.00     0.006 C 
BRANCH   4   5
ATOM      5  C   UNL     1       8.644  54.313  25.324  1.00  0.00     0.053 C 
BRANCH   5   6
ATOM      6  C   UNL     1      10.112  54.247  25.029  1.00  0.00     0.041 C 
ATOM      7  O   UNL     1      10.514  53.922  23.881  1.00  0.00    -0.550 OA
ATOM      8  O   UNL     1      11.035  54.571  26.015  1.00  0.00    -0.550 OA
ENDBRANCH   5   6
ENDBRANCH   4   5
ENDBRANCH   3   4
ENDBRANCH   2   3
ENDBRANCH   1   2
BRANCH   1   9
ATOM      9  C   UNL     1       7.432  56.593  22.402  1.00  0.00     0.000 C 
BRANCH   9  10
ATOM     10  C   UNL     1       6.193  57.135  21.672  1.00  0.00    -0.000 C 
BRANCH  10  11
ATOM     11  C   UNL     1       5.037  57.369  22.656  1.00  0.00    -0.000 C 
BRANCH  11  12
ATOM     12  C   UNL     1       3.798  57.992  21.987  1.00  0.00    -0.000 C 
BRANCH  12  13
ATOM     13  C   UNL     1       3.432  59.400  22.488  1.00  0.00    -0.003 C 
ATOM     14  C   UNL     1       2.202  59.411  23.395  1.00  0.00     0.004 C 
ENDBRANCH  12  13
ENDBRANCH  11  12
ENDBRANCH  10  11
ENDBRANCH   9  10
ENDBRANCH   1   9
TORSDOF 10
ENDMDL
MODEL 7
REMARK VINA RESULT:    -4.592      2.381      5.154
REMARK INTER + INTRA:          -8.210
REMARK INTER:                  -7.421
REMARK INTRA:                  -0.789
REMARK UNBOUND:                -0.934
REMARK SMILES CCCCCCCCCCCC(=O)[O-]
REMARK SMILES IDX 7 1 8 2 9 3 10 4 11 5 12 6 13 7 14 8 6 9 5 10 4 11 3 12 2 13
REMARK SMILES IDX 1 14
REMARK H PARENT
REMARK Flexibility Score: inf
ROOT
ATOM      1  C   UNL     1       6.484  53.877  23.747  1.00  0.00     0.000 C 
ENDROOT
BRANCH   1   2
ATOM      2  C   UNL     1       7.442  53.328  24.825  1.00  0.00     0.000 C 
BRANCH   2   3
ATOM      3  C   UNL     1       8.146  54.397  25.680  1.00  0.00     0.000 C 
BRANCH   3   4
ATOM      4  C   UNL     1       9.379  54.999  24.985  1.00  0.00     0.006 C 
BRANCH   4   5
ATOM      5  C   UNL     1      10.560  54.018  24.948  1.00  0.00     0.053 C 
BRANCH   5   6
ATOM      6  C   UNL     1      10.646  53.299  23.637  1.00  0.00     0.041 C 
ATOM      7  O   UNL     1      11.075  53.896  22.614  1.00  0.00    -0.550 OA
ATOM      8  O   UNL     1      10.279  51.963  23.549  1.00  0.00    -0.550 OA
ENDBRANCH   5   6
ENDBRANCH   4   5
ENDBRANCH   3   4
ENDBRANCH   2   3
ENDBRANCH   1   2
BRANCH   1   9
ATOM      9  C   UNL     1       6.917  53.615  22.294  1.00  0.00     0.000 C 
BRANCH   9  10
ATOM     10  C   UNL     1       7.824  54.721  21.733  1.00  0.00    -0.000 C 
BRANCH  10  11
ATOM     11  C   UNL     1       6.996  55.792  21.008  1.00  0.00    -0.000 C 
BRANCH  11  12
ATOM     12  C   UNL     1       6.679  57.009  21.897  1.00  0.00    -0.000 C 
BRANCH  12  13
ATOM     13  C   UNL     1       5.308  56.961  22.593  1.00  0.00    -0.003 C 
ATOM     14  C   UNL     1       4.343  58.033  22.087  1.00  0.00     0.004 C 
ENDBRANCH  12  13
ENDBRANCH  11  12
ENDBRANCH  10  11
ENDBRANCH   9  10
ENDBRANCH   1   9
TORSDOF 10
ENDMDL
MODEL 8
REMARK VINA RESULT:    -4.544      3.532      4.476
REMARK INTER + INTRA:          -8.134
REMARK INTER:                  -7.272
REMARK INTRA:                  -0.862
REMARK UNBOUND:                -0.934
REMARK SMILES CCCCCCCCCCCC(=O)[O-]
REMARK SMILES IDX 7 1 8 2 9 3 10 4 11 5 12 6 13 7 14 8 6 9 5 10 4 11 3 12 2 13
REMARK SMILES IDX 1 14
REMARK H PARENT
REMARK Flexibility Score: inf
ROOT
ATOM      1  C   UNL     1       8.436  55.514  22.123  1.00  0.00     0.000 C 
ENDROOT
BRANCH   1   2
ATOM      2  C   UNL     1       7.471  56.612  22.615  1.00  0.00     0.000 C 
BRANCH   2   3
ATOM      3  C   UNL     1       6.175  56.758  21.798  1.00  0.00     0.000 C 
BRANCH   3   4
ATOM      4  C   UNL     1       5.011  57.331  22.624  1.00  0.00     0.006 C 
BRANCH   4   5
ATOM      5  C   UNL     1       4.221  58.396  21.849  1.00  0.00     0.053 C 
BRANCH   5   6
ATOM      6  C   UNL     1       2.838  58.573  22.399  1.00  0.00     0.041 C 
ATOM      7  O   UNL     1       1.877  57.917  21.919  1.00  0.00    -0.550 OA
ATOM      8  O   UNL     1       2.617  59.443  23.459  1.00  0.00    -0.550 OA
ENDBRANCH   5   6
ENDBRANCH   4   5
ENDBRANCH   3   4
ENDBRANCH   2   3
ENDBRANCH   1   2
BRANCH   1   9
ATOM      9  C   UNL     1       7.772  54.169  21.778  1.00  0.00     0.000 C 
BRANCH   9  10
ATOM     10  C   UNL     1       7.144  53.482  23.000  1.00  0.00    -0.000 C 
BRANCH  10  11
ATOM     11  C   UNL     1       8.178  53.310  24.122  1.00  0.00    -0.000 C 
BRANCH  11  12
ATOM     12  C   UNL     1       7.798  54.065  25.409  1.00  0.00    -0.000 C 
BRANCH  12  13
ATOM     13  C   UNL     1       8.979  54.720  26.146  1.00  0.00    -0.003 C 
ATOM     14  C   UNL     1      10.248  54.793  25.298  1.00  0.00     0.004 C 
ENDBRANCH  12  13
ENDBRANCH  11  12
ENDBRANCH  10  11
ENDBRANCH   9  10
ENDBRANCH   1   9
TORSDOF 10
ENDMDL
MODEL 9
REMARK VINA RESULT:    -4.440      2.962      5.622
REMARK INTER + INTRA:          -7.970
REMARK INTER:                  -7.098
REMARK INTRA:                  -0.872
REMARK UNBOUND:                -0.934
REMARK SMILES CCCCCCCCCCCC(=O)[O-]
REMARK SMILES IDX 7 1 8 2 9 3 10 4 11 5 12 6 13 7 14 8 6 9 5 10 4 11 3 12 2 13
REMARK SMILES IDX 1 14
REMARK H PARENT
REMARK Flexibility Score: inf
ROOT
ATOM      1  C   UNL     1       8.639  54.051  22.163  1.00  0.00     0.000 C 
ENDROOT
BRANCH   1   2
ATOM      2  C   UNL     1       8.009  53.035  23.138  1.00  0.00     0.000 C 
BRANCH   2   3
ATOM      3  C   UNL     1       7.257  53.653  24.330  1.00  0.00     0.000 C 
BRANCH   3   4
ATOM      4  C   UNL     1       7.909  53.321  25.683  1.00  0.00     0.006 C 
BRANCH   4   5
ATOM      5  C   UNL     1       8.531  54.559  26.345  1.00  0.00     0.053 C 
BRANCH   5   6
ATOM      6  C   UNL     1       9.712  55.067  25.576  1.00  0.00     0.041 C 
ATOM      7  O   UNL     1       9.616  56.120  24.891  1.00  0.00    -0.550 OA
ATOM      8  O   UNL     1      10.926  54.395  25.638  1.00  0.00    -0.550 OA
ENDBRANCH   5   6
ENDBRANCH   4   5
ENDBRANCH   3   4
ENDBRANCH   2   3
ENDBRANCH   1   2
BRANCH   1   9
ATOM      9  C   UNL     1       8.015  54.080  20.757  1.00  0.00     0.000 C 
BRANCH   9  10
ATOM     10  C   UNL     1       7.088  55.285  20.539  1.00  0.00    -0.000 C 
BRANCH  10  11
ATOM     11  C   UNL     1       7.654  56.541  21.219  1.00  0.00    -0.000 C 
BRANCH  11  12
ATOM     12  C   UNL     1       6.962  56.862  22.556  1.00  0.00    -0.000 C 
BRANCH  12  13
ATOM     13  C   UNL     1       5.452  56.573  22.589  1.00  0.00    -0.003 C 
ATOM     14  C   UNL     1       4.602  57.789  22.222  1.00  0.00     0.004 C 
ENDBRANCH  12  13
ENDBRANCH  11  12
ENDBRANCH  10  11
ENDBRANCH   9  10
ENDBRANCH   1   9
TORSDOF 10
ENDMDL
