MODEL 1
REMARK VINA RESULT:    -4.008      0.000      0.000
REMARK INTER + INTRA:         -12.385
REMARK INTER:                  -9.163
REMARK INTRA:                  -3.221
REMARK UNBOUND:                -3.221
REMARK SMILES CCCCCCCCCCCCCCCCCCCCCCCC(=O)[O-]
REMARK SMILES IDX 13 1 14 2 15 3 16 4 17 5 18 6 19 7 20 8 21 9 22 10 23 11
REMARK SMILES IDX 24 12 25 13 26 14 12 15 11 16 10 17 9 18 8 19 7 20 6 21 5 22
REMARK SMILES IDX 4 23 3 24 2 25 1 26
REMARK H PARENT
REMARK Flexibility Score: inf
ROOT
ATOM      1  C   UNL     1      47.640  46.604  12.585  1.00  0.00     0.000 C 
ENDROOT
BRANCH   1   2
ATOM      2  C   UNL     1      47.130  47.506  11.443  1.00  0.00     0.000 C 
BRANCH   2   3
ATOM      3  C   UNL     1      48.195  48.420  10.807  1.00  0.00     0.000 C 
BRANCH   3   4
ATOM      4  C   UNL     1      49.045  49.161  11.853  1.00  0.00     0.000 C 
BRANCH   4   5
ATOM      5  C   UNL     1      50.538  48.802  11.765  1.00  0.00     0.000 C 
BRANCH   5   6
ATOM      6  C   UNL     1      50.834  47.771  10.661  1.00  0.00     0.000 C 
BRANCH   6   7
ATOM      7  C   UNL     1      51.486  46.491  11.210  1.00  0.00     0.000 C 
BRANCH   7   8
ATOM      8  C   UNL     1      51.425  46.411  12.745  1.00  0.00     0.000 C 
BRANCH   8   9
ATOM      9  C   UNL     1      52.703  45.817  13.365  1.00  0.00     0.000 C 
BRANCH   9  10
ATOM     10  C   UNL     1      53.921  45.764  12.424  1.00  0.00     0.006 C 
BRANCH  10  11
ATOM     11  C   UNL     1      54.454  44.341  12.216  1.00  0.00     0.053 C 
BRANCH  11  12
ATOM     12  C   UNL     1      54.273  43.919  10.792  1.00  0.00     0.041 C 
ATOM     13  O   UNL     1      54.212  44.782   9.878  1.00  0.00    -0.550 OA
ATOM     14  O   UNL     1      54.123  42.573  10.480  1.00  0.00    -0.550 OA
ENDBRANCH  11  12
ENDBRANCH  10  11
ENDBRANCH   9  10
ENDBRANCH   8   9
ENDBRANCH   7   8
ENDBRANCH   6   7
ENDBRANCH   5   6
ENDBRANCH   4   5
ENDBRANCH   3   4
ENDBRANCH   2   3
ENDBRANCH   1   2
BRANCH   1  15
ATOM     15  C   UNL     1      47.037  45.186  12.620  1.00  0.00     0.000 C 
BRANCH  15  16
ATOM     16  C   UNL     1      45.511  45.135  12.822  1.00  0.00     0.000 C 
BRANCH  16  17
ATOM     17  C   UNL     1      44.830  44.071  11.949  1.00  0.00     0.000 C 
BRANCH  17  18
ATOM     18  C   UNL     1      45.676  43.761  10.705  1.00  0.00    -0.000 C 
BRANCH  18  19
ATOM     19  C   UNL     1      45.002  44.213   9.397  1.00  0.00    -0.000 C 
BRANCH  19  20
ATOM     20  C   UNL     1      45.010  45.734   9.151  1.00  0.00    -0.000 C 
BRANCH  20  21
ATOM     21  C   UNL     1      43.684  46.318   8.624  1.00  0.00    -0.000 C 
BRANCH  21  22
ATOM     22  C   UNL     1      42.560  46.433   9.674  1.00  0.00    -0.000 C 
BRANCH  22  23
ATOM     23  C   UNL     1      42.458  47.803  10.365  1.00  0.00    -0.000 C 
BRANCH  23  24
ATOM     24  C   UNL     1      43.423  47.943  11.555  1.00  0.00    -0.000 C 
BRANCH  24  25
ATOM     25  C   UNL     1      44.100  49.321  11.604  1.00  0.00    -0.003 C 
ATOM     26  C   UNL     1      43.830  50.155  10.352  1.00  0.00     0.004 C 
ENDBRANCH  24  25
ENDBRANCH  23  24
ENDBRANCH  22  23
ENDBRANCH  21  22
ENDBRANCH  20  21
ENDBRANCH  19  20
ENDBRANCH  18  19
ENDBRANCH  17  18
ENDBRANCH  16  17
ENDBRANCH  15  16
ENDBRANCH   1  15
TORSDOF 22
ENDMDL
MODEL 2
REMARK VINA RESULT:    -3.891     14.639     17.425
REMARK INTER + INTRA:         -12.117
REMARK INTER:                  -9.639
REMARK INTRA:                  -2.478
REMARK UNBOUND:                -3.221
REMARK SMILES CCCCCCCCCCCCCCCCCCCCCCCC(=O)[O-]
REMARK SMILES IDX 13 1 14 2 15 3 16 4 17 5 18 6 19 7 20 8 21 9 22 10 23 11
REMARK SMILES IDX 24 12 25 13 26 14 12 15 11 16 10 17 9 18 8 19 7 20 6 21 5 22
REMARK SMILES IDX 4 23 3 24 2 25 1 26
REMARK H PARENT
REMARK Flexibility Score: inf
ROOT
ATOM      1  C   UNL     1      52.008  33.045   1.157  1.00  0.00     0.000 C 
ENDROOT
BRANCH   1   2
ATOM      2  C   UNL     1      51.645  32.862   2.645  1.00  0.00     0.000 C 
BRANCH   2   3
ATOM      3  C   UNL     1      50.505  33.764   3.154  1.00  0.00     0.000 C 
BRANCH   3   4
ATOM      4  C   UNL     1      50.007  33.361   4.553  1.00  0.00     0.000 C 
BRANCH   4   5
ATOM      5  C   UNL     1      50.922  32.327   5.231  1.00  0.00     0.000 C 
BRANCH   5   6
ATOM      6  C   UNL     1      50.580  32.121   6.718  1.00  0.00     0.000 C 
BRANCH   6   7
ATOM      7  C   UNL     1      49.112  32.451   7.035  1.00  0.00     0.000 C 
BRANCH   7   8
ATOM      8  C   UNL     1      48.973  33.560   8.093  1.00  0.00     0.000 C 
BRANCH   8   9
ATOM      9  C   UNL     1      49.260  33.064   9.522  1.00  0.00     0.000 C 
BRANCH   9  10
ATOM     10  C   UNL     1      49.862  34.117  10.470  1.00  0.00     0.006 C 
BRANCH  10  11
ATOM     11  C   UNL     1      49.309  35.526  10.227  1.00  0.00     0.053 C 
BRANCH  11  12
ATOM     12  C   UNL     1      48.221  35.836  11.207  1.00  0.00     0.041 C 
ATOM     13  O   UNL     1      47.167  36.407  10.823  1.00  0.00    -0.550 OA
ATOM     14  O   UNL     1      48.392  35.538  12.553  1.00  0.00    -0.550 OA
ENDBRANCH  11  12
ENDBRANCH  10  11
ENDBRANCH   9  10
ENDBRANCH   8   9
ENDBRANCH   7   8
ENDBRANCH   6   7
ENDBRANCH   5   6
ENDBRANCH   4   5
ENDBRANCH   3   4
ENDBRANCH   2   3
ENDBRANCH   1   2
BRANCH   1  15
ATOM     15  C   UNL     1      51.255  32.121   0.179  1.00  0.00     0.000 C 
BRANCH  15  16
ATOM     16  C   UNL     1      49.896  32.660  -0.304  1.00  0.00     0.000 C 
BRANCH  16  17
ATOM     17  C   UNL     1      49.656  32.412  -1.801  1.00  0.00     0.000 C 
BRANCH  17  18
ATOM     18  C   UNL     1      49.345  33.728  -2.530  1.00  0.00    -0.000 C 
BRANCH  18  19
ATOM     19  C   UNL     1      49.012  33.522  -4.019  1.00  0.00    -0.000 C 
BRANCH  19  20
ATOM     20  C   UNL     1      49.957  34.241  -5.003  1.00  0.00    -0.000 C 
BRANCH  20  21
ATOM     21  C   UNL     1      50.923  33.318  -5.772  1.00  0.00    -0.000 C 
BRANCH  21  22
ATOM     22  C   UNL     1      51.904  32.521  -4.889  1.00  0.00    -0.000 C 
BRANCH  22  23
ATOM     23  C   UNL     1      53.073  33.342  -4.316  1.00  0.00    -0.000 C 
BRANCH  23  24
ATOM     24  C   UNL     1      53.104  33.338  -2.777  1.00  0.00    -0.000 C 
BRANCH  24  25
ATOM     25  C   UNL     1      52.801  34.720  -2.180  1.00  0.00    -0.003 C 
ATOM     26  C   UNL     1      52.777  35.825  -3.236  1.00  0.00     0.004 C 
ENDBRANCH  24  25
ENDBRANCH  23  24
ENDBRANCH  22  23
ENDBRANCH  21  22
ENDBRANCH  20  21
ENDBRANCH  19  20
ENDBRANCH  18  19
ENDBRANCH  17  18
ENDBRANCH  16  17
ENDBRANCH  15  16
ENDBRANCH   1  15
TORSDOF 22
ENDMDL
MODEL 3
REMARK VINA RESULT:    -3.848     13.651     16.820
REMARK INTER + INTRA:         -12.018
REMARK INTER:                  -9.957
REMARK INTRA:                  -2.061
REMARK UNBOUND:                -3.221
REMARK SMILES CCCCCCCCCCCCCCCCCCCCCCCC(=O)[O-]
REMARK SMILES IDX 13 1 14 2 15 3 16 4 17 5 18 6 19 7 20 8 21 9 22 10 23 11
REMARK SMILES IDX 24 12 25 13 26 14 12 15 11 16 10 17 9 18 8 19 7 20 6 21 5 22
REMARK SMILES IDX 4 23 3 24 2 25 1 26
REMARK H PARENT
REMARK Flexibility Score: inf
ROOT
ATOM      1  C   UNL     1      52.167  33.285   1.284  1.00  0.00     0.000 C 
ENDROOT
BRANCH   1   2
ATOM      2  C   UNL     1      51.591  32.864   2.651  1.00  0.00     0.000 C 
BRANCH   2   3
ATOM      3  C   UNL     1      50.502  33.796   3.216  1.00  0.00     0.000 C 
BRANCH   3   4
ATOM      4  C   UNL     1      50.073  33.414   4.642  1.00  0.00     0.000 C 
BRANCH   4   5
ATOM      5  C   UNL     1      50.933  32.287   5.237  1.00  0.00     0.000 C 
BRANCH   5   6
ATOM      6  C   UNL     1      50.565  31.969   6.697  1.00  0.00     0.000 C 
BRANCH   6   7
ATOM      7  C   UNL     1      49.199  32.551   7.099  1.00  0.00     0.000 C 
BRANCH   7   8
ATOM      8  C   UNL     1      49.244  33.281   8.453  1.00  0.00     0.000 C 
BRANCH   8   9
ATOM      9  C   UNL     1      49.741  34.734   8.333  1.00  0.00     0.000 C 
BRANCH   9  10
ATOM     10  C   UNL     1      50.280  35.349   9.637  1.00  0.00     0.006 C 
BRANCH  10  11
ATOM     11  C   UNL     1      49.382  35.068  10.848  1.00  0.00     0.053 C 
BRANCH  11  12
ATOM     12  C   UNL     1      48.307  36.103  10.953  1.00  0.00     0.041 C 
ATOM     13  O   UNL     1      48.542  37.206  11.514  1.00  0.00    -0.550 OA
ATOM     14  O   UNL     1      47.031  35.832  10.474  1.00  0.00    -0.550 OA
ENDBRANCH  11  12
ENDBRANCH  10  11
ENDBRANCH   9  10
ENDBRANCH   8   9
ENDBRANCH   7   8
ENDBRANCH   6   7
ENDBRANCH   5   6
ENDBRANCH   4   5
ENDBRANCH   3   4
ENDBRANCH   2   3
ENDBRANCH   1   2
BRANCH   1  15
ATOM     15  C   UNL     1      51.646  32.482   0.076  1.00  0.00     0.000 C 
BRANCH  15  16
ATOM     16  C   UNL     1      50.143  32.648  -0.213  1.00  0.00     0.000 C 
BRANCH  16  17
ATOM     17  C   UNL     1      49.793  32.431  -1.693  1.00  0.00     0.000 C 
BRANCH  17  18
ATOM     18  C   UNL     1      49.349  33.747  -2.349  1.00  0.00    -0.000 C 
BRANCH  18  19
ATOM     19  C   UNL     1      50.390  34.303  -3.338  1.00  0.00    -0.000 C 
BRANCH  19  20
ATOM     20  C   UNL     1      51.718  33.522  -3.393  1.00  0.00    -0.000 C 
BRANCH  20  21
ATOM     21  C   UNL     1      52.982  34.394  -3.524  1.00  0.00    -0.000 C 
BRANCH  21  22
ATOM     22  C   UNL     1      53.180  35.429  -2.398  1.00  0.00    -0.000 C 
BRANCH  22  23
ATOM     23  C   UNL     1      54.420  35.196  -1.516  1.00  0.00    -0.000 C 
BRANCH  23  24
ATOM     24  C   UNL     1      54.293  35.849  -0.128  1.00  0.00    -0.000 C 
BRANCH  24  25
ATOM     25  C   UNL     1      55.594  35.760   0.684  1.00  0.00    -0.003 C 
ATOM     26  C   UNL     1      55.742  34.426   1.415  1.00  0.00     0.004 C 
ENDBRANCH  24  25
ENDBRANCH  23  24
ENDBRANCH  22  23
ENDBRANCH  21  22
ENDBRANCH  20  21
ENDBRANCH  19  20
ENDBRANCH  18  19
ENDBRANCH  17  18
ENDBRANCH  16  17
ENDBRANCH  15  16
ENDBRANCH   1  15
TORSDOF 22
ENDMDL
MODEL 4
REMARK VINA RESULT:    -3.843     13.798     16.914
REMARK INTER + INTRA:         -12.007
REMARK INTER:                  -9.583
REMARK INTRA:                  -2.424
REMARK UNBOUND:                -3.221
REMARK SMILES CCCCCCCCCCCCCCCCCCCCCCCC(=O)[O-]
REMARK SMILES IDX 13 1 14 2 15 3 16 4 17 5 18 6 19 7 20 8 21 9 22 10 23 11
REMARK SMILES IDX 24 12 25 13 26 14 12 15 11 16 10 17 9 18 8 19 7 20 6 21 5 22
REMARK SMILES IDX 4 23 3 24 2 25 1 26
REMARK H PARENT
REMARK Flexibility Score: inf
ROOT
ATOM      1  C   UNL     1      49.950  33.360   0.399  1.00  0.00     0.000 C 
ENDROOT
BRANCH   1   2
ATOM      2  C   UNL     1      51.163  33.731   1.276  1.00  0.00     0.000 C 
BRANCH   2   3
ATOM      3  C   UNL     1      51.791  32.557   2.052  1.00  0.00     0.000 C 
BRANCH   3   4
ATOM      4  C   UNL     1      51.503  32.620   3.562  1.00  0.00     0.000 C 
BRANCH   4   5
ATOM      5  C   UNL     1      50.634  33.828   3.948  1.00  0.00     0.000 C 
BRANCH   5   6
ATOM      6  C   UNL     1      49.404  33.430   4.782  1.00  0.00     0.000 C 
BRANCH   6   7
ATOM      7  C   UNL     1      49.727  32.350   5.829  1.00  0.00     0.000 C 
BRANCH   7   8
ATOM      8  C   UNL     1      50.215  32.946   7.160  1.00  0.00     0.000 C 
BRANCH   8   9
ATOM      9  C   UNL     1      49.566  34.305   7.481  1.00  0.00     0.000 C 
BRANCH   9  10
ATOM     10  C   UNL     1      50.072  34.984   8.767  1.00  0.00     0.006 C 
BRANCH  10  11
ATOM     11  C   UNL     1      48.969  35.185   9.812  1.00  0.00     0.053 C 
BRANCH  11  12
ATOM     12  C   UNL     1      49.312  34.466  11.079  1.00  0.00     0.041 C 
ATOM     13  O   UNL     1      48.750  34.783  12.160  1.00  0.00    -0.550 OA
ATOM     14  O   UNL     1      50.289  33.478  11.075  1.00  0.00    -0.550 OA
ENDBRANCH  11  12
ENDBRANCH  10  11
ENDBRANCH   9  10
ENDBRANCH   8   9
ENDBRANCH   7   8
ENDBRANCH   6   7
ENDBRANCH   5   6
ENDBRANCH   4   5
ENDBRANCH   3   4
ENDBRANCH   2   3
ENDBRANCH   1   2
BRANCH   1  15
ATOM     15  C   UNL     1      50.156  32.145  -0.527  1.00  0.00     0.000 C 
BRANCH  15  16
ATOM     16  C   UNL     1      49.564  32.299  -1.940  1.00  0.00     0.000 C 
BRANCH  16  17
ATOM     17  C   UNL     1      49.345  33.767  -2.337  1.00  0.00     0.000 C 
BRANCH  17  18
ATOM     18  C   UNL     1      50.145  34.116  -3.601  1.00  0.00    -0.000 C 
BRANCH  18  19
ATOM     19  C   UNL     1      51.638  33.763  -3.481  1.00  0.00    -0.000 C 
BRANCH  19  20
ATOM     20  C   UNL     1      52.387  34.482  -2.341  1.00  0.00    -0.000 C 
BRANCH  20  21
ATOM     21  C   UNL     1      53.492  33.650  -1.660  1.00  0.00    -0.000 C 
BRANCH  21  22
ATOM     22  C   UNL     1      54.657  34.471  -1.071  1.00  0.00    -0.000 C 
BRANCH  22  23
ATOM     23  C   UNL     1      54.294  35.318   0.161  1.00  0.00    -0.000 C 
BRANCH  23  24
ATOM     24  C   UNL     1      54.796  36.769   0.054  1.00  0.00    -0.000 C 
BRANCH  24  25
ATOM     25  C   UNL     1      54.235  37.495  -1.178  1.00  0.00    -0.003 C 
ATOM     26  C   UNL     1      54.033  38.991  -0.937  1.00  0.00     0.004 C 
ENDBRANCH  24  25
ENDBRANCH  23  24
ENDBRANCH  22  23
ENDBRANCH  21  22
ENDBRANCH  20  21
ENDBRANCH  19  20
ENDBRANCH  18  19
ENDBRANCH  17  18
ENDBRANCH  16  17
ENDBRANCH  15  16
ENDBRANCH   1  15
TORSDOF 22
ENDMDL
MODEL 5
REMARK VINA RESULT:    -3.841      2.043      3.849
REMARK INTER + INTRA:         -12.003
REMARK INTER:                  -9.700
REMARK INTRA:                  -2.303
REMARK UNBOUND:                -3.221
REMARK SMILES CCCCCCCCCCCCCCCCCCCCCCCC(=O)[O-]
REMARK SMILES IDX 13 1 14 2 15 3 16 4 17 5 18 6 19 7 20 8 21 9 22 10 23 11
REMARK SMILES IDX 24 12 25 13 26 14 12 15 11 16 10 17 9 18 8 19 7 20 6 21 5 22
REMARK SMILES IDX 4 23 3 24 2 25 1 26
REMARK H PARENT
REMARK Flexibility Score: inf
ROOT
ATOM      1  C   UNL     1      45.269  46.821  12.122  1.00  0.00     0.000 C 
ENDROOT
BRANCH   1   2
ATOM      2  C   UNL     1      46.636  46.562  11.456  1.00  0.00     0.000 C 
BRANCH   2   3
ATOM      3  C   UNL     1      47.518  47.811  11.267  1.00  0.00     0.000 C 
BRANCH   3   4
ATOM      4  C   UNL     1      48.251  48.222  12.555  1.00  0.00     0.000 C 
BRANCH   4   5
ATOM      5  C   UNL     1      49.747  48.492  12.322  1.00  0.00     0.000 C 
BRANCH   5   6
ATOM      6  C   UNL     1      50.226  48.017  10.939  1.00  0.00     0.000 C 
BRANCH   6   7
ATOM      7  C   UNL     1      51.422  47.053  11.029  1.00  0.00     0.000 C 
BRANCH   7   8
ATOM      8  C   UNL     1      51.360  46.153  12.275  1.00  0.00     0.000 C 
BRANCH   8   9
ATOM      9  C   UNL     1      52.651  46.202  13.113  1.00  0.00     0.000 C 
BRANCH   9  10
ATOM     10  C   UNL     1      53.952  45.974  12.323  1.00  0.00     0.006 C 
BRANCH  10  11
ATOM     11  C   UNL     1      54.336  44.494  12.217  1.00  0.00     0.053 C 
BRANCH  11  12
ATOM     12  C   UNL     1      54.254  44.034  10.795  1.00  0.00     0.041 C 
ATOM     13  O   UNL     1      54.229  42.804  10.527  1.00  0.00    -0.550 OA
ATOM     14  O   UNL     1      54.255  44.964   9.763  1.00  0.00    -0.550 OA
ENDBRANCH  11  12
ENDBRANCH  10  11
ENDBRANCH   9  10
ENDBRANCH   8   9
ENDBRANCH   7   8
ENDBRANCH   6   7
ENDBRANCH   5   6
ENDBRANCH   4   5
ENDBRANCH   3   4
ENDBRANCH   2   3
ENDBRANCH   1   2
BRANCH   1  15
ATOM     15  C   UNL     1      44.503  48.049  11.592  1.00  0.00     0.000 C 
BRANCH  15  16
ATOM     16  C   UNL     1      43.383  47.729  10.585  1.00  0.00     0.000 C 
BRANCH  16  17
ATOM     17  C   UNL     1      43.797  47.993   9.130  1.00  0.00     0.000 C 
BRANCH  17  18
ATOM     18  C   UNL     1      43.427  46.803   8.231  1.00  0.00    -0.000 C 
BRANCH  18  19
ATOM     19  C   UNL     1      43.549  45.449   8.953  1.00  0.00    -0.000 C 
BRANCH  19  20
ATOM     20  C   UNL     1      44.915  44.751   8.802  1.00  0.00    -0.000 C 
BRANCH  20  21
ATOM     21  C   UNL     1      44.848  43.229   8.563  1.00  0.00    -0.000 C 
BRANCH  21  22
ATOM     22  C   UNL     1      44.086  42.802   7.293  1.00  0.00    -0.000 C 
BRANCH  22  23
ATOM     23  C   UNL     1      42.655  42.290   7.537  1.00  0.00    -0.000 C 
BRANCH  23  24
ATOM     24  C   UNL     1      41.721  42.542   6.341  1.00  0.00    -0.000 C 
BRANCH  24  25
ATOM     25  C   UNL     1      42.196  43.707   5.460  1.00  0.00    -0.003 C 
ATOM     26  C   UNL     1      41.126  44.173   4.473  1.00  0.00     0.004 C 
ENDBRANCH  24  25
ENDBRANCH  23  24
ENDBRANCH  22  23
ENDBRANCH  21  22
ENDBRANCH  20  21
ENDBRANCH  19  20
ENDBRANCH  18  19
ENDBRANCH  17  18
ENDBRANCH  16  17
ENDBRANCH  15  16
ENDBRANCH   1  15
TORSDOF 22
ENDMDL
MODEL 6
REMARK VINA RESULT:    -3.808     13.157     16.493
REMARK INTER + INTRA:         -11.927
REMARK INTER:                  -9.597
REMARK INTRA:                  -2.330
REMARK UNBOUND:                -3.221
REMARK SMILES CCCCCCCCCCCCCCCCCCCCCCCC(=O)[O-]
REMARK SMILES IDX 13 1 14 2 15 3 16 4 17 5 18 6 19 7 20 8 21 9 22 10 23 11
REMARK SMILES IDX 24 12 25 13 26 14 12 15 11 16 10 17 9 18 8 19 7 20 6 21 5 22
REMARK SMILES IDX 4 23 3 24 2 25 1 26
REMARK H PARENT
REMARK Flexibility Score: inf
ROOT
ATOM      1  C   UNL     1      51.391  33.313   2.779  1.00  0.00     0.000 C 
ENDROOT
BRANCH   1   2
ATOM      2  C   UNL     1      51.133  32.858   4.230  1.00  0.00     0.000 C 
BRANCH   2   3
ATOM      3  C   UNL     1      49.828  33.384   4.856  1.00  0.00     0.000 C 
BRANCH   3   4
ATOM      4  C   UNL     1      49.292  32.470   5.971  1.00  0.00     0.000 C 
BRANCH   4   5
ATOM      5  C   UNL     1      49.167  33.196   7.322  1.00  0.00     0.000 C 
BRANCH   5   6
ATOM      6  C   UNL     1      49.970  34.508   7.364  1.00  0.00     0.000 C 
BRANCH   6   7
ATOM      7  C   UNL     1      49.955  35.162   8.757  1.00  0.00     0.000 C 
BRANCH   7   8
ATOM      8  C   UNL     1      48.968  34.478   9.718  1.00  0.00     0.000 C 
BRANCH   8   9
ATOM      9  C   UNL     1      49.370  34.632  11.197  1.00  0.00     0.000 C 
BRANCH   9  10
ATOM     10  C   UNL     1      48.428  35.510  12.042  1.00  0.00     0.006 C 
BRANCH  10  11
ATOM     11  C   UNL     1      48.270  36.928  11.482  1.00  0.00     0.053 C 
BRANCH  11  12
ATOM     12  C   UNL     1      46.829  37.222  11.202  1.00  0.00     0.041 C 
ATOM     13  O   UNL     1      46.280  38.235  11.706  1.00  0.00    -0.550 OA
ATOM     14  O   UNL     1      46.081  36.349  10.421  1.00  0.00    -0.550 OA
ENDBRANCH  11  12
ENDBRANCH  10  11
ENDBRANCH   9  10
ENDBRANCH   8   9
ENDBRANCH   7   8
ENDBRANCH   6   7
ENDBRANCH   5   6
ENDBRANCH   4   5
ENDBRANCH   3   4
ENDBRANCH   2   3
ENDBRANCH   1   2
BRANCH   1  15
ATOM     15  C   UNL     1      50.141  33.762   1.999  1.00  0.00     0.000 C 
BRANCH  15  16
ATOM     16  C   UNL     1      50.146  33.401   0.502  1.00  0.00     0.000 C 
BRANCH  16  17
ATOM     17  C   UNL     1      50.973  32.144   0.196  1.00  0.00     0.000 C 
BRANCH  17  18
ATOM     18  C   UNL     1      51.393  32.113  -1.282  1.00  0.00    -0.000 C 
BRANCH  18  19
ATOM     19  C   UNL     1      51.066  33.422  -2.024  1.00  0.00    -0.000 C 
BRANCH  19  20
ATOM     20  C   UNL     1      52.204  33.971  -2.907  1.00  0.00    -0.000 C 
BRANCH  20  21
ATOM     21  C   UNL     1      53.082  35.051  -2.243  1.00  0.00    -0.000 C 
BRANCH  21  22
ATOM     22  C   UNL     1      54.237  34.511  -1.377  1.00  0.00    -0.000 C 
BRANCH  22  23
ATOM     23  C   UNL     1      54.134  34.846   0.122  1.00  0.00    -0.000 C 
BRANCH  23  24
ATOM     24  C   UNL     1      54.271  33.604   1.020  1.00  0.00    -0.000 C 
BRANCH  24  25
ATOM     25  C   UNL     1      54.886  32.407   0.277  1.00  0.00    -0.003 C 
ATOM     26  C   UNL     1      56.313  32.102   0.733  1.00  0.00     0.004 C 
ENDBRANCH  24  25
ENDBRANCH  23  24
ENDBRANCH  22  23
ENDBRANCH  21  22
ENDBRANCH  20  21
ENDBRANCH  19  20
ENDBRANCH  18  19
ENDBRANCH  17  18
ENDBRANCH  16  17
ENDBRANCH  15  16
ENDBRANCH   1  15
TORSDOF 22
ENDMDL
MODEL 7
REMARK VINA RESULT:    -3.763      1.881      4.170
REMARK INTER + INTRA:         -11.823
REMARK INTER:                  -9.084
REMARK INTRA:                  -2.739
REMARK UNBOUND:                -3.221
REMARK SMILES CCCCCCCCCCCCCCCCCCCCCCCC(=O)[O-]
REMARK SMILES IDX 13 1 14 2 15 3 16 4 17 5 18 6 19 7 20 8 21 9 22 10 23 11
REMARK SMILES IDX 24 12 25 13 26 14 12 15 11 16 10 17 9 18 8 19 7 20 6 21 5 22
REMARK SMILES IDX 4 23 3 24 2 25 1 26
REMARK H PARENT
REMARK Flexibility Score: inf
ROOT
ATOM      1  C   UNL     1      47.011  48.747  10.415  1.00  0.00     0.000 C 
ENDROOT
BRANCH   1   2
ATOM      2  C   UNL     1      46.950  47.936  11.725  1.00  0.00     0.000 C 
BRANCH   2   3
ATOM      3  C   UNL     1      47.677  48.574  12.924  1.00  0.00     0.000 C 
BRANCH   3   4
ATOM      4  C   UNL     1      48.334  49.920  12.575  1.00  0.00     0.000 C 
BRANCH   4   5
ATOM      5  C   UNL     1      49.667  50.136  13.311  1.00  0.00     0.000 C 
BRANCH   5   6
ATOM      6  C   UNL     1      50.830  49.360  12.668  1.00  0.00     0.000 C 
BRANCH   6   7
ATOM      7  C   UNL     1      50.847  49.488  11.135  1.00  0.00     0.000 C 
BRANCH   7   8
ATOM      8  C   UNL     1      50.880  48.121  10.430  1.00  0.00     0.000 C 
BRANCH   8   9
ATOM      9  C   UNL     1      50.598  46.947  11.385  1.00  0.00     0.000 C 
BRANCH   9  10
ATOM     10  C   UNL     1      51.709  45.883  11.458  1.00  0.00     0.006 C 
BRANCH  10  11
ATOM     11  C   UNL     1      53.118  46.488  11.434  1.00  0.00     0.053 C 
BRANCH  11  12
ATOM     12  C   UNL     1      54.141  45.419  11.206  1.00  0.00     0.041 C 
ATOM     13  O   UNL     1      54.246  44.873  10.077  1.00  0.00    -0.550 OA
ATOM     14  O   UNL     1      54.945  44.993  12.256  1.00  0.00    -0.550 OA
ENDBRANCH  11  12
ENDBRANCH  10  11
ENDBRANCH   9  10
ENDBRANCH   8   9
ENDBRANCH   7   8
ENDBRANCH   6   7
ENDBRANCH   5   6
ENDBRANCH   4   5
ENDBRANCH   3   4
ENDBRANCH   2   3
ENDBRANCH   1   2
BRANCH   1  15
ATOM     15  C   UNL     1      45.725  49.518  10.059  1.00  0.00     0.000 C 
BRANCH  15  16
ATOM     16  C   UNL     1      44.418  48.842  10.514  1.00  0.00     0.000 C 
BRANCH  16  17
ATOM     17  C   UNL     1      43.416  48.650   9.366  1.00  0.00     0.000 C 
BRANCH  17  18
ATOM     18  C   UNL     1      43.460  47.208   8.838  1.00  0.00    -0.000 C 
BRANCH  18  19
ATOM     19  C   UNL     1      44.191  46.244   9.791  1.00  0.00    -0.000 C 
BRANCH  19  20
ATOM     20  C   UNL     1      45.203  45.300   9.112  1.00  0.00    -0.000 C 
BRANCH  20  21
ATOM     21  C   UNL     1      45.247  43.870   9.686  1.00  0.00    -0.000 C 
BRANCH  21  22
ATOM     22  C   UNL     1      44.157  42.919   9.152  1.00  0.00    -0.000 C 
BRANCH  22  23
ATOM     23  C   UNL     1      44.662  41.835   8.183  1.00  0.00    -0.000 C 
BRANCH  23  24
ATOM     24  C   UNL     1      44.432  42.204   6.707  1.00  0.00    -0.000 C 
BRANCH  24  25
ATOM     25  C   UNL     1      43.344  43.274   6.531  1.00  0.00    -0.003 C 
ATOM     26  C   UNL     1      42.279  42.868   5.512  1.00  0.00     0.004 C 
ENDBRANCH  24  25
ENDBRANCH  23  24
ENDBRANCH  22  23
ENDBRANCH  21  22
ENDBRANCH  20  21
ENDBRANCH  19  20
ENDBRANCH  18  19
ENDBRANCH  17  18
ENDBRANCH  16  17
ENDBRANCH  15  16
ENDBRANCH   1  15
TORSDOF 22
ENDMDL
MODEL 8
REMARK VINA RESULT:    -3.739     14.041     16.774
REMARK INTER + INTRA:         -11.770
REMARK INTER:                  -9.388
REMARK INTRA:                  -2.381
REMARK UNBOUND:                -3.221
REMARK SMILES CCCCCCCCCCCCCCCCCCCCCCCC(=O)[O-]
REMARK SMILES IDX 13 1 14 2 15 3 16 4 17 5 18 6 19 7 20 8 21 9 22 10 23 11
REMARK SMILES IDX 24 12 25 13 26 14 12 15 11 16 10 17 9 18 8 19 7 20 6 21 5 22
REMARK SMILES IDX 4 23 3 24 2 25 1 26
REMARK H PARENT
REMARK Flexibility Score: inf
ROOT
ATOM      1  C   UNL     1      50.474  33.714   3.516  1.00  0.00     0.000 C 
ENDROOT
BRANCH   1   2
ATOM      2  C   UNL     1      50.628  33.753   1.982  1.00  0.00     0.000 C 
BRANCH   2   3
ATOM      3  C   UNL     1      51.758  32.871   1.416  1.00  0.00     0.000 C 
BRANCH   3   4
ATOM      4  C   UNL     1      51.460  32.360  -0.004  1.00  0.00     0.000 C 
BRANCH   4   5
ATOM      5  C   UNL     1      49.954  32.303  -0.308  1.00  0.00     0.000 C 
BRANCH   5   6
ATOM      6  C   UNL     1      49.654  32.309  -1.818  1.00  0.00     0.000 C 
BRANCH   6   7
ATOM      7  C   UNL     1      49.363  33.721  -2.354  1.00  0.00     0.000 C 
BRANCH   7   8
ATOM      8  C   UNL     1      50.225  34.077  -3.577  1.00  0.00     0.000 C 
BRANCH   8   9
ATOM      9  C   UNL     1      51.502  33.222  -3.679  1.00  0.00     0.000 C 
BRANCH   9  10
ATOM     10  C   UNL     1      52.820  33.985  -3.453  1.00  0.00     0.006 C 
BRANCH  10  11
ATOM     11  C   UNL     1      52.708  35.064  -2.368  1.00  0.00     0.053 C 
BRANCH  11  12
ATOM     12  C   UNL     1      53.225  36.372  -2.877  1.00  0.00     0.041 C 
ATOM     13  O   UNL     1      54.439  36.671  -2.738  1.00  0.00    -0.550 OA
ATOM     14  O   UNL     1      52.354  37.283  -3.463  1.00  0.00    -0.550 OA
ENDBRANCH  11  12
ENDBRANCH  10  11
ENDBRANCH   9  10
ENDBRANCH   8   9
ENDBRANCH   7   8
ENDBRANCH   6   7
ENDBRANCH   5   6
ENDBRANCH   4   5
ENDBRANCH   3   4
ENDBRANCH   2   3
ENDBRANCH   1   2
BRANCH   1  15
ATOM     15  C   UNL     1      51.322  32.646   4.234  1.00  0.00     0.000 C 
BRANCH  15  16
ATOM     16  C   UNL     1      50.744  32.152   5.573  1.00  0.00     0.000 C 
BRANCH  16  17
ATOM     17  C   UNL     1      49.379  32.777   5.899  1.00  0.00     0.000 C 
BRANCH  17  18
ATOM     18  C   UNL     1      49.444  33.582   7.205  1.00  0.00    -0.000 C 
BRANCH  18  19
ATOM     19  C   UNL     1      48.360  33.170   8.217  1.00  0.00    -0.000 C 
BRANCH  19  20
ATOM     20  C   UNL     1      48.658  31.875   8.999  1.00  0.00    -0.000 C 
BRANCH  20  21
ATOM     21  C   UNL     1      49.761  31.999  10.070  1.00  0.00    -0.000 C 
BRANCH  21  22
ATOM     22  C   UNL     1      49.250  32.210  11.509  1.00  0.00    -0.000 C 
BRANCH  22  23
ATOM     23  C   UNL     1      49.533  33.603  12.099  1.00  0.00    -0.000 C 
BRANCH  23  24
ATOM     24  C   UNL     1      50.274  34.526  11.116  1.00  0.00    -0.000 C 
BRANCH  24  25
ATOM     25  C   UNL     1      49.385  35.666  10.595  1.00  0.00    -0.003 C 
ATOM     26  C   UNL     1      47.956  35.590  11.133  1.00  0.00     0.004 C 
ENDBRANCH  24  25
ENDBRANCH  23  24
ENDBRANCH  22  23
ENDBRANCH  21  22
ENDBRANCH  20  21
ENDBRANCH  19  20
ENDBRANCH  18  19
ENDBRANCH  17  18
ENDBRANCH  16  17
ENDBRANCH  15  16
ENDBRANCH   1  15
TORSDOF 22
ENDMDL
MODEL 9
REMARK VINA RESULT:    -3.732      2.050      4.400
REMARK INTER + INTRA:         -11.753
REMARK INTER:                  -9.235
REMARK INTRA:                  -2.518
REMARK UNBOUND:                -3.221
REMARK SMILES CCCCCCCCCCCCCCCCCCCCCCCC(=O)[O-]
REMARK SMILES IDX 13 1 14 2 15 3 16 4 17 5 18 6 19 7 20 8 21 9 22 10 23 11
REMARK SMILES IDX 24 12 25 13 26 14 12 15 11 16 10 17 9 18 8 19 7 20 6 21 5 22
REMARK SMILES IDX 4 23 3 24 2 25 1 26
REMARK H PARENT
REMARK Flexibility Score: inf
ROOT
ATOM      1  C   UNL     1      45.636  43.805  10.756  1.00  0.00     0.000 C 
ENDROOT
BRANCH   1   2
ATOM      2  C   UNL     1      45.382  44.110  12.246  1.00  0.00     0.000 C 
BRANCH   2   3
ATOM      3  C   UNL     1      45.842  45.503  12.716  1.00  0.00     0.000 C 
BRANCH   3   4
ATOM      4  C   UNL     1      47.248  45.868  12.210  1.00  0.00     0.000 C 
BRANCH   4   5
ATOM      5  C   UNL     1      47.303  47.268  11.576  1.00  0.00     0.000 C 
BRANCH   5   6
ATOM      6  C   UNL     1      48.566  48.050  11.979  1.00  0.00     0.000 C 
BRANCH   6   7
ATOM      7  C   UNL     1      49.436  48.429  10.768  1.00  0.00     0.000 C 
BRANCH   7   8
ATOM      8  C   UNL     1      50.836  47.794  10.827  1.00  0.00     0.000 C 
BRANCH   8   9
ATOM      9  C   UNL     1      51.214  47.306  12.237  1.00  0.00     0.000 C 
BRANCH   9  10
ATOM     10  C   UNL     1      52.023  45.996  12.280  1.00  0.00     0.006 C 
BRANCH  10  11
ATOM     11  C   UNL     1      52.662  45.643  10.932  1.00  0.00     0.053 C 
BRANCH  11  12
ATOM     12  C   UNL     1      54.083  45.217  11.123  1.00  0.00     0.041 C 
ATOM     13  O   UNL     1      54.994  46.079  11.234  1.00  0.00    -0.550 OA
ATOM     14  O   UNL     1      54.409  43.866  11.129  1.00  0.00    -0.550 OA
ENDBRANCH  11  12
ENDBRANCH  10  11
ENDBRANCH   9  10
ENDBRANCH   8   9
ENDBRANCH   7   8
ENDBRANCH   6   7
ENDBRANCH   5   6
ENDBRANCH   4   5
ENDBRANCH   3   4
ENDBRANCH   2   3
ENDBRANCH   1   2
BRANCH   1  15
ATOM     15  C   UNL     1      44.558  44.328   9.786  1.00  0.00     0.000 C 
BRANCH  15  16
ATOM     16  C   UNL     1      44.910  45.650   9.078  1.00  0.00     0.000 C 
BRANCH  16  17
ATOM     17  C   UNL     1      44.073  46.835   9.578  1.00  0.00     0.000 C 
BRANCH  17  18
ATOM     18  C   UNL     1      43.475  47.619   8.400  1.00  0.00    -0.000 C 
BRANCH  18  19
ATOM     19  C   UNL     1      42.690  46.724   7.424  1.00  0.00    -0.000 C 
BRANCH  19  20
ATOM     20  C   UNL     1      41.552  45.904   8.064  1.00  0.00    -0.000 C 
BRANCH  20  21
ATOM     21  C   UNL     1      40.972  44.787   7.173  1.00  0.00    -0.000 C 
BRANCH  21  22
ATOM     22  C   UNL     1      41.530  44.744   5.737  1.00  0.00    -0.000 C 
BRANCH  22  23
ATOM     23  C   UNL     1      42.569  43.638   5.479  1.00  0.00    -0.000 C 
BRANCH  23  24
ATOM     24  C   UNL     1      43.041  42.952   6.773  1.00  0.00    -0.000 C 
BRANCH  24  25
ATOM     25  C   UNL     1      44.265  42.051   6.548  1.00  0.00    -0.003 C 
ATOM     26  C   UNL     1      44.618  41.218   7.780  1.00  0.00     0.004 C 
ENDBRANCH  24  25
ENDBRANCH  23  24
ENDBRANCH  22  23
ENDBRANCH  21  22
ENDBRANCH  20  21
ENDBRANCH  19  20
ENDBRANCH  18  19
ENDBRANCH  17  18
ENDBRANCH  16  17
ENDBRANCH  15  16
ENDBRANCH   1  15
TORSDOF 22
ENDMDL
