MODEL 1
REMARK VINA RESULT:    -5.195      0.000      0.000
REMARK INTER + INTRA:          -9.788
REMARK INTER:                  -8.232
REMARK INTRA:                  -1.556
REMARK UNBOUND:                -1.556
REMARK SMILES CCCCCCCCCCCC(=O)[O-]
REMARK SMILES IDX 7 1 8 2 9 3 10 4 11 5 12 6 13 7 14 8 6 9 5 10 4 11 3 12 2 13
REMARK SMILES IDX 1 14
REMARK H PARENT
REMARK Flexibility Score: inf
ROOT
ATOM      1  C   UNL     1      94.264  -4.004   7.896  1.00  0.00     0.000 C 
ENDROOT
BRANCH   1   2
ATOM      2  C   UNL     1      95.019  -2.665   7.806  1.00  0.00     0.000 C 
BRANCH   2   3
ATOM      3  C   UNL     1      96.426  -2.807   7.210  1.00  0.00     0.000 C 
BRANCH   3   4
ATOM      4  C   UNL     1      96.913  -4.260   7.290  1.00  0.00     0.006 C 
BRANCH   4   5
ATOM      5  C   UNL     1      98.440  -4.323   7.387  1.00  0.00     0.053 C 
BRANCH   5   6
ATOM      6  C   UNL     1      99.016  -4.980   6.173  1.00  0.00     0.041 C 
ATOM      7  O   UNL     1      99.615  -4.292   5.304  1.00  0.00    -0.550 OA
ATOM      8  O   UNL     1      98.848  -6.344   5.974  1.00  0.00    -0.550 OA
ENDBRANCH   5   6
ENDBRANCH   4   5
ENDBRANCH   3   4
ENDBRANCH   2   3
ENDBRANCH   1   2
BRANCH   1   9
ATOM      9  C   UNL     1      93.328  -4.151   9.109  1.00  0.00     0.000 C 
BRANCH   9  10
ATOM     10  C   UNL     1      94.056  -3.981  10.454  1.00  0.00    -0.000 C 
BRANCH  10  11
ATOM     11  C   UNL     1      95.213  -4.980  10.640  1.00  0.00    -0.000 C 
BRANCH  11  12
ATOM     12  C   UNL     1      96.581  -4.349  10.957  1.00  0.00    -0.000 C 
BRANCH  12  13
ATOM     13  C   UNL     1      96.485  -2.859  11.319  1.00  0.00    -0.003 C 
ATOM     14  C   UNL     1      97.513  -2.038  10.547  1.00  0.00     0.004 C 
ENDBRANCH  12  13
ENDBRANCH  11  12
ENDBRANCH  10  11
ENDBRANCH   9  10
ENDBRANCH   1   9
TORSDOF 10
ENDMDL
MODEL 2
REMARK VINA RESULT:    -5.151     14.900     16.926
REMARK INTER + INTRA:          -9.718
REMARK INTER:                  -8.181
REMARK INTRA:                  -1.537
REMARK UNBOUND:                -1.556
REMARK SMILES CCCCCCCCCCCC(=O)[O-]
REMARK SMILES IDX 7 1 8 2 9 3 10 4 11 5 12 6 13 7 14 8 6 9 5 10 4 11 3 12 2 13
REMARK SMILES IDX 1 14
REMARK H PARENT
REMARK Flexibility Score: inf
ROOT
ATOM      1  C   UNL     1      83.771  -1.858   2.781  1.00  0.00     0.000 C 
ENDROOT
BRANCH   1   2
ATOM      2  C   UNL     1      84.266  -1.582   1.349  1.00  0.00     0.000 C 
BRANCH   2   3
ATOM      3  C   UNL     1      83.572  -0.378   0.696  1.00  0.00     0.000 C 
BRANCH   3   4
ATOM      4  C   UNL     1      82.491   0.200   1.617  1.00  0.00     0.006 C 
BRANCH   4   5
ATOM      5  C   UNL     1      81.433   0.962   0.812  1.00  0.00     0.053 C 
BRANCH   5   6
ATOM      6  C   UNL     1      81.490   2.423   1.123  1.00  0.00     0.041 C 
ATOM      7  O   UNL     1      82.109   3.211   0.358  1.00  0.00    -0.550 OA
ATOM      8  O   UNL     1      80.903   2.911   2.283  1.00  0.00    -0.550 OA
ENDBRANCH   5   6
ENDBRANCH   4   5
ENDBRANCH   3   4
ENDBRANCH   2   3
ENDBRANCH   1   2
BRANCH   1   9
ATOM      9  C   UNL     1      83.715  -3.344   3.182  1.00  0.00     0.000 C 
BRANCH   9  10
ATOM     10  C   UNL     1      82.408  -4.032   2.755  1.00  0.00    -0.000 C 
BRANCH  10  11
ATOM     11  C   UNL     1      81.211  -3.066   2.699  1.00  0.00    -0.000 C 
BRANCH  11  12
ATOM     12  C   UNL     1      80.503  -2.975   1.335  1.00  0.00    -0.000 C 
BRANCH  12  13
ATOM     13  C   UNL     1      81.239  -3.741   0.225  1.00  0.00    -0.003 C 
ATOM     14  C   UNL     1      81.581  -2.822  -0.944  1.00  0.00     0.004 C 
ENDBRANCH  12  13
ENDBRANCH  11  12
ENDBRANCH  10  11
ENDBRANCH   9  10
ENDBRANCH   1   9
TORSDOF 10
ENDMDL
MODEL 3
REMARK VINA RESULT:    -5.034     15.195     17.026
REMARK INTER + INTRA:          -9.532
REMARK INTER:                  -8.487
REMARK INTRA:                  -1.046
REMARK UNBOUND:                -1.556
REMARK SMILES CCCCCCCCCCCC(=O)[O-]
REMARK SMILES IDX 7 1 8 2 9 3 10 4 11 5 12 6 13 7 14 8 6 9 5 10 4 11 3 12 2 13
REMARK SMILES IDX 1 14
REMARK H PARENT
REMARK Flexibility Score: inf
ROOT
ATOM      1  C   UNL     1      81.789  -1.164   0.504  1.00  0.00     0.000 C 
ENDROOT
BRANCH   1   2
ATOM      2  C   UNL     1      83.127  -0.409   0.412  1.00  0.00     0.000 C 
BRANCH   2   3
ATOM      3  C   UNL     1      83.079   0.786  -0.551  1.00  0.00     0.000 C 
BRANCH   3   4
ATOM      4  C   UNL     1      81.807   1.616  -0.333  1.00  0.00     0.006 C 
BRANCH   4   5
ATOM      5  C   UNL     1      82.057   2.757   0.657  1.00  0.00     0.053 C 
BRANCH   5   6
ATOM      6  C   UNL     1      81.320   2.511   1.935  1.00  0.00     0.041 C 
ATOM      7  O   UNL     1      81.862   1.853   2.863  1.00  0.00    -0.550 OA
ATOM      8  O   UNL     1      80.017   2.966   2.085  1.00  0.00    -0.550 OA
ENDBRANCH   5   6
ENDBRANCH   4   5
ENDBRANCH   3   4
ENDBRANCH   2   3
ENDBRANCH   1   2
BRANCH   1   9
ATOM      9  C   UNL     1      81.745  -2.516  -0.232  1.00  0.00     0.000 C 
BRANCH   9  10
ATOM     10  C   UNL     1      81.467  -3.702   0.708  1.00  0.00    -0.000 C 
BRANCH  10  11
ATOM     11  C   UNL     1      81.010  -3.262   2.110  1.00  0.00    -0.000 C 
BRANCH  11  12
ATOM     12  C   UNL     1      82.018  -3.526   3.243  1.00  0.00    -0.000 C 
BRANCH  12  13
ATOM     13  C   UNL     1      83.440  -3.793   2.730  1.00  0.00    -0.003 C 
ATOM     14  C   UNL     1      84.380  -2.646   3.092  1.00  0.00     0.004 C 
ENDBRANCH  12  13
ENDBRANCH  11  12
ENDBRANCH  10  11
ENDBRANCH   9  10
ENDBRANCH   1   9
TORSDOF 10
ENDMDL
MODEL 4
REMARK VINA RESULT:    -5.000      1.226      2.701
REMARK INTER + INTRA:          -9.478
REMARK INTER:                  -8.455
REMARK INTRA:                  -1.023
REMARK UNBOUND:                -1.556
REMARK SMILES CCCCCCCCCCCC(=O)[O-]
REMARK SMILES IDX 7 1 8 2 9 3 10 4 11 5 12 6 13 7 14 8 6 9 5 10 4 11 3 12 2 13
REMARK SMILES IDX 1 14
REMARK H PARENT
REMARK Flexibility Score: inf
ROOT
ATOM      1  C   UNL     1      97.344  -3.400   8.986  1.00  0.00     0.000 C 
ENDROOT
BRANCH   1   2
ATOM      2  C   UNL     1      96.868  -2.719   7.689  1.00  0.00     0.000 C 
BRANCH   2   3
ATOM      3  C   UNL     1      97.987  -2.553   6.652  1.00  0.00     0.000 C 
BRANCH   3   4
ATOM      4  C   UNL     1      99.123  -3.553   6.903  1.00  0.00     0.006 C 
BRANCH   4   5
ATOM      5  C   UNL     1      99.301  -4.494   5.709  1.00  0.00     0.053 C 
BRANCH   5   6
ATOM      6  C   UNL     1      98.798  -5.863   6.041  1.00  0.00     0.041 C 
ATOM      7  O   UNL     1      99.608  -6.791   6.301  1.00  0.00    -0.550 OA
ATOM      8  O   UNL     1      97.434  -6.127   6.017  1.00  0.00    -0.550 OA
ENDBRANCH   5   6
ENDBRANCH   4   5
ENDBRANCH   3   4
ENDBRANCH   2   3
ENDBRANCH   1   2
BRANCH   1   9
ATOM      9  C   UNL     1      97.122  -2.587  10.275  1.00  0.00     0.000 C 
BRANCH   9  10
ATOM     10  C   UNL     1      96.030  -3.182  11.180  1.00  0.00    -0.000 C 
BRANCH  10  11
ATOM     11  C   UNL     1      95.745  -4.665  10.881  1.00  0.00    -0.000 C 
BRANCH  11  12
ATOM     12  C   UNL     1      94.370  -4.956  10.252  1.00  0.00    -0.000 C 
BRANCH  12  13
ATOM     13  C   UNL     1      93.629  -3.685   9.814  1.00  0.00    -0.003 C 
ATOM     14  C   UNL     1      93.356  -3.695   8.314  1.00  0.00     0.004 C 
ENDBRANCH  12  13
ENDBRANCH  11  12
ENDBRANCH  10  11
ENDBRANCH   9  10
ENDBRANCH   1   9
TORSDOF 10
ENDMDL
MODEL 5
REMARK VINA RESULT:    -4.936     14.026     15.776
REMARK INTER + INTRA:          -9.378
REMARK INTER:                  -8.324
REMARK INTRA:                  -1.054
REMARK UNBOUND:                -1.556
REMARK SMILES CCCCCCCCCCCC(=O)[O-]
REMARK SMILES IDX 7 1 8 2 9 3 10 4 11 5 12 6 13 7 14 8 6 9 5 10 4 11 3 12 2 13
REMARK SMILES IDX 1 14
REMARK H PARENT
REMARK Flexibility Score: inf
ROOT
ATOM      1  C   UNL     1      90.568  -8.630  -3.184  1.00  0.00     0.000 C 
ENDROOT
BRANCH   1   2
ATOM      2  C   UNL     1      89.641  -9.532  -4.019  1.00  0.00     0.000 C 
BRANCH   2   3
ATOM      3  C   UNL     1      88.917  -8.775  -5.141  1.00  0.00     0.000 C 
BRANCH   3   4
ATOM      4  C   UNL     1      89.373  -7.311  -5.200  1.00  0.00     0.006 C 
BRANCH   4   5
ATOM      5  C   UNL     1      88.658  -6.558  -6.325  1.00  0.00     0.053 C 
BRANCH   5   6
ATOM      6  C   UNL     1      88.558  -5.102  -5.999  1.00  0.00     0.041 C 
ATOM      7  O   UNL     1      88.472  -4.725  -4.800  1.00  0.00    -0.550 OA
ATOM      8  O   UNL     1      88.508  -4.161  -7.020  1.00  0.00    -0.550 OA
ENDBRANCH   5   6
ENDBRANCH   4   5
ENDBRANCH   3   4
ENDBRANCH   2   3
ENDBRANCH   1   2
BRANCH   1   9
ATOM      9  C   UNL     1      92.069  -8.965  -3.275  1.00  0.00     0.000 C 
BRANCH   9  10
ATOM     10  C   UNL     1      92.383 -10.028  -4.342  1.00  0.00    -0.000 C 
BRANCH  10  11
ATOM     11  C   UNL     1      92.911  -9.422  -5.655  1.00  0.00    -0.000 C 
BRANCH  11  12
ATOM     12  C   UNL     1      93.164  -7.904  -5.624  1.00  0.00    -0.000 C 
BRANCH  12  13
ATOM     13  C   UNL     1      94.656  -7.544  -5.652  1.00  0.00    -0.003 C 
ATOM     14  C   UNL     1      95.168  -7.212  -4.253  1.00  0.00     0.004 C 
ENDBRANCH  12  13
ENDBRANCH  11  12
ENDBRANCH  10  11
ENDBRANCH   9  10
ENDBRANCH   1   9
TORSDOF 10
ENDMDL
MODEL 6
REMARK VINA RESULT:    -4.931     12.738     14.306
REMARK INTER + INTRA:          -9.369
REMARK INTER:                  -8.800
REMARK INTRA:                  -0.568
REMARK UNBOUND:                -1.556
REMARK SMILES CCCCCCCCCCCC(=O)[O-]
REMARK SMILES IDX 7 1 8 2 9 3 10 4 11 5 12 6 13 7 14 8 6 9 5 10 4 11 3 12 2 13
REMARK SMILES IDX 1 14
REMARK H PARENT
REMARK Flexibility Score: inf
ROOT
ATOM      1  C   UNL     1      94.366  -7.748  -4.493  1.00  0.00     0.000 C 
ENDROOT
BRANCH   1   2
ATOM      2  C   UNL     1      95.654  -7.008  -4.898  1.00  0.00     0.000 C 
BRANCH   2   3
ATOM      3  C   UNL     1      95.775  -6.799  -6.414  1.00  0.00     0.000 C 
BRANCH   3   4
ATOM      4  C   UNL     1      96.350  -5.414  -6.734  1.00  0.00     0.006 C 
BRANCH   4   5
ATOM      5  C   UNL     1      96.862  -4.725  -5.466  1.00  0.00     0.053 C 
BRANCH   5   6
ATOM      6  C   UNL     1      96.845  -3.239  -5.633  1.00  0.00     0.041 C 
ATOM      7  O   UNL     1      97.664  -2.520  -5.001  1.00  0.00    -0.550 OA
ATOM      8  O   UNL     1      95.894  -2.642  -6.450  1.00  0.00    -0.550 OA
ENDBRANCH   5   6
ENDBRANCH   4   5
ENDBRANCH   3   4
ENDBRANCH   2   3
ENDBRANCH   1   2
BRANCH   1   9
ATOM      9  C   UNL     1      94.146  -7.903  -2.977  1.00  0.00     0.000 C 
BRANCH   9  10
ATOM     10  C   UNL     1      93.081  -8.957  -2.629  1.00  0.00    -0.000 C 
BRANCH  10  11
ATOM     11  C   UNL     1      91.964  -9.053  -3.684  1.00  0.00    -0.000 C 
BRANCH  11  12
ATOM     12  C   UNL     1      90.564  -8.639  -3.199  1.00  0.00    -0.000 C 
BRANCH  12  13
ATOM     13  C   UNL     1      89.628  -8.229  -4.346  1.00  0.00    -0.003 C 
ATOM     14  C   UNL     1      90.418  -7.890  -5.607  1.00  0.00     0.004 C 
ENDBRANCH  12  13
ENDBRANCH  11  12
ENDBRANCH  10  11
ENDBRANCH   9  10
ENDBRANCH   1   9
TORSDOF 10
ENDMDL
MODEL 7
REMARK VINA RESULT:    -4.901     12.032     14.132
REMARK INTER + INTRA:          -9.322
REMARK INTER:                  -8.277
REMARK INTRA:                  -1.044
REMARK UNBOUND:                -1.556
REMARK SMILES CCCCCCCCCCCC(=O)[O-]
REMARK SMILES IDX 7 1 8 2 9 3 10 4 11 5 12 6 13 7 14 8 6 9 5 10 4 11 3 12 2 13
REMARK SMILES IDX 1 14
REMARK H PARENT
REMARK Flexibility Score: inf
ROOT
ATOM      1  C   UNL     1      83.391  -3.694   2.895  1.00  0.00     0.000 C 
ENDROOT
BRANCH   1   2
ATOM      2  C   UNL     1      84.352  -2.591   3.375  1.00  0.00     0.000 C 
BRANCH   2   3
ATOM      3  C   UNL     1      85.678  -2.570   2.602  1.00  0.00     0.000 C 
BRANCH   3   4
ATOM      4  C   UNL     1      86.874  -2.629   3.560  1.00  0.00     0.006 C 
BRANCH   4   5
ATOM      5  C   UNL     1      86.490  -2.116   4.951  1.00  0.00     0.053 C 
BRANCH   5   6
ATOM      6  C   UNL     1      87.017  -3.032   6.010  1.00  0.00     0.041 C 
ATOM      7  O   UNL     1      86.251  -3.468   6.909  1.00  0.00    -0.550 OA
ATOM      8  O   UNL     1      88.365  -3.366   6.034  1.00  0.00    -0.550 OA
ENDBRANCH   5   6
ENDBRANCH   4   5
ENDBRANCH   3   4
ENDBRANCH   2   3
ENDBRANCH   1   2
BRANCH   1   9
ATOM      9  C   UNL     1      81.908  -3.470   3.242  1.00  0.00     0.000 C 
BRANCH   9  10
ATOM     10  C   UNL     1      81.015  -3.326   1.998  1.00  0.00    -0.000 C 
BRANCH  10  11
ATOM     11  C   UNL     1      81.797  -3.468   0.678  1.00  0.00    -0.000 C 
BRANCH  11  12
ATOM     12  C   UNL     1      81.871  -2.194  -0.182  1.00  0.00    -0.000 C 
BRANCH  12  13
ATOM     13  C   UNL     1      81.989  -0.911   0.654  1.00  0.00    -0.003 C 
ATOM     14  C   UNL     1      83.400  -0.337   0.585  1.00  0.00     0.004 C 
ENDBRANCH  12  13
ENDBRANCH  11  12
ENDBRANCH  10  11
ENDBRANCH   9  10
ENDBRANCH   1   9
TORSDOF 10
ENDMDL
MODEL 8
REMARK VINA RESULT:    -4.887     12.562     14.516
REMARK INTER + INTRA:          -9.300
REMARK INTER:                  -8.371
REMARK INTRA:                  -0.930
REMARK UNBOUND:                -1.556
REMARK SMILES CCCCCCCCCCCC(=O)[O-]
REMARK SMILES IDX 7 1 8 2 9 3 10 4 11 5 12 6 13 7 14 8 6 9 5 10 4 11 3 12 2 13
REMARK SMILES IDX 1 14
REMARK H PARENT
REMARK Flexibility Score: inf
ROOT
ATOM      1  C   UNL     1      82.111  -3.515   3.316  1.00  0.00     0.000 C 
ENDROOT
BRANCH   1   2
ATOM      2  C   UNL     1      83.534  -3.670   2.751  1.00  0.00     0.000 C 
BRANCH   2   3
ATOM      3  C   UNL     1      84.502  -2.590   3.255  1.00  0.00     0.000 C 
BRANCH   3   4
ATOM      4  C   UNL     1      85.664  -2.391   2.275  1.00  0.00     0.006 C 
BRANCH   4   5
ATOM      5  C   UNL     1      87.011  -2.626   2.964  1.00  0.00     0.053 C 
BRANCH   5   6
ATOM      6  C   UNL     1      88.122  -2.031   2.159  1.00  0.00     0.041 C 
ATOM      7  O   UNL     1      87.866  -1.325   1.148  1.00  0.00    -0.550 OA
ATOM      8  O   UNL     1      89.444  -2.297   2.494  1.00  0.00    -0.550 OA
ENDBRANCH   5   6
ENDBRANCH   4   5
ENDBRANCH   3   4
ENDBRANCH   2   3
ENDBRANCH   1   2
BRANCH   1   9
ATOM      9  C   UNL     1      81.051  -3.038   2.305  1.00  0.00     0.000 C 
BRANCH   9  10
ATOM     10  C   UNL     1      81.301  -3.561   0.881  1.00  0.00    -0.000 C 
BRANCH  10  11
ATOM     11  C   UNL     1      81.800  -2.467  -0.081  1.00  0.00    -0.000 C 
BRANCH  11  12
ATOM     12  C   UNL     1      81.814  -1.040   0.497  1.00  0.00    -0.000 C 
BRANCH  12  13
ATOM     13  C   UNL     1      83.193  -0.371   0.408  1.00  0.00    -0.003 C 
ATOM     14  C   UNL     1      83.197   0.748  -0.629  1.00  0.00     0.004 C 
ENDBRANCH  12  13
ENDBRANCH  11  12
ENDBRANCH  10  11
ENDBRANCH   9  10
ENDBRANCH   1   9
TORSDOF 10
ENDMDL
MODEL 9
REMARK VINA RESULT:    -4.807      3.622      5.853
REMARK INTER + INTRA:          -9.174
REMARK INTER:                  -8.248
REMARK INTRA:                  -0.926
REMARK UNBOUND:                -1.556
REMARK SMILES CCCCCCCCCCCC(=O)[O-]
REMARK SMILES IDX 7 1 8 2 9 3 10 4 11 5 12 6 13 7 14 8 6 9 5 10 4 11 3 12 2 13
REMARK SMILES IDX 1 14
REMARK H PARENT
REMARK Flexibility Score: inf
ROOT
ATOM      1  C   UNL     1      92.334  -2.261   7.497  1.00  0.00     0.000 C 
ENDROOT
BRANCH   1   2
ATOM      2  C   UNL     1      93.653  -2.964   7.866  1.00  0.00     0.000 C 
BRANCH   2   3
ATOM      3  C   UNL     1      93.456  -4.145   8.827  1.00  0.00     0.000 C 
BRANCH   3   4
ATOM      4  C   UNL     1      94.062  -3.841  10.203  1.00  0.00     0.006 C 
BRANCH   4   5
ATOM      5  C   UNL     1      95.293  -4.714  10.466  1.00  0.00     0.053 C 
BRANCH   5   6
ATOM      6  C   UNL     1      96.547  -3.950  10.181  1.00  0.00     0.041 C 
ATOM      7  O   UNL     1      97.034  -3.182  11.053  1.00  0.00    -0.550 OA
ATOM      8  O   UNL     1      97.151  -4.045   8.934  1.00  0.00    -0.550 OA
ENDBRANCH   5   6
ENDBRANCH   4   5
ENDBRANCH   3   4
ENDBRANCH   2   3
ENDBRANCH   1   2
BRANCH   1   9
ATOM      9  C   UNL     1      92.376  -1.420   6.207  1.00  0.00     0.000 C 
BRANCH   9  10
ATOM     10  C   UNL     1      91.106  -1.569   5.352  1.00  0.00    -0.000 C 
BRANCH  10  11
ATOM     11  C   UNL     1      90.183  -2.701   5.839  1.00  0.00    -0.000 C 
BRANCH  11  12
ATOM     12  C   UNL     1      90.132  -3.943   4.932  1.00  0.00    -0.000 C 
BRANCH  12  13
ATOM     13  C   UNL     1      90.599  -5.223   5.640  1.00  0.00    -0.003 C 
ATOM     14  C   UNL     1      90.044  -5.301   7.059  1.00  0.00     0.004 C 
ENDBRANCH  12  13
ENDBRANCH  11  12
ENDBRANCH  10  11
ENDBRANCH   9  10
ENDBRANCH   1   9
TORSDOF 10
ENDMDL
