MODEL 1
REMARK VINA RESULT:    -3.765      0.000      0.000
REMARK INTER + INTRA:          -8.903
REMARK INTER:                  -6.627
REMARK INTRA:                  -2.276
REMARK UNBOUND:                -2.276
REMARK SMILES CCCCCCCCCCCCCCC(=O)[O-]
REMARK SMILES IDX 9 1 10 2 11 3 12 4 13 5 14 6 15 7 16 8 17 9 8 10 7 11 6 12
REMARK SMILES IDX 5 13 4 14 3 15 2 16 1 17
REMARK H PARENT
REMARK Flexibility Score: inf
ROOT
ATOM      1  C   UNL     1    -113.061 -40.757 -65.748  1.00  0.00     0.000 C 
ENDROOT
BRANCH   1   2
ATOM      2  C   UNL     1    -113.397 -41.894 -64.766  1.00  0.00     0.000 C 
BRANCH   2   3
ATOM      3  C   UNL     1    -112.201 -42.759 -64.332  1.00  0.00     0.000 C 
BRANCH   3   4
ATOM      4  C   UNL     1    -110.950 -42.531 -65.197  1.00  0.00     0.000 C 
BRANCH   4   5
ATOM      5  C   UNL     1    -110.019 -43.758 -65.233  1.00  0.00     0.006 C 
BRANCH   5   6
ATOM      6  C   UNL     1    -108.530 -43.432 -65.033  1.00  0.00     0.053 C 
BRANCH   6   7
ATOM      7  C   UNL     1    -108.271 -42.767 -63.716  1.00  0.00     0.041 C 
ATOM      8  O   UNL     1    -107.815 -41.594 -63.677  1.00  0.00    -0.550 OA
ATOM      9  O   UNL     1    -108.564 -43.431 -62.531  1.00  0.00    -0.550 OA
ENDBRANCH   6   7
ENDBRANCH   5   6
ENDBRANCH   4   5
ENDBRANCH   3   4
ENDBRANCH   2   3
ENDBRANCH   1   2
BRANCH   1  10
ATOM     10  C   UNL     1    -113.594 -41.010 -67.165  1.00  0.00     0.000 C 
BRANCH  10  11
ATOM     11  C   UNL     1    -114.163 -42.431 -67.292  1.00  0.00    -0.000 C 
BRANCH  11  12
ATOM     12  C   UNL     1    -113.359 -43.313 -68.265  1.00  0.00    -0.000 C 
BRANCH  12  13
ATOM     13  C   UNL     1    -112.107 -42.646 -68.870  1.00  0.00    -0.000 C 
BRANCH  13  14
ATOM     14  C   UNL     1    -110.845 -43.526 -68.894  1.00  0.00    -0.000 C 
BRANCH  14  15
ATOM     15  C   UNL     1    -109.550 -42.717 -68.737  1.00  0.00    -0.000 C 
BRANCH  15  16
ATOM     16  C   UNL     1    -109.856 -41.240 -68.463  1.00  0.00    -0.003 C 
ATOM     17  C   UNL     1    -108.814 -40.623 -67.535  1.00  0.00     0.004 C 
ENDBRANCH  15  16
ENDBRANCH  14  15
ENDBRANCH  13  14
ENDBRANCH  12  13
ENDBRANCH  11  12
ENDBRANCH  10  11
ENDBRANCH   1  10
TORSDOF 13
ENDMDL
MODEL 2
REMARK VINA RESULT:    -3.705      1.262      1.862
REMARK INTER + INTRA:          -8.797
REMARK INTER:                  -6.876
REMARK INTRA:                  -1.921
REMARK UNBOUND:                -2.276
REMARK SMILES CCCCCCCCCCCCCCC(=O)[O-]
REMARK SMILES IDX 9 1 10 2 11 3 12 4 13 5 14 6 15 7 16 8 17 9 8 10 7 11 6 12
REMARK SMILES IDX 5 13 4 14 3 15 2 16 1 17
REMARK H PARENT
REMARK Flexibility Score: inf
ROOT
ATOM      1  C   UNL     1    -112.455 -41.731 -65.202  1.00  0.00     0.000 C 
ENDROOT
BRANCH   1   2
ATOM      2  C   UNL     1    -112.619 -42.684 -64.004  1.00  0.00     0.000 C 
BRANCH   2   3
ATOM      3  C   UNL     1    -111.359 -43.482 -63.623  1.00  0.00     0.000 C 
BRANCH   3   4
ATOM      4  C   UNL     1    -110.314 -43.526 -64.752  1.00  0.00     0.000 C 
BRANCH   4   5
ATOM      5  C   UNL     1    -108.960 -42.922 -64.333  1.00  0.00     0.006 C 
BRANCH   5   6
ATOM      6  C   UNL     1    -108.394 -41.888 -65.320  1.00  0.00     0.053 C 
BRANCH   6   7
ATOM      7  C   UNL     1    -108.184 -40.551 -64.677  1.00  0.00     0.041 C 
ATOM      8  O   UNL     1    -107.658 -40.472 -63.536  1.00  0.00    -0.550 OA
ATOM      9  O   UNL     1    -108.540 -39.391 -65.353  1.00  0.00    -0.550 OA
ENDBRANCH   6   7
ENDBRANCH   5   6
ENDBRANCH   4   5
ENDBRANCH   3   4
ENDBRANCH   2   3
ENDBRANCH   1   2
BRANCH   1  10
ATOM     10  C   UNL     1    -113.785 -41.134 -65.681  1.00  0.00     0.000 C 
BRANCH  10  11
ATOM     11  C   UNL     1    -114.059 -41.508 -67.145  1.00  0.00    -0.000 C 
BRANCH  11  12
ATOM     12  C   UNL     1    -113.685 -42.966 -67.471  1.00  0.00    -0.000 C 
BRANCH  12  13
ATOM     13  C   UNL     1    -113.498 -43.272 -68.971  1.00  0.00    -0.000 C 
BRANCH  13  14
ATOM     14  C   UNL     1    -112.062 -43.635 -69.389  1.00  0.00    -0.000 C 
BRANCH  14  15
ATOM     15  C   UNL     1    -111.036 -43.390 -68.273  1.00  0.00    -0.000 C 
BRANCH  15  16
ATOM     16  C   UNL     1    -110.030 -42.308 -68.680  1.00  0.00    -0.003 C 
ATOM     17  C   UNL     1    -110.509 -40.923 -68.259  1.00  0.00     0.004 C 
ENDBRANCH  15  16
ENDBRANCH  14  15
ENDBRANCH  13  14
ENDBRANCH  12  13
ENDBRANCH  11  12
ENDBRANCH  10  11
ENDBRANCH   1  10
TORSDOF 13
ENDMDL
MODEL 3
REMARK VINA RESULT:    -3.692      3.120      5.389
REMARK INTER + INTRA:          -8.775
REMARK INTER:                  -7.030
REMARK INTRA:                  -1.744
REMARK UNBOUND:                -2.276
REMARK SMILES CCCCCCCCCCCCCCC(=O)[O-]
REMARK SMILES IDX 9 1 10 2 11 3 12 4 13 5 14 6 15 7 16 8 17 9 8 10 7 11 6 12
REMARK SMILES IDX 5 13 4 14 3 15 2 16 1 17
REMARK H PARENT
REMARK Flexibility Score: inf
ROOT
ATOM      1  C   UNL     1    -112.715 -43.023 -64.527  1.00  0.00     0.000 C 
ENDROOT
BRANCH   1   2
ATOM      2  C   UNL     1    -113.495 -41.699 -64.440  1.00  0.00     0.000 C 
BRANCH   2   3
ATOM      3  C   UNL     1    -113.400 -40.800 -65.686  1.00  0.00     0.000 C 
BRANCH   3   4
ATOM      4  C   UNL     1    -111.959 -40.640 -66.201  1.00  0.00     0.000 C 
BRANCH   4   5
ATOM      5  C   UNL     1    -111.720 -41.374 -67.535  1.00  0.00     0.006 C 
BRANCH   5   6
ATOM      6  C   UNL     1    -112.907 -41.320 -68.511  1.00  0.00     0.053 C 
BRANCH   6   7
ATOM      7  C   UNL     1    -113.401 -42.687 -68.872  1.00  0.00     0.041 C 
ATOM      8  O   UNL     1    -113.540 -43.566 -67.982  1.00  0.00    -0.550 OA
ATOM      9  O   UNL     1    -113.740 -42.979 -70.187  1.00  0.00    -0.550 OA
ENDBRANCH   6   7
ENDBRANCH   5   6
ENDBRANCH   4   5
ENDBRANCH   3   4
ENDBRANCH   2   3
ENDBRANCH   1   2
BRANCH   1  10
ATOM     10  C   UNL     1    -111.980 -43.374 -63.225  1.00  0.00     0.000 C 
BRANCH  10  11
ATOM     11  C   UNL     1    -110.481 -43.586 -63.481  1.00  0.00    -0.000 C 
BRANCH  11  12
ATOM     12  C   UNL     1    -110.121 -43.571 -64.978  1.00  0.00    -0.000 C 
BRANCH  12  13
ATOM     13  C   UNL     1    -108.823 -42.817 -65.330  1.00  0.00    -0.000 C 
BRANCH  13  14
ATOM     14  C   UNL     1    -108.673 -41.432 -64.674  1.00  0.00    -0.000 C 
BRANCH  14  15
ATOM     15  C   UNL     1    -107.255 -41.172 -64.146  1.00  0.00    -0.000 C 
BRANCH  15  16
ATOM     16  C   UNL     1    -107.279 -40.838 -62.651  1.00  0.00    -0.003 C 
ATOM     17  C   UNL     1    -107.453 -42.097 -61.807  1.00  0.00     0.004 C 
ENDBRANCH  15  16
ENDBRANCH  14  15
ENDBRANCH  13  14
ENDBRANCH  12  13
ENDBRANCH  11  12
ENDBRANCH  10  11
ENDBRANCH   1  10
TORSDOF 13
ENDMDL
MODEL 4
REMARK VINA RESULT:    -3.663      2.607      4.381
REMARK INTER + INTRA:          -8.723
REMARK INTER:                  -6.754
REMARK INTRA:                  -1.969
REMARK UNBOUND:                -2.276
REMARK SMILES CCCCCCCCCCCCCCC(=O)[O-]
REMARK SMILES IDX 9 1 10 2 11 3 12 4 13 5 14 6 15 7 16 8 17 9 8 10 7 11 6 12
REMARK SMILES IDX 5 13 4 14 3 15 2 16 1 17
REMARK H PARENT
REMARK Flexibility Score: inf
ROOT
ATOM      1  C   UNL     1    -112.966 -40.814 -65.767  1.00  0.00     0.000 C 
ENDROOT
BRANCH   1   2
ATOM      2  C   UNL     1    -113.611 -40.958 -67.157  1.00  0.00     0.000 C 
BRANCH   2   3
ATOM      3  C   UNL     1    -114.143 -42.364 -67.490  1.00  0.00     0.000 C 
BRANCH   3   4
ATOM      4  C   UNL     1    -113.385 -43.033 -68.649  1.00  0.00     0.000 C 
BRANCH   4   5
ATOM      5  C   UNL     1    -111.881 -42.696 -68.649  1.00  0.00     0.006 C 
BRANCH   5   6
ATOM      6  C   UNL     1    -110.966 -43.875 -69.016  1.00  0.00     0.053 C 
BRANCH   6   7
ATOM      7  C   UNL     1    -109.881 -43.472 -69.967  1.00  0.00     0.041 C 
ATOM      8  O   UNL     1    -110.172 -43.021 -71.106  1.00  0.00    -0.550 OA
ATOM      9  O   UNL     1    -108.549 -43.563 -69.582  1.00  0.00    -0.550 OA
ENDBRANCH   6   7
ENDBRANCH   5   6
ENDBRANCH   4   5
ENDBRANCH   3   4
ENDBRANCH   2   3
ENDBRANCH   1   2
BRANCH   1  10
ATOM     10  C   UNL     1    -113.693 -41.618 -64.681  1.00  0.00     0.000 C 
BRANCH  10  11
ATOM     11  C   UNL     1    -112.755 -42.653 -64.043  1.00  0.00    -0.000 C 
BRANCH  11  12
ATOM     12  C   UNL     1    -111.575 -43.034 -64.956  1.00  0.00    -0.000 C 
BRANCH  12  13
ATOM     13  C   UNL     1    -110.244 -43.303 -64.225  1.00  0.00    -0.000 C 
BRANCH  13  14
ATOM     14  C   UNL     1    -109.051 -42.458 -64.706  1.00  0.00    -0.000 C 
BRANCH  14  15
ATOM     15  C   UNL     1    -108.877 -42.488 -66.231  1.00  0.00    -0.000 C 
BRANCH  15  16
ATOM     16  C   UNL     1    -108.984 -41.078 -66.824  1.00  0.00    -0.003 C 
ATOM     17  C   UNL     1    -109.327 -40.052 -65.748  1.00  0.00     0.004 C 
ENDBRANCH  15  16
ENDBRANCH  14  15
ENDBRANCH  13  14
ENDBRANCH  12  13
ENDBRANCH  11  12
ENDBRANCH  10  11
ENDBRANCH   1  10
TORSDOF 13
ENDMDL
MODEL 5
REMARK VINA RESULT:    -3.635      2.289      4.930
REMARK INTER + INTRA:          -8.673
REMARK INTER:                  -7.114
REMARK INTRA:                  -1.559
REMARK UNBOUND:                -2.276
REMARK SMILES CCCCCCCCCCCCCCC(=O)[O-]
REMARK SMILES IDX 9 1 10 2 11 3 12 4 13 5 14 6 15 7 16 8 17 9 8 10 7 11 6 12
REMARK SMILES IDX 5 13 4 14 3 15 2 16 1 17
REMARK H PARENT
REMARK Flexibility Score: inf
ROOT
ATOM      1  C   UNL     1    -112.446 -41.731 -65.021  1.00  0.00     0.000 C 
ENDROOT
BRANCH   1   2
ATOM      2  C   UNL     1    -113.798 -41.209 -65.542  1.00  0.00     0.000 C 
BRANCH   2   3
ATOM      3  C   UNL     1    -114.112 -41.552 -67.009  1.00  0.00     0.000 C 
BRANCH   3   4
ATOM      4  C   UNL     1    -113.707 -42.987 -67.388  1.00  0.00     0.000 C 
BRANCH   4   5
ATOM      5  C   UNL     1    -112.891 -43.049 -68.694  1.00  0.00     0.006 C 
BRANCH   5   6
ATOM      6  C   UNL     1    -111.407 -43.398 -68.498  1.00  0.00     0.053 C 
BRANCH   6   7
ATOM      7  C   UNL     1    -110.517 -42.210 -68.699  1.00  0.00     0.041 C 
ATOM      8  O   UNL     1    -110.549 -41.250 -67.884  1.00  0.00    -0.550 OA
ATOM      9  O   UNL     1    -109.628 -42.178 -69.766  1.00  0.00    -0.550 OA
ENDBRANCH   6   7
ENDBRANCH   5   6
ENDBRANCH   4   5
ENDBRANCH   3   4
ENDBRANCH   2   3
ENDBRANCH   1   2
BRANCH   1  10
ATOM     10  C   UNL     1    -112.594 -42.746 -63.879  1.00  0.00     0.000 C 
BRANCH  10  11
ATOM     11  C   UNL     1    -111.315 -43.579 -63.715  1.00  0.00    -0.000 C 
BRANCH  11  12
ATOM     12  C   UNL     1    -110.412 -43.541 -64.962  1.00  0.00    -0.000 C 
BRANCH  12  13
ATOM     13  C   UNL     1    -108.922 -43.256 -64.681  1.00  0.00    -0.000 C 
BRANCH  13  14
ATOM     14  C   UNL     1    -108.533 -41.767 -64.670  1.00  0.00    -0.000 C 
BRANCH  14  15
ATOM     15  C   UNL     1    -107.678 -41.384 -63.454  1.00  0.00    -0.000 C 
BRANCH  15  16
ATOM     16  C   UNL     1    -107.793 -42.438 -62.347  1.00  0.00    -0.003 C 
ATOM     17  C   UNL     1    -106.808 -42.161 -61.216  1.00  0.00     0.004 C 
ENDBRANCH  15  16
ENDBRANCH  14  15
ENDBRANCH  13  14
ENDBRANCH  12  13
ENDBRANCH  11  12
ENDBRANCH  10  11
ENDBRANCH   1  10
TORSDOF 13
ENDMDL
MODEL 6
REMARK VINA RESULT:    -3.630      1.577      3.755
REMARK INTER + INTRA:          -8.666
REMARK INTER:                  -6.712
REMARK INTRA:                  -1.954
REMARK UNBOUND:                -2.276
REMARK SMILES CCCCCCCCCCCCCCC(=O)[O-]
REMARK SMILES IDX 9 1 10 2 11 3 12 4 13 5 14 6 15 7 16 8 17 9 8 10 7 11 6 12
REMARK SMILES IDX 5 13 4 14 3 15 2 16 1 17
REMARK H PARENT
REMARK Flexibility Score: inf
ROOT
ATOM      1  C   UNL     1    -109.830 -41.786 -66.698  1.00  0.00     0.000 C 
ENDROOT
BRANCH   1   2
ATOM      2  C   UNL     1    -109.936 -40.467 -65.910  1.00  0.00     0.000 C 
BRANCH   2   3
ATOM      3  C   UNL     1    -108.602 -39.911 -65.381  1.00  0.00     0.000 C 
BRANCH   3   4
ATOM      4  C   UNL     1    -107.422 -40.873 -65.602  1.00  0.00     0.000 C 
BRANCH   4   5
ATOM      5  C   UNL     1    -106.632 -41.152 -64.309  1.00  0.00     0.006 C 
BRANCH   5   6
ATOM      6  C   UNL     1    -107.417 -40.880 -63.015  1.00  0.00     0.053 C 
BRANCH   6   7
ATOM      7  C   UNL     1    -107.645 -42.129 -62.221  1.00  0.00     0.041 C 
ATOM      8  O   UNL     1    -107.072 -42.289 -61.112  1.00  0.00    -0.550 OA
ATOM      9  O   UNL     1    -108.518 -43.103 -62.690  1.00  0.00    -0.550 OA
ENDBRANCH   6   7
ENDBRANCH   5   6
ENDBRANCH   4   5
ENDBRANCH   3   4
ENDBRANCH   2   3
ENDBRANCH   1   2
BRANCH   1  10
ATOM     10  C   UNL     1    -110.671 -42.918 -66.091  1.00  0.00     0.000 C 
BRANCH  10  11
ATOM     11  C   UNL     1    -111.323 -42.471 -64.775  1.00  0.00    -0.000 C 
BRANCH  11  12
ATOM     12  C   UNL     1    -112.862 -42.497 -64.830  1.00  0.00    -0.000 C 
BRANCH  12  13
ATOM     13  C   UNL     1    -113.517 -41.229 -65.414  1.00  0.00    -0.000 C 
BRANCH  13  14
ATOM     14  C   UNL     1    -114.112 -41.391 -66.823  1.00  0.00    -0.000 C 
BRANCH  14  15
ATOM     15  C   UNL     1    -113.198 -40.837 -67.925  1.00  0.00    -0.000 C 
BRANCH  15  16
ATOM     16  C   UNL     1    -112.931 -41.895 -69.000  1.00  0.00    -0.003 C 
ATOM     17  C   UNL     1    -113.412 -43.271 -68.552  1.00  0.00     0.004 C 
ENDBRANCH  15  16
ENDBRANCH  14  15
ENDBRANCH  13  14
ENDBRANCH  12  13
ENDBRANCH  11  12
ENDBRANCH  10  11
ENDBRANCH   1  10
TORSDOF 13
ENDMDL
MODEL 7
REMARK VINA RESULT:    -3.621      3.210      4.968
REMARK INTER + INTRA:          -8.649
REMARK INTER:                  -6.469
REMARK INTRA:                  -2.180
REMARK UNBOUND:                -2.276
REMARK SMILES CCCCCCCCCCCCCCC(=O)[O-]
REMARK SMILES IDX 9 1 10 2 11 3 12 4 13 5 14 6 15 7 16 8 17 9 8 10 7 11 6 12
REMARK SMILES IDX 5 13 4 14 3 15 2 16 1 17
REMARK H PARENT
REMARK Flexibility Score: inf
ROOT
ATOM      1  C   UNL     1    -111.850 -42.969 -65.069  1.00  0.00     0.000 C 
ENDROOT
BRANCH   1   2
ATOM      2  C   UNL     1    -112.984 -42.158 -64.417  1.00  0.00     0.000 C 
BRANCH   2   3
ATOM      3  C   UNL     1    -113.689 -41.153 -65.345  1.00  0.00     0.000 C 
BRANCH   3   4
ATOM      4  C   UNL     1    -113.205 -41.242 -66.802  1.00  0.00     0.000 C 
BRANCH   4   5
ATOM      5  C   UNL     1    -114.176 -42.028 -67.704  1.00  0.00     0.006 C 
BRANCH   5   6
ATOM      6  C   UNL     1    -113.515 -43.149 -68.523  1.00  0.00     0.053 C 
BRANCH   6   7
ATOM      7  C   UNL     1    -113.329 -42.764 -69.958  1.00  0.00     0.041 C 
ATOM      8  O   UNL     1    -113.755 -43.513 -70.876  1.00  0.00    -0.550 OA
ATOM      9  O   UNL     1    -112.713 -41.561 -70.282  1.00  0.00    -0.550 OA
ENDBRANCH   6   7
ENDBRANCH   5   6
ENDBRANCH   4   5
ENDBRANCH   3   4
ENDBRANCH   2   3
ENDBRANCH   1   2
BRANCH   1  10
ATOM     10  C   UNL     1    -110.738 -43.350 -64.081  1.00  0.00     0.000 C 
BRANCH  10  11
ATOM     11  C   UNL     1    -109.427 -43.654 -64.820  1.00  0.00    -0.000 C 
BRANCH  11  12
ATOM     12  C   UNL     1    -109.652 -44.125 -66.268  1.00  0.00    -0.000 C 
BRANCH  12  13
ATOM     13  C   UNL     1    -108.918 -43.299 -67.345  1.00  0.00    -0.000 C 
BRANCH  13  14
ATOM     14  C   UNL     1    -109.833 -42.566 -68.342  1.00  0.00    -0.000 C 
BRANCH  14  15
ATOM     15  C   UNL     1    -109.853 -41.046 -68.127  1.00  0.00    -0.000 C 
BRANCH  15  16
ATOM     16  C   UNL     1    -108.940 -40.644 -66.964  1.00  0.00    -0.003 C 
ATOM     17  C   UNL     1    -109.747 -40.085 -65.796  1.00  0.00     0.004 C 
ENDBRANCH  15  16
ENDBRANCH  14  15
ENDBRANCH  13  14
ENDBRANCH  12  13
ENDBRANCH  11  12
ENDBRANCH  10  11
ENDBRANCH   1  10
TORSDOF 13
ENDMDL
MODEL 8
REMARK VINA RESULT:    -3.598      1.275      2.546
REMARK INTER + INTRA:          -8.608
REMARK INTER:                  -6.464
REMARK INTRA:                  -2.144
REMARK UNBOUND:                -2.276
REMARK SMILES CCCCCCCCCCCCCCC(=O)[O-]
REMARK SMILES IDX 9 1 10 2 11 3 12 4 13 5 14 6 15 7 16 8 17 9 8 10 7 11 6 12
REMARK SMILES IDX 5 13 4 14 3 15 2 16 1 17
REMARK H PARENT
REMARK Flexibility Score: inf
ROOT
ATOM      1  C   UNL     1    -110.640 -41.446 -65.608  1.00  0.00     0.000 C 
ENDROOT
BRANCH   1   2
ATOM      2  C   UNL     1    -110.758 -42.981 -65.653  1.00  0.00     0.000 C 
BRANCH   2   3
ATOM      3  C   UNL     1    -109.854 -43.677 -66.686  1.00  0.00     0.000 C 
BRANCH   3   4
ATOM      4  C   UNL     1    -108.363 -43.359 -66.487  1.00  0.00     0.000 C 
BRANCH   4   5
ATOM      5  C   UNL     1    -107.832 -43.828 -65.119  1.00  0.00     0.006 C 
BRANCH   5   6
ATOM      6  C   UNL     1    -107.293 -42.699 -64.226  1.00  0.00     0.053 C 
BRANCH   6   7
ATOM      7  C   UNL     1    -108.006 -42.631 -62.910  1.00  0.00     0.041 C 
ATOM      8  O   UNL     1    -108.978 -43.396 -62.677  1.00  0.00    -0.550 OA
ATOM      9  O   UNL     1    -107.576 -41.746 -61.930  1.00  0.00    -0.550 OA
ENDBRANCH   6   7
ENDBRANCH   5   6
ENDBRANCH   4   5
ENDBRANCH   3   4
ENDBRANCH   2   3
ENDBRANCH   1   2
BRANCH   1  10
ATOM     10  C   UNL     1    -111.989 -40.734 -65.783  1.00  0.00     0.000 C 
BRANCH  10  11
ATOM     11  C   UNL     1    -113.103 -41.476 -65.028  1.00  0.00    -0.000 C 
BRANCH  11  12
ATOM     12  C   UNL     1    -114.229 -41.968 -65.955  1.00  0.00    -0.000 C 
BRANCH  12  13
ATOM     13  C   UNL     1    -114.012 -41.682 -67.456  1.00  0.00    -0.000 C 
BRANCH  13  14
ATOM     14  C   UNL     1    -113.716 -42.920 -68.320  1.00  0.00    -0.000 C 
BRANCH  14  15
ATOM     15  C   UNL     1    -112.412 -42.792 -69.119  1.00  0.00    -0.000 C 
BRANCH  15  16
ATOM     16  C   UNL     1    -112.097 -41.324 -69.426  1.00  0.00    -0.003 C 
ATOM     17  C   UNL     1    -110.604 -41.040 -69.295  1.00  0.00     0.004 C 
ENDBRANCH  15  16
ENDBRANCH  14  15
ENDBRANCH  13  14
ENDBRANCH  12  13
ENDBRANCH  11  12
ENDBRANCH  10  11
ENDBRANCH   1  10
TORSDOF 13
ENDMDL
MODEL 9
REMARK VINA RESULT:    -3.591      3.066      5.755
REMARK INTER + INTRA:          -8.596
REMARK INTER:                  -6.927
REMARK INTRA:                  -1.669
REMARK UNBOUND:                -2.276
REMARK SMILES CCCCCCCCCCCCCCC(=O)[O-]
REMARK SMILES IDX 9 1 10 2 11 3 12 4 13 5 14 6 15 7 16 8 17 9 8 10 7 11 6 12
REMARK SMILES IDX 5 13 4 14 3 15 2 16 1 17
REMARK H PARENT
REMARK Flexibility Score: inf
ROOT
ATOM      1  C   UNL     1    -110.294 -42.062 -65.227  1.00  0.00     0.000 C 
ENDROOT
BRANCH   1   2
ATOM      2  C   UNL     1    -110.889 -40.755 -65.783  1.00  0.00     0.000 C 
BRANCH   2   3
ATOM      3  C   UNL     1    -112.426 -40.672 -65.756  1.00  0.00     0.000 C 
BRANCH   3   4
ATOM      4  C   UNL     1    -113.084 -41.925 -65.154  1.00  0.00     0.000 C 
BRANCH   4   5
ATOM      5  C   UNL     1    -113.976 -42.672 -66.164  1.00  0.00     0.006 C 
BRANCH   5   6
ATOM      6  C   UNL     1    -113.952 -42.087 -67.586  1.00  0.00     0.053 C 
BRANCH   6   7
ATOM      7  C   UNL     1    -113.165 -42.941 -68.532  1.00  0.00     0.041 C 
ATOM      8  O   UNL     1    -113.673 -43.310 -69.624  1.00  0.00    -0.550 OA
ATOM      9  O   UNL     1    -111.860 -43.302 -68.224  1.00  0.00    -0.550 OA
ENDBRANCH   6   7
ENDBRANCH   5   6
ENDBRANCH   4   5
ENDBRANCH   3   4
ENDBRANCH   2   3
ENDBRANCH   1   2
BRANCH   1  10
ATOM     10  C   UNL     1    -109.009 -42.491 -65.949  1.00  0.00     0.000 C 
BRANCH  10  11
ATOM     11  C   UNL     1    -108.155 -43.400 -65.053  1.00  0.00    -0.000 C 
BRANCH  11  12
ATOM     12  C   UNL     1    -108.479 -43.243 -63.556  1.00  0.00    -0.000 C 
BRANCH  12  13
ATOM     13  C   UNL     1    -107.326 -42.694 -62.692  1.00  0.00    -0.000 C 
BRANCH  13  14
ATOM     14  C   UNL     1    -107.380 -41.181 -62.416  1.00  0.00    -0.000 C 
BRANCH  14  15
ATOM     15  C   UNL     1    -106.669 -40.351 -63.495  1.00  0.00    -0.000 C 
BRANCH  15  16
ATOM     16  C   UNL     1    -107.477 -39.098 -63.846  1.00  0.00    -0.003 C 
ATOM     17  C   UNL     1    -107.705 -38.991 -65.350  1.00  0.00     0.004 C 
ENDBRANCH  15  16
ENDBRANCH  14  15
ENDBRANCH  13  14
ENDBRANCH  12  13
ENDBRANCH  11  12
ENDBRANCH  10  11
ENDBRANCH   1  10
TORSDOF 13
ENDMDL
