MODEL 1
REMARK VINA RESULT:    -5.783      0.000      0.000
REMARK INTER + INTRA:         -11.953
REMARK INTER:                  -9.502
REMARK INTRA:                  -2.451
REMARK UNBOUND:                -2.451
REMARK SMILES C[C@H]1O[C@H](OC[C@H]2O[C@@H](Oc3c(-c4ccc(O)c(O)c4)oc4cc(O)cc(O)c4c3=O)[C@H](O)[C@@H](O)[C@H]2O)[C@@H](O)[C@@H](O)[C@@H]1O
REMARK SMILES IDX 7 1 36 2 34 3 32 4 9 5 8 6 6 7 5 8 4 9 1 10 2 11 42 12 3 13
REMARK SMILES IDX 40 14 38 15 43 16 41 18 39 20 37 22 35 24 10 26 11 27 12 28
REMARK SMILES IDX 30 29 21 30 29 31 31 32 22 33 27 34 23 35 26 36 24 37 13 38
REMARK SMILES IDX 20 39 14 40 18 41 15 42 16 43 19 44 17 46 28 48 25 50 33 52
REMARK H PARENT 43 17 41 19 39 21 37 23 35 25 19 45 17 47 28 49 25 51 33 53
REMARK Flexibility Score: inf
ROOT
ATOM      1  C   UNL     1      14.984   2.731  -0.068  1.00  0.00     0.180 C 
ATOM      2  C   UNL     1      15.812   2.395  -1.347  1.00  0.00     0.177 C 
ATOM      3  C   UNL     1      15.112   1.310  -2.199  1.00  0.00     0.180 C 
ATOM      4  C   UNL     1      14.784   0.059  -1.342  1.00  0.00     0.214 C 
ATOM      5  C   UNL     1      14.654   0.411   0.156  1.00  0.00     0.339 C 
ATOM      6  O   UNL     1      14.078   1.688   0.283  1.00  0.00    -0.332 OA
ENDROOT
BRANCH   1   7
ATOM      7  C   UNL     1      14.170   4.043  -0.187  1.00  0.00     0.198 C 
BRANCH   7   8
ATOM      8  O   UNL     1      12.802   3.710  -0.329  1.00  0.00    -0.347 OA
BRANCH   8   9
ATOM      9  C   UNL     1      12.033   3.992   0.827  1.00  0.00     0.281 C 
ATOM     10  C   UNL     1       9.462   6.264   1.014  1.00  0.00     0.041 C 
ATOM     11  C   UNL     1      10.620   5.809   0.116  1.00  0.00     0.150 C 
ATOM     12  C   UNL     1      10.146   4.815  -0.999  1.00  0.00     0.174 C 
ATOM     13  O   UNL     1      11.702   5.375   0.926  1.00  0.00    -0.344 OA
ATOM     14  C   UNL     1       9.927   3.379  -0.457  1.00  0.00     0.179 C 
ATOM     15  C   UNL     1      10.773   3.092   0.813  1.00  0.00     0.202 C 
BRANCH  12  16
ATOM     16  O   UNL     1      11.039   4.763  -2.103  1.00  0.00    -0.388 OA
ATOM     17  H   UNL     1      10.754   5.420  -2.795  1.00  0.00     0.211 HD
ENDBRANCH  12  16
BRANCH  14  18
ATOM     18  O   UNL     1       8.563   3.176  -0.200  1.00  0.00    -0.387 OA
ATOM     19  H   UNL     1       8.464   2.210   0.013  1.00  0.00     0.211 HD
ENDBRANCH  14  18
BRANCH  15  20
ATOM     20  O   UNL     1       9.991   3.252   1.979  1.00  0.00    -0.385 OA
ATOM     21  H   UNL     1       9.837   2.375   2.417  1.00  0.00     0.211 HD
ENDBRANCH  15  20
ENDBRANCH   8   9
ENDBRANCH   7   8
ENDBRANCH   1   7
BRANCH   2  22
ATOM     22  O   UNL     1      16.069   3.548  -2.113  1.00  0.00    -0.387 OA
ATOM     23  H   UNL     1      15.180   3.927  -2.344  1.00  0.00     0.211 HD
ENDBRANCH   2  22
BRANCH   3  24
ATOM     24  O   UNL     1      13.925   1.816  -2.759  1.00  0.00    -0.387 OA
ATOM     25  H   UNL     1      14.183   2.521  -3.406  1.00  0.00     0.211 HD
ENDBRANCH   3  24
BRANCH   5  26
ATOM     26  O   UNL     1      13.790  -0.533   0.808  1.00  0.00    -0.454 OA
BRANCH  26  27
ATOM     27  C   UNL     1      12.905  -0.257   1.871  1.00  0.00     0.214 A 
ATOM     28  C   UNL     1      13.288  -0.184   3.236  1.00  0.00     0.180 A 
ATOM     29  C   UNL     1      11.540  -0.133   1.576  1.00  0.00     0.239 A 
ATOM     30  O   UNL     1      12.376  -0.415   4.168  1.00  0.00    -0.452 OA
ATOM     31  C   UNL     1      10.599  -0.143   2.625  1.00  0.00     0.111 A 
ATOM     32  O   UNL     1      11.167  -0.072   0.373  1.00  0.00    -0.285 OA
ATOM     33  C   UNL     1      11.072  -0.466   3.907  1.00  0.00     0.146 A 
ATOM     34  C   UNL     1       9.212   0.120   2.449  1.00  0.00     0.134 A 
ATOM     35  C   UNL     1      10.173  -0.802   4.920  1.00  0.00     0.094 A 
ATOM     36  C   UNL     1       8.314  -0.241   3.458  1.00  0.00     0.093 A 
ATOM     37  C   UNL     1       8.791  -0.745   4.676  1.00  0.00     0.123 A 
BRANCH  28  38
ATOM     38  C   UNL     1      14.611   0.315   3.680  1.00  0.00     0.025 A 
ATOM     39  C   UNL     1      15.455  -0.493   4.454  1.00  0.00     0.062 A 
ATOM     40  C   UNL     1      14.986   1.648   3.437  1.00  0.00     0.016 A 
ATOM     41  C   UNL     1      16.617   0.044   5.039  1.00  0.00     0.158 A 
ATOM     42  C   UNL     1      16.158   2.171   3.980  1.00  0.00     0.051 A 
ATOM     43  C   UNL     1      16.979   1.386   4.788  1.00  0.00     0.157 A 
BRANCH  41  44
ATOM     44  O   UNL     1      17.377  -0.773   5.887  1.00  0.00    -0.504 OA
ATOM     45  H   UNL     1      16.959  -1.447   6.499  1.00  0.00     0.293 HD
ENDBRANCH  41  44
BRANCH  43  46
ATOM     46  O   UNL     1      18.140   1.973   5.318  1.00  0.00    -0.504 OA
ATOM     47  H   UNL     1      19.056   1.565   5.242  1.00  0.00     0.293 HD
ENDBRANCH  43  46
ENDBRANCH  28  38
BRANCH  34  48
ATOM     48  O   UNL     1       8.705   0.829   1.349  1.00  0.00    -0.507 OA
ATOM     49  H   UNL     1       8.846   0.517   0.404  1.00  0.00     0.293 HD
ENDBRANCH  34  48
BRANCH  37  50
ATOM     50  O   UNL     1       7.875  -1.125   5.661  1.00  0.00    -0.508 OA
ATOM     51  H   UNL     1       6.932  -1.413   5.437  1.00  0.00     0.293 HD
ENDBRANCH  37  50
ENDBRANCH  26  27
ENDBRANCH   5  26
BRANCH   4  52
ATOM     52  O   UNL     1      15.788  -0.914  -1.506  1.00  0.00    -0.384 OA
ATOM     53  H   UNL     1      15.978  -1.299  -0.618  1.00  0.00     0.211 HD
ENDBRANCH   4  52
TORSDOF 16
ENDMDL
MODEL 2
REMARK VINA RESULT:    -4.683      1.833      5.841
REMARK INTER + INTRA:         -10.145
REMARK INTER:                  -7.946
REMARK INTRA:                  -2.200
REMARK UNBOUND:                -2.451
REMARK SMILES C[C@H]1O[C@H](OC[C@H]2O[C@@H](Oc3c(-c4ccc(O)c(O)c4)oc4cc(O)cc(O)c4c3=O)[C@H](O)[C@@H](O)[C@H]2O)[C@@H](O)[C@@H](O)[C@@H]1O
REMARK SMILES IDX 7 1 36 2 34 3 32 4 9 5 8 6 6 7 5 8 4 9 1 10 2 11 42 12 3 13
REMARK SMILES IDX 40 14 38 15 43 16 41 18 39 20 37 22 35 24 10 26 11 27 12 28
REMARK SMILES IDX 30 29 21 30 29 31 31 32 22 33 27 34 23 35 26 36 24 37 13 38
REMARK SMILES IDX 20 39 14 40 18 41 15 42 16 43 19 44 17 46 28 48 25 50 33 52
REMARK H PARENT 43 17 41 19 39 21 37 23 35 25 19 45 17 47 28 49 25 51 33 53
REMARK Flexibility Score: inf
ROOT
ATOM      1  C   UNL     1       9.669   0.263  -0.057  1.00  0.00     0.180 C 
ATOM      2  C   UNL     1       9.256  -0.597   1.178  1.00  0.00     0.177 C 
ATOM      3  C   UNL     1       9.681   0.082   2.502  1.00  0.00     0.180 C 
ATOM      4  C   UNL     1      11.193   0.431   2.483  1.00  0.00     0.214 C 
ATOM      5  C   UNL     1      11.723   0.598   1.042  1.00  0.00     0.339 C 
ATOM      6  O   UNL     1      10.720   1.177   0.244  1.00  0.00    -0.332 OA
ENDROOT
BRANCH   1   7
ATOM      7  C   UNL     1       8.498   1.074  -0.664  1.00  0.00     0.198 C 
BRANCH   7   8
ATOM      8  O   UNL     1       8.993   2.331  -1.083  1.00  0.00    -0.347 OA
BRANCH   8   9
ATOM      9  C   UNL     1       8.489   3.415  -0.323  1.00  0.00     0.281 C 
ATOM     10  C   UNL     1      10.378   5.651   1.475  1.00  0.00     0.041 C 
ATOM     11  C   UNL     1      10.459   4.309   0.736  1.00  0.00     0.150 C 
ATOM     12  C   UNL     1      10.996   4.473  -0.728  1.00  0.00     0.174 C 
ATOM     13  O   UNL     1       9.227   3.618   0.879  1.00  0.00    -0.344 OA
ATOM     14  C   UNL     1       9.912   5.008  -1.698  1.00  0.00     0.179 C 
ATOM     15  C   UNL     1       8.474   4.679  -1.217  1.00  0.00     0.202 C 
BRANCH  12  16
ATOM     16  O   UNL     1      11.535   3.267  -1.253  1.00  0.00    -0.388 OA
ATOM     17  H   UNL     1      12.187   2.883  -0.606  1.00  0.00     0.211 HD
ENDBRANCH  12  16
BRANCH  14  18
ATOM     18  O   UNL     1      10.074   6.391  -1.869  1.00  0.00    -0.387 OA
ATOM     19  H   UNL     1       9.811   6.586  -2.808  1.00  0.00     0.211 HD
ENDBRANCH  14  18
BRANCH  15  20
ATOM     20  O   UNL     1       7.903   5.791  -0.558  1.00  0.00    -0.385 OA
ATOM     21  H   UNL     1       7.039   6.039  -0.980  1.00  0.00     0.211 HD
ENDBRANCH  15  20
ENDBRANCH   8   9
ENDBRANCH   7   8
ENDBRANCH   1   7
BRANCH   2  22
ATOM     22  O   UNL     1       7.875  -0.873   1.176  1.00  0.00    -0.387 OA
ATOM     23  H   UNL     1       7.746  -1.623   0.536  1.00  0.00     0.211 HD
ENDBRANCH   2  22
BRANCH   3  24
ATOM     24  O   UNL     1       8.934   1.254   2.714  1.00  0.00    -0.387 OA
ATOM     25  H   UNL     1       9.463   1.833   3.321  1.00  0.00     0.211 HD
ENDBRANCH   3  24
BRANCH   5  26
ATOM     26  O   UNL     1      12.858   1.478   1.037  1.00  0.00    -0.454 OA
BRANCH  26  27
ATOM     27  C   UNL     1      14.180   1.131   0.685  1.00  0.00     0.214 A 
ATOM     28  C   UNL     1      15.267   1.085   1.596  1.00  0.00     0.180 A 
ATOM     29  C   UNL     1      14.462   0.903  -0.669  1.00  0.00     0.239 A 
ATOM     30  O   UNL     1      16.497   1.243   1.131  1.00  0.00    -0.452 OA
ATOM     31  C   UNL     1      15.803   0.838  -1.098  1.00  0.00     0.111 A 
ATOM     32  O   UNL     1      13.514   0.817  -1.496  1.00  0.00    -0.285 OA
ATOM     33  C   UNL     1      16.791   1.194  -0.166  1.00  0.00     0.146 A 
ATOM     34  C   UNL     1      16.198   0.469  -2.414  1.00  0.00     0.134 A 
ATOM     35  C   UNL     1      18.093   1.456  -0.594  1.00  0.00     0.094 A 
ATOM     36  C   UNL     1      17.496   0.758  -2.844  1.00  0.00     0.093 A 
ATOM     37  C   UNL     1      18.431   1.294  -1.948  1.00  0.00     0.123 A 
BRANCH  28  38
ATOM     38  C   UNL     1      15.117   0.688   3.016  1.00  0.00     0.025 A 
ATOM     39  C   UNL     1      15.386   1.602   4.044  1.00  0.00     0.062 A 
ATOM     40  C   UNL     1      14.823  -0.645   3.354  1.00  0.00     0.016 A 
ATOM     41  C   UNL     1      15.435   1.174   5.384  1.00  0.00     0.158 A 
ATOM     42  C   UNL     1      14.830  -1.062   4.684  1.00  0.00     0.051 A 
ATOM     43  C   UNL     1      15.141  -0.168   5.708  1.00  0.00     0.157 A 
BRANCH  41  44
ATOM     44  O   UNL     1      15.806   2.100   6.368  1.00  0.00    -0.504 OA
ATOM     45  H   UNL     1      15.430   2.077   7.297  1.00  0.00     0.293 HD
ENDBRANCH  41  44
BRANCH  43  46
ATOM     46  O   UNL     1      15.145  -0.652   7.027  1.00  0.00    -0.504 OA
ATOM     47  H   UNL     1      14.333  -0.663   7.620  1.00  0.00     0.293 HD
ENDBRANCH  43  46
ENDBRANCH  28  38
BRANCH  34  48
ATOM     48  O   UNL     1      15.376  -0.273  -3.275  1.00  0.00    -0.507 OA
ATOM     49  H   UNL     1      15.291  -1.272  -3.201  1.00  0.00     0.293 HD
ENDBRANCH  34  48
BRANCH  37  50
ATOM     50  O   UNL     1      19.716   1.600  -2.405  1.00  0.00    -0.508 OA
ATOM     51  H   UNL     1      20.114   1.162  -3.225  1.00  0.00     0.293 HD
ENDBRANCH  37  50
ENDBRANCH  26  27
ENDBRANCH   5  26
BRANCH   4  52
ATOM     52  O   UNL     1      11.928  -0.577   3.136  1.00  0.00    -0.384 OA
ATOM     53  H   UNL     1      11.405  -0.867   3.920  1.00  0.00     0.211 HD
ENDBRANCH   4  52
TORSDOF 16
ENDMDL
MODEL 3
REMARK VINA RESULT:    -3.791     15.560     18.998
REMARK INTER + INTRA:          -8.681
REMARK INTER:                  -6.695
REMARK INTRA:                  -1.986
REMARK UNBOUND:                -2.451
REMARK SMILES C[C@H]1O[C@H](OC[C@H]2O[C@@H](Oc3c(-c4ccc(O)c(O)c4)oc4cc(O)cc(O)c4c3=O)[C@H](O)[C@@H](O)[C@H]2O)[C@@H](O)[C@@H](O)[C@@H]1O
REMARK SMILES IDX 7 1 36 2 34 3 32 4 9 5 8 6 6 7 5 8 4 9 1 10 2 11 42 12 3 13
REMARK SMILES IDX 40 14 38 15 43 16 41 18 39 20 37 22 35 24 10 26 11 27 12 28
REMARK SMILES IDX 30 29 21 30 29 31 31 32 22 33 27 34 23 35 26 36 24 37 13 38
REMARK SMILES IDX 20 39 14 40 18 41 15 42 16 43 19 44 17 46 28 48 25 50 33 52
REMARK H PARENT 43 17 41 19 39 21 37 23 35 25 19 45 17 47 28 49 25 51 33 53
REMARK Flexibility Score: inf
ROOT
ATOM      1  C   UNL     1      25.874  17.213   7.253  1.00  0.00     0.180 C 
ATOM      2  C   UNL     1      27.320  17.289   6.668  1.00  0.00     0.177 C 
ATOM      3  C   UNL     1      27.465  16.395   5.414  1.00  0.00     0.180 C 
ATOM      4  C   UNL     1      27.006  14.943   5.714  1.00  0.00     0.214 C 
ATOM      5  C   UNL     1      26.000  14.891   6.884  1.00  0.00     0.339 C 
ATOM      6  O   UNL     1      25.184  16.036   6.843  1.00  0.00    -0.332 OA
ENDROOT
BRANCH   1   7
ATOM      7  C   UNL     1      24.994  18.431   6.882  1.00  0.00     0.198 C 
BRANCH   7   8
ATOM      8  O   UNL     1      24.442  18.210   5.598  1.00  0.00    -0.347 OA
BRANCH   8   9
ATOM      9  C   UNL     1      23.091  18.622   5.488  1.00  0.00     0.281 C 
ATOM     10  C   UNL     1      20.875  17.601   3.070  1.00  0.00     0.041 C 
ATOM     11  C   UNL     1      22.364  17.589   3.437  1.00  0.00     0.150 C 
ATOM     12  C   UNL     1      22.791  16.249   4.130  1.00  0.00     0.174 C 
ATOM     13  O   UNL     1      22.688  18.785   4.132  1.00  0.00    -0.344 OA
ATOM     14  C   UNL     1      22.364  16.192   5.619  1.00  0.00     0.179 C 
ATOM     15  C   UNL     1      22.202  17.604   6.242  1.00  0.00     0.202 C 
BRANCH  12  16
ATOM     16  O   UNL     1      24.188  16.003   4.038  1.00  0.00    -0.388 OA
ATOM     17  H   UNL     1      24.476  16.065   3.086  1.00  0.00     0.211 HD
ENDBRANCH  12  16
BRANCH  14  18
ATOM     18  O   UNL     1      21.175  15.456   5.741  1.00  0.00    -0.387 OA
ATOM     19  H   UNL     1      21.449  14.522   5.946  1.00  0.00     0.211 HD
ENDBRANCH  14  18
BRANCH  15  20
ATOM     20  O   UNL     1      20.843  17.990   6.253  1.00  0.00    -0.385 OA
ATOM     21  H   UNL     1      20.714  18.795   6.819  1.00  0.00     0.211 HD
ENDBRANCH  15  20
ENDBRANCH   8   9
ENDBRANCH   7   8
ENDBRANCH   1   7
BRANCH   2  22
ATOM     22  O   UNL     1      27.692  18.617   6.385  1.00  0.00    -0.387 OA
ATOM     23  H   UNL     1      28.178  18.587   5.519  1.00  0.00     0.211 HD
ENDBRANCH   2  22
BRANCH   3  24
ATOM     24  O   UNL     1      26.704  16.914   4.351  1.00  0.00    -0.387 OA
ATOM     25  H   UNL     1      27.031  17.834   4.179  1.00  0.00     0.211 HD
ENDBRANCH   3  24
BRANCH   5  26
ATOM     26  O   UNL     1      25.155  13.737   6.753  1.00  0.00    -0.454 OA
BRANCH  26  27
ATOM     27  C   UNL     1      25.489  12.414   7.112  1.00  0.00     0.214 A 
ATOM     28  C   UNL     1      26.360  12.069   8.179  1.00  0.00     0.180 A 
ATOM     29  C   UNL     1      25.002  11.372   6.312  1.00  0.00     0.239 A 
ATOM     30  O   UNL     1      26.991  10.905   8.136  1.00  0.00    -0.452 OA
ATOM     31  C   UNL     1      25.535  10.076   6.460  1.00  0.00     0.111 A 
ATOM     32  O   UNL     1      24.135  11.618   5.430  1.00  0.00    -0.285 OA
ATOM     33  C   UNL     1      26.666   9.938   7.280  1.00  0.00     0.146 A 
ATOM     34  C   UNL     1      25.015   8.924   5.806  1.00  0.00     0.134 A 
ATOM     35  C   UNL     1      27.429   8.770   7.229  1.00  0.00     0.094 A 
ATOM     36  C   UNL     1      25.795   7.766   5.737  1.00  0.00     0.093 A 
ATOM     37  C   UNL     1      27.023   7.705   6.410  1.00  0.00     0.123 A 
BRANCH  28  38
ATOM     38  C   UNL     1      26.463  12.859   9.428  1.00  0.00     0.025 A 
ATOM     39  C   UNL     1      27.113  14.101   9.434  1.00  0.00     0.062 A 
ATOM     40  C   UNL     1      26.023  12.320  10.649  1.00  0.00     0.016 A 
ATOM     41  C   UNL     1      27.385  14.759  10.649  1.00  0.00     0.158 A 
ATOM     42  C   UNL     1      26.253  12.989  11.850  1.00  0.00     0.051 A 
ATOM     43  C   UNL     1      26.938  14.203  11.867  1.00  0.00     0.157 A 
BRANCH  41  44
ATOM     44  O   UNL     1      28.124  15.949  10.614  1.00  0.00    -0.504 OA
ATOM     45  H   UNL     1      28.901  16.116  11.223  1.00  0.00     0.293 HD
ENDBRANCH  41  44
BRANCH  43  46
ATOM     46  O   UNL     1      27.152  14.822  13.110  1.00  0.00    -0.504 OA
ATOM     47  H   UNL     1      27.107  14.338  13.990  1.00  0.00     0.293 HD
ENDBRANCH  43  46
ENDBRANCH  28  38
BRANCH  34  48
ATOM     48  O   UNL     1      23.702   8.857   5.313  1.00  0.00    -0.507 OA
ATOM     49  H   UNL     1      23.253   7.981   5.113  1.00  0.00     0.293 HD
ENDBRANCH  34  48
BRANCH  37  50
ATOM     50  O   UNL     1      27.799   6.546   6.307  1.00  0.00    -0.508 OA
ATOM     51  H   UNL     1      27.703   5.902   5.534  1.00  0.00     0.293 HD
ENDBRANCH  37  50
ENDBRANCH  26  27
ENDBRANCH   5  26
BRANCH   4  52
ATOM     52  O   UNL     1      28.121  14.140   6.022  1.00  0.00    -0.384 OA
ATOM     53  H   UNL     1      28.071  13.332   5.459  1.00  0.00     0.211 HD
ENDBRANCH   4  52
TORSDOF 16
ENDMDL
MODEL 4
REMARK VINA RESULT:    -3.308     15.969     19.477
REMARK INTER + INTRA:          -7.886
REMARK INTER:                  -6.306
REMARK INTRA:                  -1.581
REMARK UNBOUND:                -2.451
REMARK SMILES C[C@H]1O[C@H](OC[C@H]2O[C@@H](Oc3c(-c4ccc(O)c(O)c4)oc4cc(O)cc(O)c4c3=O)[C@H](O)[C@@H](O)[C@H]2O)[C@@H](O)[C@@H](O)[C@@H]1O
REMARK SMILES IDX 7 1 36 2 34 3 32 4 9 5 8 6 6 7 5 8 4 9 1 10 2 11 42 12 3 13
REMARK SMILES IDX 40 14 38 15 43 16 41 18 39 20 37 22 35 24 10 26 11 27 12 28
REMARK SMILES IDX 30 29 21 30 29 31 31 32 22 33 27 34 23 35 26 36 24 37 13 38
REMARK SMILES IDX 20 39 14 40 18 41 15 42 16 43 19 44 17 46 28 48 25 50 33 52
REMARK H PARENT 43 17 41 19 39 21 37 23 35 25 19 45 17 47 28 49 25 51 33 53
REMARK Flexibility Score: inf
ROOT
ATOM      1  C   UNL     1      25.631  16.752   5.996  1.00  0.00     0.180 C 
ATOM      2  C   UNL     1      25.540  17.868   7.083  1.00  0.00     0.177 C 
ATOM      3  C   UNL     1      26.832  17.929   7.933  1.00  0.00     0.180 C 
ATOM      4  C   UNL     1      27.173  16.534   8.522  1.00  0.00     0.214 C 
ATOM      5  C   UNL     1      26.572  15.393   7.673  1.00  0.00     0.339 C 
ATOM      6  O   UNL     1      26.604  15.761   6.315  1.00  0.00    -0.332 OA
ENDROOT
BRANCH   1   7
ATOM      7  C   UNL     1      25.955  17.292   4.582  1.00  0.00     0.198 C 
BRANCH   7   8
ATOM      8  O   UNL     1      24.754  17.750   3.991  1.00  0.00    -0.347 OA
BRANCH   8   9
ATOM      9  C   UNL     1      23.905  16.701   3.560  1.00  0.00     0.281 C 
ATOM     10  C   UNL     1      20.850  15.910   4.919  1.00  0.00     0.041 C 
ATOM     11  C   UNL     1      22.110  16.750   5.166  1.00  0.00     0.150 C 
ATOM     12  C   UNL     1      21.928  18.237   4.702  1.00  0.00     0.174 C 
ATOM     13  O   UNL     1      23.241  16.066   4.649  1.00  0.00    -0.344 OA
ATOM     14  C   UNL     1      22.054  18.396   3.165  1.00  0.00     0.179 C 
ATOM     15  C   UNL     1      22.907  17.269   2.523  1.00  0.00     0.202 C 
BRANCH  12  16
ATOM     16  O   UNL     1      22.839  19.125   5.336  1.00  0.00    -0.388 OA
ATOM     17  H   UNL     1      22.999  19.914   4.750  1.00  0.00     0.211 HD
ENDBRANCH  12  16
BRANCH  14  18
ATOM     18  O   UNL     1      20.774  18.439   2.590  1.00  0.00    -0.387 OA
ATOM     19  H   UNL     1      20.179  18.851   3.272  1.00  0.00     0.211 HD
ENDBRANCH  14  18
BRANCH  15  20
ATOM     20  O   UNL     1      22.076  16.265   1.978  1.00  0.00    -0.385 OA
ATOM     21  H   UNL     1      21.147  16.600   1.875  1.00  0.00     0.211 HD
ENDBRANCH  15  20
ENDBRANCH   8   9
ENDBRANCH   7   8
ENDBRANCH   1   7
BRANCH   2  22
ATOM     22  O   UNL     1      25.255  19.123   6.512  1.00  0.00    -0.387 OA
ATOM     23  H   UNL     1      24.266  19.222   6.549  1.00  0.00     0.211 HD
ENDBRANCH   2  22
BRANCH   3  24
ATOM     24  O   UNL     1      27.911  18.384   7.154  1.00  0.00    -0.387 OA
ATOM     25  H   UNL     1      28.694  18.466   7.757  1.00  0.00     0.211 HD
ENDBRANCH   3  24
BRANCH   5  26
ATOM     26  O   UNL     1      27.357  14.201   7.830  1.00  0.00    -0.454 OA
BRANCH  26  27
ATOM     27  C   UNL     1      26.864  12.910   8.117  1.00  0.00     0.214 A 
ATOM     28  C   UNL     1      27.019  12.251   9.364  1.00  0.00     0.180 A 
ATOM     29  C   UNL     1      26.257  12.192   7.077  1.00  0.00     0.239 A 
ATOM     30  O   UNL     1      26.983  10.927   9.396  1.00  0.00    -0.452 OA
ATOM     31  C   UNL     1      26.012  10.813   7.237  1.00  0.00     0.111 A 
ATOM     32  O   UNL     1      25.991  12.774   5.991  1.00  0.00    -0.285 OA
ATOM     33  C   UNL     1      26.564  10.191   8.369  1.00  0.00     0.146 A 
ATOM     34  C   UNL     1      25.275  10.025   6.309  1.00  0.00     0.134 A 
ATOM     35  C   UNL     1      26.635   8.799   8.437  1.00  0.00     0.094 A 
ATOM     36  C   UNL     1      25.371   8.632   6.367  1.00  0.00     0.093 A 
ATOM     37  C   UNL     1      26.089   8.020   7.404  1.00  0.00     0.123 A 
BRANCH  28  38
ATOM     38  C   UNL     1      27.037  12.968  10.662  1.00  0.00     0.025 A 
ATOM     39  C   UNL     1      25.922  12.936  11.509  1.00  0.00     0.062 A 
ATOM     40  C   UNL     1      28.125  13.790  11.003  1.00  0.00     0.016 A 
ATOM     41  C   UNL     1      25.863  13.770  12.642  1.00  0.00     0.158 A 
ATOM     42  C   UNL     1      28.087  14.585  12.147  1.00  0.00     0.051 A 
ATOM     43  C   UNL     1      26.962  14.593  12.971  1.00  0.00     0.157 A 
BRANCH  41  44
ATOM     44  O   UNL     1      24.687  13.778  13.405  1.00  0.00    -0.504 OA
ATOM     45  H   UNL     1      24.077  12.986  13.459  1.00  0.00     0.293 HD
ENDBRANCH  41  44
BRANCH  43  46
ATOM     46  O   UNL     1      26.978  15.426  14.102  1.00  0.00    -0.504 OA
ATOM     47  H   UNL     1      27.818  15.799  14.508  1.00  0.00     0.293 HD
ENDBRANCH  43  46
ENDBRANCH  28  38
BRANCH  34  48
ATOM     48  O   UNL     1      24.363  10.578   5.397  1.00  0.00    -0.507 OA
ATOM     49  H   UNL     1      24.615  11.334   4.784  1.00  0.00     0.293 HD
ENDBRANCH  34  48
BRANCH  37  50
ATOM     50  O   UNL     1      26.195   6.626   7.429  1.00  0.00    -0.508 OA
ATOM     51  H   UNL     1      26.070   6.062   6.599  1.00  0.00     0.293 HD
ENDBRANCH  37  50
ENDBRANCH  26  27
ENDBRANCH   5  26
BRANCH   4  52
ATOM     52  O   UNL     1      26.691  16.438   9.841  1.00  0.00    -0.384 OA
ATOM     53  H   UNL     1      25.997  17.129   9.956  1.00  0.00     0.211 HD
ENDBRANCH   4  52
TORSDOF 16
ENDMDL
MODEL 5
REMARK VINA RESULT:    -3.064      1.802      8.231
REMARK INTER + INTRA:          -7.485
REMARK INTER:                  -6.293
REMARK INTRA:                  -1.192
REMARK UNBOUND:                -2.451
REMARK SMILES C[C@H]1O[C@H](OC[C@H]2O[C@@H](Oc3c(-c4ccc(O)c(O)c4)oc4cc(O)cc(O)c4c3=O)[C@H](O)[C@@H](O)[C@H]2O)[C@@H](O)[C@@H](O)[C@@H]1O
REMARK SMILES IDX 7 1 36 2 34 3 32 4 9 5 8 6 6 7 5 8 4 9 1 10 2 11 42 12 3 13
REMARK SMILES IDX 40 14 38 15 43 16 41 18 39 20 37 22 35 24 10 26 11 27 12 28
REMARK SMILES IDX 30 29 21 30 29 31 31 32 22 33 27 34 23 35 26 36 24 37 13 38
REMARK SMILES IDX 20 39 14 40 18 41 15 42 16 43 19 44 17 46 28 48 25 50 33 52
REMARK H PARENT 43 17 41 19 39 21 37 23 35 25 19 45 17 47 28 49 25 51 33 53
REMARK Flexibility Score: inf
ROOT
ATOM      1  C   UNL     1      10.951   0.470   3.871  1.00  0.00     0.180 C 
ATOM      2  C   UNL     1       9.442   0.207   3.573  1.00  0.00     0.177 C 
ATOM      3  C   UNL     1       9.089   0.563   2.109  1.00  0.00     0.180 C 
ATOM      4  C   UNL     1       9.532   2.011   1.770  1.00  0.00     0.214 C 
ATOM      5  C   UNL     1      10.691   2.481   2.676  1.00  0.00     0.339 C 
ATOM      6  O   UNL     1      11.534   1.389   2.952  1.00  0.00    -0.332 OA
ENDROOT
BRANCH   1   7
ATOM      7  C   UNL     1      11.814  -0.816   3.863  1.00  0.00     0.198 C 
BRANCH   7   8
ATOM      8  O   UNL     1      13.164  -0.448   3.656  1.00  0.00    -0.347 OA
BRANCH   8   9
ATOM      9  C   UNL     1      13.852  -0.137   4.855  1.00  0.00     0.281 C 
ATOM     10  C   UNL     1      17.185  -0.714   5.459  1.00  0.00     0.041 C 
ATOM     11  C   UNL     1      16.052  -1.045   4.479  1.00  0.00     0.150 C 
ATOM     12  C   UNL     1      16.066  -0.108   3.222  1.00  0.00     0.174 C 
ATOM     13  O   UNL     1      14.824  -1.125   5.188  1.00  0.00    -0.344 OA
ATOM     14  C   UNL     1      15.475   1.293   3.523  1.00  0.00     0.179 C 
ATOM     15  C   UNL     1      14.479   1.271   4.713  1.00  0.00     0.202 C 
BRANCH  12  16
ATOM     16  O   UNL     1      15.384  -0.670   2.110  1.00  0.00    -0.388 OA
ATOM     17  H   UNL     1      15.196   0.041   1.438  1.00  0.00     0.211 HD
ENDBRANCH  12  16
BRANCH  14  18
ATOM     18  O   UNL     1      16.517   2.202   3.765  1.00  0.00    -0.387 OA
ATOM     19  H   UNL     1      17.137   2.122   2.992  1.00  0.00     0.211 HD
ENDBRANCH  14  18
BRANCH  15  20
ATOM     20  O   UNL     1      15.114   1.694   5.902  1.00  0.00    -0.385 OA
ATOM     21  H   UNL     1      15.901   1.122   6.098  1.00  0.00     0.211 HD
ENDBRANCH  15  20
ENDBRANCH   8   9
ENDBRANCH   7   8
ENDBRANCH   1   7
BRANCH   2  22
ATOM     22  O   UNL     1       9.081  -1.121   3.869  1.00  0.00    -0.387 OA
ATOM     23  H   UNL     1       9.769  -1.457   4.503  1.00  0.00     0.211 HD
ENDBRANCH   2  22
BRANCH   3  24
ATOM     24  O   UNL     1       9.709  -0.335   1.223  1.00  0.00    -0.387 OA
ATOM     25  H   UNL     1       9.786  -1.205   1.692  1.00  0.00     0.211 HD
ENDBRANCH   3  24
BRANCH   5  26
ATOM     26  O   UNL     1      11.466   3.482   1.998  1.00  0.00    -0.454 OA
BRANCH  26  27
ATOM     27  C   UNL     1      12.109   3.336   0.751  1.00  0.00     0.214 A 
ATOM     28  C   UNL     1      11.501   3.611  -0.502  1.00  0.00     0.180 A 
ATOM     29  C   UNL     1      13.405   2.801   0.737  1.00  0.00     0.239 A 
ATOM     30  O   UNL     1      11.963   3.001  -1.583  1.00  0.00    -0.452 OA
ATOM     31  C   UNL     1      13.967   2.376  -0.484  1.00  0.00     0.111 A 
ATOM     32  O   UNL     1      14.028   2.653   1.822  1.00  0.00    -0.285 OA
ATOM     33  C   UNL     1      13.118   2.340  -1.602  1.00  0.00     0.146 A 
ATOM     34  C   UNL     1      15.318   1.956  -0.632  1.00  0.00     0.134 A 
ATOM     35  C   UNL     1      13.503   1.646  -2.750  1.00  0.00     0.094 A 
ATOM     36  C   UNL     1      15.691   1.240  -1.773  1.00  0.00     0.093 A 
ATOM     37  C   UNL     1      14.771   1.045  -2.812  1.00  0.00     0.123 A 
BRANCH  28  38
ATOM     38  C   UNL     1      10.493   4.681  -0.696  1.00  0.00     0.025 A 
ATOM     39  C   UNL     1       9.975   4.949  -1.970  1.00  0.00     0.062 A 
ATOM     40  C   UNL     1      10.137   5.523   0.372  1.00  0.00     0.016 A 
ATOM     41  C   UNL     1       9.173   6.085  -2.189  1.00  0.00     0.158 A 
ATOM     42  C   UNL     1       9.308   6.624   0.166  1.00  0.00     0.051 A 
ATOM     43  C   UNL     1       8.825   6.923  -1.107  1.00  0.00     0.157 A 
BRANCH  41  44
ATOM     44  O   UNL     1       8.759   6.369  -3.497  1.00  0.00    -0.504 OA
ATOM     45  H   UNL     1       9.241   6.015  -4.301  1.00  0.00     0.293 HD
ENDBRANCH  41  44
BRANCH  43  46
ATOM     46  O   UNL     1       8.006   8.055  -1.253  1.00  0.00    -0.504 OA
ATOM     47  H   UNL     1       7.133   8.177  -0.771  1.00  0.00     0.293 HD
ENDBRANCH  43  46
ENDBRANCH  28  38
BRANCH  34  48
ATOM     48  O   UNL     1      16.331   2.321   0.269  1.00  0.00    -0.507 OA
ATOM     49  H   UNL     1      16.130   2.791   1.134  1.00  0.00     0.293 HD
ENDBRANCH  34  48
BRANCH  37  50
ATOM     50  O   UNL     1      15.156   0.303  -3.933  1.00  0.00    -0.508 OA
ATOM     51  H   UNL     1      15.690   0.709  -4.689  1.00  0.00     0.293 HD
ENDBRANCH  37  50
ENDBRANCH  26  27
ENDBRANCH   5  26
BRANCH   4  52
ATOM     52  O   UNL     1       8.444   2.893   1.910  1.00  0.00    -0.384 OA
ATOM     53  H   UNL     1       7.630   2.347   2.018  1.00  0.00     0.211 HD
ENDBRANCH   4  52
TORSDOF 16
ENDMDL
MODEL 6
REMARK VINA RESULT:    -2.923      2.221      7.656
REMARK INTER + INTRA:          -7.254
REMARK INTER:                  -6.607
REMARK INTRA:                  -0.646
REMARK UNBOUND:                -2.451
REMARK SMILES C[C@H]1O[C@H](OC[C@H]2O[C@@H](Oc3c(-c4ccc(O)c(O)c4)oc4cc(O)cc(O)c4c3=O)[C@H](O)[C@@H](O)[C@H]2O)[C@@H](O)[C@@H](O)[C@@H]1O
REMARK SMILES IDX 7 1 36 2 34 3 32 4 9 5 8 6 6 7 5 8 4 9 1 10 2 11 42 12 3 13
REMARK SMILES IDX 40 14 38 15 43 16 41 18 39 20 37 22 35 24 10 26 11 27 12 28
REMARK SMILES IDX 30 29 21 30 29 31 31 32 22 33 27 34 23 35 26 36 24 37 13 38
REMARK SMILES IDX 20 39 14 40 18 41 15 42 16 43 19 44 17 46 28 48 25 50 33 52
REMARK H PARENT 43 17 41 19 39 21 37 23 35 25 19 45 17 47 28 49 25 51 33 53
REMARK Flexibility Score: inf
ROOT
ATOM      1  C   UNL     1      13.133   1.209   2.857  1.00  0.00     0.180 C 
ATOM      2  C   UNL     1      11.786   0.480   3.159  1.00  0.00     0.177 C 
ATOM      3  C   UNL     1      10.823   0.559   1.951  1.00  0.00     0.180 C 
ATOM      4  C   UNL     1      10.629   2.030   1.494  1.00  0.00     0.214 C 
ATOM      5  C   UNL     1      11.829   2.915   1.893  1.00  0.00     0.339 C 
ATOM      6  O   UNL     1      13.012   2.159   1.802  1.00  0.00    -0.332 OA
ENDROOT
BRANCH   1   7
ATOM      7  C   UNL     1      14.289   0.244   2.494  1.00  0.00     0.198 C 
BRANCH   7   8
ATOM      8  O   UNL     1      15.123   0.883   1.546  1.00  0.00    -0.347 OA
BRANCH   8   9
ATOM      9  C   UNL     1      15.098   0.267   0.271  1.00  0.00     0.281 C 
ATOM     10  C   UNL     1      14.536   1.870  -2.716  1.00  0.00     0.041 C 
ATOM     11  C   UNL     1      14.455   2.067  -1.196  1.00  0.00     0.150 C 
ATOM     12  C   UNL     1      15.723   2.792  -0.626  1.00  0.00     0.174 C 
ATOM     13  O   UNL     1      14.107   0.836  -0.580  1.00  0.00    -0.344 OA
ATOM     14  C   UNL     1      16.940   1.840  -0.496  1.00  0.00     0.179 C 
ATOM     15  C   UNL     1      16.515   0.355  -0.347  1.00  0.00     0.202 C 
BRANCH  12  16
ATOM     16  O   UNL     1      15.483   3.412   0.630  1.00  0.00    -0.388 OA
ATOM     17  H   UNL     1      14.518   3.650   0.706  1.00  0.00     0.211 HD
ENDBRANCH  12  16
BRANCH  14  18
ATOM     18  O   UNL     1      17.787   2.005  -1.603  1.00  0.00    -0.387 OA
ATOM     19  H   UNL     1      17.581   2.904  -1.976  1.00  0.00     0.211 HD
ENDBRANCH  14  18
BRANCH  15  20
ATOM     20  O   UNL     1      16.596  -0.313  -1.589  1.00  0.00    -0.385 OA
ATOM     21  H   UNL     1      17.238  -1.069  -1.536  1.00  0.00     0.211 HD
ENDBRANCH  15  20
ENDBRANCH   8   9
ENDBRANCH   7   8
ENDBRANCH   1   7
BRANCH   2  22
ATOM     22  O   UNL     1      11.999  -0.858   3.546  1.00  0.00    -0.387 OA
ATOM     23  H   UNL     1      11.103  -1.224   3.771  1.00  0.00     0.211 HD
ENDBRANCH   2  22
BRANCH   3  24
ATOM     24  O   UNL     1      11.319  -0.201   0.877  1.00  0.00    -0.387 OA
ATOM     25  H   UNL     1      11.805  -0.973   1.264  1.00  0.00     0.211 HD
ENDBRANCH   3  24
BRANCH   5  26
ATOM     26  O   UNL     1      11.940   4.025   0.988  1.00  0.00    -0.454 OA
BRANCH  26  27
ATOM     27  C   UNL     1      10.872   4.691   0.350  1.00  0.00     0.214 A 
ATOM     28  C   UNL     1      10.246   4.243  -0.842  1.00  0.00     0.180 A 
ATOM     29  C   UNL     1      10.457   5.922   0.875  1.00  0.00     0.239 A 
ATOM     30  O   UNL     1       9.635   5.129  -1.614  1.00  0.00    -0.452 OA
ATOM     31  C   UNL     1       9.602   6.747   0.118  1.00  0.00     0.111 A 
ATOM     32  O   UNL     1      10.899   6.302   1.993  1.00  0.00    -0.285 OA
ATOM     33  C   UNL     1       9.361   6.369  -1.213  1.00  0.00     0.146 A 
ATOM     34  C   UNL     1       9.008   7.941   0.612  1.00  0.00     0.134 A 
ATOM     35  C   UNL     1       8.794   7.279  -2.107  1.00  0.00     0.094 A 
ATOM     36  C   UNL     1       8.465   8.860  -0.291  1.00  0.00     0.093 A 
ATOM     37  C   UNL     1       8.400   8.549  -1.656  1.00  0.00     0.123 A 
BRANCH  28  38
ATOM     38  C   UNL     1      10.081   2.810  -1.181  1.00  0.00     0.025 A 
ATOM     39  C   UNL     1      11.150   2.076  -1.714  1.00  0.00     0.062 A 
ATOM     40  C   UNL     1       8.818   2.199  -1.092  1.00  0.00     0.016 A 
ATOM     41  C   UNL     1      10.943   0.777  -2.217  1.00  0.00     0.158 A 
ATOM     42  C   UNL     1       8.620   0.898  -1.552  1.00  0.00     0.051 A 
ATOM     43  C   UNL     1       9.668   0.178  -2.123  1.00  0.00     0.157 A 
BRANCH  41  44
ATOM     44  O   UNL     1      12.018   0.120  -2.830  1.00  0.00    -0.504 OA
ATOM     45  H   UNL     1      12.674  -0.434  -2.313  1.00  0.00     0.293 HD
ENDBRANCH  41  44
BRANCH  43  46
ATOM     46  O   UNL     1       9.403  -1.123  -2.581  1.00  0.00    -0.504 OA
ATOM     47  H   UNL     1      10.114  -1.817  -2.733  1.00  0.00     0.293 HD
ENDBRANCH  43  46
ENDBRANCH  28  38
BRANCH  34  48
ATOM     48  O   UNL     1       8.842   8.198   1.982  1.00  0.00    -0.507 OA
ATOM     49  H   UNL     1       8.198   8.891   2.320  1.00  0.00     0.293 HD
ENDBRANCH  34  48
BRANCH  37  50
ATOM     50  O   UNL     1       7.877   9.492  -2.546  1.00  0.00    -0.508 OA
ATOM     51  H   UNL     1       7.884   9.349  -3.546  1.00  0.00     0.293 HD
ENDBRANCH  37  50
ENDBRANCH  26  27
ENDBRANCH   5  26
BRANCH   4  52
ATOM     52  O   UNL     1       9.452   2.558   2.059  1.00  0.00    -0.384 OA
ATOM     53  H   UNL     1       9.531   3.541   2.047  1.00  0.00     0.211 HD
ENDBRANCH   4  52
TORSDOF 16
ENDMDL
MODEL 7
REMARK VINA RESULT:    -2.822     14.839     18.626
REMARK INTER + INTRA:          -7.089
REMARK INTER:                  -7.106
REMARK INTRA:                   0.017
REMARK UNBOUND:                -2.451
REMARK SMILES C[C@H]1O[C@H](OC[C@H]2O[C@@H](Oc3c(-c4ccc(O)c(O)c4)oc4cc(O)cc(O)c4c3=O)[C@H](O)[C@@H](O)[C@H]2O)[C@@H](O)[C@@H](O)[C@@H]1O
REMARK SMILES IDX 7 1 36 2 34 3 32 4 9 5 8 6 6 7 5 8 4 9 1 10 2 11 42 12 3 13
REMARK SMILES IDX 40 14 38 15 43 16 41 18 39 20 37 22 35 24 10 26 11 27 12 28
REMARK SMILES IDX 30 29 21 30 29 31 31 32 22 33 27 34 23 35 26 36 24 37 13 38
REMARK SMILES IDX 20 39 14 40 18 41 15 42 16 43 19 44 17 46 28 48 25 50 33 52
REMARK H PARENT 43 17 41 19 39 21 37 23 35 25 19 45 17 47 28 49 25 51 33 53
REMARK Flexibility Score: inf
ROOT
ATOM      1  C   UNL     1      22.862  14.888   5.420  1.00  0.00     0.180 C 
ATOM      2  C   UNL     1      21.554  14.037   5.412  1.00  0.00     0.177 C 
ATOM      3  C   UNL     1      21.663  12.832   6.377  1.00  0.00     0.180 C 
ATOM      4  C   UNL     1      22.935  11.995   6.074  1.00  0.00     0.214 C 
ATOM      5  C   UNL     1      24.025  12.841   5.383  1.00  0.00     0.339 C 
ATOM      6  O   UNL     1      23.986  14.152   5.893  1.00  0.00    -0.332 OA
ENDROOT
BRANCH   1   7
ATOM      7  C   UNL     1      22.753  16.179   6.267  1.00  0.00     0.198 C 
BRANCH   7   8
ATOM      8  O   UNL     1      23.968  16.894   6.152  1.00  0.00    -0.347 OA
BRANCH   8   9
ATOM      9  C   UNL     1      23.844  18.098   5.415  1.00  0.00     0.281 C 
ATOM     10  C   UNL     1      25.938  19.125   2.891  1.00  0.00     0.041 C 
ATOM     11  C   UNL     1      25.808  18.093   4.020  1.00  0.00     0.150 C 
ATOM     12  C   UNL     1      25.262  16.718   3.503  1.00  0.00     0.174 C 
ATOM     13  O   UNL     1      25.112  18.674   5.112  1.00  0.00    -0.344 OA
ATOM     14  C   UNL     1      23.729  16.741   3.270  1.00  0.00     0.179 C 
ATOM     15  C   UNL     1      23.016  17.811   4.139  1.00  0.00     0.202 C 
BRANCH  12  16
ATOM     16  O   UNL     1      25.583  15.638   4.369  1.00  0.00    -0.388 OA
ATOM     17  H   UNL     1      24.747  15.179   4.656  1.00  0.00     0.211 HD
ENDBRANCH  12  16
BRANCH  14  18
ATOM     18  O   UNL     1      23.463  16.950   1.908  1.00  0.00    -0.387 OA
ATOM     19  H   UNL     1      24.318  17.256   1.504  1.00  0.00     0.211 HD
ENDBRANCH  14  18
BRANCH  15  20
ATOM     20  O   UNL     1      22.773  18.982   3.387  1.00  0.00    -0.385 OA
ATOM     21  H   UNL     1      22.714  18.768   2.420  1.00  0.00     0.211 HD
ENDBRANCH  15  20
ENDBRANCH   8   9
ENDBRANCH   7   8
ENDBRANCH   1   7
BRANCH   2  22
ATOM     22  O   UNL     1      20.425  14.823   5.716  1.00  0.00    -0.387 OA
ATOM     23  H   UNL     1      20.617  15.251   6.592  1.00  0.00     0.211 HD
ENDBRANCH   2  22
BRANCH   3  24
ATOM     24  O   UNL     1      21.703  13.274   7.712  1.00  0.00    -0.387 OA
ATOM     25  H   UNL     1      20.945  13.901   7.836  1.00  0.00     0.211 HD
ENDBRANCH   3  24
BRANCH   5  26
ATOM     26  O   UNL     1      25.322  12.292   5.663  1.00  0.00    -0.454 OA
BRANCH  26  27
ATOM     27  C   UNL     1      25.979  12.301   6.912  1.00  0.00     0.214 A 
ATOM     28  C   UNL     1      26.125  11.164   7.748  1.00  0.00     0.180 A 
ATOM     29  C   UNL     1      26.442  13.529   7.403  1.00  0.00     0.239 A 
ATOM     30  O   UNL     1      26.290  11.347   9.050  1.00  0.00    -0.452 OA
ATOM     31  C   UNL     1      26.841  13.632   8.751  1.00  0.00     0.111 A 
ATOM     32  O   UNL     1      26.441  14.540   6.650  1.00  0.00    -0.285 OA
ATOM     33  C   UNL     1      26.574  12.533   9.583  1.00  0.00     0.146 A 
ATOM     34  C   UNL     1      27.459  14.785   9.310  1.00  0.00     0.134 A 
ATOM     35  C   UNL     1      26.647  12.672  10.970  1.00  0.00     0.094 A 
ATOM     36  C   UNL     1      27.506  14.929  10.700  1.00  0.00     0.093 A 
ATOM     37  C   UNL     1      27.058  13.893  11.530  1.00  0.00     0.123 A 
BRANCH  28  38
ATOM     38  C   UNL     1      26.286   9.787   7.224  1.00  0.00     0.025 A 
ATOM     39  C   UNL     1      25.295   9.212   6.416  1.00  0.00     0.062 A 
ATOM     40  C   UNL     1      27.373   8.995   7.630  1.00  0.00     0.016 A 
ATOM     41  C   UNL     1      25.352   7.846   6.081  1.00  0.00     0.158 A 
ATOM     42  C   UNL     1      27.454   7.652   7.265  1.00  0.00     0.051 A 
ATOM     43  C   UNL     1      26.449   7.062   6.499  1.00  0.00     0.157 A 
BRANCH  41  44
ATOM     44  O   UNL     1      24.289   7.291   5.356  1.00  0.00    -0.504 OA
ATOM     45  H   UNL     1      23.336   7.561   5.509  1.00  0.00     0.293 HD
ENDBRANCH  41  44
BRANCH  43  46
ATOM     46  O   UNL     1      26.580   5.701   6.175  1.00  0.00    -0.504 OA
ATOM     47  H   UNL     1      27.366   5.136   6.445  1.00  0.00     0.293 HD
ENDBRANCH  43  46
ENDBRANCH  28  38
BRANCH  34  48
ATOM     48  O   UNL     1      28.125  15.744   8.532  1.00  0.00    -0.507 OA
ATOM     49  H   UNL     1      28.705  15.488   7.753  1.00  0.00     0.293 HD
ENDBRANCH  34  48
BRANCH  37  50
ATOM     50  O   UNL     1      27.090  14.068  12.917  1.00  0.00    -0.508 OA
ATOM     51  H   UNL     1      26.728  13.372  13.555  1.00  0.00     0.293 HD
ENDBRANCH  37  50
ENDBRANCH  26  27
ENDBRANCH   5  26
BRANCH   4  52
ATOM     52  O   UNL     1      22.605  10.899   5.254  1.00  0.00    -0.384 OA
ATOM     53  H   UNL     1      21.626  10.784   5.289  1.00  0.00     0.211 HD
ENDBRANCH   4  52
TORSDOF 16
ENDMDL
