MODEL 1
REMARK VINA RESULT:    -4.343      0.000      0.000
REMARK INTER + INTRA:          -7.329
REMARK INTER:                  -6.881
REMARK INTRA:                  -0.448
REMARK UNBOUND:                -0.448
REMARK SMILES CCCCCCCCCCCC(=O)[O-]
REMARK SMILES IDX 7 1 8 2 9 3 10 4 11 5 12 6 13 7 14 8 6 9 5 10 4 11 3 12 2 13
REMARK SMILES IDX 1 14
REMARK H PARENT
REMARK Flexibility Score: inf
ROOT
ATOM      1  C   UNL     1       3.710 -37.013  20.208  1.00  0.00     0.000 C 
ENDROOT
BRANCH   1   2
ATOM      2  C   UNL     1       4.496 -35.751  20.625  1.00  0.00     0.000 C 
BRANCH   2   3
ATOM      3  C   UNL     1       4.357 -35.441  22.126  1.00  0.00     0.000 C 
BRANCH   3   4
ATOM      4  C   UNL     1       5.121 -36.444  23.013  1.00  0.00     0.006 C 
BRANCH   4   5
ATOM      5  C   UNL     1       4.776 -36.333  24.508  1.00  0.00     0.053 C 
BRANCH   5   6
ATOM      6  C   UNL     1       5.007 -37.614  25.246  1.00  0.00     0.041 C 
ATOM      7  O   UNL     1       5.125 -38.697  24.613  1.00  0.00    -0.550 OA
ATOM      8  O   UNL     1       5.083 -37.616  26.633  1.00  0.00    -0.550 OA
ENDBRANCH   5   6
ENDBRANCH   4   5
ENDBRANCH   3   4
ENDBRANCH   2   3
ENDBRANCH   1   2
BRANCH   1   9
ATOM      9  C   UNL     1       3.587 -37.189  18.682  1.00  0.00     0.000 C 
BRANCH   9  10
ATOM     10  C   UNL     1       2.174 -37.545  18.183  1.00  0.00    -0.000 C 
BRANCH  10  11
ATOM     11  C   UNL     1       1.782 -36.921  16.827  1.00  0.00    -0.000 C 
BRANCH  11  12
ATOM     12  C   UNL     1       2.865 -36.043  16.174  1.00  0.00    -0.000 C 
BRANCH  12  13
ATOM     13  C   UNL     1       3.039 -36.322  14.675  1.00  0.00    -0.003 C 
ATOM     14  C   UNL     1       3.995 -37.488  14.440  1.00  0.00     0.004 C 
ENDBRANCH  12  13
ENDBRANCH  11  12
ENDBRANCH  10  11
ENDBRANCH   9  10
ENDBRANCH   1   9
TORSDOF 10
ENDMDL
MODEL 2
REMARK VINA RESULT:    -4.175      1.167      1.885
REMARK INTER + INTRA:          -7.064
REMARK INTER:                  -6.835
REMARK INTRA:                  -0.229
REMARK UNBOUND:                -0.448
REMARK SMILES CCCCCCCCCCCC(=O)[O-]
REMARK SMILES IDX 7 1 8 2 9 3 10 4 11 5 12 6 13 7 14 8 6 9 5 10 4 11 3 12 2 13
REMARK SMILES IDX 1 14
REMARK H PARENT
REMARK Flexibility Score: inf
ROOT
ATOM      1  C   UNL     1       3.053 -37.230  19.514  1.00  0.00     0.000 C 
ENDROOT
BRANCH   1   2
ATOM      2  C   UNL     1       4.510 -36.778  19.271  1.00  0.00     0.000 C 
BRANCH   2   3
ATOM      3  C   UNL     1       4.876 -35.517  20.074  1.00  0.00     0.000 C 
BRANCH   3   4
ATOM      4  C   UNL     1       4.162 -35.454  21.439  1.00  0.00     0.006 C 
BRANCH   4   5
ATOM      5  C   UNL     1       5.125 -35.415  22.638  1.00  0.00     0.053 C 
BRANCH   5   6
ATOM      6  C   UNL     1       4.928 -36.571  23.568  1.00  0.00     0.041 C 
ATOM      7  O   UNL     1       4.974 -36.395  24.814  1.00  0.00    -0.550 OA
ATOM      8  O   UNL     1       4.705 -37.844  23.060  1.00  0.00    -0.550 OA
ENDBRANCH   5   6
ENDBRANCH   4   5
ENDBRANCH   3   4
ENDBRANCH   2   3
ENDBRANCH   1   2
BRANCH   1   9
ATOM      9  C   UNL     1       2.270 -37.513  18.217  1.00  0.00     0.000 C 
BRANCH   9  10
ATOM     10  C   UNL     1       2.969 -37.052  16.925  1.00  0.00    -0.000 C 
BRANCH  10  11
ATOM     11  C   UNL     1       2.113 -36.162  15.998  1.00  0.00    -0.000 C 
BRANCH  11  12
ATOM     12  C   UNL     1       2.545 -36.152  14.521  1.00  0.00    -0.000 C 
BRANCH  12  13
ATOM     13  C   UNL     1       3.998 -36.603  14.320  1.00  0.00    -0.003 C 
ATOM     14  C   UNL     1       4.092 -38.122  14.207  1.00  0.00     0.004 C 
ENDBRANCH  12  13
ENDBRANCH  11  12
ENDBRANCH  10  11
ENDBRANCH   9  10
ENDBRANCH   1   9
TORSDOF 10
ENDMDL
MODEL 3
REMARK VINA RESULT:    -3.989      1.142      1.595
REMARK INTER + INTRA:          -6.770
REMARK INTER:                  -6.661
REMARK INTRA:                  -0.109
REMARK UNBOUND:                -0.448
REMARK SMILES CCCCCCCCCCCC(=O)[O-]
REMARK SMILES IDX 7 1 8 2 9 3 10 4 11 5 12 6 13 7 14 8 6 9 5 10 4 11 3 12 2 13
REMARK SMILES IDX 1 14
REMARK H PARENT
REMARK Flexibility Score: inf
ROOT
ATOM      1  C   UNL     1       4.718 -36.370  19.158  1.00  0.00     0.000 C 
ENDROOT
BRANCH   1   2
ATOM      2  C   UNL     1       4.701 -35.253  20.224  1.00  0.00     0.000 C 
BRANCH   2   3
ATOM      3  C   UNL     1       4.376 -35.787  21.631  1.00  0.00     0.000 C 
BRANCH   3   4
ATOM      4  C   UNL     1       5.125 -37.095  21.956  1.00  0.00     0.006 C 
BRANCH   4   5
ATOM      5  C   UNL     1       5.125 -37.449  23.453  1.00  0.00     0.053 C 
BRANCH   5   6
ATOM      6  C   UNL     1       5.103 -38.926  23.693  1.00  0.00     0.041 C 
ATOM      7  O   UNL     1       5.074 -39.377  24.869  1.00  0.00    -0.550 OA
ATOM      8  O   UNL     1       5.125 -39.807  22.619  1.00  0.00    -0.550 OA
ENDBRANCH   5   6
ENDBRANCH   4   5
ENDBRANCH   3   4
ENDBRANCH   2   3
ENDBRANCH   1   2
BRANCH   1   9
ATOM      9  C   UNL     1       3.578 -37.394  19.318  1.00  0.00     0.000 C 
BRANCH   9  10
ATOM     10  C   UNL     1       2.446 -37.271  18.282  1.00  0.00    -0.000 C 
BRANCH  10  11
ATOM     11  C   UNL     1       2.902 -37.279  16.808  1.00  0.00    -0.000 C 
BRANCH  11  12
ATOM     12  C   UNL     1       2.267 -36.193  15.921  1.00  0.00    -0.000 C 
BRANCH  12  13
ATOM     13  C   UNL     1       2.787 -36.219  14.477  1.00  0.00    -0.003 C 
ATOM     14  C   UNL     1       3.973 -37.169  14.337  1.00  0.00     0.004 C 
ENDBRANCH  12  13
ENDBRANCH  11  12
ENDBRANCH  10  11
ENDBRANCH   9  10
ENDBRANCH   1   9
TORSDOF 10
ENDMDL
MODEL 4
REMARK VINA RESULT:    -3.604      1.002      1.412
REMARK INTER + INTRA:          -6.159
REMARK INTER:                  -5.671
REMARK INTRA:                  -0.488
REMARK UNBOUND:                -0.448
REMARK SMILES CCCCCCCCCCCC(=O)[O-]
REMARK SMILES IDX 7 1 8 2 9 3 10 4 11 5 12 6 13 7 14 8 6 9 5 10 4 11 3 12 2 13
REMARK SMILES IDX 1 14
REMARK H PARENT
REMARK Flexibility Score: inf
ROOT
ATOM      1  C   UNL     1       2.911 -37.333  19.557  1.00  0.00     0.000 C 
ENDROOT
BRANCH   1   2
ATOM      2  C   UNL     1       4.312 -37.317  20.206  1.00  0.00     0.000 C 
BRANCH   2   3
ATOM      3  C   UNL     1       4.616 -35.987  20.917  1.00  0.00     0.000 C 
BRANCH   3   4
ATOM      4  C   UNL     1       4.906 -36.171  22.420  1.00  0.00     0.006 C 
BRANCH   4   5
ATOM      5  C   UNL     1       5.123 -37.637  22.832  1.00  0.00     0.053 C 
BRANCH   5   6
ATOM      6  C   UNL     1       5.111 -37.823  24.317  1.00  0.00     0.041 C 
ATOM      7  O   UNL     1       5.125 -38.982  24.811  1.00  0.00    -0.550 OA
ATOM      8  O   UNL     1       5.073 -36.718  25.158  1.00  0.00    -0.550 OA
ENDBRANCH   5   6
ENDBRANCH   4   5
ENDBRANCH   3   4
ENDBRANCH   2   3
ENDBRANCH   1   2
BRANCH   1   9
ATOM      9  C   UNL     1       2.939 -37.212  18.021  1.00  0.00     0.000 C 
BRANCH   9  10
ATOM     10  C   UNL     1       3.752 -36.022  17.480  1.00  0.00    -0.000 C 
BRANCH  10  11
ATOM     11  C   UNL     1       3.253 -35.442  16.140  1.00  0.00    -0.000 C 
BRANCH  11  12
ATOM     12  C   UNL     1       2.167 -36.273  15.433  1.00  0.00    -0.000 C 
BRANCH  12  13
ATOM     13  C   UNL     1       2.586 -36.738  14.032  1.00  0.00    -0.003 C 
ATOM     14  C   UNL     1       4.044 -37.190  14.016  1.00  0.00     0.004 C 
ENDBRANCH  12  13
ENDBRANCH  11  12
ENDBRANCH  10  11
ENDBRANCH   9  10
ENDBRANCH   1   9
TORSDOF 10
ENDMDL
MODEL 5
REMARK VINA RESULT:    -3.532      4.167      7.711
REMARK INTER + INTRA:          -6.045
REMARK INTER:                  -5.997
REMARK INTRA:                  -0.048
REMARK UNBOUND:                -0.448
REMARK SMILES CCCCCCCCCCCC(=O)[O-]
REMARK SMILES IDX 7 1 8 2 9 3 10 4 11 5 12 6 13 7 14 8 6 9 5 10 4 11 3 12 2 13
REMARK SMILES IDX 1 14
REMARK H PARENT
REMARK Flexibility Score: inf
ROOT
ATOM      1  C   UNL     1       5.040 -35.804  20.148  1.00  0.00     0.000 C 
ENDROOT
BRANCH   1   2
ATOM      2  C   UNL     1       4.180 -36.843  19.396  1.00  0.00     0.000 C 
BRANCH   2   3
ATOM      3  C   UNL     1       3.755 -36.356  18.000  1.00  0.00     0.000 C 
BRANCH   3   4
ATOM      4  C   UNL     1       2.535 -37.122  17.450  1.00  0.00     0.006 C 
BRANCH   4   5
ATOM      5  C   UNL     1       2.048 -36.607  16.085  1.00  0.00     0.053 C 
BRANCH   5   6
ATOM      6  C   UNL     1       3.038 -36.857  14.991  1.00  0.00     0.041 C 
ATOM      7  O   UNL     1       3.112 -36.069  14.011  1.00  0.00    -0.550 OA
ATOM      8  O   UNL     1       3.875 -37.965  15.047  1.00  0.00    -0.550 OA
ENDBRANCH   5   6
ENDBRANCH   4   5
ENDBRANCH   3   4
ENDBRANCH   2   3
ENDBRANCH   1   2
BRANCH   1   9
ATOM      9  C   UNL     1       4.332 -35.182  21.368  1.00  0.00     0.000 C 
BRANCH   9  10
ATOM     10  C   UNL     1       5.125 -35.259  22.685  1.00  0.00    -0.000 C 
BRANCH  10  11
ATOM     11  C   UNL     1       5.094 -36.632  23.390  1.00  0.00    -0.000 C 
BRANCH  11  12
ATOM     12  C   UNL     1       4.397 -37.755  22.601  1.00  0.00    -0.000 C 
BRANCH  12  13
ATOM     13  C   UNL     1       5.125 -39.103  22.709  1.00  0.00    -0.003 C 
ATOM     14  C   UNL     1       5.015 -39.675  24.120  1.00  0.00     0.004 C 
ENDBRANCH  12  13
ENDBRANCH  11  12
ENDBRANCH  10  11
ENDBRANCH   9  10
ENDBRANCH   1   9
TORSDOF 10
ENDMDL
MODEL 6
REMARK VINA RESULT:    -2.552      4.315      8.171
REMARK INTER + INTRA:          -4.493
REMARK INTER:                  -4.144
REMARK INTRA:                  -0.348
REMARK UNBOUND:                -0.448
REMARK SMILES CCCCCCCCCCCC(=O)[O-]
REMARK SMILES IDX 7 1 8 2 9 3 10 4 11 5 12 6 13 7 14 8 6 9 5 10 4 11 3 12 2 13
REMARK SMILES IDX 1 14
REMARK H PARENT
REMARK Flexibility Score: inf
ROOT
ATOM      1  C   UNL     1       3.959 -36.867  20.691  1.00  0.00     0.000 C 
ENDROOT
BRANCH   1   2
ATOM      2  C   UNL     1       3.865 -37.142  19.174  1.00  0.00     0.000 C 
BRANCH   2   3
ATOM      3  C   UNL     1       2.422 -37.412  18.713  1.00  0.00     0.000 C 
BRANCH   3   4
ATOM      4  C   UNL     1       2.180 -36.999  17.247  1.00  0.00     0.006 C 
BRANCH   4   5
ATOM      5  C   UNL     1       3.182 -37.620  16.258  1.00  0.00     0.053 C 
BRANCH   5   6
ATOM      6  C   UNL     1       3.382 -36.775  15.039  1.00  0.00     0.041 C 
ATOM      7  O   UNL     1       4.042 -37.219  14.063  1.00  0.00    -0.550 OA
ATOM      8  O   UNL     1       2.850 -35.493  14.984  1.00  0.00    -0.550 OA
ENDBRANCH   5   6
ENDBRANCH   4   5
ENDBRANCH   3   4
ENDBRANCH   2   3
ENDBRANCH   1   2
BRANCH   1   9
ATOM      9  C   UNL     1       4.883 -35.688  21.050  1.00  0.00     0.000 C 
BRANCH   9  10
ATOM     10  C   UNL     1       4.849 -35.266  22.531  1.00  0.00    -0.000 C 
BRANCH  10  11
ATOM     11  C   UNL     1       5.125 -36.400  23.541  1.00  0.00    -0.000 C 
BRANCH  11  12
ATOM     12  C   UNL     1       5.009 -35.996  25.022  1.00  0.00    -0.000 C 
BRANCH  12  13
ATOM     13  C   UNL     1       4.857 -37.202  25.960  1.00  0.00    -0.003 C 
ATOM     14  C   UNL     1       4.894 -38.513  25.181  1.00  0.00     0.004 C 
ENDBRANCH  12  13
ENDBRANCH  11  12
ENDBRANCH  10  11
ENDBRANCH   9  10
ENDBRANCH   1   9
TORSDOF 10
ENDMDL
MODEL 7
REMARK VINA RESULT:    -2.292      1.597      2.885
REMARK INTER + INTRA:          -4.080
REMARK INTER:                  -4.029
REMARK INTRA:                  -0.051
REMARK UNBOUND:                -0.448
REMARK SMILES CCCCCCCCCCCC(=O)[O-]
REMARK SMILES IDX 7 1 8 2 9 3 10 4 11 5 12 6 13 7 14 8 6 9 5 10 4 11 3 12 2 13
REMARK SMILES IDX 1 14
REMARK H PARENT
REMARK Flexibility Score: inf
ROOT
ATOM      1  C   UNL     1       4.438 -36.190  22.597  1.00  0.00     0.000 C 
ENDROOT
BRANCH   1   2
ATOM      2  C   UNL     1       5.086 -35.275  23.660  1.00  0.00     0.000 C 
BRANCH   2   3
ATOM      3  C   UNL     1       5.117 -35.925  25.054  1.00  0.00     0.000 C 
BRANCH   3   4
ATOM      4  C   UNL     1       4.273 -37.212  25.129  1.00  0.00     0.006 C 
BRANCH   4   5
ATOM      5  C   UNL     1       5.108 -38.486  25.347  1.00  0.00     0.053 C 
BRANCH   5   6
ATOM      6  C   UNL     1       4.999 -39.445  24.203  1.00  0.00     0.041 C 
ATOM      7  O   UNL     1       5.024 -40.686  24.412  1.00  0.00    -0.550 OA
ATOM      8  O   UNL     1       4.880 -38.969  22.903  1.00  0.00    -0.550 OA
ENDBRANCH   5   6
ENDBRANCH   4   5
ENDBRANCH   3   4
ENDBRANCH   2   3
ENDBRANCH   1   2
BRANCH   1   9
ATOM      9  C   UNL     1       4.165 -35.482  21.256  1.00  0.00     0.000 C 
BRANCH   9  10
ATOM     10  C   UNL     1       4.780 -36.170  20.024  1.00  0.00    -0.000 C 
BRANCH  10  11
ATOM     11  C   UNL     1       3.998 -37.391  19.496  1.00  0.00    -0.000 C 
BRANCH  11  12
ATOM     12  C   UNL     1       2.863 -37.062  18.509  1.00  0.00    -0.000 C 
BRANCH  12  13
ATOM     13  C   UNL     1       3.374 -36.711  17.105  1.00  0.00    -0.003 C 
ATOM     14  C   UNL     1       2.259 -36.121  16.246  1.00  0.00     0.004 C 
ENDBRANCH  12  13
ENDBRANCH  11  12
ENDBRANCH  10  11
ENDBRANCH   9  10
ENDBRANCH   1   9
TORSDOF 10
ENDMDL
