MODEL 1
REMARK VINA RESULT:    -8.126      0.000      0.000
REMARK INTER + INTRA:         -12.290
REMARK INTER:                 -11.452
REMARK INTRA:                  -0.838
REMARK UNBOUND:                -0.838
REMARK SMILES COc1c(O[C@@H]2O[C@H](C(=O)[O-])[C@@H](O)[C@@H](O)[C@@H]2O)cc(O)c2c(=O)cc(-c3ccccc3)oc12
REMARK SMILES IDX 5 1 6 2 8 3 12 4 7 5 14 6 16 7 9 8 10 9 11 10 13 11 15 13
REMARK SMILES IDX 17 15 4 17 3 18 18 19 33 20 19 21 21 22 32 23 22 24 25 25
REMARK SMILES IDX 24 26 23 27 2 28 1 29 20 30 26 32 27 33 31 34 28 35 30 36
REMARK SMILES IDX 29 37
REMARK H PARENT 13 12 15 14 17 16 20 31
REMARK Flexibility Score: inf
ROOT
ATOM      1  O   UNL     1     -62.020 -42.990 -36.716  1.00  0.00    -0.458 OA
ENDROOT
BRANCH   1   2
ATOM      2  C   UNL     1     -62.992 -42.677 -37.718  1.00  0.00     0.339 C 
ATOM      3  C   UNL     1     -63.146 -44.884 -38.615  1.00  0.00     0.199 C 
ATOM      4  C   UNL     1     -62.388 -44.480 -39.910  1.00  0.00     0.180 C 
ATOM      5  O   UNL     1     -63.829 -43.794 -38.003  1.00  0.00    -0.328 OA
ATOM      6  C   UNL     1     -61.506 -43.233 -39.690  1.00  0.00     0.181 C 
ATOM      7  C   UNL     1     -62.313 -42.131 -38.989  1.00  0.00     0.214 C 
BRANCH   3   8
ATOM      8  C   UNL     1     -62.312 -45.654 -37.620  1.00  0.00     0.073 C 
ATOM      9  O   UNL     1     -62.856 -46.126 -36.588  1.00  0.00    -0.547 OA
ATOM     10  O   UNL     1     -60.950 -45.853 -37.817  1.00  0.00    -0.547 OA
ENDBRANCH   3   8
BRANCH   4  11
ATOM     11  O   UNL     1     -63.286 -44.277 -40.978  1.00  0.00    -0.387 OA
ATOM     12  H   UNL     1     -63.335 -45.115 -41.510  1.00  0.00     0.211 HD
ENDBRANCH   4  11
BRANCH   6  13
ATOM     13  O   UNL     1     -61.022 -42.750 -40.916  1.00  0.00    -0.387 OA
ATOM     14  H   UNL     1     -61.046 -43.515 -41.551  1.00  0.00     0.211 HD
ENDBRANCH   6  13
BRANCH   7  15
ATOM     15  O   UNL     1     -61.501 -41.018 -38.693  1.00  0.00    -0.384 OA
ATOM     16  H   UNL     1     -60.720 -41.336 -38.166  1.00  0.00     0.211 HD
ENDBRANCH   7  15
ENDBRANCH   1   2
BRANCH   1  17
ATOM     17  C   UNL     1     -61.844 -42.293 -35.509  1.00  0.00     0.172 A 
ATOM     18  C   UNL     1     -62.909 -42.277 -34.598  1.00  0.00     0.205 A 
ATOM     19  C   UNL     1     -60.647 -41.626 -35.201  1.00  0.00     0.097 A 
ATOM     20  C   UNL     1     -62.776 -41.576 -33.374  1.00  0.00     0.188 A 
ATOM     21  C   UNL     1     -60.497 -40.940 -33.992  1.00  0.00     0.134 A 
ATOM     22  C   UNL     1     -61.561 -40.912 -33.065  1.00  0.00     0.111 A 
ATOM     23  O   UNL     1     -63.788 -41.535 -32.511  1.00  0.00    -0.452 OA
ATOM     24  C   UNL     1     -61.473 -40.239 -31.827  1.00  0.00     0.197 A 
ATOM     25  C   UNL     1     -63.732 -40.918 -31.333  1.00  0.00     0.138 A 
ATOM     26  C   UNL     1     -62.561 -40.246 -30.957  1.00  0.00     0.100 A 
ATOM     27  O   UNL     1     -60.428 -39.620 -31.486  1.00  0.00    -0.289 OA
BRANCH  18  28
ATOM     28  O   UNL     1     -64.071 -42.983 -34.970  1.00  0.00    -0.490 OA
ATOM     29  C   UNL     1     -64.549 -44.188 -34.376  1.00  0.00     0.278 C 
ENDBRANCH  18  28
BRANCH  21  30
ATOM     30  O   UNL     1     -59.292 -40.289 -33.724  1.00  0.00    -0.507 OA
ATOM     31  H   UNL     1     -58.932 -39.561 -34.330  1.00  0.00     0.293 HD
ENDBRANCH  21  30
BRANCH  25  32
ATOM     32  C   UNL     1     -64.918 -40.951 -30.449  1.00  0.00     0.017 A 
ATOM     33  C   UNL     1     -66.160 -41.422 -30.911  1.00  0.00     0.012 A 
ATOM     34  C   UNL     1     -64.822 -40.470 -29.132  1.00  0.00     0.012 A 
ATOM     35  C   UNL     1     -67.277 -41.416 -30.069  1.00  0.00     0.001 A 
ATOM     36  C   UNL     1     -65.941 -40.469 -28.293  1.00  0.00     0.001 A 
ATOM     37  C   UNL     1     -67.167 -40.941 -28.761  1.00  0.00     0.000 A 
ENDBRANCH  25  32
ENDBRANCH   1  17
TORSDOF 9
ENDMDL
MODEL 2
REMARK VINA RESULT:    -7.984      1.520      2.684
REMARK INTER + INTRA:         -12.090
REMARK INTER:                 -10.748
REMARK INTRA:                  -1.341
REMARK UNBOUND:                -0.838
REMARK SMILES COc1c(O[C@@H]2O[C@H](C(=O)[O-])[C@@H](O)[C@@H](O)[C@@H]2O)cc(O)c2c(=O)cc(-c3ccccc3)oc12
REMARK SMILES IDX 5 1 6 2 8 3 12 4 7 5 14 6 16 7 9 8 10 9 11 10 13 11 15 13
REMARK SMILES IDX 17 15 4 17 3 18 18 19 33 20 19 21 21 22 32 23 22 24 25 25
REMARK SMILES IDX 24 26 23 27 2 28 1 29 20 30 26 32 27 33 31 34 28 35 30 36
REMARK SMILES IDX 29 37
REMARK H PARENT 13 12 15 14 17 16 20 31
REMARK Flexibility Score: inf
ROOT
ATOM      1  O   UNL     1     -62.352 -43.637 -35.745  1.00  0.00    -0.458 OA
ENDROOT
BRANCH   1   2
ATOM      2  C   UNL     1     -61.488 -43.815 -36.871  1.00  0.00     0.339 C 
ATOM      3  C   UNL     1     -62.757 -42.466 -38.376  1.00  0.00     0.199 C 
ATOM      4  C   UNL     1     -63.252 -43.706 -39.172  1.00  0.00     0.180 C 
ATOM      5  O   UNL     1     -61.506 -42.679 -37.729  1.00  0.00    -0.328 OA
ATOM      6  C   UNL     1     -63.199 -44.990 -38.317  1.00  0.00     0.181 C 
ATOM      7  C   UNL     1     -61.833 -45.112 -37.627  1.00  0.00     0.214 C 
BRANCH   3   8
ATOM      8  C   UNL     1     -63.782 -41.879 -37.436  1.00  0.00     0.073 C 
ATOM      9  O   UNL     1     -63.478 -40.883 -36.729  1.00  0.00    -0.547 OA
ATOM     10  O   UNL     1     -65.060 -42.417 -37.331  1.00  0.00    -0.547 OA
ENDBRANCH   3   8
BRANCH   4  11
ATOM     11  O   UNL     1     -62.518 -43.866 -40.364  1.00  0.00    -0.387 OA
ATOM     12  H   UNL     1     -62.887 -44.645 -40.858  1.00  0.00     0.211 HD
ENDBRANCH   4  11
BRANCH   6  13
ATOM     13  O   UNL     1     -63.421 -46.122 -39.118  1.00  0.00    -0.387 OA
ATOM     14  H   UNL     1     -64.398 -46.152 -39.301  1.00  0.00     0.211 HD
ENDBRANCH   6  13
BRANCH   7  15
ATOM     15  O   UNL     1     -61.796 -46.227 -36.768  1.00  0.00    -0.384 OA
ATOM     16  H   UNL     1     -61.172 -46.896 -37.157  1.00  0.00     0.211 HD
ENDBRANCH   7  15
ENDBRANCH   1   2
BRANCH   1  17
ATOM     17  C   UNL     1     -61.957 -43.161 -34.483  1.00  0.00     0.172 A 
ATOM     18  C   UNL     1     -62.954 -42.698 -33.614  1.00  0.00     0.205 A 
ATOM     19  C   UNL     1     -60.611 -43.140 -34.082  1.00  0.00     0.097 A 
ATOM     20  C   UNL     1     -62.597 -42.199 -32.337  1.00  0.00     0.188 A 
ATOM     21  C   UNL     1     -60.244 -42.662 -32.821  1.00  0.00     0.134 A 
ATOM     22  C   UNL     1     -61.236 -42.189 -31.934  1.00  0.00     0.111 A 
ATOM     23  O   UNL     1     -63.532 -41.736 -31.511  1.00  0.00    -0.452 OA
ATOM     24  C   UNL     1     -60.932 -41.695 -30.647  1.00  0.00     0.197 A 
ATOM     25  C   UNL     1     -63.278 -41.274 -30.290  1.00  0.00     0.138 A 
ATOM     26  C   UNL     1     -61.958 -41.241 -29.822  1.00  0.00     0.100 A 
ATOM     27  O   UNL     1     -59.746 -41.649 -30.222  1.00  0.00    -0.289 OA
BRANCH  18  28
ATOM     28  O   UNL     1     -64.282 -42.767 -34.080  1.00  0.00    -0.490 OA
ATOM     29  C   UNL     1     -65.246 -43.757 -33.730  1.00  0.00     0.278 C 
ENDBRANCH  18  28
BRANCH  21  30
ATOM     30  O   UNL     1     -58.896 -42.657 -32.460  1.00  0.00    -0.507 OA
ATOM     31  H   UNL     1     -58.289 -43.445 -32.654  1.00  0.00     0.293 HD
ENDBRANCH  21  30
BRANCH  25  32
ATOM     32  C   UNL     1     -64.404 -40.797 -29.455  1.00  0.00     0.017 A 
ATOM     33  C   UNL     1     -64.183 -40.235 -28.185  1.00  0.00     0.012 A 
ATOM     34  C   UNL     1     -65.723 -40.940 -29.915  1.00  0.00     0.012 A 
ATOM     35  C   UNL     1     -65.263 -39.820 -27.399  1.00  0.00     0.001 A 
ATOM     36  C   UNL     1     -66.799 -40.520 -29.126  1.00  0.00     0.001 A 
ATOM     37  C   UNL     1     -66.569 -39.961 -27.869  1.00  0.00     0.000 A 
ENDBRANCH  25  32
ENDBRANCH   1  17
TORSDOF 9
ENDMDL
MODEL 3
REMARK VINA RESULT:    -7.889      1.604      1.834
REMARK INTER + INTRA:         -11.956
REMARK INTER:                 -11.008
REMARK INTRA:                  -0.948
REMARK UNBOUND:                -0.838
REMARK SMILES COc1c(O[C@@H]2O[C@H](C(=O)[O-])[C@@H](O)[C@@H](O)[C@@H]2O)cc(O)c2c(=O)cc(-c3ccccc3)oc12
REMARK SMILES IDX 5 1 6 2 8 3 12 4 7 5 14 6 16 7 9 8 10 9 11 10 13 11 15 13
REMARK SMILES IDX 17 15 4 17 3 18 18 19 33 20 19 21 21 22 32 23 22 24 25 25
REMARK SMILES IDX 24 26 23 27 2 28 1 29 20 30 26 32 27 33 31 34 28 35 30 36
REMARK SMILES IDX 29 37
REMARK H PARENT 13 12 15 14 17 16 20 31
REMARK Flexibility Score: inf
ROOT
ATOM      1  O   UNL     1     -62.973 -43.286 -35.390  1.00  0.00    -0.458 OA
ENDROOT
BRANCH   1   2
ATOM      2  C   UNL     1     -63.537 -42.458 -36.411  1.00  0.00     0.339 C 
ATOM      3  C   UNL     1     -64.597 -44.227 -37.612  1.00  0.00     0.199 C 
ATOM      4  C   UNL     1     -63.573 -44.135 -38.778  1.00  0.00     0.180 C 
ATOM      5  O   UNL     1     -64.756 -42.998 -36.910  1.00  0.00    -0.328 OA
ATOM      6  C   UNL     1     -62.244 -43.499 -38.320  1.00  0.00     0.181 C 
ATOM      7  C   UNL     1     -62.517 -42.206 -37.538  1.00  0.00     0.214 C 
BRANCH   3   8
ATOM      8  C   UNL     1     -64.368 -45.385 -36.672  1.00  0.00     0.073 C 
ATOM      9  O   UNL     1     -65.201 -45.614 -35.756  1.00  0.00    -0.547 OA
ATOM     10  O   UNL     1     -63.254 -46.207 -36.793  1.00  0.00    -0.547 OA
ENDBRANCH   3   8
BRANCH   4  11
ATOM     11  O   UNL     1     -64.116 -43.433 -39.872  1.00  0.00    -0.387 OA
ATOM     12  H   UNL     1     -63.996 -42.460 -39.712  1.00  0.00     0.211 HD
ENDBRANCH   4  11
BRANCH   6  13
ATOM     13  O   UNL     1     -61.430 -43.211 -39.428  1.00  0.00    -0.387 OA
ATOM     14  H   UNL     1     -62.038 -42.912 -40.156  1.00  0.00     0.211 HD
ENDBRANCH   6  13
BRANCH   7  15
ATOM     15  O   UNL     1     -61.323 -41.658 -37.030  1.00  0.00    -0.384 OA
ATOM     16  H   UNL     1     -61.273 -40.707 -37.317  1.00  0.00     0.211 HD
ENDBRANCH   7  15
ENDBRANCH   1   2
BRANCH   1  17
ATOM     17  C   UNL     1     -62.527 -42.839 -34.134  1.00  0.00     0.172 A 
ATOM     18  C   UNL     1     -63.490 -42.429 -33.203  1.00  0.00     0.205 A 
ATOM     19  C   UNL     1     -61.163 -42.797 -33.800  1.00  0.00     0.097 A 
ATOM     20  C   UNL     1     -63.081 -41.962 -31.929  1.00  0.00     0.188 A 
ATOM     21  C   UNL     1     -60.745 -42.348 -32.544  1.00  0.00     0.134 A 
ATOM     22  C   UNL     1     -61.702 -41.929 -31.594  1.00  0.00     0.111 A 
ATOM     23  O   UNL     1     -63.984 -41.549 -31.044  1.00  0.00    -0.452 OA
ATOM     24  C   UNL     1     -61.346 -41.468 -30.308  1.00  0.00     0.197 A 
ATOM     25  C   UNL     1     -63.681 -41.118 -29.822  1.00  0.00     0.138 A 
ATOM     26  C   UNL     1     -62.339 -41.066 -29.419  1.00  0.00     0.100 A 
ATOM     27  O   UNL     1     -60.141 -41.404 -29.941  1.00  0.00    -0.289 OA
BRANCH  18  28
ATOM     28  O   UNL     1     -64.838 -42.518 -33.605  1.00  0.00    -0.490 OA
ATOM     29  C   UNL     1     -65.780 -43.500 -33.178  1.00  0.00     0.278 C 
ENDBRANCH  18  28
BRANCH  21  30
ATOM     30  O   UNL     1     -59.381 -42.320 -32.251  1.00  0.00    -0.507 OA
ATOM     31  H   UNL     1     -58.786 -41.556 -32.549  1.00  0.00     0.293 HD
ENDBRANCH  21  30
BRANCH  25  32
ATOM     32  C   UNL     1     -64.774 -40.697 -28.918  1.00  0.00     0.017 A 
ATOM     33  C   UNL     1     -66.122 -40.910 -29.255  1.00  0.00     0.012 A 
ATOM     34  C   UNL     1     -64.470 -40.038 -27.715  1.00  0.00     0.012 A 
ATOM     35  C   UNL     1     -67.141 -40.475 -28.401  1.00  0.00     0.001 A 
ATOM     36  C   UNL     1     -65.493 -39.608 -26.863  1.00  0.00     0.001 A 
ATOM     37  C   UNL     1     -66.827 -39.827 -27.206  1.00  0.00     0.000 A 
ENDBRANCH  25  32
ENDBRANCH   1  17
TORSDOF 9
ENDMDL
MODEL 4
REMARK VINA RESULT:    -7.865      1.755      2.833
REMARK INTER + INTRA:         -11.921
REMARK INTER:                 -10.685
REMARK INTRA:                  -1.236
REMARK UNBOUND:                -0.838
REMARK SMILES COc1c(O[C@@H]2O[C@H](C(=O)[O-])[C@@H](O)[C@@H](O)[C@@H]2O)cc(O)c2c(=O)cc(-c3ccccc3)oc12
REMARK SMILES IDX 5 1 6 2 8 3 12 4 7 5 14 6 16 7 9 8 10 9 11 10 13 11 15 13
REMARK SMILES IDX 17 15 4 17 3 18 18 19 33 20 19 21 21 22 32 23 22 24 25 25
REMARK SMILES IDX 24 26 23 27 2 28 1 29 20 30 26 32 27 33 31 34 28 35 30 36
REMARK SMILES IDX 29 37
REMARK H PARENT 13 12 15 14 17 16 20 31
REMARK Flexibility Score: inf
ROOT
ATOM      1  O   UNL     1     -62.999 -43.550 -35.265  1.00  0.00    -0.458 OA
ENDROOT
BRANCH   1   2
ATOM      2  C   UNL     1     -62.524 -44.738 -35.906  1.00  0.00     0.339 C 
ATOM      3  C   UNL     1     -61.944 -43.693 -37.972  1.00  0.00     0.199 C 
ATOM      4  C   UNL     1     -63.140 -44.352 -38.714  1.00  0.00     0.180 C 
ATOM      5  O   UNL     1     -61.497 -44.448 -36.849  1.00  0.00    -0.328 OA
ATOM      6  C   UNL     1     -64.267 -44.750 -37.739  1.00  0.00     0.181 C 
ATOM      7  C   UNL     1     -63.687 -45.520 -36.544  1.00  0.00     0.214 C 
BRANCH   3   8
ATOM      8  C   UNL     1     -62.152 -42.239 -37.623  1.00  0.00     0.073 C 
ATOM      9  O   UNL     1     -61.237 -41.605 -37.035  1.00  0.00    -0.547 OA
ATOM     10  O   UNL     1     -63.336 -41.582 -37.936  1.00  0.00    -0.547 OA
ENDBRANCH   3   8
BRANCH   4  11
ATOM     11  O   UNL     1     -62.714 -45.463 -39.470  1.00  0.00    -0.387 OA
ATOM     12  H   UNL     1     -62.332 -45.133 -40.326  1.00  0.00     0.211 HD
ENDBRANCH   4  11
BRANCH   6  13
ATOM     13  O   UNL     1     -65.222 -45.548 -38.390  1.00  0.00    -0.387 OA
ATOM     14  H   UNL     1     -65.019 -45.496 -39.362  1.00  0.00     0.211 HD
ENDBRANCH   6  13
BRANCH   7  15
ATOM     15  O   UNL     1     -64.686 -45.811 -35.594  1.00  0.00    -0.384 OA
ATOM     16  H   UNL     1     -65.122 -44.957 -35.333  1.00  0.00     0.211 HD
ENDBRANCH   7  15
ENDBRANCH   1   2
BRANCH   1  17
ATOM     17  C   UNL     1     -62.527 -43.039 -34.044  1.00  0.00     0.172 A 
ATOM     18  C   UNL     1     -63.471 -42.595 -33.109  1.00  0.00     0.205 A 
ATOM     19  C   UNL     1     -61.156 -42.966 -33.747  1.00  0.00     0.097 A 
ATOM     20  C   UNL     1     -63.036 -42.062 -31.871  1.00  0.00     0.188 A 
ATOM     21  C   UNL     1     -60.712 -42.454 -32.525  1.00  0.00     0.134 A 
ATOM     22  C   UNL     1     -61.650 -42.000 -31.572  1.00  0.00     0.111 A 
ATOM     23  O   UNL     1     -63.922 -41.617 -30.983  1.00  0.00    -0.452 OA
ATOM     24  C   UNL     1     -61.267 -41.473 -30.319  1.00  0.00     0.197 A 
ATOM     25  C   UNL     1     -63.593 -41.125 -29.791  1.00  0.00     0.138 A 
ATOM     26  C   UNL     1     -62.243 -41.039 -29.426  1.00  0.00     0.100 A 
ATOM     27  O   UNL     1     -60.055 -41.379 -29.987  1.00  0.00    -0.289 OA
BRANCH  18  28
ATOM     28  O   UNL     1     -64.828 -42.716 -33.472  1.00  0.00    -0.490 OA
ATOM     29  C   UNL     1     -65.738 -43.709 -33.004  1.00  0.00     0.278 C 
ENDBRANCH  18  28
BRANCH  21  30
ATOM     30  O   UNL     1     -59.342 -42.398 -32.268  1.00  0.00    -0.507 OA
ATOM     31  H   UNL     1     -58.663 -42.811 -32.897  1.00  0.00     0.293 HD
ENDBRANCH  21  30
BRANCH  25  32
ATOM     32  C   UNL     1     -64.669 -40.672 -28.881  1.00  0.00     0.017 A 
ATOM     33  C   UNL     1     -66.025 -40.847 -29.210  1.00  0.00     0.012 A 
ATOM     34  C   UNL     1     -64.339 -40.019 -27.681  1.00  0.00     0.012 A 
ATOM     35  C   UNL     1     -67.026 -40.383 -28.350  1.00  0.00     0.001 A 
ATOM     36  C   UNL     1     -65.344 -39.560 -26.824  1.00  0.00     0.001 A 
ATOM     37  C   UNL     1     -66.686 -39.741 -27.157  1.00  0.00     0.000 A 
ENDBRANCH  25  32
ENDBRANCH   1  17
TORSDOF 9
ENDMDL
MODEL 5
REMARK VINA RESULT:    -7.778      2.364      5.036
REMARK INTER + INTRA:         -11.799
REMARK INTER:                 -10.799
REMARK INTRA:                  -0.999
REMARK UNBOUND:                -0.838
REMARK SMILES COc1c(O[C@@H]2O[C@H](C(=O)[O-])[C@@H](O)[C@@H](O)[C@@H]2O)cc(O)c2c(=O)cc(-c3ccccc3)oc12
REMARK SMILES IDX 5 1 6 2 8 3 12 4 7 5 14 6 16 7 9 8 10 9 11 10 13 11 15 13
REMARK SMILES IDX 17 15 4 17 3 18 18 19 33 20 19 21 21 22 32 23 22 24 25 25
REMARK SMILES IDX 24 26 23 27 2 28 1 29 20 30 26 32 27 33 31 34 28 35 30 36
REMARK SMILES IDX 29 37
REMARK H PARENT 13 12 15 14 17 16 20 31
REMARK Flexibility Score: inf
ROOT
ATOM      1  O   UNL     1     -62.612 -42.890 -33.804  1.00  0.00    -0.458 OA
ENDROOT
BRANCH   1   2
ATOM      2  C   UNL     1     -61.547 -43.809 -33.542  1.00  0.00     0.339 C 
ATOM      3  C   UNL     1     -60.004 -42.853 -35.092  1.00  0.00     0.199 C 
ATOM      4  C   UNL     1     -60.148 -44.050 -36.073  1.00  0.00     0.180 C 
ATOM      5  O   UNL     1     -60.273 -43.203 -33.738  1.00  0.00    -0.328 OA
ATOM      6  C   UNL     1     -61.485 -44.794 -35.872  1.00  0.00     0.181 C 
ATOM      7  C   UNL     1     -61.709 -45.090 -34.382  1.00  0.00     0.214 C 
BRANCH   3   8
ATOM      8  C   UNL     1     -60.754 -41.611 -35.510  1.00  0.00     0.073 C 
ATOM      9  O   UNL     1     -61.408 -41.615 -36.586  1.00  0.00    -0.547 OA
ATOM     10  O   UNL     1     -60.738 -40.459 -34.733  1.00  0.00    -0.547 OA
ENDBRANCH   3   8
BRANCH   4  11
ATOM     11  O   UNL     1     -59.058 -44.935 -35.952  1.00  0.00    -0.387 OA
ATOM     12  H   UNL     1     -58.896 -45.104 -34.986  1.00  0.00     0.211 HD
ENDBRANCH   4  11
BRANCH   6  13
ATOM     13  O   UNL     1     -61.491 -45.998 -36.594  1.00  0.00    -0.387 OA
ATOM     14  H   UNL     1     -61.208 -45.774 -37.520  1.00  0.00     0.211 HD
ENDBRANCH   6  13
BRANCH   7  15
ATOM     15  O   UNL     1     -62.967 -45.685 -34.166  1.00  0.00    -0.384 OA
ATOM     16  H   UNL     1     -63.332 -45.966 -35.047  1.00  0.00     0.211 HD
ENDBRANCH   7  15
ENDBRANCH   1   2
BRANCH   1  17
ATOM     17  C   UNL     1     -63.717 -42.665 -32.966  1.00  0.00     0.172 A 
ATOM     18  C   UNL     1     -63.573 -41.740 -31.924  1.00  0.00     0.205 A 
ATOM     19  C   UNL     1     -64.939 -43.334 -33.148  1.00  0.00     0.097 A 
ATOM     20  C   UNL     1     -64.660 -41.493 -31.049  1.00  0.00     0.188 A 
ATOM     21  C   UNL     1     -66.023 -43.092 -32.300  1.00  0.00     0.134 A 
ATOM     22  C   UNL     1     -65.895 -42.165 -31.243  1.00  0.00     0.111 A 
ATOM     23  O   UNL     1     -64.529 -40.633 -30.042  1.00  0.00    -0.452 OA
ATOM     24  C   UNL     1     -66.952 -41.874 -30.354  1.00  0.00     0.197 A 
ATOM     25  C   UNL     1     -65.508 -40.331 -29.194  1.00  0.00     0.138 A 
ATOM     26  C   UNL     1     -66.758 -40.951 -29.329  1.00  0.00     0.100 A 
ATOM     27  O   UNL     1     -68.075 -42.437 -30.459  1.00  0.00    -0.289 OA
BRANCH  18  28
ATOM     28  O   UNL     1     -62.324 -41.097 -31.816  1.00  0.00    -0.490 OA
ATOM     29  C   UNL     1     -61.326 -41.357 -30.831  1.00  0.00     0.278 C 
ENDBRANCH  18  28
BRANCH  21  30
ATOM     30  O   UNL     1     -67.220 -43.777 -32.514  1.00  0.00    -0.507 OA
ATOM     31  H   UNL     1     -68.040 -43.611 -31.942  1.00  0.00     0.293 HD
ENDBRANCH  21  30
BRANCH  25  32
ATOM     32  C   UNL     1     -65.249 -39.348 -28.119  1.00  0.00     0.017 A 
ATOM     33  C   UNL     1     -64.433 -38.224 -28.340  1.00  0.00     0.012 A 
ATOM     34  C   UNL     1     -65.792 -39.552 -26.839  1.00  0.00     0.012 A 
ATOM     35  C   UNL     1     -64.174 -37.323 -27.301  1.00  0.00     0.001 A 
ATOM     36  C   UNL     1     -65.533 -38.646 -25.805  1.00  0.00     0.001 A 
ATOM     37  C   UNL     1     -64.725 -37.533 -26.036  1.00  0.00     0.000 A 
ENDBRANCH  25  32
ENDBRANCH   1  17
TORSDOF 9
ENDMDL
MODEL 6
REMARK VINA RESULT:    -7.753      4.055      6.700
REMARK INTER + INTRA:         -11.763
REMARK INTER:                 -10.555
REMARK INTRA:                  -1.208
REMARK UNBOUND:                -0.838
REMARK SMILES COc1c(O[C@@H]2O[C@H](C(=O)[O-])[C@@H](O)[C@@H](O)[C@@H]2O)cc(O)c2c(=O)cc(-c3ccccc3)oc12
REMARK SMILES IDX 5 1 6 2 8 3 12 4 7 5 14 6 16 7 9 8 10 9 11 10 13 11 15 13
REMARK SMILES IDX 17 15 4 17 3 18 18 19 33 20 19 21 21 22 32 23 22 24 25 25
REMARK SMILES IDX 24 26 23 27 2 28 1 29 20 30 26 32 27 33 31 34 28 35 30 36
REMARK SMILES IDX 29 37
REMARK H PARENT 13 12 15 14 17 16 20 31
REMARK Flexibility Score: inf
ROOT
ATOM      1  O   UNL     1     -65.293 -44.151 -40.517  1.00  0.00    -0.458 OA
ENDROOT
BRANCH   1   2
ATOM      2  C   UNL     1     -66.648 -44.451 -40.168  1.00  0.00     0.339 C 
ATOM      3  C   UNL     1     -67.270 -45.321 -42.302  1.00  0.00     0.199 C 
ATOM      4  C   UNL     1     -68.139 -44.074 -42.628  1.00  0.00     0.180 C 
ATOM      5  O   UNL     1     -67.144 -45.565 -40.904  1.00  0.00    -0.328 OA
ATOM      6  C   UNL     1     -67.694 -42.840 -41.814  1.00  0.00     0.181 C 
ATOM      7  C   UNL     1     -67.544 -43.209 -40.331  1.00  0.00     0.214 C 
BRANCH   3   8
ATOM      8  C   UNL     1     -65.932 -45.347 -42.999  1.00  0.00     0.073 C 
ATOM      9  O   UNL     1     -65.557 -44.343 -43.660  1.00  0.00    -0.547 OA
ATOM     10  O   UNL     1     -65.100 -46.459 -42.930  1.00  0.00    -0.547 OA
ENDBRANCH   3   8
BRANCH   4  11
ATOM     11  O   UNL     1     -69.507 -44.345 -42.422  1.00  0.00    -0.387 OA
ATOM     12  H   UNL     1     -69.860 -43.694 -41.759  1.00  0.00     0.211 HD
ENDBRANCH   4  11
BRANCH   6  13
ATOM     13  O   UNL     1     -68.631 -41.802 -41.945  1.00  0.00    -0.387 OA
ATOM     14  H   UNL     1     -69.327 -41.960 -41.253  1.00  0.00     0.211 HD
ENDBRANCH   6  13
BRANCH   7  15
ATOM     15  O   UNL     1     -67.048 -42.122 -39.586  1.00  0.00    -0.384 OA
ATOM     16  H   UNL     1     -66.545 -42.484 -38.808  1.00  0.00     0.211 HD
ENDBRANCH   7  15
ENDBRANCH   1   2
BRANCH   1  17
ATOM     17  C   UNL     1     -64.158 -44.558 -39.796  1.00  0.00     0.172 A 
ATOM     18  C   UNL     1     -63.714 -43.736 -38.752  1.00  0.00     0.205 A 
ATOM     19  C   UNL     1     -63.472 -45.747 -40.093  1.00  0.00     0.097 A 
ATOM     20  C   UNL     1     -62.566 -44.104 -38.007  1.00  0.00     0.188 A 
ATOM     21  C   UNL     1     -62.345 -46.129 -39.360  1.00  0.00     0.134 A 
ATOM     22  C   UNL     1     -61.883 -45.312 -38.306  1.00  0.00     0.111 A 
ATOM     23  O   UNL     1     -62.122 -43.321 -37.027  1.00  0.00    -0.452 OA
ATOM     24  C   UNL     1     -60.753 -45.642 -37.527  1.00  0.00     0.197 A 
ATOM     25  C   UNL     1     -61.067 -43.609 -36.269  1.00  0.00     0.138 A 
ATOM     26  C   UNL     1     -60.347 -44.789 -36.503  1.00  0.00     0.100 A 
ATOM     27  O   UNL     1     -60.091 -46.694 -37.738  1.00  0.00    -0.289 OA
BRANCH  18  28
ATOM     28  O   UNL     1     -64.464 -42.569 -38.502  1.00  0.00    -0.490 OA
ATOM     29  C   UNL     1     -64.054 -41.231 -38.779  1.00  0.00     0.278 C 
ENDBRANCH  18  28
BRANCH  21  30
ATOM     30  O   UNL     1     -61.691 -47.318 -39.688  1.00  0.00    -0.507 OA
ATOM     31  H   UNL     1     -61.779 -47.741 -40.605  1.00  0.00     0.293 HD
ENDBRANCH  21  30
BRANCH  25  32
ATOM     32  C   UNL     1     -60.674 -42.667 -35.198  1.00  0.00     0.017 A 
ATOM     33  C   UNL     1     -60.288 -43.128 -33.927  1.00  0.00     0.012 A 
ATOM     34  C   UNL     1     -60.720 -41.283 -35.434  1.00  0.00     0.012 A 
ATOM     35  C   UNL     1     -59.952 -42.219 -32.918  1.00  0.00     0.001 A 
ATOM     36  C   UNL     1     -60.380 -40.379 -34.423  1.00  0.00     0.001 A 
ATOM     37  C   UNL     1     -59.996 -40.846 -33.166  1.00  0.00     0.000 A 
ENDBRANCH  25  32
ENDBRANCH   1  17
TORSDOF 9
ENDMDL
MODEL 7
REMARK VINA RESULT:    -7.741      3.897      6.038
REMARK INTER + INTRA:         -11.746
REMARK INTER:                 -10.259
REMARK INTRA:                  -1.487
REMARK UNBOUND:                -0.838
REMARK SMILES COc1c(O[C@@H]2O[C@H](C(=O)[O-])[C@@H](O)[C@@H](O)[C@@H]2O)cc(O)c2c(=O)cc(-c3ccccc3)oc12
REMARK SMILES IDX 5 1 6 2 8 3 12 4 7 5 14 6 16 7 9 8 10 9 11 10 13 11 15 13
REMARK SMILES IDX 17 15 4 17 3 18 18 19 33 20 19 21 21 22 32 23 22 24 25 25
REMARK SMILES IDX 24 26 23 27 2 28 1 29 20 30 26 32 27 33 31 34 28 35 30 36
REMARK SMILES IDX 29 37
REMARK H PARENT 13 12 15 14 17 16 20 31
REMARK Flexibility Score: inf
ROOT
ATOM      1  O   UNL     1     -63.700 -45.139 -40.184  1.00  0.00    -0.458 OA
ENDROOT
BRANCH   1   2
ATOM      2  C   UNL     1     -65.015 -45.700 -40.157  1.00  0.00     0.339 C 
ATOM      3  C   UNL     1     -64.939 -46.625 -42.356  1.00  0.00     0.199 C 
ATOM      4  C   UNL     1     -65.928 -45.561 -42.907  1.00  0.00     0.180 C 
ATOM      5  O   UNL     1     -65.101 -46.871 -40.962  1.00  0.00    -0.328 OA
ATOM      6  C   UNL     1     -65.932 -44.283 -42.042  1.00  0.00     0.181 C 
ATOM      7  C   UNL     1     -66.068 -44.649 -40.557  1.00  0.00     0.214 C 
BRANCH   3   8
ATOM      8  C   UNL     1     -63.494 -46.379 -42.718  1.00  0.00     0.073 C 
ATOM      9  O   UNL     1     -62.626 -47.244 -42.429  1.00  0.00    -0.547 OA
ATOM     10  O   UNL     1     -63.097 -45.213 -43.362  1.00  0.00    -0.547 OA
ENDBRANCH   3   8
BRANCH   4  11
ATOM     11  O   UNL     1     -67.228 -46.093 -43.024  1.00  0.00    -0.387 OA
ATOM     12  H   UNL     1     -67.793 -45.701 -42.306  1.00  0.00     0.211 HD
ENDBRANCH   4  11
BRANCH   6  13
ATOM     13  O   UNL     1     -66.992 -43.440 -42.415  1.00  0.00    -0.387 OA
ATOM     14  H   UNL     1     -66.598 -42.540 -42.566  1.00  0.00     0.211 HD
ENDBRANCH   6  13
BRANCH   7  15
ATOM     15  O   UNL     1     -65.979 -43.504 -39.742  1.00  0.00    -0.384 OA
ATOM     16  H   UNL     1     -66.327 -42.729 -40.259  1.00  0.00     0.211 HD
ENDBRANCH   7  15
ENDBRANCH   1   2
BRANCH   1  17
ATOM     17  C   UNL     1     -62.713 -45.328 -39.201  1.00  0.00     0.172 A 
ATOM     18  C   UNL     1     -62.525 -44.311 -38.256  1.00  0.00     0.205 A 
ATOM     19  C   UNL     1     -61.929 -46.492 -39.146  1.00  0.00     0.097 A 
ATOM     20  C   UNL     1     -61.534 -44.457 -37.255  1.00  0.00     0.188 A 
ATOM     21  C   UNL     1     -60.955 -46.655 -38.157  1.00  0.00     0.134 A 
ATOM     22  C   UNL     1     -60.750 -45.639 -37.199  1.00  0.00     0.111 A 
ATOM     23  O   UNL     1     -61.330 -43.489 -36.364  1.00  0.00    -0.452 OA
ATOM     24  C   UNL     1     -59.785 -45.744 -36.174  1.00  0.00     0.197 A 
ATOM     25  C   UNL     1     -60.435 -43.562 -35.382  1.00  0.00     0.138 A 
ATOM     26  C   UNL     1     -59.631 -44.703 -35.261  1.00  0.00     0.100 A 
ATOM     27  O   UNL     1     -59.047 -46.760 -36.065  1.00  0.00    -0.289 OA
BRANCH  18  28
ATOM     28  O   UNL     1     -63.362 -43.182 -38.365  1.00  0.00    -0.490 OA
ATOM     29  C   UNL     1     -63.000 -41.917 -38.917  1.00  0.00     0.278 C 
ENDBRANCH  18  28
BRANCH  21  30
ATOM     30  O   UNL     1     -60.195 -47.826 -38.137  1.00  0.00    -0.507 OA
ATOM     31  H   UNL     1     -60.497 -48.649 -37.629  1.00  0.00     0.293 HD
ENDBRANCH  21  30
BRANCH  25  32
ATOM     32  C   UNL     1     -60.308 -42.426 -34.442  1.00  0.00     0.017 A 
ATOM     33  C   UNL     1     -60.514 -41.101 -34.867  1.00  0.00     0.012 A 
ATOM     34  C   UNL     1     -59.937 -42.662 -33.108  1.00  0.00     0.012 A 
ATOM     35  C   UNL     1     -60.357 -40.039 -33.970  1.00  0.00     0.001 A 
ATOM     36  C   UNL     1     -59.785 -41.597 -32.215  1.00  0.00     0.001 A 
ATOM     37  C   UNL     1     -59.995 -40.287 -32.645  1.00  0.00     0.000 A 
ENDBRANCH  25  32
ENDBRANCH   1  17
TORSDOF 9
ENDMDL
MODEL 8
REMARK VINA RESULT:    -7.601      3.488      8.167
REMARK INTER + INTRA:         -11.549
REMARK INTER:                 -10.637
REMARK INTRA:                  -0.912
REMARK UNBOUND:                -0.838
REMARK SMILES COc1c(O[C@@H]2O[C@H](C(=O)[O-])[C@@H](O)[C@@H](O)[C@@H]2O)cc(O)c2c(=O)cc(-c3ccccc3)oc12
REMARK SMILES IDX 5 1 6 2 8 3 12 4 7 5 14 6 16 7 9 8 10 9 11 10 13 11 15 13
REMARK SMILES IDX 17 15 4 17 3 18 18 19 33 20 19 21 21 22 32 23 22 24 25 25
REMARK SMILES IDX 24 26 23 27 2 28 1 29 20 30 26 32 27 33 31 34 28 35 30 36
REMARK SMILES IDX 29 37
REMARK H PARENT 13 12 15 14 17 16 20 31
REMARK Flexibility Score: inf
ROOT
ATOM      1  O   UNL     1     -63.086 -42.849 -34.680  1.00  0.00    -0.458 OA
ENDROOT
BRANCH   1   2
ATOM      2  C   UNL     1     -62.619 -41.557 -34.282  1.00  0.00     0.339 C 
ATOM      3  C   UNL     1     -60.303 -42.133 -34.231  1.00  0.00     0.199 C 
ATOM      4  C   UNL     1     -60.262 -42.093 -32.678  1.00  0.00     0.180 C 
ATOM      5  O   UNL     1     -61.314 -41.294 -34.785  1.00  0.00    -0.328 OA
ATOM      6  C   UNL     1     -61.661 -42.309 -32.064  1.00  0.00     0.181 C 
ATOM      7  C   UNL     1     -62.688 -41.397 -32.751  1.00  0.00     0.214 C 
BRANCH   3   8
ATOM      8  C   UNL     1     -60.343 -43.523 -34.818  1.00  0.00     0.073 C 
ATOM      9  O   UNL     1     -60.330 -43.669 -36.069  1.00  0.00    -0.547 OA
ATOM     10  O   UNL     1     -60.397 -44.650 -34.007  1.00  0.00    -0.547 OA
ENDBRANCH   3   8
BRANCH   4  11
ATOM     11  O   UNL     1     -59.693 -40.888 -32.219  1.00  0.00    -0.387 OA
ATOM     12  H   UNL     1     -59.070 -40.550 -32.915  1.00  0.00     0.211 HD
ENDBRANCH   4  11
BRANCH   6  13
ATOM     13  O   UNL     1     -61.641 -42.036 -30.687  1.00  0.00    -0.387 OA
ATOM     14  H   UNL     1     -61.936 -42.868 -30.229  1.00  0.00     0.211 HD
ENDBRANCH   6  13
BRANCH   7  15
ATOM     15  O   UNL     1     -63.989 -41.646 -32.271  1.00  0.00    -0.384 OA
ATOM     16  H   UNL     1     -63.928 -41.835 -31.297  1.00  0.00     0.211 HD
ENDBRANCH   7  15
ENDBRANCH   1   2
BRANCH   1  17
ATOM     17  C   UNL     1     -64.338 -43.119 -35.261  1.00  0.00     0.172 A 
ATOM     18  C   UNL     1     -64.530 -42.758 -36.601  1.00  0.00     0.205 A 
ATOM     19  C   UNL     1     -65.377 -43.730 -34.541  1.00  0.00     0.097 A 
ATOM     20  C   UNL     1     -65.781 -43.002 -37.221  1.00  0.00     0.188 A 
ATOM     21  C   UNL     1     -66.612 -43.988 -35.143  1.00  0.00     0.134 A 
ATOM     22  C   UNL     1     -66.825 -43.629 -36.492  1.00  0.00     0.111 A 
ATOM     23  O   UNL     1     -65.984 -42.645 -38.487  1.00  0.00    -0.452 OA
ATOM     24  C   UNL     1     -68.048 -43.863 -37.157  1.00  0.00     0.197 A 
ATOM     25  C   UNL     1     -67.121 -42.860 -39.144  1.00  0.00     0.138 A 
ATOM     26  C   UNL     1     -68.193 -43.481 -38.489  1.00  0.00     0.100 A 
ATOM     27  O   UNL     1     -69.023 -44.408 -36.572  1.00  0.00    -0.289 OA
BRANCH  18  28
ATOM     28  O   UNL     1     -63.435 -42.166 -37.262  1.00  0.00    -0.490 OA
ATOM     29  C   UNL     1     -62.666 -42.754 -38.309  1.00  0.00     0.278 C 
ENDBRANCH  18  28
BRANCH  21  30
ATOM     30  O   UNL     1     -67.621 -44.596 -34.393  1.00  0.00    -0.507 OA
ATOM     31  H   UNL     1     -68.099 -45.428 -34.718  1.00  0.00     0.293 HD
ENDBRANCH  21  30
BRANCH  25  32
ATOM     32  C   UNL     1     -67.226 -42.430 -40.556  1.00  0.00     0.017 A 
ATOM     33  C   UNL     1     -67.101 -41.077 -40.917  1.00  0.00     0.012 A 
ATOM     34  C   UNL     1     -67.492 -43.379 -41.557  1.00  0.00     0.012 A 
ATOM     35  C   UNL     1     -67.235 -40.687 -42.254  1.00  0.00     0.001 A 
ATOM     36  C   UNL     1     -67.622 -42.985 -42.893  1.00  0.00     0.001 A 
ATOM     37  C   UNL     1     -67.494 -41.640 -43.241  1.00  0.00     0.000 A 
ENDBRANCH  25  32
ENDBRANCH   1  17
TORSDOF 9
ENDMDL
MODEL 9
REMARK VINA RESULT:    -7.559      4.074      7.028
REMARK INTER + INTRA:         -11.490
REMARK INTER:                 -10.657
REMARK INTRA:                  -0.833
REMARK UNBOUND:                -0.838
REMARK SMILES COc1c(O[C@@H]2O[C@H](C(=O)[O-])[C@@H](O)[C@@H](O)[C@@H]2O)cc(O)c2c(=O)cc(-c3ccccc3)oc12
REMARK SMILES IDX 5 1 6 2 8 3 12 4 7 5 14 6 16 7 9 8 10 9 11 10 13 11 15 13
REMARK SMILES IDX 17 15 4 17 3 18 18 19 33 20 19 21 21 22 32 23 22 24 25 25
REMARK SMILES IDX 24 26 23 27 2 28 1 29 20 30 26 32 27 33 31 34 28 35 30 36
REMARK SMILES IDX 29 37
REMARK H PARENT 13 12 15 14 17 16 20 31
REMARK Flexibility Score: inf
ROOT
ATOM      1  O   UNL     1     -65.518 -44.191 -40.505  1.00  0.00    -0.458 OA
ENDROOT
BRANCH   1   2
ATOM      2  C   UNL     1     -65.959 -44.663 -41.781  1.00  0.00     0.339 C 
ATOM      3  C   UNL     1     -67.543 -42.917 -42.159  1.00  0.00     0.199 C 
ATOM      4  C   UNL     1     -68.747 -43.872 -41.929  1.00  0.00     0.180 C 
ATOM      5  O   UNL     1     -66.375 -43.590 -42.621  1.00  0.00    -0.328 OA
ATOM      6  C   UNL     1     -68.350 -45.095 -41.076  1.00  0.00     0.181 C 
ATOM      7  C   UNL     1     -67.062 -45.727 -41.621  1.00  0.00     0.214 C 
BRANCH   3   8
ATOM      8  C   UNL     1     -67.241 -42.004 -40.996  1.00  0.00     0.073 C 
ATOM      9  O   UNL     1     -66.601 -40.938 -41.193  1.00  0.00    -0.547 OA
ATOM     10  O   UNL     1     -67.655 -42.314 -39.705  1.00  0.00    -0.547 OA
ENDBRANCH   3   8
BRANCH   4  11
ATOM     11  O   UNL     1     -69.311 -44.278 -43.156  1.00  0.00    -0.387 OA
ATOM     12  H   UNL     1     -68.645 -44.117 -43.876  1.00  0.00     0.211 HD
ENDBRANCH   4  11
BRANCH   6  13
ATOM     13  O   UNL     1     -69.378 -46.052 -41.080  1.00  0.00    -0.387 OA
ATOM     14  H   UNL     1     -69.193 -46.662 -41.843  1.00  0.00     0.211 HD
ENDBRANCH   6  13
BRANCH   7  15
ATOM     15  O   UNL     1     -66.630 -46.788 -40.801  1.00  0.00    -0.384 OA
ATOM     16  H   UNL     1     -67.430 -47.190 -40.369  1.00  0.00     0.211 HD
ENDBRANCH   7  15
ENDBRANCH   1   2
BRANCH   1  17
ATOM     17  C   UNL     1     -64.334 -44.584 -39.857  1.00  0.00     0.172 A 
ATOM     18  C   UNL     1     -63.880 -43.801 -38.788  1.00  0.00     0.205 A 
ATOM     19  C   UNL     1     -63.611 -45.722 -40.251  1.00  0.00     0.097 A 
ATOM     20  C   UNL     1     -62.685 -44.156 -38.115  1.00  0.00     0.188 A 
ATOM     21  C   UNL     1     -62.437 -46.092 -39.590  1.00  0.00     0.134 A 
ATOM     22  C   UNL     1     -61.964 -45.313 -38.512  1.00  0.00     0.111 A 
ATOM     23  O   UNL     1     -62.231 -43.408 -37.112  1.00  0.00    -0.452 OA
ATOM     24  C   UNL     1     -60.786 -45.632 -37.802  1.00  0.00     0.197 A 
ATOM     25  C   UNL     1     -61.131 -43.689 -36.418  1.00  0.00     0.138 A 
ATOM     26  C   UNL     1     -60.372 -44.819 -36.749  1.00  0.00     0.100 A 
ATOM     27  O   UNL     1     -60.089 -46.639 -38.101  1.00  0.00    -0.289 OA
BRANCH  18  28
ATOM     28  O   UNL     1     -64.668 -42.685 -38.440  1.00  0.00    -0.490 OA
ATOM     29  C   UNL     1     -64.341 -41.318 -38.679  1.00  0.00     0.278 C 
ENDBRANCH  18  28
BRANCH  21  30
ATOM     30  O   UNL     1     -61.747 -47.229 -40.012  1.00  0.00    -0.507 OA
ATOM     31  H   UNL     1     -61.505 -47.976 -39.371  1.00  0.00     0.293 HD
ENDBRANCH  21  30
BRANCH  25  32
ATOM     32  C   UNL     1     -60.732 -42.790 -35.312  1.00  0.00     0.017 A 
ATOM     33  C   UNL     1     -60.336 -43.300 -34.064  1.00  0.00     0.012 A 
ATOM     34  C   UNL     1     -60.782 -41.397 -35.492  1.00  0.00     0.012 A 
ATOM     35  C   UNL     1     -59.993 -42.432 -33.021  1.00  0.00     0.001 A 
ATOM     36  C   UNL     1     -60.435 -40.534 -34.448  1.00  0.00     0.001 A 
ATOM     37  C   UNL     1     -60.041 -41.051 -33.214  1.00  0.00     0.000 A 
ENDBRANCH  25  32
ENDBRANCH   1  17
TORSDOF 9
ENDMDL
