MODEL 1
REMARK VINA RESULT:    -5.515      0.000      0.000
REMARK INTER + INTRA:          -6.558
REMARK INTER:                  -5.999
REMARK INTRA:                  -0.559
REMARK UNBOUND:                -0.559
REMARK SMILES C=C(C)[C@H]1CC[C@@]2(C)CC[C@]3(C)[C@@H](CC[C@@H]4[C@]5(C)CC[C@@H](O)C(C)(C)[C@@H]5CC[C@]43C)[C@H]12
REMARK SMILES IDX 4 1 5 2 6 3 7 4 31 5 13 6 14 7 15 8 16 9 17 10 19 11 20 12
REMARK SMILES IDX 21 13 23 14 26 15 27 16 28 17 29 18 11 19 10 20 9 21 12 22
REMARK SMILES IDX 30 23 24 24 25 25 18 26 8 27 2 28 3 29 1 30 22 31
REMARK H PARENT 22 32
REMARK Flexibility Score: inf
ROOT
ATOM      1  C   UNL     1       5.233 -58.166 198.811  1.00  0.00     0.018 C 
ATOM      2  C   UNL     1       4.763 -59.270 199.786  1.00  0.00     0.009 C 
ATOM      3  C   UNL     1       5.866 -59.416 200.840  1.00  0.00     0.008 C 
ATOM      4  C   UNL     1       6.646 -58.098 200.776  1.00  0.00    -0.029 C 
ATOM      5  C   UNL     1       6.666 -57.810 199.276  1.00  0.00     0.006 C 
ATOM      6  C   UNL     1       7.228 -56.398 198.945  1.00  0.00    -0.000 C 
ATOM      7  C   UNL     1       7.194 -56.189 197.407  1.00  0.00     0.005 C 
ATOM      8  C   UNL     1       8.204 -55.207 196.814  1.00  0.00     0.005 C 
ATOM      9  C   UNL     1       9.668 -55.269 197.364  1.00  0.00     0.002 C 
ATOM     10  C   UNL     1      10.817 -55.111 196.264  1.00  0.00    -0.026 C 
ATOM     11  C   UNL     1      10.815 -56.293 195.244  1.00  0.00     0.010 C 
ATOM     12  C   UNL     1      11.985 -56.267 194.254  1.00  0.00     0.033 C 
ATOM     13  C   UNL     1      13.342 -56.232 194.978  1.00  0.00     0.120 C 
ATOM     14  C   UNL     1      13.492 -55.023 195.959  1.00  0.00    -0.006 C 
ATOM     15  C   UNL     1      12.241 -54.974 196.962  1.00  0.00     0.003 C 
ATOM     16  C   UNL     1      12.413 -55.982 198.131  1.00  0.00     0.005 C 
ATOM     17  C   UNL     1      11.269 -55.990 199.155  1.00  0.00     0.008 C 
ATOM     18  C   UNL     1       9.861 -56.300 198.549  1.00  0.00    -0.024 C 
ATOM     19  C   UNL     1       8.653 -56.097 199.625  1.00  0.00    -0.024 C 
ATOM     20  C   UNL     1       8.893 -56.923 200.982  1.00  0.00     0.008 C 
ATOM     21  C   UNL     1       8.097 -58.224 201.236  1.00  0.00     0.007 C 
ATOM     22  C   UNL     1       8.571 -54.599 200.094  1.00  0.00     0.012 C 
ATOM     23  C   UNL     1       9.880 -57.789 198.075  1.00  0.00     0.012 C 
ATOM     24  C   UNL     1      13.657 -53.677 195.186  1.00  0.00     0.014 C 
ATOM     25  C   UNL     1      14.829 -55.214 196.736  1.00  0.00     0.014 C 
ATOM     26  C   UNL     1      10.505 -53.781 195.495  1.00  0.00     0.012 C 
ATOM     27  C   UNL     1       5.886 -57.041 201.635  1.00  0.00     0.011 C 
ENDROOT
BRANCH   1  28
ATOM     28  C   UNL     1       5.133 -58.618 197.356  1.00  0.00    -0.077 C 
ATOM     29  C   UNL     1       4.127 -57.976 196.434  1.00  0.00     0.039 C 
ATOM     30  C   UNL     1       5.911 -59.602 196.871  1.00  0.00     0.008 C 
ENDBRANCH   1  28
BRANCH  13  31
ATOM     31  O   UNL     1      14.405 -56.288 194.054  1.00  0.00    -0.393 OA
ATOM     32  H   UNL     1      15.135 -56.832 194.450  1.00  0.00     0.210 HD
ENDBRANCH  13  31
TORSDOF 2
ENDMDL
MODEL 2
REMARK VINA RESULT:    -5.364      2.452      7.930
REMARK INTER + INTRA:          -6.394
REMARK INTER:                  -5.844
REMARK INTRA:                  -0.549
REMARK UNBOUND:                -0.559
REMARK SMILES C=C(C)[C@H]1CC[C@@]2(C)CC[C@]3(C)[C@@H](CC[C@@H]4[C@]5(C)CC[C@@H](O)C(C)(C)[C@@H]5CC[C@]43C)[C@H]12
REMARK SMILES IDX 4 1 5 2 6 3 7 4 31 5 13 6 14 7 15 8 16 9 17 10 19 11 20 12
REMARK SMILES IDX 21 13 23 14 26 15 27 16 28 17 29 18 11 19 10 20 9 21 12 22
REMARK SMILES IDX 30 23 24 24 25 25 18 26 8 27 2 28 3 29 1 30 22 31
REMARK H PARENT 22 32
REMARK Flexibility Score: inf
ROOT
ATOM      1  C   UNL     1      13.916 -53.435 194.769  1.00  0.00     0.018 C 
ATOM      2  C   UNL     1      14.530 -53.767 193.389  1.00  0.00     0.009 C 
ATOM      3  C   UNL     1      13.470 -54.566 192.623  1.00  0.00     0.008 C 
ATOM      4  C   UNL     1      12.146 -54.227 193.319  1.00  0.00    -0.029 C 
ATOM      5  C   UNL     1      12.559 -54.180 194.789  1.00  0.00     0.006 C 
ATOM      6  C   UNL     1      11.427 -53.644 195.711  1.00  0.00    -0.000 C 
ATOM      7  C   UNL     1      11.942 -53.615 197.176  1.00  0.00     0.005 C 
ATOM      8  C   UNL     1      10.895 -53.722 198.285  1.00  0.00     0.005 C 
ATOM      9  C   UNL     1       9.749 -54.768 198.087  1.00  0.00     0.002 C 
ATOM     10  C   UNL     1       9.340 -55.588 199.397  1.00  0.00    -0.026 C 
ATOM     11  C   UNL     1      10.505 -56.492 199.907  1.00  0.00     0.010 C 
ATOM     12  C   UNL     1      10.122 -57.407 201.076  1.00  0.00     0.033 C 
ATOM     13  C   UNL     1       8.913 -58.294 200.731  1.00  0.00     0.120 C 
ATOM     14  C   UNL     1       7.649 -57.482 200.297  1.00  0.00    -0.006 C 
ATOM     15  C   UNL     1       8.033 -56.456 199.126  1.00  0.00     0.003 C 
ATOM     16  C   UNL     1       8.086 -57.166 197.746  1.00  0.00     0.005 C 
ATOM     17  C   UNL     1       8.427 -56.254 196.559  1.00  0.00     0.008 C 
ATOM     18  C   UNL     1       9.795 -55.509 196.689  1.00  0.00    -0.024 C 
ATOM     19  C   UNL     1      10.024 -54.401 195.515  1.00  0.00    -0.024 C 
ATOM     20  C   UNL     1       9.840 -55.019 194.042  1.00  0.00     0.008 C 
ATOM     21  C   UNL     1      11.085 -55.317 193.177  1.00  0.00     0.007 C 
ATOM     22  C   UNL     1       8.936 -53.269 195.597  1.00  0.00     0.012 C 
ATOM     23  C   UNL     1      10.920 -56.590 196.599  1.00  0.00     0.012 C 
ATOM     24  C   UNL     1       7.000 -56.745 201.511  1.00  0.00     0.014 C 
ATOM     25  C   UNL     1       6.575 -58.506 199.820  1.00  0.00     0.014 C 
ATOM     26  C   UNL     1       9.013 -54.518 200.496  1.00  0.00     0.012 C 
ATOM     27  C   UNL     1      11.626 -52.875 192.741  1.00  0.00     0.011 C 
ENDROOT
BRANCH   1  28
ATOM     28  C   UNL     1      14.859 -53.806 195.910  1.00  0.00    -0.077 C 
ATOM     29  C   UNL     1      14.963 -55.239 196.367  1.00  0.00     0.039 C 
ATOM     30  C   UNL     1      15.594 -52.876 196.545  1.00  0.00     0.008 C 
ENDBRANCH   1  28
BRANCH  13  31
ATOM     31  O   UNL     1       8.625 -59.182 201.787  1.00  0.00    -0.393 OA
ATOM     32  H   UNL     1       7.744 -59.604 201.609  1.00  0.00     0.210 HD
ENDBRANCH  13  31
TORSDOF 2
ENDMDL
MODEL 3
REMARK VINA RESULT:    -5.077      2.140      3.382
REMARK INTER + INTRA:          -6.081
REMARK INTER:                  -5.526
REMARK INTRA:                  -0.556
REMARK UNBOUND:                -0.559
REMARK SMILES C=C(C)[C@H]1CC[C@@]2(C)CC[C@]3(C)[C@@H](CC[C@@H]4[C@]5(C)CC[C@@H](O)C(C)(C)[C@@H]5CC[C@]43C)[C@H]12
REMARK SMILES IDX 4 1 5 2 6 3 7 4 31 5 13 6 14 7 15 8 16 9 17 10 19 11 20 12
REMARK SMILES IDX 21 13 23 14 26 15 27 16 28 17 29 18 11 19 10 20 9 21 12 22
REMARK SMILES IDX 30 23 24 24 25 25 18 26 8 27 2 28 3 29 1 30 22 31
REMARK H PARENT 22 32
REMARK Flexibility Score: inf
ROOT
ATOM      1  C   UNL     1       5.256 -56.024 194.462  1.00  0.00     0.018 C 
ATOM      2  C   UNL     1       4.210 -56.993 195.062  1.00  0.00     0.009 C 
ATOM      3  C   UNL     1       4.705 -57.350 196.468  1.00  0.00     0.008 C 
ATOM      4  C   UNL     1       5.676 -56.222 196.839  1.00  0.00    -0.029 C 
ATOM      5  C   UNL     1       6.391 -55.967 195.513  1.00  0.00     0.006 C 
ATOM      6  C   UNL     1       7.302 -54.707 195.558  1.00  0.00    -0.000 C 
ATOM      7  C   UNL     1       7.969 -54.517 194.169  1.00  0.00     0.005 C 
ATOM      8  C   UNL     1       9.305 -53.775 194.134  1.00  0.00     0.005 C 
ATOM      9  C   UNL     1      10.350 -54.130 195.243  1.00  0.00     0.002 C 
ATOM     10  C   UNL     1      11.866 -54.230 194.744  1.00  0.00    -0.026 C 
ATOM     11  C   UNL     1      12.072 -55.400 193.732  1.00  0.00     0.010 C 
ATOM     12  C   UNL     1      13.533 -55.632 193.331  1.00  0.00     0.033 C 
ATOM     13  C   UNL     1      14.429 -55.868 194.561  1.00  0.00     0.120 C 
ATOM     14  C   UNL     1      14.375 -54.703 195.602  1.00  0.00    -0.006 C 
ATOM     15  C   UNL     1      12.852 -54.381 195.985  1.00  0.00     0.003 C 
ATOM     16  C   UNL     1      12.308 -55.386 197.037  1.00  0.00     0.005 C 
ATOM     17  C   UNL     1      10.859 -55.142 197.481  1.00  0.00     0.008 C 
ATOM     18  C   UNL     1       9.815 -55.162 196.317  1.00  0.00    -0.024 C 
ATOM     19  C   UNL     1       8.327 -54.698 196.795  1.00  0.00    -0.024 C 
ATOM     20  C   UNL     1       7.799 -55.536 198.060  1.00  0.00     0.008 C 
ATOM     21  C   UNL     1       6.737 -56.640 197.856  1.00  0.00     0.007 C 
ATOM     22  C   UNL     1       8.344 -53.209 197.299  1.00  0.00     0.012 C 
ATOM     23  C   UNL     1       9.747 -56.629 195.783  1.00  0.00     0.012 C 
ATOM     24  C   UNL     1      15.112 -53.431 195.075  1.00  0.00     0.014 C 
ATOM     25  C   UNL     1      15.187 -55.156 196.853  1.00  0.00     0.014 C 
ATOM     26  C   UNL     1      12.176 -52.875 194.019  1.00  0.00     0.012 C 
ATOM     27  C   UNL     1       4.842 -55.019 197.376  1.00  0.00     0.011 C 
ENDROOT
BRANCH   1  28
ATOM     28  C   UNL     1       5.702 -56.467 193.071  1.00  0.00    -0.077 C 
ATOM     29  C   UNL     1       6.526 -57.718 192.905  1.00  0.00     0.039 C 
ATOM     30  C   UNL     1       5.397 -55.750 191.975  1.00  0.00     0.008 C 
ENDBRANCH   1  28
BRANCH  13  31
ATOM     31  O   UNL     1      15.752 -56.156 194.168  1.00  0.00    -0.393 OA
ATOM     32  H   UNL     1      16.362 -55.538 194.649  1.00  0.00     0.210 HD
ENDBRANCH  13  31
TORSDOF 2
ENDMDL
MODEL 4
REMARK VINA RESULT:    -4.956      3.308      7.634
REMARK INTER + INTRA:          -5.950
REMARK INTER:                  -5.410
REMARK INTRA:                  -0.539
REMARK UNBOUND:                -0.559
REMARK SMILES C=C(C)[C@H]1CC[C@@]2(C)CC[C@]3(C)[C@@H](CC[C@@H]4[C@]5(C)CC[C@@H](O)C(C)(C)[C@@H]5CC[C@]43C)[C@H]12
REMARK SMILES IDX 4 1 5 2 6 3 7 4 31 5 13 6 14 7 15 8 16 9 17 10 19 11 20 12
REMARK SMILES IDX 21 13 23 14 26 15 27 16 28 17 29 18 11 19 10 20 9 21 12 22
REMARK SMILES IDX 30 23 24 24 25 25 18 26 8 27 2 28 3 29 1 30 22 31
REMARK H PARENT 22 32
REMARK Flexibility Score: inf
ROOT
ATOM      1  C   UNL     1      11.371 -55.447 197.937  1.00  0.00     0.018 C 
ATOM      2  C   UNL     1      12.850 -55.848 197.729  1.00  0.00     0.009 C 
ATOM      3  C   UNL     1      13.083 -55.875 196.214  1.00  0.00     0.008 C 
ATOM      4  C   UNL     1      11.961 -55.008 195.631  1.00  0.00    -0.029 C 
ATOM      5  C   UNL     1      10.772 -55.387 196.511  1.00  0.00     0.006 C 
ATOM      6  C   UNL     1       9.531 -54.484 196.261  1.00  0.00    -0.000 C 
ATOM      7  C   UNL     1       8.384 -54.929 197.209  1.00  0.00     0.005 C 
ATOM      8  C   UNL     1       6.953 -54.640 196.755  1.00  0.00     0.005 C 
ATOM      9  C   UNL     1       6.611 -54.913 195.253  1.00  0.00     0.002 C 
ATOM     10  C   UNL     1       5.183 -55.583 194.989  1.00  0.00    -0.026 C 
ATOM     11  C   UNL     1       5.091 -57.017 195.597  1.00  0.00     0.010 C 
ATOM     12  C   UNL     1       3.796 -57.761 195.251  1.00  0.00     0.033 C 
ATOM     13  C   UNL     1       3.578 -57.846 193.730  1.00  0.00     0.120 C 
ATOM     14  C   UNL     1       3.555 -56.450 193.026  1.00  0.00    -0.006 C 
ATOM     15  C   UNL     1       4.861 -55.611 193.430  1.00  0.00     0.003 C 
ATOM     16  C   UNL     1       6.094 -56.046 192.592  1.00  0.00     0.005 C 
ATOM     17  C   UNL     1       7.390 -55.280 192.897  1.00  0.00     0.008 C 
ATOM     18  C   UNL     1       7.855 -55.367 194.387  1.00  0.00    -0.024 C 
ATOM     19  C   UNL     1       9.111 -54.380 194.714  1.00  0.00    -0.024 C 
ATOM     20  C   UNL     1      10.345 -54.601 193.708  1.00  0.00     0.008 C 
ATOM     21  C   UNL     1      11.596 -55.370 194.192  1.00  0.00     0.007 C 
ATOM     22  C   UNL     1       8.706 -52.875 194.502  1.00  0.00     0.012 C 
ATOM     23  C   UNL     1       8.285 -56.846 194.651  1.00  0.00     0.012 C 
ATOM     24  C   UNL     1       2.247 -55.664 193.359  1.00  0.00     0.014 C 
ATOM     25  C   UNL     1       3.500 -56.701 191.489  1.00  0.00     0.014 C 
ATOM     26  C   UNL     1       4.132 -54.663 195.702  1.00  0.00     0.012 C 
ATOM     27  C   UNL     1      12.399 -53.515 195.729  1.00  0.00     0.011 C 
ENDROOT
BRANCH   1  28
ATOM     28  C   UNL     1      10.655 -56.405 198.886  1.00  0.00    -0.077 C 
ATOM     29  C   UNL     1      10.122 -55.905 200.204  1.00  0.00     0.039 C 
ATOM     30  C   UNL     1      10.503 -57.708 198.586  1.00  0.00     0.008 C 
ENDBRANCH   1  28
BRANCH  13  31
ATOM     31  O   UNL     1       2.426 -58.600 193.430  1.00  0.00    -0.393 OA
ATOM     32  H   UNL     1       2.216 -59.174 194.212  1.00  0.00     0.210 HD
ENDBRANCH  13  31
TORSDOF 2
ENDMDL
MODEL 5
REMARK VINA RESULT:    -4.890      3.483      5.760
REMARK INTER + INTRA:          -5.879
REMARK INTER:                  -5.359
REMARK INTRA:                  -0.520
REMARK UNBOUND:                -0.559
REMARK SMILES C=C(C)[C@H]1CC[C@@]2(C)CC[C@]3(C)[C@@H](CC[C@@H]4[C@]5(C)CC[C@@H](O)C(C)(C)[C@@H]5CC[C@]43C)[C@H]12
REMARK SMILES IDX 4 1 5 2 6 3 7 4 31 5 13 6 14 7 15 8 16 9 17 10 19 11 20 12
REMARK SMILES IDX 21 13 23 14 26 15 27 16 28 17 29 18 11 19 10 20 9 21 12 22
REMARK SMILES IDX 30 23 24 24 25 25 18 26 8 27 2 28 3 29 1 30 22 31
REMARK H PARENT 22 32
REMARK Flexibility Score: inf
ROOT
ATOM      1  C   UNL     1       3.840 -57.978 191.493  1.00  0.00     0.018 C 
ATOM      2  C   UNL     1       2.563 -58.815 191.736  1.00  0.00     0.009 C 
ATOM      3  C   UNL     1       2.102 -58.497 193.163  1.00  0.00     0.008 C 
ATOM      4  C   UNL     1       2.762 -57.155 193.499  1.00  0.00    -0.029 C 
ATOM      5  C   UNL     1       4.139 -57.305 192.855  1.00  0.00     0.006 C 
ATOM      6  C   UNL     1       4.954 -55.981 192.870  1.00  0.00    -0.000 C 
ATOM      7  C   UNL     1       6.325 -56.224 192.182  1.00  0.00     0.005 C 
ATOM      8  C   UNL     1       7.484 -55.318 192.598  1.00  0.00     0.005 C 
ATOM      9  C   UNL     1       7.640 -55.013 194.124  1.00  0.00     0.002 C 
ATOM     10  C   UNL     1       9.144 -55.014 194.669  1.00  0.00    -0.026 C 
ATOM     11  C   UNL     1       9.803 -56.424 194.562  1.00  0.00     0.010 C 
ATOM     12  C   UNL     1      11.193 -56.515 195.201  1.00  0.00     0.033 C 
ATOM     13  C   UNL     1      11.169 -56.083 196.679  1.00  0.00     0.120 C 
ATOM     14  C   UNL     1      10.614 -54.638 196.895  1.00  0.00    -0.006 C 
ATOM     15  C   UNL     1       9.192 -54.483 196.170  1.00  0.00     0.003 C 
ATOM     16  C   UNL     1       8.048 -55.083 197.033  1.00  0.00     0.005 C 
ATOM     17  C   UNL     1       6.644 -54.961 196.425  1.00  0.00     0.008 C 
ATOM     18  C   UNL     1       6.488 -55.627 195.019  1.00  0.00    -0.024 C 
ATOM     19  C   UNL     1       5.051 -55.300 194.322  1.00  0.00    -0.024 C 
ATOM     20  C   UNL     1       3.809 -55.664 195.274  1.00  0.00     0.008 C 
ATOM     21  C   UNL     1       2.980 -56.938 194.996  1.00  0.00     0.007 C 
ATOM     22  C   UNL     1       4.897 -53.757 194.060  1.00  0.00     0.012 C 
ATOM     23  C   UNL     1       6.620 -57.171 195.222  1.00  0.00     0.012 C 
ATOM     24  C   UNL     1      11.627 -53.557 196.400  1.00  0.00     0.014 C 
ATOM     25  C   UNL     1      10.491 -54.408 198.431  1.00  0.00     0.014 C 
ATOM     26  C   UNL     1       9.938 -54.015 193.758  1.00  0.00     0.012 C 
ATOM     27  C   UNL     1       1.880 -56.016 192.901  1.00  0.00     0.011 C 
ENDROOT
BRANCH   1  28
ATOM     28  C   UNL     1       4.980 -58.834 190.946  1.00  0.00    -0.077 C 
ATOM     29  C   UNL     1       5.843 -59.633 191.888  1.00  0.00     0.039 C 
ATOM     30  C   UNL     1       5.255 -58.878 189.630  1.00  0.00     0.008 C 
ENDBRANCH   1  28
BRANCH  13  31
ATOM     31  O   UNL     1      12.438 -56.249 197.269  1.00  0.00    -0.393 OA
ATOM     32  H   UNL     1      12.313 -56.391 198.244  1.00  0.00     0.210 HD
ENDBRANCH  13  31
TORSDOF 2
ENDMDL
MODEL 6
REMARK VINA RESULT:    -4.854      1.569      2.652
REMARK INTER + INTRA:          -5.839
REMARK INTER:                  -5.315
REMARK INTRA:                  -0.525
REMARK UNBOUND:                -0.559
REMARK SMILES C=C(C)[C@H]1CC[C@@]2(C)CC[C@]3(C)[C@@H](CC[C@@H]4[C@]5(C)CC[C@@H](O)C(C)(C)[C@@H]5CC[C@]43C)[C@H]12
REMARK SMILES IDX 4 1 5 2 6 3 7 4 31 5 13 6 14 7 15 8 16 9 17 10 19 11 20 12
REMARK SMILES IDX 21 13 23 14 26 15 27 16 28 17 29 18 11 19 10 20 9 21 12 22
REMARK SMILES IDX 30 23 24 24 25 25 18 26 8 27 2 28 3 29 1 30 22 31
REMARK H PARENT 22 32
REMARK Flexibility Score: inf
ROOT
ATOM      1  C   UNL     1       2.996 -58.937 198.799  1.00  0.00     0.018 C 
ATOM      2  C   UNL     1       2.474 -60.361 199.101  1.00  0.00     0.009 C 
ATOM      3  C   UNL     1       3.620 -61.105 199.796  1.00  0.00     0.008 C 
ATOM      4  C   UNL     1       4.531 -59.999 200.342  1.00  0.00    -0.029 C 
ATOM      5  C   UNL     1       4.486 -58.964 199.219  1.00  0.00     0.006 C 
ATOM      6  C   UNL     1       5.174 -57.625 199.612  1.00  0.00    -0.000 C 
ATOM      7  C   UNL     1       5.063 -56.633 198.422  1.00  0.00     0.005 C 
ATOM      8  C   UNL     1       6.133 -55.546 198.320  1.00  0.00     0.005 C 
ATOM      9  C   UNL     1       7.614 -55.973 198.592  1.00  0.00     0.002 C 
ATOM     10  C   UNL     1       8.700 -55.324 197.615  1.00  0.00    -0.026 C 
ATOM     11  C   UNL     1       8.507 -55.786 196.137  1.00  0.00     0.010 C 
ATOM     12  C   UNL     1       9.608 -55.308 195.183  1.00  0.00     0.033 C 
ATOM     13  C   UNL     1      11.005 -55.738 195.665  1.00  0.00     0.120 C 
ATOM     14  C   UNL     1      11.345 -55.242 197.108  1.00  0.00    -0.006 C 
ATOM     15  C   UNL     1      10.173 -55.658 198.120  1.00  0.00     0.003 C 
ATOM     16  C   UNL     1      10.310 -57.140 198.566  1.00  0.00     0.005 C 
ATOM     17  C   UNL     1       9.240 -57.621 199.556  1.00  0.00     0.008 C 
ATOM     18  C   UNL     1       7.771 -57.483 199.037  1.00  0.00    -0.024 C 
ATOM     19  C   UNL     1       6.663 -57.811 200.187  1.00  0.00    -0.024 C 
ATOM     20  C   UNL     1       6.899 -59.241 200.879  1.00  0.00     0.008 C 
ATOM     21  C   UNL     1       5.987 -60.432 200.505  1.00  0.00     0.007 C 
ATOM     22  C   UNL     1       6.772 -56.785 201.373  1.00  0.00     0.012 C 
ATOM     23  C   UNL     1       7.601 -58.495 197.859  1.00  0.00     0.012 C 
ATOM     24  C   UNL     1      11.603 -53.702 197.136  1.00  0.00     0.014 C 
ATOM     25  C   UNL     1      12.701 -55.890 197.518  1.00  0.00     0.014 C 
ATOM     26  C   UNL     1       8.484 -53.773 197.691  1.00  0.00     0.012 C 
ATOM     27  C   UNL     1       3.945 -59.514 201.703  1.00  0.00     0.011 C 
ENDROOT
BRANCH   1  28
ATOM     28  C   UNL     1       2.756 -58.546 197.343  1.00  0.00    -0.077 C 
ATOM     29  C   UNL     1       1.875 -57.368 197.014  1.00  0.00     0.039 C 
ATOM     30  C   UNL     1       3.296 -59.246 196.329  1.00  0.00     0.008 C 
ENDBRANCH   1  28
BRANCH  13  31
ATOM     31  O   UNL     1      11.994 -55.359 194.735  1.00  0.00    -0.393 OA
ATOM     32  H   UNL     1      11.610 -55.431 193.823  1.00  0.00     0.210 HD
ENDBRANCH  13  31
TORSDOF 2
ENDMDL
MODEL 7
REMARK VINA RESULT:    -4.840      3.263      6.161
REMARK INTER + INTRA:          -5.823
REMARK INTER:                  -5.256
REMARK INTRA:                  -0.567
REMARK UNBOUND:                -0.559
REMARK SMILES C=C(C)[C@H]1CC[C@@]2(C)CC[C@]3(C)[C@@H](CC[C@@H]4[C@]5(C)CC[C@@H](O)C(C)(C)[C@@H]5CC[C@]43C)[C@H]12
REMARK SMILES IDX 4 1 5 2 6 3 7 4 31 5 13 6 14 7 15 8 16 9 17 10 19 11 20 12
REMARK SMILES IDX 21 13 23 14 26 15 27 16 28 17 29 18 11 19 10 20 9 21 12 22
REMARK SMILES IDX 30 23 24 24 25 25 18 26 8 27 2 28 3 29 1 30 22 31
REMARK H PARENT 22 32
REMARK Flexibility Score: inf
ROOT
ATOM      1  C   UNL     1       8.934 -56.842 201.528  1.00  0.00     0.018 C 
ATOM      2  C   UNL     1       9.370 -55.773 202.557  1.00  0.00     0.009 C 
ATOM      3  C   UNL     1       8.398 -54.599 202.401  1.00  0.00     0.008 C 
ATOM      4  C   UNL     1       7.165 -55.200 201.715  1.00  0.00    -0.029 C 
ATOM      5  C   UNL     1       7.794 -56.174 200.721  1.00  0.00     0.006 C 
ATOM      6  C   UNL     1       6.741 -57.083 200.027  1.00  0.00    -0.000 C 
ATOM      7  C   UNL     1       7.471 -58.048 199.053  1.00  0.00     0.005 C 
ATOM      8  C   UNL     1       6.669 -58.575 197.862  1.00  0.00     0.005 C 
ATOM      9  C   UNL     1       5.762 -57.551 197.103  1.00  0.00     0.002 C 
ATOM     10  C   UNL     1       5.763 -57.691 195.510  1.00  0.00    -0.026 C 
ATOM     11  C   UNL     1       7.164 -57.381 194.898  1.00  0.00     0.010 C 
ATOM     12  C   UNL     1       7.187 -57.360 193.365  1.00  0.00     0.033 C 
ATOM     13  C   UNL     1       6.160 -56.365 192.796  1.00  0.00     0.120 C 
ATOM     14  C   UNL     1       4.696 -56.644 193.269  1.00  0.00    -0.006 C 
ATOM     15  C   UNL     1       4.649 -56.751 194.869  1.00  0.00     0.003 C 
ATOM     16  C   UNL     1       4.627 -55.345 195.529  1.00  0.00     0.005 C 
ATOM     17  C   UNL     1       4.562 -55.350 197.063  1.00  0.00     0.008 C 
ATOM     18  C   UNL     1       5.737 -56.111 197.758  1.00  0.00    -0.024 C 
ATOM     19  C   UNL     1       5.523 -56.269 199.367  1.00  0.00    -0.024 C 
ATOM     20  C   UNL     1       5.238 -54.862 200.090  1.00  0.00     0.008 C 
ATOM     21  C   UNL     1       6.358 -54.183 200.909  1.00  0.00     0.007 C 
ATOM     22  C   UNL     1       4.244 -57.129 199.676  1.00  0.00     0.012 C 
ATOM     23  C   UNL     1       7.040 -55.290 197.493  1.00  0.00     0.012 C 
ATOM     24  C   UNL     1       4.111 -57.925 192.595  1.00  0.00     0.014 C 
ATOM     25  C   UNL     1       3.807 -55.471 192.757  1.00  0.00     0.014 C 
ATOM     26  C   UNL     1       5.396 -59.184 195.203  1.00  0.00     0.012 C 
ATOM     27  C   UNL     1       6.276 -55.864 202.810  1.00  0.00     0.011 C 
ENDROOT
BRANCH   1  28
ATOM     28  C   UNL     1      10.111 -57.324 200.683  1.00  0.00    -0.077 C 
ATOM     29  C   UNL     1      10.643 -56.460 199.568  1.00  0.00     0.039 C 
ATOM     30  C   UNL     1      10.680 -58.524 200.891  1.00  0.00     0.008 C 
ENDBRANCH   1  28
BRANCH  13  31
ATOM     31  O   UNL     1       6.250 -56.302 191.390  1.00  0.00    -0.393 OA
ATOM     32  H   UNL     1       6.099 -55.362 191.109  1.00  0.00     0.210 HD
ENDBRANCH  13  31
TORSDOF 2
ENDMDL
MODEL 8
REMARK VINA RESULT:    -4.755      3.298      6.277
REMARK INTER + INTRA:          -5.731
REMARK INTER:                  -5.162
REMARK INTRA:                  -0.570
REMARK UNBOUND:                -0.559
REMARK SMILES C=C(C)[C@H]1CC[C@@]2(C)CC[C@]3(C)[C@@H](CC[C@@H]4[C@]5(C)CC[C@@H](O)C(C)(C)[C@@H]5CC[C@]43C)[C@H]12
REMARK SMILES IDX 4 1 5 2 6 3 7 4 31 5 13 6 14 7 15 8 16 9 17 10 19 11 20 12
REMARK SMILES IDX 21 13 23 14 26 15 27 16 28 17 29 18 11 19 10 20 9 21 12 22
REMARK SMILES IDX 30 23 24 24 25 25 18 26 8 27 2 28 3 29 1 30 22 31
REMARK H PARENT 22 32
REMARK Flexibility Score: inf
ROOT
ATOM      1  C   UNL     1       7.406 -56.478 201.317  1.00  0.00     0.018 C 
ATOM      2  C   UNL     1       8.467 -57.205 202.175  1.00  0.00     0.009 C 
ATOM      3  C   UNL     1       9.562 -57.670 201.209  1.00  0.00     0.008 C 
ATOM      4  C   UNL     1       9.396 -56.780 199.971  1.00  0.00    -0.029 C 
ATOM      5  C   UNL     1       7.877 -56.673 199.855  1.00  0.00     0.006 C 
ATOM      6  C   UNL     1       7.431 -55.638 198.784  1.00  0.00    -0.000 C 
ATOM      7  C   UNL     1       5.879 -55.584 198.749  1.00  0.00     0.005 C 
ATOM      8  C   UNL     1       5.225 -55.145 197.439  1.00  0.00     0.005 C 
ATOM      9  C   UNL     1       5.821 -55.725 196.114  1.00  0.00     0.002 C 
ATOM     10  C   UNL     1       4.744 -56.143 195.008  1.00  0.00    -0.026 C 
ATOM     11  C   UNL     1       3.842 -57.322 195.489  1.00  0.00     0.010 C 
ATOM     12  C   UNL     1       2.888 -57.858 194.415  1.00  0.00     0.033 C 
ATOM     13  C   UNL     1       3.645 -58.290 193.147  1.00  0.00     0.120 C 
ATOM     14  C   UNL     1       4.511 -57.149 192.520  1.00  0.00    -0.006 C 
ATOM     15  C   UNL     1       5.467 -56.511 193.638  1.00  0.00     0.003 C 
ATOM     16  C   UNL     1       6.731 -57.385 193.867  1.00  0.00     0.005 C 
ATOM     17  C   UNL     1       7.718 -56.840 194.910  1.00  0.00     0.008 C 
ATOM     18  C   UNL     1       7.103 -56.627 196.331  1.00  0.00    -0.024 C 
ATOM     19  C   UNL     1       8.120 -55.859 197.349  1.00  0.00    -0.024 C 
ATOM     20  C   UNL     1       9.555 -56.575 197.441  1.00  0.00     0.008 C 
ATOM     21  C   UNL     1       9.908 -57.424 198.683  1.00  0.00     0.007 C 
ATOM     22  C   UNL     1       8.443 -54.412 196.826  1.00  0.00     0.012 C 
ATOM     23  C   UNL     1       6.773 -58.041 196.908  1.00  0.00     0.012 C 
ATOM     24  C   UNL     1       3.619 -56.060 191.844  1.00  0.00     0.014 C 
ATOM     25  C   UNL     1       5.340 -57.775 191.359  1.00  0.00     0.014 C 
ATOM     26  C   UNL     1       3.845 -54.880 194.777  1.00  0.00     0.012 C 
ATOM     27  C   UNL     1      10.129 -55.431 200.241  1.00  0.00     0.011 C 
ENDROOT
BRANCH   1  28
ATOM     28  C   UNL     1       5.998 -56.994 201.604  1.00  0.00    -0.077 C 
ATOM     29  C   UNL     1       5.559 -58.329 201.059  1.00  0.00     0.039 C 
ATOM     30  C   UNL     1       5.118 -56.272 202.318  1.00  0.00     0.008 C 
ENDBRANCH   1  28
BRANCH  13  31
ATOM     31  O   UNL     1       2.761 -58.852 192.203  1.00  0.00    -0.393 OA
ATOM     32  H   UNL     1       3.052 -59.782 192.017  1.00  0.00     0.210 HD
ENDBRANCH  13  31
TORSDOF 2
ENDMDL
MODEL 9
REMARK VINA RESULT:    -4.700      2.902      7.965
REMARK INTER + INTRA:          -5.671
REMARK INTER:                  -5.171
REMARK INTRA:                  -0.500
REMARK UNBOUND:                -0.559
REMARK SMILES C=C(C)[C@H]1CC[C@@]2(C)CC[C@]3(C)[C@@H](CC[C@@H]4[C@]5(C)CC[C@@H](O)C(C)(C)[C@@H]5CC[C@]43C)[C@H]12
REMARK SMILES IDX 4 1 5 2 6 3 7 4 31 5 13 6 14 7 15 8 16 9 17 10 19 11 20 12
REMARK SMILES IDX 21 13 23 14 26 15 27 16 28 17 29 18 11 19 10 20 9 21 12 22
REMARK SMILES IDX 30 23 24 24 25 25 18 26 8 27 2 28 3 29 1 30 22 31
REMARK H PARENT 22 32
REMARK Flexibility Score: inf
ROOT
ATOM      1  C   UNL     1      10.205 -54.700 195.533  1.00  0.00     0.018 C 
ATOM      2  C   UNL     1      10.530 -54.463 194.040  1.00  0.00     0.009 C 
ATOM      3  C   UNL     1       9.209 -54.618 193.279  1.00  0.00     0.008 C 
ATOM      4  C   UNL     1       8.120 -54.409 194.337  1.00  0.00    -0.029 C 
ATOM      5  C   UNL     1       8.714 -55.118 195.553  1.00  0.00     0.006 C 
ATOM      6  C   UNL     1       7.889 -54.875 196.849  1.00  0.00    -0.000 C 
ATOM      7  C   UNL     1       8.575 -55.615 198.029  1.00  0.00     0.005 C 
ATOM      8  C   UNL     1       7.687 -56.033 199.201  1.00  0.00     0.005 C 
ATOM      9  C   UNL     1       6.291 -56.649 198.855  1.00  0.00     0.002 C 
ATOM     10  C   UNL     1       5.852 -57.892 199.759  1.00  0.00    -0.026 C 
ATOM     11  C   UNL     1       6.795 -59.120 199.561  1.00  0.00     0.010 C 
ATOM     12  C   UNL     1       6.338 -60.386 200.295  1.00  0.00     0.033 C 
ATOM     13  C   UNL     1       4.904 -60.785 199.900  1.00  0.00     0.120 C 
ATOM     14  C   UNL     1       3.853 -59.655 200.151  1.00  0.00    -0.006 C 
ATOM     15  C   UNL     1       4.340 -58.291 199.461  1.00  0.00     0.003 C 
ATOM     16  C   UNL     1       4.029 -58.284 197.939  1.00  0.00     0.005 C 
ATOM     17  C   UNL     1       4.443 -57.005 197.198  1.00  0.00     0.008 C 
ATOM     18  C   UNL     1       5.964 -56.658 197.307  1.00  0.00    -0.024 C 
ATOM     19  C   UNL     1       6.323 -55.195 196.685  1.00  0.00    -0.024 C 
ATOM     20  C   UNL     1       5.798 -55.023 195.176  1.00  0.00     0.008 C 
ATOM     21  C   UNL     1       6.801 -55.105 194.003  1.00  0.00     0.007 C 
ATOM     22  C   UNL     1       5.589 -54.055 197.482  1.00  0.00     0.012 C 
ATOM     23  C   UNL     1       6.745 -57.757 196.517  1.00  0.00     0.012 C 
ATOM     24  C   UNL     1       3.579 -59.457 201.675  1.00  0.00     0.014 C 
ATOM     25  C   UNL     1       2.497 -60.136 199.552  1.00  0.00     0.014 C 
ATOM     26  C   UNL     1       5.959 -57.409 201.247  1.00  0.00     0.012 C 
ATOM     27  C   UNL     1       7.903 -52.875 194.514  1.00  0.00     0.011 C 
ENDROOT
BRANCH   1  28
ATOM     28  C   UNL     1      11.155 -55.715 196.163  1.00  0.00    -0.077 C 
ATOM     29  C   UNL     1      12.017 -55.317 197.334  1.00  0.00     0.039 C 
ATOM     30  C   UNL     1      11.266 -56.966 195.682  1.00  0.00     0.008 C 
ENDBRANCH   1  28
BRANCH  13  31
ATOM     31  O   UNL     1       4.531 -61.992 200.523  1.00  0.00    -0.393 OA
ATOM     32  H   UNL     1       4.995 -62.739 200.063  1.00  0.00     0.210 HD
ENDBRANCH  13  31
TORSDOF 2
ENDMDL
