MODEL 1
REMARK VINA RESULT:    -4.225      0.000      0.000
REMARK INTER + INTRA:          -4.616
REMARK INTER:                  -4.595
REMARK INTRA:                  -0.021
REMARK UNBOUND:                -0.021
REMARK SMILES OCc1ccco1
REMARK SMILES IDX 2 1 3 2 5 3 6 4 4 5 7 6 1 7
REMARK H PARENT 1 8
REMARK Flexibility Score: inf
ROOT
ATOM      1  C   UNL     1      28.530  60.200  -9.699  1.00  0.00     0.231 C 
ENDROOT
BRANCH   1   2
ATOM      2  C   UNL     1      28.559  58.909  -8.945  1.00  0.00     0.129 A 
ATOM      3  C   UNL     1      28.324  56.799  -8.384  1.00  0.00     0.042 A 
ATOM      4  C   UNL     1      28.986  57.505  -7.398  1.00  0.00     0.195 A 
ATOM      5  C   UNL     1      28.051  57.705  -9.386  1.00  0.00     0.048 A 
ATOM      6  O   UNL     1      29.113  58.760  -7.763  1.00  0.00    -0.467 OA
ENDBRANCH   1   2
BRANCH   1   7
ATOM      7  O   UNL     1      29.478  61.087  -9.171  1.00  0.00    -0.388 OA
ATOM      8  H   UNL     1      30.241  60.534  -8.857  1.00  0.00     0.211 HD
ENDBRANCH   1   7
TORSDOF 2
ENDMDL
MODEL 2
REMARK VINA RESULT:    -4.046      2.037      3.178
REMARK INTER + INTRA:          -4.422
REMARK INTER:                  -4.407
REMARK INTRA:                  -0.016
REMARK UNBOUND:                -0.021
REMARK SMILES OCc1ccco1
REMARK SMILES IDX 2 1 3 2 5 3 6 4 4 5 7 6 1 7
REMARK H PARENT 1 8
REMARK Flexibility Score: inf
ROOT
ATOM      1  C   UNL     1      28.458  57.568  -8.511  1.00  0.00     0.231 C 
ENDROOT
BRANCH   1   2
ATOM      2  C   UNL     1      29.054  57.418  -7.148  1.00  0.00     0.129 A 
ATOM      3  C   UNL     1      29.560  56.662  -5.149  1.00  0.00     0.042 A 
ATOM      4  C   UNL     1      30.290  57.794  -5.452  1.00  0.00     0.195 A 
ATOM      5  C   UNL     1      28.763  56.415  -6.246  1.00  0.00     0.048 A 
ATOM      6  O   UNL     1      29.968  58.221  -6.652  1.00  0.00    -0.467 OA
ENDBRANCH   1   2
BRANCH   1   7
ATOM      7  O   UNL     1      28.051  56.319  -8.998  1.00  0.00    -0.388 OA
ATOM      8  H   UNL     1      28.294  56.296  -9.961  1.00  0.00     0.211 HD
ENDBRANCH   1   7
TORSDOF 2
ENDMDL
MODEL 3
REMARK VINA RESULT:    -4.002      3.021      3.659
REMARK INTER + INTRA:          -4.374
REMARK INTER:                  -4.361
REMARK INTRA:                  -0.013
REMARK UNBOUND:                -0.021
REMARK SMILES OCc1ccco1
REMARK SMILES IDX 2 1 3 2 5 3 6 4 4 5 7 6 1 7
REMARK H PARENT 1 8
REMARK Flexibility Score: inf
ROOT
ATOM      1  C   UNL     1      31.166  59.080  -5.398  1.00  0.00     0.231 C 
ENDROOT
BRANCH   1   2
ATOM      2  C   UNL     1      30.172  57.964  -5.405  1.00  0.00     0.129 A 
ATOM      3  C   UNL     1      28.750  56.422  -6.058  1.00  0.00     0.042 A 
ATOM      4  C   UNL     1      28.933  56.382  -4.690  1.00  0.00     0.195 A 
ATOM      5  C   UNL     1      29.553  57.441  -6.523  1.00  0.00     0.048 A 
ATOM      6  O   UNL     1      29.789  57.312  -4.331  1.00  0.00    -0.467 OA
ENDBRANCH   1   2
BRANCH   1   7
ATOM      7  O   UNL     1      30.637  60.199  -6.057  1.00  0.00    -0.388 OA
ATOM      8  H   UNL     1      29.654  60.169  -5.923  1.00  0.00     0.211 HD
ENDBRANCH   1   7
TORSDOF 2
ENDMDL
MODEL 4
REMARK VINA RESULT:    -3.919      1.490      3.304
REMARK INTER + INTRA:          -4.284
REMARK INTER:                  -4.268
REMARK INTRA:                  -0.016
REMARK UNBOUND:                -0.021
REMARK SMILES OCc1ccco1
REMARK SMILES IDX 2 1 3 2 5 3 6 4 4 5 7 6 1 7
REMARK H PARENT 1 8
REMARK Flexibility Score: inf
ROOT
ATOM      1  C   UNL     1      29.624  57.263  -5.920  1.00  0.00     0.231 C 
ENDROOT
BRANCH   1   2
ATOM      2  C   UNL     1      29.080  57.600  -7.271  1.00  0.00     0.129 A 
ATOM      3  C   UNL     1      28.063  57.484  -9.214  1.00  0.00     0.042 A 
ATOM      4  C   UNL     1      28.567  58.751  -8.992  1.00  0.00     0.195 A 
ATOM      5  C   UNL     1      28.390  56.741  -8.101  1.00  0.00     0.048 A 
ATOM      6  O   UNL     1      29.166  58.789  -7.823  1.00  0.00    -0.467 OA
ENDBRANCH   1   2
BRANCH   1   7
ATOM      7  O   UNL     1      29.171  55.998  -5.521  1.00  0.00    -0.388 OA
ATOM      8  H   UNL     1      29.328  55.935  -4.543  1.00  0.00     0.211 HD
ENDBRANCH   1   7
TORSDOF 2
ENDMDL
MODEL 5
REMARK VINA RESULT:    -3.882     18.427     19.094
REMARK INTER + INTRA:          -4.244
REMARK INTER:                  -4.230
REMARK INTRA:                  -0.014
REMARK UNBOUND:                -0.021
REMARK SMILES OCc1ccco1
REMARK SMILES IDX 2 1 3 2 5 3 6 4 4 5 7 6 1 7
REMARK H PARENT 1 8
REMARK Flexibility Score: inf
ROOT
ATOM      1  C   UNL     1      38.099  67.189   4.384  1.00  0.00     0.231 C 
ENDROOT
BRANCH   1   2
ATOM      2  C   UNL     1      38.588  66.254   5.443  1.00  0.00     0.129 A 
ATOM      3  C   UNL     1      38.714  64.998   7.240  1.00  0.00     0.042 A 
ATOM      4  C   UNL     1      39.851  64.873   6.466  1.00  0.00     0.195 A 
ATOM      5  C   UNL     1      37.896  65.887   6.579  1.00  0.00     0.048 A 
ATOM      6  O   UNL     1      39.745  65.632   5.399  1.00  0.00    -0.467 OA
ENDBRANCH   1   2
BRANCH   1   7
ATOM      7  O   UNL     1      37.460  68.289   4.971  1.00  0.00    -0.388 OA
ATOM      8  H   UNL     1      38.009  69.087   4.752  1.00  0.00     0.211 HD
ENDBRANCH   1   7
TORSDOF 2
ENDMDL
MODEL 6
REMARK VINA RESULT:    -3.862      1.755      2.624
REMARK INTER + INTRA:          -4.222
REMARK INTER:                  -4.206
REMARK INTRA:                  -0.016
REMARK UNBOUND:                -0.021
REMARK SMILES OCc1ccco1
REMARK SMILES IDX 2 1 3 2 5 3 6 4 4 5 7 6 1 7
REMARK H PARENT 1 8
REMARK Flexibility Score: inf
ROOT
ATOM      1  C   UNL     1      28.974  58.851  -8.421  1.00  0.00     0.231 C 
ENDROOT
BRANCH   1   2
ATOM      2  C   UNL     1      29.394  58.161  -7.163  1.00  0.00     0.129 A 
ATOM      3  C   UNL     1      30.377  57.683  -5.259  1.00  0.00     0.042 A 
ATOM      4  C   UNL     1      29.449  56.717  -5.596  1.00  0.00     0.195 A 
ATOM      5  C   UNL     1      30.340  58.619  -6.269  1.00  0.00     0.048 A 
ATOM      6  O   UNL     1      28.878  57.032  -6.736  1.00  0.00    -0.467 OA
ENDBRANCH   1   2
BRANCH   1   7
ATOM      7  O   UNL     1      29.518  60.142  -8.466  1.00  0.00    -0.388 OA
ATOM      8  H   UNL     1      30.210  60.134  -9.177  1.00  0.00     0.211 HD
ENDBRANCH   1   7
TORSDOF 2
ENDMDL
MODEL 7
REMARK VINA RESULT:    -3.855      1.528      2.462
REMARK INTER + INTRA:          -4.214
REMARK INTER:                  -4.199
REMARK INTRA:                  -0.016
REMARK UNBOUND:                -0.021
REMARK SMILES OCc1ccco1
REMARK SMILES IDX 2 1 3 2 5 3 6 4 4 5 7 6 1 7
REMARK H PARENT 1 8
REMARK Flexibility Score: inf
ROOT
ATOM      1  C   UNL     1      30.093  58.738  -6.561  1.00  0.00     0.231 C 
ENDROOT
BRANCH   1   2
ATOM      2  C   UNL     1      29.231  58.532  -7.765  1.00  0.00     0.129 A 
ATOM      3  C   UNL     1      28.117  58.856  -9.630  1.00  0.00     0.042 A 
ATOM      4  C   UNL     1      28.032  57.539  -9.222  1.00  0.00     0.195 A 
ATOM      5  C   UNL     1      28.894  59.498  -8.691  1.00  0.00     0.048 A 
ATOM      6  O   UNL     1      28.709  57.377  -8.108  1.00  0.00    -0.467 OA
ENDBRANCH   1   2
BRANCH   1   7
ATOM      7  O   UNL     1      30.451  60.088  -6.451  1.00  0.00    -0.388 OA
ATOM      8  H   UNL     1      30.558  60.275  -5.481  1.00  0.00     0.211 HD
ENDBRANCH   1   7
TORSDOF 2
ENDMDL
MODEL 8
REMARK VINA RESULT:    -3.820     18.733     19.582
REMARK INTER + INTRA:          -4.176
REMARK INTER:                  -4.162
REMARK INTRA:                  -0.015
REMARK UNBOUND:                -0.021
REMARK SMILES OCc1ccco1
REMARK SMILES IDX 2 1 3 2 5 3 6 4 4 5 7 6 1 7
REMARK H PARENT 1 8
REMARK Flexibility Score: inf
ROOT
ATOM      1  C   UNL     1      39.127  64.600   7.521  1.00  0.00     0.231 C 
ENDROOT
BRANCH   1   2
ATOM      2  C   UNL     1      38.567  65.555   6.517  1.00  0.00     0.129 A 
ATOM      3  C   UNL     1      37.296  67.036   5.509  1.00  0.00     0.042 A 
ATOM      4  C   UNL     1      38.410  66.736   4.749  1.00  0.00     0.195 A 
ATOM      5  C   UNL     1      37.398  66.276   6.654  1.00  0.00     0.048 A 
ATOM      6  O   UNL     1      39.150  65.852   5.378  1.00  0.00    -0.467 OA
ENDBRANCH   1   2
BRANCH   1   7
ATOM      7  O   UNL     1      39.019  65.139   8.810  1.00  0.00    -0.388 OA
ATOM      8  H   UNL     1      39.619  65.930   8.839  1.00  0.00     0.211 HD
ENDBRANCH   1   7
TORSDOF 2
ENDMDL
MODEL 9
REMARK VINA RESULT:    -3.629     22.920     23.476
REMARK INTER + INTRA:          -3.969
REMARK INTER:                  -3.952
REMARK INTRA:                  -0.017
REMARK UNBOUND:                -0.021
REMARK SMILES OCc1ccco1
REMARK SMILES IDX 2 1 3 2 5 3 6 4 4 5 7 6 1 7
REMARK H PARENT 1 8
REMARK Flexibility Score: inf
ROOT
ATOM      1  C   UNL     1      44.670  73.171   3.156  1.00  0.00     0.231 C 
ENDROOT
BRANCH   1   2
ATOM      2  C   UNL     1      44.861  71.733   2.795  1.00  0.00     0.129 A 
ATOM      3  C   UNL     1      45.573  69.656   2.750  1.00  0.00     0.042 A 
ATOM      4  C   UNL     1      44.554  69.852   1.839  1.00  0.00     0.195 A 
ATOM      5  C   UNL     1      45.771  70.870   3.371  1.00  0.00     0.048 A 
ATOM      6  O   UNL     1      44.149  71.100   1.891  1.00  0.00    -0.467 OA
ENDBRANCH   1   2
BRANCH   1   7
ATOM      7  O   UNL     1      43.360  73.384   3.607  1.00  0.00    -0.388 OA
ATOM      8  H   UNL     1      42.841  72.573   3.363  1.00  0.00     0.211 HD
ENDBRANCH   1   7
TORSDOF 2
ENDMDL
