MODEL 1
REMARK VINA RESULT:    -2.486      0.000      0.000
REMARK INTER + INTRA:          -3.417
REMARK INTER:                  -3.213
REMARK INTRA:                  -0.205
REMARK UNBOUND:                -0.205
REMARK SMILES CCCCCCC(=O)[O-]
REMARK SMILES IDX 5 1 6 2 7 3 8 4 9 5 4 6 3 7 2 8 1 9
REMARK H PARENT
REMARK Flexibility Score: inf
ROOT
ATOM      1  C   UNL     1      76.235  72.329  92.408  1.00  0.00     0.006 C 
ENDROOT
BRANCH   1   2
ATOM      2  C   UNL     1      76.930  73.514  93.103  1.00  0.00     0.053 C 
BRANCH   2   3
ATOM      3  C   UNL     1      77.806  74.297  92.172  1.00  0.00     0.041 C 
ATOM      4  O   UNL     1      79.060  74.225  92.269  1.00  0.00    -0.550 OA
ATOM      5  O   UNL     1      77.239  75.074  91.170  1.00  0.00    -0.550 OA
ENDBRANCH   2   3
ENDBRANCH   1   2
BRANCH   1   6
ATOM      6  C   UNL     1      74.810  72.640  91.908  1.00  0.00     0.000 C 
BRANCH   6   7
ATOM      7  C   UNL     1      73.958  73.504  92.853  1.00  0.00    -0.000 C 
BRANCH   7   8
ATOM      8  C   UNL     1      72.462  73.472  92.506  1.00  0.00    -0.003 C 
ATOM      9  C   UNL     1      72.028  72.073  92.078  1.00  0.00     0.004 C 
ENDBRANCH   7   8
ENDBRANCH   6   7
ENDBRANCH   1   6
TORSDOF 5
ENDMDL
MODEL 2
REMARK VINA RESULT:    -2.402     20.237     20.941
REMARK INTER + INTRA:          -3.309
REMARK INTER:                  -3.170
REMARK INTRA:                  -0.140
REMARK UNBOUND:                -0.205
REMARK SMILES CCCCCCC(=O)[O-]
REMARK SMILES IDX 5 1 6 2 7 3 8 4 9 5 4 6 3 7 2 8 1 9
REMARK H PARENT
REMARK Flexibility Score: inf
ROOT
ATOM      1  C   UNL     1      74.125  90.866  80.148  1.00  0.00     0.006 C 
ENDROOT
BRANCH   1   2
ATOM      2  C   UNL     1      75.092  91.994  79.745  1.00  0.00     0.053 C 
BRANCH   2   3
ATOM      3  C   UNL     1      76.531  91.579  79.830  1.00  0.00     0.041 C 
ATOM      4  O   UNL     1      77.187  91.774  80.888  1.00  0.00    -0.550 OA
ATOM      5  O   UNL     1      77.135  90.940  78.756  1.00  0.00    -0.550 OA
ENDBRANCH   2   3
ENDBRANCH   1   2
BRANCH   1   6
ATOM      6  C   UNL     1      72.733  91.359  80.593  1.00  0.00     0.000 C 
BRANCH   6   7
ATOM      7  C   UNL     1      71.978  90.416  81.545  1.00  0.00    -0.000 C 
BRANCH   7   8
ATOM      8  C   UNL     1      72.917  89.599  82.446  1.00  0.00    -0.003 C 
ATOM      9  C   UNL     1      72.231  89.229  83.758  1.00  0.00     0.004 C 
ENDBRANCH   7   8
ENDBRANCH   6   7
ENDBRANCH   1   6
TORSDOF 5
ENDMDL
MODEL 3
REMARK VINA RESULT:    -2.353     23.546     24.347
REMARK INTER + INTRA:          -3.246
REMARK INTER:                  -2.978
REMARK INTRA:                  -0.268
REMARK UNBOUND:                -0.205
REMARK SMILES CCCCCCC(=O)[O-]
REMARK SMILES IDX 5 1 6 2 7 3 8 4 9 5 4 6 3 7 2 8 1 9
REMARK H PARENT
REMARK Flexibility Score: inf
ROOT
ATOM      1  C   UNL     1      76.036  89.625  74.818  1.00  0.00     0.006 C 
ENDROOT
BRANCH   1   2
ATOM      2  C   UNL     1      76.072  89.682  76.356  1.00  0.00     0.053 C 
BRANCH   2   3
ATOM      3  C   UNL     1      75.644  91.014  76.895  1.00  0.00     0.041 C 
ATOM      4  O   UNL     1      75.736  91.261  78.127  1.00  0.00    -0.550 OA
ATOM      5  O   UNL     1      75.181  91.999  76.032  1.00  0.00    -0.550 OA
ENDBRANCH   2   3
ENDBRANCH   1   2
BRANCH   1   6
ATOM      6  C   UNL     1      74.904  88.747  74.247  1.00  0.00     0.000 C 
BRANCH   6   7
ATOM      7  C   UNL     1      74.244  89.282  72.965  1.00  0.00    -0.000 C 
BRANCH   7   8
ATOM      8  C   UNL     1      74.263  90.815  72.877  1.00  0.00    -0.003 C 
ATOM      9  C   UNL     1      72.849  91.385  72.934  1.00  0.00     0.004 C 
ENDBRANCH   7   8
ENDBRANCH   6   7
ENDBRANCH   1   6
TORSDOF 5
ENDMDL
MODEL 4
REMARK VINA RESULT:    -2.310     23.396     24.238
REMARK INTER + INTRA:          -3.190
REMARK INTER:                  -3.046
REMARK INTRA:                  -0.144
REMARK UNBOUND:                -0.205
REMARK SMILES CCCCCCC(=O)[O-]
REMARK SMILES IDX 5 1 6 2 7 3 8 4 9 5 4 6 3 7 2 8 1 9
REMARK H PARENT
REMARK Flexibility Score: inf
ROOT
ATOM      1  C   UNL     1      75.577  91.037  76.090  1.00  0.00     0.006 C 
ENDROOT
BRANCH   1   2
ATOM      2  C   UNL     1      75.366  92.043  77.237  1.00  0.00     0.053 C 
BRANCH   2   3
ATOM      3  C   UNL     1      75.294  91.382  78.581  1.00  0.00     0.041 C 
ATOM      4  O   UNL     1      75.597  90.165  78.706  1.00  0.00    -0.550 OA
ATOM      5  O   UNL     1      74.934  92.119  79.701  1.00  0.00    -0.550 OA
ENDBRANCH   2   3
ENDBRANCH   1   2
BRANCH   1   6
ATOM      6  C   UNL     1      75.430  91.648  74.682  1.00  0.00     0.000 C 
BRANCH   6   7
ATOM      7  C   UNL     1      73.983  91.838  74.199  1.00  0.00    -0.000 C 
BRANCH   7   8
ATOM      8  C   UNL     1      73.679  91.074  72.901  1.00  0.00    -0.003 C 
ATOM      9  C   UNL     1      74.076  89.606  73.025  1.00  0.00     0.004 C 
ENDBRANCH   7   8
ENDBRANCH   6   7
ENDBRANCH   1   6
TORSDOF 5
ENDMDL
MODEL 5
REMARK VINA RESULT:    -2.309     23.621     24.406
REMARK INTER + INTRA:          -3.188
REMARK INTER:                  -3.078
REMARK INTRA:                  -0.110
REMARK UNBOUND:                -0.205
REMARK SMILES CCCCCCC(=O)[O-]
REMARK SMILES IDX 5 1 6 2 7 3 8 4 9 5 4 6 3 7 2 8 1 9
REMARK H PARENT
REMARK Flexibility Score: inf
ROOT
ATOM      1  C   UNL     1      74.912  89.422  73.503  1.00  0.00     0.006 C 
ENDROOT
BRANCH   1   2
ATOM      2  C   UNL     1      74.199  90.634  72.875  1.00  0.00     0.053 C 
BRANCH   2   3
ATOM      3  C   UNL     1      73.768  91.644  73.896  1.00  0.00     0.041 C 
ATOM      4  O   UNL     1      74.594  92.092  74.735  1.00  0.00    -0.550 OA
ATOM      5  O   UNL     1      72.464  92.121  73.896  1.00  0.00    -0.550 OA
ENDBRANCH   2   3
ENDBRANCH   1   2
BRANCH   1   6
ATOM      6  C   UNL     1      74.501  88.066  72.897  1.00  0.00     0.000 C 
BRANCH   6   7
ATOM      7  C   UNL     1      75.068  86.829  73.614  1.00  0.00    -0.000 C 
BRANCH   7   8
ATOM      8  C   UNL     1      74.618  86.729  75.080  1.00  0.00    -0.003 C 
ATOM      9  C   UNL     1      74.129  85.321  75.407  1.00  0.00     0.004 C 
ENDBRANCH   7   8
ENDBRANCH   6   7
ENDBRANCH   1   6
TORSDOF 5
ENDMDL
MODEL 6
REMARK VINA RESULT:    -2.291      2.625      4.910
REMARK INTER + INTRA:          -3.165
REMARK INTER:                  -2.946
REMARK INTRA:                  -0.219
REMARK UNBOUND:                -0.205
REMARK SMILES CCCCCCC(=O)[O-]
REMARK SMILES IDX 5 1 6 2 7 3 8 4 9 5 4 6 3 7 2 8 1 9
REMARK H PARENT
REMARK Flexibility Score: inf
ROOT
ATOM      1  C   UNL     1      76.508  73.074  92.680  1.00  0.00     0.006 C 
ENDROOT
BRANCH   1   2
ATOM      2  C   UNL     1      75.284  72.601  91.875  1.00  0.00     0.053 C 
BRANCH   2   3
ATOM      3  C   UNL     1      73.996  73.168  92.393  1.00  0.00     0.041 C 
ATOM      4  O   UNL     1      72.931  72.500  92.315  1.00  0.00    -0.550 OA
ATOM      5  O   UNL     1      73.980  74.416  93.002  1.00  0.00    -0.550 OA
ENDBRANCH   2   3
ENDBRANCH   1   2
BRANCH   1   6
ATOM      6  C   UNL     1      77.483  71.944  93.067  1.00  0.00     0.000 C 
BRANCH   6   7
ATOM      7  C   UNL     1      78.770  71.875  92.228  1.00  0.00    -0.000 C 
BRANCH   7   8
ATOM      8  C   UNL     1      79.189  73.240  91.662  1.00  0.00    -0.003 C 
ATOM      9  C   UNL     1      79.399  73.166  90.152  1.00  0.00     0.004 C 
ENDBRANCH   7   8
ENDBRANCH   6   7
ENDBRANCH   1   6
TORSDOF 5
ENDMDL
MODEL 7
REMARK VINA RESULT:    -2.285     14.793     15.718
REMARK INTER + INTRA:          -3.158
REMARK INTER:                  -2.770
REMARK INTRA:                  -0.388
REMARK UNBOUND:                -0.205
REMARK SMILES CCCCCCC(=O)[O-]
REMARK SMILES IDX 5 1 6 2 7 3 8 4 9 5 4 6 3 7 2 8 1 9
REMARK H PARENT
REMARK Flexibility Score: inf
ROOT
ATOM      1  C   UNL     1      73.736  88.449  92.594  1.00  0.00     0.006 C 
ENDROOT
BRANCH   1   2
ATOM      2  C   UNL     1      74.159  89.930  92.621  1.00  0.00     0.053 C 
BRANCH   2   3
ATOM      3  C   UNL     1      75.646  90.107  92.533  1.00  0.00     0.041 C 
ATOM      4  O   UNL     1      76.137  91.246  92.314  1.00  0.00    -0.550 OA
ATOM      5  O   UNL     1      76.490  89.023  92.736  1.00  0.00    -0.550 OA
ENDBRANCH   2   3
ENDBRANCH   1   2
BRANCH   1   6
ATOM      6  C   UNL     1      73.350  87.931  91.195  1.00  0.00     0.000 C 
BRANCH   6   7
ATOM      7  C   UNL     1      74.441  87.124  90.471  1.00  0.00    -0.000 C 
BRANCH   7   8
ATOM      8  C   UNL     1      75.092  87.899  89.316  1.00  0.00    -0.003 C 
ATOM      9  C   UNL     1      76.614  87.827  89.396  1.00  0.00     0.004 C 
ENDBRANCH   7   8
ENDBRANCH   6   7
ENDBRANCH   1   6
TORSDOF 5
ENDMDL
MODEL 8
REMARK VINA RESULT:    -2.273     23.816     24.711
REMARK INTER + INTRA:          -3.142
REMARK INTER:                  -2.772
REMARK INTRA:                  -0.370
REMARK UNBOUND:                -0.205
REMARK SMILES CCCCCCC(=O)[O-]
REMARK SMILES IDX 5 1 6 2 7 3 8 4 9 5 4 6 3 7 2 8 1 9
REMARK H PARENT
REMARK Flexibility Score: inf
ROOT
ATOM      1  C   UNL     1      75.816  91.869  73.853  1.00  0.00     0.006 C 
ENDROOT
BRANCH   1   2
ATOM      2  C   UNL     1      74.925  91.845  75.109  1.00  0.00     0.053 C 
BRANCH   2   3
ATOM      3  C   UNL     1      75.671  91.421  76.338  1.00  0.00     0.041 C 
ATOM      4  O   UNL     1      75.300  91.816  77.475  1.00  0.00    -0.550 OA
ATOM      5  O   UNL     1      76.751  90.554  76.233  1.00  0.00    -0.550 OA
ENDBRANCH   2   3
ENDBRANCH   1   2
BRANCH   1   6
ATOM      6  C   UNL     1      75.557  90.705  72.875  1.00  0.00     0.000 C 
BRANCH   6   7
ATOM      7  C   UNL     1      74.254  89.925  73.118  1.00  0.00    -0.000 C 
BRANCH   7   8
ATOM      8  C   UNL     1      74.481  88.412  73.262  1.00  0.00    -0.003 C 
ATOM      9  C   UNL     1      75.871  88.118  73.818  1.00  0.00     0.004 C 
ENDBRANCH   7   8
ENDBRANCH   6   7
ENDBRANCH   1   6
TORSDOF 5
ENDMDL
