MODEL 1
REMARK VINA RESULT:    -4.250      0.000      0.000
REMARK INTER + INTRA:          -6.633
REMARK INTER:                  -5.741
REMARK INTRA:                  -0.892
REMARK UNBOUND:                -0.892
REMARK SMILES CC(=O)CCC=C(C)CCC=C(C)C
REMARK SMILES IDX 7 1 6 2 8 3 9 4 10 5 11 6 13 7 12 8 14 9 5 10 4 11 2 12 3 13
REMARK SMILES IDX 1 14
REMARK H PARENT
REMARK Flexibility Score: inf
ROOT
ATOM      1  C   UNL     1      16.450  61.688  21.445  1.00  0.00    -0.077 C 
ATOM      2  C   UNL     1      17.290  61.070  22.307  1.00  0.00    -0.028 C 
ATOM      3  C   UNL     1      16.211  61.163  20.049  1.00  0.00     0.039 C 
ENDROOT
BRANCH   1   4
ATOM      4  C   UNL     1      15.712  62.931  21.900  1.00  0.00     0.034 C 
BRANCH   4   5
ATOM      5  C   UNL     1      14.197  62.697  21.992  1.00  0.00     0.032 C 
BRANCH   5   6
ATOM      6  C   UNL     1      13.445  63.465  20.931  1.00  0.00    -0.028 C 
ATOM      7  C   UNL     1      12.211  61.448  20.104  1.00  0.00     0.039 C 
ATOM      8  C   UNL     1      12.522  62.925  20.104  1.00  0.00    -0.080 C 
ATOM      9  C   UNL     1      11.811  63.798  19.103  1.00  0.00     0.039 C 
ENDBRANCH   5   6
ENDBRANCH   4   5
ENDBRANCH   1   4
BRANCH   2  10
ATOM     10  C   UNL     1      18.109  59.847  21.974  1.00  0.00     0.035 C 
BRANCH  10  11
ATOM     11  C   UNL     1      17.461  58.584  22.563  1.00  0.00     0.079 C 
BRANCH  11  12
ATOM     12  C   UNL     1      16.788  57.693  21.543  1.00  0.00     0.130 C 
ATOM     13  O   UNL     1      17.473  56.877  20.945  1.00  0.00    -0.300 OA
ATOM     14  C   UNL     1      15.319  57.770  21.228  1.00  0.00     0.087 C 
ENDBRANCH  11  12
ENDBRANCH  10  11
ENDBRANCH   2  10
TORSDOF 6
ENDMDL
MODEL 2
REMARK VINA RESULT:    -4.224     15.495     16.737
REMARK INTER + INTRA:          -6.598
REMARK INTER:                  -5.948
REMARK INTRA:                  -0.650
REMARK UNBOUND:                -0.892
REMARK SMILES CC(=O)CCC=C(C)CCC=C(C)C
REMARK SMILES IDX 7 1 6 2 8 3 9 4 10 5 11 6 13 7 12 8 14 9 5 10 4 11 2 12 3 13
REMARK SMILES IDX 1 14
REMARK H PARENT
REMARK Flexibility Score: inf
ROOT
ATOM      1  C   UNL     1      15.441  52.360  35.445  1.00  0.00    -0.077 C 
ATOM      2  C   UNL     1      16.631  52.396  34.804  1.00  0.00    -0.028 C 
ATOM      3  C   UNL     1      15.330  51.975  36.902  1.00  0.00     0.039 C 
ENDROOT
BRANCH   1   4
ATOM      4  C   UNL     1      14.184  52.738  34.687  1.00  0.00     0.034 C 
BRANCH   4   5
ATOM      5  C   UNL     1      13.857  51.728  33.578  1.00  0.00     0.032 C 
BRANCH   5   6
ATOM      6  C   UNL     1      13.128  50.520  34.117  1.00  0.00    -0.028 C 
ATOM      7  C   UNL     1      13.715  49.078  32.153  1.00  0.00     0.039 C 
ATOM      8  C   UNL     1      13.090  49.313  33.507  1.00  0.00    -0.080 C 
ATOM      9  C   UNL     1      12.356  48.169  34.156  1.00  0.00     0.039 C 
ENDBRANCH   5   6
ENDBRANCH   4   5
ENDBRANCH   1   4
BRANCH   2  10
ATOM     10  C   UNL     1      17.950  52.015  35.428  1.00  0.00     0.035 C 
BRANCH  10  11
ATOM     11  C   UNL     1      18.736  53.270  35.840  1.00  0.00     0.079 C 
BRANCH  11  12
ATOM     12  C   UNL     1      19.406  53.993  34.693  1.00  0.00     0.130 C 
ATOM     13  O   UNL     1      19.187  55.187  34.553  1.00  0.00    -0.300 OA
ATOM     14  C   UNL     1      20.321  53.308  33.714  1.00  0.00     0.087 C 
ENDBRANCH  11  12
ENDBRANCH  10  11
ENDBRANCH   2  10
TORSDOF 6
ENDMDL
MODEL 3
REMARK VINA RESULT:    -4.148      2.906      4.082
REMARK INTER + INTRA:          -6.495
REMARK INTER:                  -5.792
REMARK INTRA:                  -0.704
REMARK UNBOUND:                -0.892
REMARK SMILES CC(=O)CCC=C(C)CCC=C(C)C
REMARK SMILES IDX 7 1 6 2 8 3 9 4 10 5 11 6 13 7 12 8 14 9 5 10 4 11 2 12 3 13
REMARK SMILES IDX 1 14
REMARK H PARENT
REMARK Flexibility Score: inf
ROOT
ATOM      1  C   UNL     1      13.459  62.714  21.969  1.00  0.00    -0.077 C 
ATOM      2  C   UNL     1      14.782  62.575  22.212  1.00  0.00    -0.028 C 
ATOM      3  C   UNL     1      12.935  63.134  20.615  1.00  0.00     0.039 C 
ENDROOT
BRANCH   1   4
ATOM      4  C   UNL     1      12.471  62.419  23.080  1.00  0.00     0.034 C 
BRANCH   4   5
ATOM      5  C   UNL     1      12.522  63.479  24.190  1.00  0.00     0.032 C 
BRANCH   5   6
ATOM      6  C   UNL     1      11.691  64.692  23.846  1.00  0.00    -0.028 C 
ATOM      7  C   UNL     1      13.013  66.227  25.319  1.00  0.00     0.039 C 
ATOM      8  C   UNL     1      11.925  65.939  24.314  1.00  0.00    -0.080 C 
ATOM      9  C   UNL     1      11.046  67.080  23.876  1.00  0.00     0.039 C 
ENDBRANCH   5   6
ENDBRANCH   4   5
ENDBRANCH   1   4
BRANCH   2  10
ATOM     10  C   UNL     1      15.871  62.865  21.209  1.00  0.00     0.035 C 
BRANCH  10  11
ATOM     11  C   UNL     1      16.225  61.600  20.412  1.00  0.00     0.079 C 
BRANCH  11  12
ATOM     12  C   UNL     1      16.654  60.425  21.262  1.00  0.00     0.130 C 
ATOM     13  O   UNL     1      17.686  60.523  21.908  1.00  0.00    -0.300 OA
ATOM     14  C   UNL     1      15.871  59.143  21.342  1.00  0.00     0.087 C 
ENDBRANCH  11  12
ENDBRANCH  10  11
ENDBRANCH   2  10
TORSDOF 6
ENDMDL
MODEL 4
REMARK VINA RESULT:    -4.116     15.890     17.641
REMARK INTER + INTRA:          -6.452
REMARK INTER:                  -5.799
REMARK INTRA:                  -0.652
REMARK UNBOUND:                -0.892
REMARK SMILES CC(=O)CCC=C(C)CCC=C(C)C
REMARK SMILES IDX 7 1 6 2 8 3 9 4 10 5 11 6 13 7 12 8 14 9 5 10 4 11 2 12 3 13
REMARK SMILES IDX 1 14
REMARK H PARENT
REMARK Flexibility Score: inf
ROOT
ATOM      1  C   UNL     1      13.367  50.030  33.057  1.00  0.00    -0.077 C 
ATOM      2  C   UNL     1      12.656  49.430  34.038  1.00  0.00    -0.028 C 
ATOM      3  C   UNL     1      13.963  49.248  31.909  1.00  0.00     0.039 C 
ENDROOT
BRANCH   1   4
ATOM      4  C   UNL     1      13.555  51.534  33.098  1.00  0.00     0.034 C 
BRANCH   4   5
ATOM      5  C   UNL     1      14.116  52.006  34.447  1.00  0.00     0.032 C 
BRANCH   5   6
ATOM      6  C   UNL     1      15.619  52.142  34.413  1.00  0.00    -0.028 C 
ATOM      7  C   UNL     1      15.797  52.670  36.855  1.00  0.00     0.039 C 
ATOM      8  C   UNL     1      16.390  52.400  35.494  1.00  0.00    -0.080 C 
ATOM      9  C   UNL     1      17.887  52.481  35.344  1.00  0.00     0.039 C 
ENDBRANCH   5   6
ENDBRANCH   4   5
ENDBRANCH   1   4
BRANCH   2  10
ATOM     10  C   UNL     1      12.421  47.943  34.136  1.00  0.00     0.035 C 
BRANCH  10  11
ATOM     11  C   UNL     1      10.940  47.647  34.422  1.00  0.00     0.079 C 
BRANCH  11  12
ATOM     12  C   UNL     1      10.146  47.205  33.213  1.00  0.00     0.130 C 
ATOM     13  O   UNL     1       8.965  46.934  33.363  1.00  0.00    -0.300 OA
ATOM     14  C   UNL     1      10.747  47.079  31.839  1.00  0.00     0.087 C 
ENDBRANCH  11  12
ENDBRANCH  10  11
ENDBRANCH   2  10
TORSDOF 6
ENDMDL
MODEL 5
REMARK VINA RESULT:    -4.101      2.250      5.371
REMARK INTER + INTRA:          -6.432
REMARK INTER:                  -5.293
REMARK INTRA:                  -1.139
REMARK UNBOUND:                -0.892
REMARK SMILES CC(=O)CCC=C(C)CCC=C(C)C
REMARK SMILES IDX 7 1 6 2 8 3 9 4 10 5 11 6 13 7 12 8 14 9 5 10 4 11 2 12 3 13
REMARK SMILES IDX 1 14
REMARK H PARENT
REMARK Flexibility Score: inf
ROOT
ATOM      1  C   UNL     1      16.274  61.564  21.139  1.00  0.00    -0.077 C 
ATOM      2  C   UNL     1      15.478  62.425  21.813  1.00  0.00    -0.028 C 
ATOM      3  C   UNL     1      15.953  61.114  19.733  1.00  0.00     0.039 C 
ENDROOT
BRANCH   1   4
ATOM      4  C   UNL     1      17.536  61.052  21.805  1.00  0.00     0.034 C 
BRANCH   4   5
ATOM      5  C   UNL     1      17.256  59.855  22.723  1.00  0.00     0.032 C 
BRANCH   5   6
ATOM      6  C   UNL     1      17.933  58.598  22.230  1.00  0.00    -0.028 C 
ATOM      7  C   UNL     1      15.849  57.681  21.184  1.00  0.00     0.039 C 
ATOM      8  C   UNL     1      17.323  57.634  21.504  1.00  0.00    -0.080 C 
ATOM      9  C   UNL     1      18.111  56.437  21.039  1.00  0.00     0.039 C 
ENDBRANCH   5   6
ENDBRANCH   4   5
ENDBRANCH   1   4
BRANCH   2  10
ATOM     10  C   UNL     1      14.182  62.985  21.283  1.00  0.00     0.035 C 
BRANCH  10  11
ATOM     11  C   UNL     1      12.982  62.350  22.004  1.00  0.00     0.079 C 
BRANCH  11  12
ATOM     12  C   UNL     1      12.543  61.019  21.434  1.00  0.00     0.130 C 
ATOM     13  O   UNL     1      11.855  61.020  20.424  1.00  0.00    -0.300 OA
ATOM     14  C   UNL     1      12.908  59.700  22.057  1.00  0.00     0.087 C 
ENDBRANCH  11  12
ENDBRANCH  10  11
ENDBRANCH   2  10
TORSDOF 6
ENDMDL
MODEL 6
REMARK VINA RESULT:    -3.988      1.514      2.254
REMARK INTER + INTRA:          -6.279
REMARK INTER:                  -5.443
REMARK INTRA:                  -0.836
REMARK UNBOUND:                -0.892
REMARK SMILES CC(=O)CCC=C(C)CCC=C(C)C
REMARK SMILES IDX 7 1 6 2 8 3 9 4 10 5 11 6 13 7 12 8 14 9 5 10 4 11 2 12 3 13
REMARK SMILES IDX 1 14
REMARK H PARENT
REMARK Flexibility Score: inf
ROOT
ATOM      1  C   UNL     1      16.172  61.524  21.434  1.00  0.00    -0.077 C 
ATOM      2  C   UNL     1      16.450  60.476  22.243  1.00  0.00    -0.028 C 
ATOM      3  C   UNL     1      16.405  61.465  19.942  1.00  0.00     0.039 C 
ENDROOT
BRANCH   1   4
ATOM      4  C   UNL     1      15.591  62.787  22.038  1.00  0.00     0.034 C 
BRANCH   4   5
ATOM      5  C   UNL     1      14.062  62.714  22.157  1.00  0.00     0.032 C 
BRANCH   5   6
ATOM      6  C   UNL     1      13.376  63.440  21.024  1.00  0.00    -0.028 C 
ATOM      7  C   UNL     1      12.216  61.385  20.183  1.00  0.00     0.039 C 
ATOM      8  C   UNL     1      12.514  62.864  20.156  1.00  0.00    -0.080 C 
ATOM      9  C   UNL     1      11.864  63.697  19.082  1.00  0.00     0.039 C 
ENDBRANCH   5   6
ENDBRANCH   4   5
ENDBRANCH   1   4
BRANCH   2  10
ATOM     10  C   UNL     1      17.059  59.176  21.779  1.00  0.00     0.035 C 
BRANCH  10  11
ATOM     11  C   UNL     1      18.343  58.869  22.565  1.00  0.00     0.079 C 
BRANCH  11  12
ATOM     12  C   UNL     1      19.268  60.052  22.741  1.00  0.00     0.130 C 
ATOM     13  O   UNL     1      19.779  60.542  21.745  1.00  0.00    -0.300 OA
ATOM     14  C   UNL     1      19.590  60.647  24.085  1.00  0.00     0.087 C 
ENDBRANCH  11  12
ENDBRANCH  10  11
ENDBRANCH   2  10
TORSDOF 6
ENDMDL
MODEL 7
REMARK VINA RESULT:    -3.985     15.192     16.986
REMARK INTER + INTRA:          -6.274
REMARK INTER:                  -5.550
REMARK INTRA:                  -0.725
REMARK UNBOUND:                -0.892
REMARK SMILES CC(=O)CCC=C(C)CCC=C(C)C
REMARK SMILES IDX 7 1 6 2 8 3 9 4 10 5 11 6 13 7 12 8 14 9 5 10 4 11 2 12 3 13
REMARK SMILES IDX 1 14
REMARK H PARENT
REMARK Flexibility Score: inf
ROOT
ATOM      1  C   UNL     1      14.850  52.002  33.874  1.00  0.00    -0.077 C 
ATOM      2  C   UNL     1      14.861  52.002  35.226  1.00  0.00    -0.028 C 
ATOM      3  C   UNL     1      16.124  52.068  33.065  1.00  0.00     0.039 C 
ENDROOT
BRANCH   1   4
ATOM      4  C   UNL     1      13.522  51.910  33.148  1.00  0.00     0.034 C 
BRANCH   4   5
ATOM      5  C   UNL     1      12.758  50.628  33.508  1.00  0.00     0.032 C 
BRANCH   5   6
ATOM      6  C   UNL     1      13.470  49.393  33.013  1.00  0.00    -0.028 C 
ATOM      7  C   UNL     1      11.954  47.820  34.238  1.00  0.00     0.039 C 
ATOM      8  C   UNL     1      13.095  48.125  33.300  1.00  0.00    -0.080 C 
ATOM      9  C   UNL     1      13.866  46.967  32.721  1.00  0.00     0.039 C 
ENDBRANCH   5   6
ENDBRANCH   4   5
ENDBRANCH   1   4
BRANCH   2  10
ATOM     10  C   UNL     1      16.105  52.119  36.071  1.00  0.00     0.035 C 
BRANCH  10  11
ATOM     11  C   UNL     1      16.417  53.593  36.375  1.00  0.00     0.079 C 
BRANCH  11  12
ATOM     12  C   UNL     1      17.730  54.084  35.808  1.00  0.00     0.130 C 
ATOM     13  O   UNL     1      17.790  55.231  35.394  1.00  0.00    -0.300 OA
ATOM     14  C   UNL     1      18.960  53.221  35.726  1.00  0.00     0.087 C 
ENDBRANCH  11  12
ENDBRANCH  10  11
ENDBRANCH   2  10
TORSDOF 6
ENDMDL
MODEL 8
REMARK VINA RESULT:    -3.983     13.744     16.304
REMARK INTER + INTRA:          -6.272
REMARK INTER:                  -5.417
REMARK INTRA:                  -0.855
REMARK UNBOUND:                -0.892
REMARK SMILES CC(=O)CCC=C(C)CCC=C(C)C
REMARK SMILES IDX 7 1 6 2 8 3 9 4 10 5 11 6 13 7 12 8 14 9 5 10 4 11 2 12 3 13
REMARK SMILES IDX 1 14
REMARK H PARENT
REMARK Flexibility Score: inf
ROOT
ATOM      1  C   UNL     1      18.424  52.371  33.594  1.00  0.00    -0.077 C 
ATOM      2  C   UNL     1      18.141  52.341  34.916  1.00  0.00    -0.028 C 
ATOM      3  C   UNL     1      17.346  52.244  32.543  1.00  0.00     0.039 C 
ENDROOT
BRANCH   1   4
ATOM      4  C   UNL     1      19.862  52.559  33.152  1.00  0.00     0.034 C 
BRANCH   4   5
ATOM      5  C   UNL     1      20.590  53.613  33.998  1.00  0.00     0.032 C 
BRANCH   5   6
ATOM      6  C   UNL     1      20.799  54.899  33.234  1.00  0.00    -0.028 C 
ATOM      7  C   UNL     1      18.800  56.023  34.243  1.00  0.00     0.039 C 
ATOM      8  C   UNL     1      20.028  56.002  33.364  1.00  0.00    -0.080 C 
ATOM      9  C   UNL     1      20.353  57.241  32.571  1.00  0.00     0.039 C 
ENDBRANCH   5   6
ENDBRANCH   4   5
ENDBRANCH   1   4
BRANCH   2  10
ATOM     10  C   UNL     1      16.763  52.130  35.491  1.00  0.00     0.035 C 
BRANCH  10  11
ATOM     11  C   UNL     1      16.511  53.093  36.661  1.00  0.00     0.079 C 
BRANCH  11  12
ATOM     12  C   UNL     1      15.197  52.876  37.378  1.00  0.00     0.130 C 
ATOM     13  O   UNL     1      14.368  53.772  37.354  1.00  0.00    -0.300 OA
ATOM     14  C   UNL     1      14.871  51.611  38.125  1.00  0.00     0.087 C 
ENDBRANCH  11  12
ENDBRANCH  10  11
ENDBRANCH   2  10
TORSDOF 6
ENDMDL
MODEL 9
REMARK VINA RESULT:    -3.898     14.969     16.184
REMARK INTER + INTRA:          -6.158
REMARK INTER:                  -5.009
REMARK INTRA:                  -1.149
REMARK UNBOUND:                -0.892
REMARK SMILES CC(=O)CCC=C(C)CCC=C(C)C
REMARK SMILES IDX 7 1 6 2 8 3 9 4 10 5 11 6 13 7 12 8 14 9 5 10 4 11 2 12 3 13
REMARK SMILES IDX 1 14
REMARK H PARENT
REMARK Flexibility Score: inf
ROOT
ATOM      1  C   UNL     1      15.355  53.626  36.306  1.00  0.00    -0.077 C 
ATOM      2  C   UNL     1      16.550  54.025  35.815  1.00  0.00    -0.028 C 
ATOM      3  C   UNL     1      15.245  52.552  37.363  1.00  0.00     0.039 C 
ENDROOT
BRANCH   1   4
ATOM      4  C   UNL     1      14.091  54.289  35.798  1.00  0.00     0.034 C 
BRANCH   4   5
ATOM      5  C   UNL     1      13.851  54.003  34.309  1.00  0.00     0.032 C 
BRANCH   5   6
ATOM      6  C   UNL     1      13.288  52.619  34.087  1.00  0.00    -0.028 C 
ATOM      7  C   UNL     1      15.383  51.753  33.019  1.00  0.00     0.039 C 
ATOM      8  C   UNL     1      13.978  51.589  33.546  1.00  0.00    -0.080 C 
ATOM      9  C   UNL     1      13.321  50.241  33.403  1.00  0.00     0.039 C 
ENDBRANCH   5   6
ENDBRANCH   4   5
ENDBRANCH   1   4
BRANCH   2  10
ATOM     10  C   UNL     1      17.879  53.430  36.208  1.00  0.00     0.035 C 
BRANCH  10  11
ATOM     11  C   UNL     1      18.362  52.430  35.145  1.00  0.00     0.079 C 
BRANCH  11  12
ATOM     12  C   UNL     1      19.389  52.986  34.185  1.00  0.00     0.130 C 
ATOM     13  O   UNL     1      20.049  53.952  34.537  1.00  0.00    -0.300 OA
ATOM     14  C   UNL     1      19.629  52.408  32.817  1.00  0.00     0.087 C 
ENDBRANCH  11  12
ENDBRANCH  10  11
ENDBRANCH   2  10
TORSDOF 6
ENDMDL
