MODEL 1
REMARK VINA RESULT:    -4.305      0.000      0.000
REMARK INTER + INTRA:          -4.697
REMARK INTER:                  -4.683
REMARK INTRA:                  -0.015
REMARK UNBOUND:                -0.015
REMARK SMILES OCc1ccccc1
REMARK SMILES IDX 2 1 3 2 6 3 5 4 7 5 4 6 8 7 1 8
REMARK H PARENT 1 9
REMARK Flexibility Score: inf
ROOT
ATOM      1  C   UNL     1      20.984   8.806  54.460  1.00  0.00     0.191 C 
ENDROOT
BRANCH   1   2
ATOM      2  C   UNL     1      20.659  10.182  53.948  1.00  0.00    -0.023 A 
ATOM      3  C   UNL     1      20.049  12.775  53.066  1.00  0.00     0.000 A 
ATOM      4  C   UNL     1      19.020  11.873  53.346  1.00  0.00     0.000 A 
ATOM      5  C   UNL     1      21.382  12.390  53.235  1.00  0.00     0.000 A 
ATOM      6  C   UNL     1      19.320  10.582  53.791  1.00  0.00     0.006 A 
ATOM      7  C   UNL     1      21.687  11.100  53.680  1.00  0.00     0.006 A 
ENDBRANCH   1   2
BRANCH   1   8
ATOM      8  O   UNL     1      20.189   8.508  55.576  1.00  0.00    -0.392 OA
ATOM      9  H   UNL     1      19.815   9.371  55.895  1.00  0.00     0.211 HD
ENDBRANCH   1   8
TORSDOF 2
ENDMDL
MODEL 2
REMARK VINA RESULT:    -4.292      0.028      1.714
REMARK INTER + INTRA:          -4.683
REMARK INTER:                  -4.670
REMARK INTRA:                  -0.014
REMARK UNBOUND:                -0.015
REMARK SMILES OCc1ccccc1
REMARK SMILES IDX 2 1 3 2 6 3 5 4 7 5 4 6 8 7 1 8
REMARK H PARENT 1 9
REMARK Flexibility Score: inf
ROOT
ATOM      1  C   UNL     1      20.982   8.812  54.472  1.00  0.00     0.191 C 
ENDROOT
BRANCH   1   2
ATOM      2  C   UNL     1      20.651  10.201  54.000  1.00  0.00    -0.023 A 
ATOM      3  C   UNL     1      20.036  12.767  53.044  1.00  0.00     0.000 A 
ATOM      4  C   UNL     1      21.369  12.388  53.218  1.00  0.00     0.000 A 
ATOM      5  C   UNL     1      19.009  11.865  53.336  1.00  0.00     0.000 A 
ATOM      6  C   UNL     1      21.679  11.108  53.689  1.00  0.00     0.006 A 
ATOM      7  C   UNL     1      19.314  10.584  53.807  1.00  0.00     0.006 A 
ENDBRANCH   1   2
BRANCH   1   8
ATOM      8  O   UNL     1      20.190   8.479  55.579  1.00  0.00    -0.392 OA
ATOM      9  H   UNL     1      20.721   7.841  56.125  1.00  0.00     0.211 HD
ENDBRANCH   1   8
TORSDOF 2
ENDMDL
MODEL 3
REMARK VINA RESULT:    -4.092      9.463     10.299
REMARK INTER + INTRA:          -4.465
REMARK INTER:                  -4.456
REMARK INTRA:                  -0.009
REMARK UNBOUND:                -0.015
REMARK SMILES OCc1ccccc1
REMARK SMILES IDX 2 1 3 2 6 3 5 4 7 5 4 6 8 7 1 8
REMARK H PARENT 1 9
REMARK Flexibility Score: inf
ROOT
ATOM      1  C   UNL     1      14.105  18.561  59.148  1.00  0.00     0.191 C 
ENDROOT
BRANCH   1   2
ATOM      2  C   UNL     1      15.148  18.846  58.102  1.00  0.00    -0.023 A 
ATOM      3  C   UNL     1      17.052  19.440  56.128  1.00  0.00     0.000 A 
ATOM      4  C   UNL     1      15.981  18.592  55.833  1.00  0.00     0.000 A 
ATOM      5  C   UNL     1      17.169  20.000  57.403  1.00  0.00     0.000 A 
ATOM      6  C   UNL     1      15.028  18.299  56.814  1.00  0.00     0.006 A 
ATOM      7  C   UNL     1      16.218  19.710  58.387  1.00  0.00     0.006 A 
ENDBRANCH   1   2
BRANCH   1   8
ATOM      8  O   UNL     1      14.501  17.474  59.939  1.00  0.00    -0.392 OA
ATOM      9  H   UNL     1      14.760  17.847  60.822  1.00  0.00     0.211 HD
ENDBRANCH   1   8
TORSDOF 2
ENDMDL
MODEL 4
REMARK VINA RESULT:    -4.046      9.442     10.344
REMARK INTER + INTRA:          -4.415
REMARK INTER:                  -4.402
REMARK INTRA:                  -0.012
REMARK UNBOUND:                -0.015
REMARK SMILES OCc1ccccc1
REMARK SMILES IDX 2 1 3 2 6 3 5 4 7 5 4 6 8 7 1 8
REMARK H PARENT 1 9
REMARK Flexibility Score: inf
ROOT
ATOM      1  C   UNL     1      17.521  19.345  56.247  1.00  0.00     0.191 C 
ENDROOT
BRANCH   1   2
ATOM      2  C   UNL     1      16.225  18.894  56.863  1.00  0.00    -0.023 A 
ATOM      3  C   UNL     1      13.770  18.115  57.976  1.00  0.00     0.000 A 
ATOM      4  C   UNL     1      14.603  18.997  58.670  1.00  0.00     0.000 A 
ATOM      5  C   UNL     1      14.154  17.630  56.723  1.00  0.00     0.000 A 
ATOM      6  C   UNL     1      15.825  19.391  58.115  1.00  0.00     0.006 A 
ATOM      7  C   UNL     1      15.375  18.022  56.164  1.00  0.00     0.006 A 
ENDBRANCH   1   2
BRANCH   1   8
ATOM      8  O   UNL     1      17.275  19.996  55.030  1.00  0.00    -0.392 OA
ATOM      9  H   UNL     1      18.157  20.298  54.688  1.00  0.00     0.211 HD
ENDBRANCH   1   8
TORSDOF 2
ENDMDL
MODEL 5
REMARK VINA RESULT:    -3.932     11.661     12.609
REMARK INTER + INTRA:          -4.291
REMARK INTER:                  -4.272
REMARK INTRA:                  -0.019
REMARK UNBOUND:                -0.015
REMARK SMILES OCc1ccccc1
REMARK SMILES IDX 2 1 3 2 6 3 5 4 7 5 4 6 8 7 1 8
REMARK H PARENT 1 9
REMARK Flexibility Score: inf
ROOT
ATOM      1  C   UNL     1      13.484  17.803  60.165  1.00  0.00     0.191 C 
ENDROOT
BRANCH   1   2
ATOM      2  C   UNL     1      12.109  17.747  59.556  1.00  0.00    -0.023 A 
ATOM      3  C   UNL     1       9.545  17.724  58.418  1.00  0.00     0.000 A 
ATOM      4  C   UNL     1       9.692  17.757  59.807  1.00  0.00     0.000 A 
ATOM      5  C   UNL     1      10.674  17.713  57.595  1.00  0.00     0.000 A 
ATOM      6  C   UNL     1      10.969  17.774  60.377  1.00  0.00     0.006 A 
ATOM      7  C   UNL     1      11.953  17.731  58.161  1.00  0.00     0.006 A 
ENDBRANCH   1   2
BRANCH   1   8
ATOM      8  O   UNL     1      14.454  17.568  59.181  1.00  0.00    -0.392 OA
ATOM      9  H   UNL     1      14.314  18.253  58.476  1.00  0.00     0.211 HD
ENDBRANCH   1   8
TORSDOF 2
ENDMDL
MODEL 6
REMARK VINA RESULT:    -3.910      3.696      5.066
REMARK INTER + INTRA:          -4.267
REMARK INTER:                  -4.253
REMARK INTRA:                  -0.015
REMARK UNBOUND:                -0.015
REMARK SMILES OCc1ccccc1
REMARK SMILES IDX 2 1 3 2 6 3 5 4 7 5 4 6 8 7 1 8
REMARK H PARENT 1 9
REMARK Flexibility Score: inf
ROOT
ATOM      1  C   UNL     1      19.298   8.849  54.752  1.00  0.00     0.191 C 
ENDROOT
BRANCH   1   2
ATOM      2  C   UNL     1      17.965   8.163  54.640  1.00  0.00    -0.023 A 
ATOM      3  C   UNL     1      15.488   6.876  54.353  1.00  0.00     0.000 A 
ATOM      4  C   UNL     1      15.568   8.267  54.246  1.00  0.00     0.000 A 
ATOM      5  C   UNL     1      16.642   6.125  54.592  1.00  0.00     0.000 A 
ATOM      6  C   UNL     1      16.802   8.910  54.384  1.00  0.00     0.006 A 
ATOM      7  C   UNL     1      17.878   6.764  54.730  1.00  0.00     0.006 A 
ENDBRANCH   1   2
BRANCH   1   8
ATOM      8  O   UNL     1      20.048   8.277  55.789  1.00  0.00    -0.392 OA
ATOM      9  H   UNL     1      19.394   7.908  56.440  1.00  0.00     0.211 HD
ENDBRANCH   1   8
TORSDOF 2
ENDMDL
MODEL 7
REMARK VINA RESULT:    -3.897     13.282     14.402
REMARK INTER + INTRA:          -4.253
REMARK INTER:                  -4.243
REMARK INTRA:                  -0.010
REMARK UNBOUND:                -0.015
REMARK SMILES OCc1ccccc1
REMARK SMILES IDX 2 1 3 2 6 3 5 4 7 5 4 6 8 7 1 8
REMARK H PARENT 1 9
REMARK Flexibility Score: inf
ROOT
ATOM      1  C   UNL     1       9.833  19.305  62.051  1.00  0.00     0.191 C 
ENDROOT
BRANCH   1   2
ATOM      2  C   UNL     1      10.451  19.199  60.684  1.00  0.00    -0.023 A 
ATOM      3  C   UNL     1      11.674  19.021  58.165  1.00  0.00     0.000 A 
ATOM      4  C   UNL     1      11.129  20.234  58.592  1.00  0.00     0.000 A 
ATOM      5  C   UNL     1      11.620  17.898  58.996  1.00  0.00     0.000 A 
ATOM      6  C   UNL     1      10.523  20.327  59.849  1.00  0.00     0.006 A 
ATOM      7  C   UNL     1      11.016  17.987  60.254  1.00  0.00     0.006 A 
ENDBRANCH   1   2
BRANCH   1   8
ATOM      8  O   UNL     1      10.793  19.729  62.980  1.00  0.00    -0.392 OA
ATOM      9  H   UNL     1      11.269  18.913  63.287  1.00  0.00     0.211 HD
ENDBRANCH   1   8
TORSDOF 2
ENDMDL
MODEL 8
REMARK VINA RESULT:    -3.845     11.939     13.078
REMARK INTER + INTRA:          -4.196
REMARK INTER:                  -4.177
REMARK INTRA:                  -0.019
REMARK UNBOUND:                -0.015
REMARK SMILES OCc1ccccc1
REMARK SMILES IDX 2 1 3 2 6 3 5 4 7 5 4 6 8 7 1 8
REMARK H PARENT 1 9
REMARK Flexibility Score: inf
ROOT
ATOM      1  C   UNL     1      13.926  18.626  58.356  1.00  0.00     0.191 C 
ENDROOT
BRANCH   1   2
ATOM      2  C   UNL     1      12.579  18.902  58.964  1.00  0.00    -0.023 A 
ATOM      3  C   UNL     1      10.101  19.449  60.162  1.00  0.00     0.000 A 
ATOM      4  C   UNL     1      10.744  18.234  60.412  1.00  0.00     0.000 A 
ATOM      5  C   UNL     1      10.696  20.396  59.324  1.00  0.00     0.000 A 
ATOM      6  C   UNL     1      11.982  17.961  59.820  1.00  0.00     0.006 A 
ATOM      7  C   UNL     1      11.934  20.127  58.730  1.00  0.00     0.006 A 
ENDBRANCH   1   2
BRANCH   1   8
ATOM      8  O   UNL     1      14.544  17.557  59.020  1.00  0.00    -0.392 OA
ATOM      9  H   UNL     1      15.229  17.196  58.398  1.00  0.00     0.211 HD
ENDBRANCH   1   8
TORSDOF 2
ENDMDL
MODEL 9
REMARK VINA RESULT:    -3.795     13.428     14.618
REMARK INTER + INTRA:          -4.143
REMARK INTER:                  -4.132
REMARK INTRA:                  -0.011
REMARK UNBOUND:                -0.015
REMARK SMILES OCc1ccccc1
REMARK SMILES IDX 2 1 3 2 6 3 5 4 7 5 4 6 8 7 1 8
REMARK H PARENT 1 9
REMARK Flexibility Score: inf
ROOT
ATOM      1  C   UNL     1       7.332  17.726  60.277  1.00  0.00     0.191 C 
ENDROOT
BRANCH   1   2
ATOM      2  C   UNL     1       8.759  17.763  59.802  1.00  0.00    -0.023 A 
ATOM      3  C   UNL     1      11.420  17.751  58.914  1.00  0.00     0.000 A 
ATOM      4  C   UNL     1      11.141  17.741  60.283  1.00  0.00     0.000 A 
ATOM      5  C   UNL     1      10.375  17.757  57.987  1.00  0.00     0.000 A 
ATOM      6  C   UNL     1       9.815  17.741  60.728  1.00  0.00     0.006 A 
ATOM      7  C   UNL     1       9.047  17.757  58.428  1.00  0.00     0.006 A 
ENDBRANCH   1   2
BRANCH   1   8
ATOM      8  O   UNL     1       6.670  18.902  59.900  1.00  0.00    -0.392 OA
ATOM      9  H   UNL     1       6.820  19.558  60.631  1.00  0.00     0.211 HD
ENDBRANCH   1   8
TORSDOF 2
ENDMDL
