MODEL 1
REMARK VINA RESULT:    -6.226      0.000      0.000
REMARK INTER + INTRA:          -7.445
REMARK INTER:                  -7.317
REMARK INTRA:                  -0.128
REMARK UNBOUND:                -0.128
REMARK SMILES O=C([O-])C=Cc1ccc(O)c(O)c1
REMARK SMILES IDX 6 1 13 2 7 3 11 4 8 5 9 6 5 7 4 8 2 9 1 10 3 11 12 12 10 14
REMARK H PARENT 12 13 10 15
REMARK Flexibility Score: inf
ROOT
ATOM      1  C   UNL     1     -24.430 -22.448 -12.793  1.00  0.00    -0.022 A 
ATOM      2  C   UNL     1     -25.385 -22.854 -13.739  1.00  0.00     0.058 A 
ATOM      3  C   UNL     1     -23.436 -23.363 -12.395  1.00  0.00     0.012 A 
ATOM      4  C   UNL     1     -25.369 -24.151 -14.264  1.00  0.00     0.157 A 
ATOM      5  C   UNL     1     -23.418 -24.659 -12.917  1.00  0.00     0.051 A 
ATOM      6  C   UNL     1     -24.383 -25.060 -13.850  1.00  0.00     0.157 A 
ENDROOT
BRANCH   1   7
ATOM      7  C   UNL     1     -24.488 -21.058 -12.277  1.00  0.00     0.010 C 
ATOM      8  C   UNL     1     -25.549 -20.541 -11.641  1.00  0.00     0.025 C 
BRANCH   8   9
ATOM      9  C   UNL     1     -25.573 -19.152 -11.153  1.00  0.00     0.064 C 
ATOM     10  O   UNL     1     -25.016 -18.225 -11.797  1.00  0.00    -0.545 OA
ATOM     11  O   UNL     1     -26.220 -18.860  -9.959  1.00  0.00    -0.545 OA
ENDBRANCH   8   9
ENDBRANCH   1   7
BRANCH   4  12
ATOM     12  O   UNL     1     -26.341 -24.517 -15.195  1.00  0.00    -0.504 OA
ATOM     13  H   UNL     1     -27.218 -24.945 -14.918  1.00  0.00     0.293 HD
ENDBRANCH   4  12
BRANCH   6  14
ATOM     14  O   UNL     1     -24.362 -26.354 -14.368  1.00  0.00    -0.504 OA
ATOM     15  H   UNL     1     -23.516 -26.758 -14.754  1.00  0.00     0.293 HD
ENDBRANCH   6  14
TORSDOF 4
ENDMDL
MODEL 2
REMARK VINA RESULT:    -6.205      0.700      1.138
REMARK INTER + INTRA:          -7.420
REMARK INTER:                  -7.283
REMARK INTRA:                  -0.137
REMARK UNBOUND:                -0.128
REMARK SMILES O=C([O-])C=Cc1ccc(O)c(O)c1
REMARK SMILES IDX 6 1 13 2 7 3 11 4 8 5 9 6 5 7 4 8 2 9 1 10 3 11 12 12 10 14
REMARK H PARENT 12 13 10 15
REMARK Flexibility Score: inf
ROOT
ATOM      1  C   UNL     1     -25.186 -22.830 -13.013  1.00  0.00    -0.022 A 
ATOM      2  C   UNL     1     -25.984 -23.547 -13.919  1.00  0.00     0.058 A 
ATOM      3  C   UNL     1     -23.943 -23.369 -12.626  1.00  0.00     0.012 A 
ATOM      4  C   UNL     1     -25.569 -24.789 -14.413  1.00  0.00     0.157 A 
ATOM      5  C   UNL     1     -23.526 -24.609 -13.118  1.00  0.00     0.051 A 
ATOM      6  C   UNL     1     -24.335 -25.325 -14.009  1.00  0.00     0.157 A 
ENDROOT
BRANCH   1   7
ATOM      7  C   UNL     1     -25.670 -21.513 -12.529  1.00  0.00     0.010 C 
ATOM      8  C   UNL     1     -24.883 -20.598 -11.944  1.00  0.00     0.025 C 
BRANCH   8   9
ATOM      9  C   UNL     1     -25.402 -19.306 -11.465  1.00  0.00     0.064 C 
ATOM     10  O   UNL     1     -26.196 -19.244 -10.489  1.00  0.00    -0.545 OA
ATOM     11  O   UNL     1     -25.012 -18.136 -12.102  1.00  0.00    -0.545 OA
ENDBRANCH   8   9
ENDBRANCH   1   7
BRANCH   4  12
ATOM     12  O   UNL     1     -26.395 -25.475 -15.303  1.00  0.00    -0.504 OA
ATOM     13  H   UNL     1     -27.086 -26.147 -14.988  1.00  0.00     0.293 HD
ENDBRANCH   4  12
BRANCH   6  14
ATOM     14  O   UNL     1     -23.916 -26.562 -14.497  1.00  0.00    -0.504 OA
ATOM     15  H   UNL     1     -24.028 -27.412 -13.956  1.00  0.00     0.293 HD
ENDBRANCH   6  14
TORSDOF 4
ENDMDL
MODEL 3
REMARK VINA RESULT:    -6.040      1.047      2.222
REMARK INTER + INTRA:          -7.227
REMARK INTER:                  -7.092
REMARK INTRA:                  -0.135
REMARK UNBOUND:                -0.128
REMARK SMILES O=C([O-])C=Cc1ccc(O)c(O)c1
REMARK SMILES IDX 6 1 13 2 7 3 11 4 8 5 9 6 5 7 4 8 2 9 1 10 3 11 12 12 10 14
REMARK H PARENT 12 13 10 15
REMARK Flexibility Score: inf
ROOT
ATOM      1  C   UNL     1     -25.288 -22.821 -13.370  1.00  0.00    -0.022 A 
ATOM      2  C   UNL     1     -24.457 -23.950 -13.436  1.00  0.00     0.058 A 
ATOM      3  C   UNL     1     -26.521 -22.842 -14.052  1.00  0.00     0.012 A 
ATOM      4  C   UNL     1     -24.829 -25.072 -14.185  1.00  0.00     0.157 A 
ATOM      5  C   UNL     1     -26.895 -23.961 -14.800  1.00  0.00     0.051 A 
ATOM      6  C   UNL     1     -26.053 -25.078 -14.874  1.00  0.00     0.157 A 
ENDROOT
BRANCH   1   7
ATOM      7  C   UNL     1     -24.849 -21.662 -12.553  1.00  0.00     0.010 C 
ATOM      8  C   UNL     1     -25.692 -20.793 -11.975  1.00  0.00     0.025 C 
BRANCH   8   9
ATOM      9  C   UNL     1     -25.217 -19.648 -11.181  1.00  0.00     0.064 C 
ATOM     10  O   UNL     1     -25.006 -19.755  -9.944  1.00  0.00    -0.545 OA
ATOM     11  O   UNL     1     -25.002 -18.427 -11.806  1.00  0.00    -0.545 OA
ENDBRANCH   8   9
ENDBRANCH   1   7
BRANCH   4  12
ATOM     12  O   UNL     1     -23.971 -26.170 -14.233  1.00  0.00    -0.504 OA
ATOM     13  H   UNL     1     -24.314 -27.117 -14.354  1.00  0.00     0.293 HD
ENDBRANCH   4  12
BRANCH   6  14
ATOM     14  O   UNL     1     -26.430 -26.192 -15.622  1.00  0.00    -0.504 OA
ATOM     15  H   UNL     1     -26.302 -26.224 -16.627  1.00  0.00     0.293 HD
ENDBRANCH   6  14
TORSDOF 4
ENDMDL
MODEL 4
REMARK VINA RESULT:    -6.019      2.924      3.590
REMARK INTER + INTRA:          -7.202
REMARK INTER:                  -7.075
REMARK INTRA:                  -0.128
REMARK UNBOUND:                -0.128
REMARK SMILES O=C([O-])C=Cc1ccc(O)c(O)c1
REMARK SMILES IDX 6 1 13 2 7 3 11 4 8 5 9 6 5 7 4 8 2 9 1 10 3 11 12 12 10 14
REMARK H PARENT 12 13 10 15
REMARK Flexibility Score: inf
ROOT
ATOM      1  C   UNL     1     -25.785 -19.763 -13.468  1.00  0.00    -0.022 A 
ATOM      2  C   UNL     1     -25.547 -20.585 -14.581  1.00  0.00     0.058 A 
ATOM      3  C   UNL     1     -26.303 -20.343 -12.293  1.00  0.00     0.012 A 
ATOM      4  C   UNL     1     -25.839 -21.953 -14.539  1.00  0.00     0.157 A 
ATOM      5  C   UNL     1     -26.596 -21.708 -12.249  1.00  0.00     0.051 A 
ATOM      6  C   UNL     1     -26.370 -22.518 -13.368  1.00  0.00     0.157 A 
ENDROOT
BRANCH   1   7
ATOM      7  C   UNL     1     -25.447 -18.321 -13.565  1.00  0.00     0.010 C 
ATOM      8  C   UNL     1     -24.192 -17.850 -13.604  1.00  0.00     0.025 C 
BRANCH   8   9
ATOM      9  C   UNL     1     -23.895 -16.410 -13.688  1.00  0.00     0.064 C 
ATOM     10  O   UNL     1     -24.651 -15.625 -14.319  1.00  0.00    -0.545 OA
ATOM     11  O   UNL     1     -22.761 -15.910 -13.063  1.00  0.00    -0.545 OA
ENDBRANCH   8   9
ENDBRANCH   1   7
BRANCH   4  12
ATOM     12  O   UNL     1     -25.597 -22.733 -15.669  1.00  0.00    -0.504 OA
ATOM     13  H   UNL     1     -26.345 -23.042 -16.281  1.00  0.00     0.293 HD
ENDBRANCH   4  12
BRANCH   6  14
ATOM     14  O   UNL     1     -26.664 -23.880 -13.319  1.00  0.00    -0.504 OA
ATOM     15  H   UNL     1     -26.202 -24.500 -12.664  1.00  0.00     0.293 HD
ENDBRANCH   6  14
TORSDOF 4
ENDMDL
MODEL 5
REMARK VINA RESULT:    -5.915      3.869      5.308
REMARK INTER + INTRA:          -7.080
REMARK INTER:                  -6.952
REMARK INTRA:                  -0.128
REMARK UNBOUND:                -0.128
REMARK SMILES O=C([O-])C=Cc1ccc(O)c(O)c1
REMARK SMILES IDX 6 1 13 2 7 3 11 4 8 5 9 6 5 7 4 8 2 9 1 10 3 11 12 12 10 14
REMARK H PARENT 12 13 10 15
REMARK Flexibility Score: inf
ROOT
ATOM      1  C   UNL     1     -24.611 -18.101 -13.470  1.00  0.00    -0.022 A 
ATOM      2  C   UNL     1     -23.514 -18.913 -13.795  1.00  0.00     0.058 A 
ATOM      3  C   UNL     1     -25.648 -18.640 -12.683  1.00  0.00     0.012 A 
ATOM      4  C   UNL     1     -23.455 -20.245 -13.369  1.00  0.00     0.157 A 
ATOM      5  C   UNL     1     -25.592 -19.969 -12.256  1.00  0.00     0.051 A 
ATOM      6  C   UNL     1     -24.501 -20.778 -12.597  1.00  0.00     0.157 A 
ENDROOT
BRANCH   1   7
ATOM      7  C   UNL     1     -24.617 -16.693 -13.940  1.00  0.00     0.010 C 
ATOM      8  C   UNL     1     -25.377 -16.247 -14.951  1.00  0.00     0.025 C 
BRANCH   8   9
ATOM      9  C   UNL     1     -25.346 -14.844 -15.397  1.00  0.00     0.064 C 
ATOM     10  O   UNL     1     -25.748 -13.913 -14.650  1.00  0.00    -0.545 OA
ATOM     11  O   UNL     1     -24.869 -14.542 -16.666  1.00  0.00    -0.545 OA
ENDBRANCH   8   9
ENDBRANCH   1   7
BRANCH   4  12
ATOM     12  O   UNL     1     -22.352 -21.022 -13.721  1.00  0.00    -0.504 OA
ATOM     13  H   UNL     1     -21.791 -20.819 -14.541  1.00  0.00     0.293 HD
ENDBRANCH   4  12
BRANCH   6  14
ATOM     14  O   UNL     1     -24.449 -22.104 -12.170  1.00  0.00    -0.504 OA
ATOM     15  H   UNL     1     -24.302 -22.866 -12.821  1.00  0.00     0.293 HD
ENDBRANCH   6  14
TORSDOF 4
ENDMDL
MODEL 6
REMARK VINA RESULT:    -5.910      1.402      1.715
REMARK INTER + INTRA:          -7.074
REMARK INTER:                  -6.941
REMARK INTRA:                  -0.133
REMARK UNBOUND:                -0.128
REMARK SMILES O=C([O-])C=Cc1ccc(O)c(O)c1
REMARK SMILES IDX 6 1 13 2 7 3 11 4 8 5 9 6 5 7 4 8 2 9 1 10 3 11 12 12 10 14
REMARK H PARENT 12 13 10 15
REMARK Flexibility Score: inf
ROOT
ATOM      1  C   UNL     1     -24.171 -22.081 -13.553  1.00  0.00    -0.022 A 
ATOM      2  C   UNL     1     -25.184 -22.627 -14.358  1.00  0.00     0.058 A 
ATOM      3  C   UNL     1     -23.213 -22.944 -12.986  1.00  0.00     0.012 A 
ATOM      4  C   UNL     1     -25.259 -24.007 -14.579  1.00  0.00     0.157 A 
ATOM      5  C   UNL     1     -23.286 -24.322 -13.204  1.00  0.00     0.051 A 
ATOM      6  C   UNL     1     -24.308 -24.860 -13.996  1.00  0.00     0.157 A 
ENDROOT
BRANCH   1   7
ATOM      7  C   UNL     1     -24.132 -20.609 -13.362  1.00  0.00     0.010 C 
ATOM      8  C   UNL     1     -25.150 -19.790 -13.665  1.00  0.00     0.025 C 
BRANCH   8   9
ATOM      9  C   UNL     1     -25.070 -18.333 -13.471  1.00  0.00     0.064 C 
ATOM     10  O   UNL     1     -24.566 -17.840 -12.428  1.00  0.00    -0.545 OA
ATOM     11  O   UNL     1     -25.562 -17.486 -14.456  1.00  0.00    -0.545 OA
ENDBRANCH   8   9
ENDBRANCH   1   7
BRANCH   4  12
ATOM     12  O   UNL     1     -26.286 -24.510 -15.377  1.00  0.00    -0.504 OA
ATOM     13  H   UNL     1     -27.180 -24.041 -15.463  1.00  0.00     0.293 HD
ENDBRANCH   4  12
BRANCH   6  14
ATOM     14  O   UNL     1     -24.378 -26.236 -14.211  1.00  0.00    -0.504 OA
ATOM     15  H   UNL     1     -23.693 -26.870 -13.817  1.00  0.00     0.293 HD
ENDBRANCH   6  14
TORSDOF 4
ENDMDL
MODEL 7
REMARK VINA RESULT:    -5.700      2.330      6.023
REMARK INTER + INTRA:          -6.827
REMARK INTER:                  -6.692
REMARK INTRA:                  -0.135
REMARK UNBOUND:                -0.128
REMARK SMILES O=C([O-])C=Cc1ccc(O)c(O)c1
REMARK SMILES IDX 6 1 13 2 7 3 11 4 8 5 9 6 5 7 4 8 2 9 1 10 3 11 12 12 10 14
REMARK H PARENT 12 13 10 15
REMARK Flexibility Score: inf
ROOT
ATOM      1  C   UNL     1     -24.402 -20.739 -13.351  1.00  0.00    -0.022 A 
ATOM      2  C   UNL     1     -23.390 -19.784 -13.542  1.00  0.00     0.058 A 
ATOM      3  C   UNL     1     -25.740 -20.369 -13.592  1.00  0.00     0.012 A 
ATOM      4  C   UNL     1     -23.700 -18.479 -13.940  1.00  0.00     0.157 A 
ATOM      5  C   UNL     1     -26.053 -19.066 -13.990  1.00  0.00     0.051 A 
ATOM      6  C   UNL     1     -25.039 -18.116 -14.163  1.00  0.00     0.157 A 
ENDROOT
BRANCH   1   7
ATOM      7  C   UNL     1     -24.016 -22.111 -12.938  1.00  0.00     0.010 C 
ATOM      8  C   UNL     1     -24.496 -23.225 -13.510  1.00  0.00     0.025 C 
BRANCH   8   9
ATOM      9  C   UNL     1     -24.097 -24.571 -13.064  1.00  0.00     0.064 C 
ATOM     10  O   UNL     1     -24.114 -24.886 -11.845  1.00  0.00    -0.545 OA
ATOM     11  O   UNL     1     -23.693 -25.508 -14.005  1.00  0.00    -0.545 OA
ENDBRANCH   8   9
ENDBRANCH   1   7
BRANCH   4  12
ATOM     12  O   UNL     1     -22.667 -17.558 -14.109  1.00  0.00    -0.504 OA
ATOM     13  H   UNL     1     -22.526 -16.784 -13.470  1.00  0.00     0.293 HD
ENDBRANCH   4  12
BRANCH   6  14
ATOM     14  O   UNL     1     -25.355 -16.817 -14.559  1.00  0.00    -0.504 OA
ATOM     15  H   UNL     1     -26.069 -16.276 -14.085  1.00  0.00     0.293 HD
ENDBRANCH   6  14
TORSDOF 4
ENDMDL
MODEL 8
REMARK VINA RESULT:    -5.630      3.846      5.285
REMARK INTER + INTRA:          -6.745
REMARK INTER:                  -6.610
REMARK INTRA:                  -0.136
REMARK UNBOUND:                -0.128
REMARK SMILES O=C([O-])C=Cc1ccc(O)c(O)c1
REMARK SMILES IDX 6 1 13 2 7 3 11 4 8 5 9 6 5 7 4 8 2 9 1 10 3 11 12 12 10 14
REMARK H PARENT 12 13 10 15
REMARK Flexibility Score: inf
ROOT
ATOM      1  C   UNL     1     -25.004 -18.220 -13.828  1.00  0.00    -0.022 A 
ATOM      2  C   UNL     1     -25.893 -18.915 -12.993  1.00  0.00     0.058 A 
ATOM      3  C   UNL     1     -23.735 -18.777 -14.085  1.00  0.00     0.012 A 
ATOM      4  C   UNL     1     -25.523 -20.130 -12.404  1.00  0.00     0.157 A 
ATOM      5  C   UNL     1     -23.364 -19.989 -13.499  1.00  0.00     0.051 A 
ATOM      6  C   UNL     1     -24.251 -20.669 -12.655  1.00  0.00     0.157 A 
ENDROOT
BRANCH   1   7
ATOM      7  C   UNL     1     -25.451 -16.942 -14.435  1.00  0.00     0.010 C 
ATOM      8  C   UNL     1     -24.616 -15.967 -14.824  1.00  0.00     0.025 C 
BRANCH   8   9
ATOM      9  C   UNL     1     -25.099 -14.707 -15.412  1.00  0.00     0.064 C 
ATOM     10  O   UNL     1     -25.812 -13.908 -14.748  1.00  0.00    -0.545 OA
ATOM     11  O   UNL     1     -24.765 -14.394 -16.722  1.00  0.00    -0.545 OA
ENDBRANCH   8   9
ENDBRANCH   1   7
BRANCH   4  12
ATOM     12  O   UNL     1     -26.432 -20.785 -11.573  1.00  0.00    -0.504 OA
ATOM     13  H   UNL     1     -26.893 -21.644 -11.851  1.00  0.00     0.293 HD
ENDBRANCH   4  12
BRANCH   6  14
ATOM     14  O   UNL     1     -23.875 -21.878 -12.071  1.00  0.00    -0.504 OA
ATOM     15  H   UNL     1     -23.732 -21.963 -11.071  1.00  0.00     0.293 HD
ENDBRANCH   6  14
TORSDOF 4
ENDMDL
MODEL 9
REMARK VINA RESULT:    -5.583      4.221      7.321
REMARK INTER + INTRA:          -6.690
REMARK INTER:                  -6.553
REMARK INTRA:                  -0.137
REMARK UNBOUND:                -0.128
REMARK SMILES O=C([O-])C=Cc1ccc(O)c(O)c1
REMARK SMILES IDX 6 1 13 2 7 3 11 4 8 5 9 6 5 7 4 8 2 9 1 10 3 11 12 12 10 14
REMARK H PARENT 12 13 10 15
REMARK Flexibility Score: inf
ROOT
ATOM      1  C   UNL     1     -24.487 -17.214 -13.679  1.00  0.00    -0.022 A 
ATOM      2  C   UNL     1     -23.218 -16.618 -13.768  1.00  0.00     0.058 A 
ATOM      3  C   UNL     1     -25.540 -16.692 -14.457  1.00  0.00     0.012 A 
ATOM      4  C   UNL     1     -23.003 -15.509 -14.595  1.00  0.00     0.157 A 
ATOM      5  C   UNL     1     -25.327 -15.585 -15.282  1.00  0.00     0.051 A 
ATOM      6  C   UNL     1     -24.063 -14.987 -15.354  1.00  0.00     0.157 A 
ENDROOT
BRANCH   1   7
ATOM      7  C   UNL     1     -24.657 -18.393 -12.795  1.00  0.00     0.010 C 
ATOM      8  C   UNL     1     -25.846 -18.833 -12.358  1.00  0.00     0.025 C 
BRANCH   8   9
ATOM      9  C   UNL     1     -25.974 -20.001 -11.471  1.00  0.00     0.064 C 
ATOM     10  O   UNL     1     -26.450 -21.089 -11.890  1.00  0.00    -0.545 OA
ATOM     11  O   UNL     1     -25.564 -19.901 -10.148  1.00  0.00    -0.545 OA
ENDBRANCH   8   9
ENDBRANCH   1   7
BRANCH   4  12
ATOM     12  O   UNL     1     -21.731 -14.941 -14.648  1.00  0.00    -0.504 OA
ATOM     13  H   UNL     1     -20.893 -15.476 -14.451  1.00  0.00     0.293 HD
ENDBRANCH   4  12
BRANCH   6  14
ATOM     14  O   UNL     1     -23.855 -13.883 -16.179  1.00  0.00    -0.504 OA
ATOM     15  H   UNL     1     -24.047 -13.919 -17.173  1.00  0.00     0.293 HD
ENDBRANCH   6  14
TORSDOF 4
ENDMDL
