MODEL 1
REMARK VINA RESULT:    -4.731      0.000      0.000
REMARK INTER + INTRA:         -17.292
REMARK INTER:                 -12.475
REMARK INTRA:                  -4.818
REMARK UNBOUND:                -4.818
REMARK SMILES CCCCCCCCCCCCCCCCCCCCCCCCCCCCCC(=O)[O-]
REMARK SMILES IDX 16 1 17 2 18 3 19 4 20 5 21 6 22 7 23 8 24 9 25 10 26 11
REMARK SMILES IDX 27 12 28 13 29 14 30 15 31 16 32 17 15 18 14 19 13 20 12 21
REMARK SMILES IDX 11 22 10 23 9 24 8 25 7 26 6 27 5 28 4 29 3 30 2 31 1 32
REMARK H PARENT
REMARK Flexibility Score: inf
ROOT
ATOM      1  C   UNL     1      52.677  21.607  53.578  1.00  0.00     0.000 C 
ENDROOT
BRANCH   1   2
ATOM      2  C   UNL     1      52.090  21.541  54.997  1.00  0.00     0.000 C 
BRANCH   2   3
ATOM      3  C   UNL     1      52.727  22.565  55.955  1.00  0.00     0.000 C 
BRANCH   3   4
ATOM      4  C   UNL     1      51.731  23.655  56.383  1.00  0.00     0.000 C 
BRANCH   4   5
ATOM      5  C   UNL     1      50.270  23.238  56.148  1.00  0.00     0.000 C 
BRANCH   5   6
ATOM      6  C   UNL     1      49.335  24.435  55.906  1.00  0.00     0.000 C 
BRANCH   6   7
ATOM      7  C   UNL     1      47.860  24.044  55.681  1.00  0.00     0.000 C 
BRANCH   7   8
ATOM      8  C   UNL     1      47.617  22.532  55.840  1.00  0.00     0.000 C 
BRANCH   8   9
ATOM      9  C   UNL     1      46.222  22.095  55.361  1.00  0.00     0.000 C 
BRANCH   9  10
ATOM     10  C   UNL     1      46.115  20.587  55.052  1.00  0.00     0.000 C 
BRANCH  10  11
ATOM     11  C   UNL     1      44.725  20.021  55.397  1.00  0.00     0.000 C 
BRANCH  11  12
ATOM     12  C   UNL     1      44.028  19.389  54.182  1.00  0.00     0.000 C 
BRANCH  12  13
ATOM     13  C   UNL     1      44.694  18.079  53.735  1.00  0.00     0.006 C 
BRANCH  13  14
ATOM     14  C   UNL     1      45.228  18.197  52.304  1.00  0.00     0.053 C 
BRANCH  14  15
ATOM     15  C   UNL     1      44.196  17.742  51.321  1.00  0.00     0.041 C 
ATOM     16  O   UNL     1      43.355  18.560  50.861  1.00  0.00    -0.550 OA
ATOM     17  O   UNL     1      44.191  16.426  50.875  1.00  0.00    -0.550 OA
ENDBRANCH  14  15
ENDBRANCH  13  14
ENDBRANCH  12  13
ENDBRANCH  11  12
ENDBRANCH  10  11
ENDBRANCH   9  10
ENDBRANCH   8   9
ENDBRANCH   7   8
ENDBRANCH   6   7
ENDBRANCH   5   6
ENDBRANCH   4   5
ENDBRANCH   3   4
ENDBRANCH   2   3
ENDBRANCH   1   2
BRANCH   1  18
ATOM     18  C   UNL     1      53.594  22.825  53.374  1.00  0.00     0.000 C 
BRANCH  18  19
ATOM     19  C   UNL     1      53.017  23.845  52.375  1.00  0.00     0.000 C 
BRANCH  19  20
ATOM     20  C   UNL     1      51.681  24.493  52.792  1.00  0.00     0.000 C 
BRANCH  20  21
ATOM     21  C   UNL     1      50.590  24.498  51.706  1.00  0.00     0.000 C 
BRANCH  21  22
ATOM     22  C   UNL     1      49.244  23.956  52.211  1.00  0.00     0.000 C 
BRANCH  22  23
ATOM     23  C   UNL     1      49.351  22.469  52.567  1.00  0.00     0.000 C 
BRANCH  23  24
ATOM     24  C   UNL     1      48.071  21.714  52.184  1.00  0.00    -0.000 C 
BRANCH  24  25
ATOM     25  C   UNL     1      48.107  21.289  50.709  1.00  0.00    -0.000 C 
BRANCH  25  26
ATOM     26  C   UNL     1      48.285  19.773  50.533  1.00  0.00    -0.000 C 
BRANCH  26  27
ATOM     27  C   UNL     1      49.579  19.412  49.787  1.00  0.00    -0.000 C 
BRANCH  27  28
ATOM     28  C   UNL     1      50.848  19.809  50.562  1.00  0.00    -0.000 C 
BRANCH  28  29
ATOM     29  C   UNL     1      51.640  20.957  49.902  1.00  0.00    -0.000 C 
BRANCH  29  30
ATOM     30  C   UNL     1      53.144  20.882  50.218  1.00  0.00    -0.000 C 
BRANCH  30  31
ATOM     31  C   UNL     1      53.940  20.143  49.131  1.00  0.00    -0.003 C 
ATOM     32  C   UNL     1      54.880  21.066  48.355  1.00  0.00     0.004 C 
ENDBRANCH  30  31
ENDBRANCH  29  30
ENDBRANCH  28  29
ENDBRANCH  27  28
ENDBRANCH  26  27
ENDBRANCH  25  26
ENDBRANCH  24  25
ENDBRANCH  23  24
ENDBRANCH  22  23
ENDBRANCH  21  22
ENDBRANCH  20  21
ENDBRANCH  19  20
ENDBRANCH  18  19
ENDBRANCH   1  18
TORSDOF 28
ENDMDL
MODEL 2
REMARK VINA RESULT:    -4.568      1.838      4.638
REMARK INTER + INTRA:         -16.863
REMARK INTER:                 -13.028
REMARK INTRA:                  -3.835
REMARK UNBOUND:                -4.818
REMARK SMILES CCCCCCCCCCCCCCCCCCCCCCCCCCCCCC(=O)[O-]
REMARK SMILES IDX 16 1 17 2 18 3 19 4 20 5 21 6 22 7 23 8 24 9 25 10 26 11
REMARK SMILES IDX 27 12 28 13 29 14 30 15 31 16 32 17 15 18 14 19 13 20 12 21
REMARK SMILES IDX 11 22 10 23 9 24 8 25 7 26 6 27 5 28 4 29 3 30 2 31 1 32
REMARK H PARENT
REMARK Flexibility Score: inf
ROOT
ATOM      1  C   UNL     1      46.218  23.073  55.163  1.00  0.00     0.000 C 
ENDROOT
BRANCH   1   2
ATOM      2  C   UNL     1      46.405  24.581  54.933  1.00  0.00     0.000 C 
BRANCH   2   3
ATOM      3  C   UNL     1      46.770  24.923  53.476  1.00  0.00     0.000 C 
BRANCH   3   4
ATOM      4  C   UNL     1      48.290  24.960  53.254  1.00  0.00     0.000 C 
BRANCH   4   5
ATOM      5  C   UNL     1      48.824  23.659  52.632  1.00  0.00     0.000 C 
BRANCH   5   6
ATOM      6  C   UNL     1      47.766  22.912  51.803  1.00  0.00     0.000 C 
BRANCH   6   7
ATOM      7  C   UNL     1      48.018  21.394  51.686  1.00  0.00     0.000 C 
BRANCH   7   8
ATOM      8  C   UNL     1      47.541  20.816  50.342  1.00  0.00     0.000 C 
BRANCH   8   9
ATOM      9  C   UNL     1      46.350  19.854  50.492  1.00  0.00     0.000 C 
BRANCH   9  10
ATOM     10  C   UNL     1      46.325  19.101  51.838  1.00  0.00     0.000 C 
BRANCH  10  11
ATOM     11  C   UNL     1      45.268  17.981  51.857  1.00  0.00     0.000 C 
BRANCH  11  12
ATOM     12  C   UNL     1      43.906  18.446  51.318  1.00  0.00     0.000 C 
BRANCH  12  13
ATOM     13  C   UNL     1      42.950  18.888  52.435  1.00  0.00     0.006 C 
BRANCH  13  14
ATOM     14  C   UNL     1      43.404  18.343  53.793  1.00  0.00     0.053 C 
BRANCH  14  15
ATOM     15  C   UNL     1      43.500  19.450  54.795  1.00  0.00     0.041 C 
ATOM     16  O   UNL     1      42.455  19.935  55.305  1.00  0.00    -0.550 OA
ATOM     17  O   UNL     1      44.744  19.913  55.204  1.00  0.00    -0.550 OA
ENDBRANCH  14  15
ENDBRANCH  13  14
ENDBRANCH  12  13
ENDBRANCH  11  12
ENDBRANCH  10  11
ENDBRANCH   9  10
ENDBRANCH   8   9
ENDBRANCH   7   8
ENDBRANCH   6   7
ENDBRANCH   5   6
ENDBRANCH   4   5
ENDBRANCH   3   4
ENDBRANCH   2   3
ENDBRANCH   1   2
BRANCH   1  18
ATOM     18  C   UNL     1      47.389  22.443  55.937  1.00  0.00     0.000 C 
BRANCH  18  19
ATOM     19  C   UNL     1      47.859  23.312  57.117  1.00  0.00     0.000 C 
BRANCH  19  20
ATOM     20  C   UNL     1      49.303  23.845  57.011  1.00  0.00     0.000 C 
BRANCH  20  21
ATOM     21  C   UNL     1      50.139  23.241  55.869  1.00  0.00     0.000 C 
BRANCH  21  22
ATOM     22  C   UNL     1      51.616  23.660  55.926  1.00  0.00     0.000 C 
BRANCH  22  23
ATOM     23  C   UNL     1      52.537  22.437  55.834  1.00  0.00     0.000 C 
BRANCH  23  24
ATOM     24  C   UNL     1      53.460  22.530  54.612  1.00  0.00    -0.000 C 
BRANCH  24  25
ATOM     25  C   UNL     1      53.308  21.292  53.716  1.00  0.00    -0.000 C 
BRANCH  25  26
ATOM     26  C   UNL     1      51.910  21.182  53.089  1.00  0.00    -0.000 C 
BRANCH  26  27
ATOM     27  C   UNL     1      51.840  21.802  51.684  1.00  0.00    -0.000 C 
BRANCH  27  28
ATOM     28  C   UNL     1      51.392  20.797  50.609  1.00  0.00    -0.000 C 
BRANCH  28  29
ATOM     29  C   UNL     1      52.444  20.564  49.505  1.00  0.00    -0.000 C 
BRANCH  29  30
ATOM     30  C   UNL     1      53.876  20.524  50.066  1.00  0.00    -0.000 C 
BRANCH  30  31
ATOM     31  C   UNL     1      54.922  20.185  48.993  1.00  0.00    -0.003 C 
ATOM     32  C   UNL     1      55.065  21.284  47.939  1.00  0.00     0.004 C 
ENDBRANCH  30  31
ENDBRANCH  29  30
ENDBRANCH  28  29
ENDBRANCH  27  28
ENDBRANCH  26  27
ENDBRANCH  25  26
ENDBRANCH  24  25
ENDBRANCH  23  24
ENDBRANCH  22  23
ENDBRANCH  21  22
ENDBRANCH  20  21
ENDBRANCH  19  20
ENDBRANCH  18  19
ENDBRANCH   1  18
TORSDOF 28
ENDMDL
MODEL 3
REMARK VINA RESULT:    -4.501      1.897      5.462
REMARK INTER + INTRA:         -16.688
REMARK INTER:                 -11.880
REMARK INTRA:                  -4.808
REMARK UNBOUND:                -4.818
REMARK SMILES CCCCCCCCCCCCCCCCCCCCCCCCCCCCCC(=O)[O-]
REMARK SMILES IDX 16 1 17 2 18 3 19 4 20 5 21 6 22 7 23 8 24 9 25 10 26 11
REMARK SMILES IDX 27 12 28 13 29 14 30 15 31 16 32 17 15 18 14 19 13 20 12 21
REMARK SMILES IDX 11 22 10 23 9 24 8 25 7 26 6 27 5 28 4 29 3 30 2 31 1 32
REMARK H PARENT
REMARK Flexibility Score: inf
ROOT
ATOM      1  C   UNL     1      51.661  21.078  52.835  1.00  0.00     0.000 C 
ENDROOT
BRANCH   1   2
ATOM      2  C   UNL     1      52.820  21.622  51.983  1.00  0.00     0.000 C 
BRANCH   2   3
ATOM      3  C   UNL     1      52.888  20.977  50.586  1.00  0.00     0.000 C 
BRANCH   3   4
ATOM      4  C   UNL     1      51.511  20.928  49.904  1.00  0.00     0.000 C 
BRANCH   4   5
ATOM      5  C   UNL     1      50.937  19.503  49.844  1.00  0.00     0.000 C 
BRANCH   5   6
ATOM      6  C   UNL     1      49.443  19.441  50.201  1.00  0.00     0.000 C 
BRANCH   6   7
ATOM      7  C   UNL     1      48.627  20.650  49.697  1.00  0.00     0.000 C 
BRANCH   7   8
ATOM      8  C   UNL     1      47.185  20.656  50.234  1.00  0.00     0.000 C 
BRANCH   8   9
ATOM      9  C   UNL     1      46.930  19.559  51.281  1.00  0.00     0.000 C 
BRANCH   9  10
ATOM     10  C   UNL     1      45.465  19.076  51.332  1.00  0.00     0.000 C 
BRANCH  10  11
ATOM     11  C   UNL     1      45.268  17.925  52.335  1.00  0.00     0.000 C 
BRANCH  11  12
ATOM     12  C   UNL     1      43.841  17.874  52.902  1.00  0.00     0.000 C 
BRANCH  12  13
ATOM     13  C   UNL     1      43.814  17.908  54.437  1.00  0.00     0.006 C 
BRANCH  13  14
ATOM     14  C   UNL     1      43.727  19.348  54.951  1.00  0.00     0.053 C 
BRANCH  14  15
ATOM     15  C   UNL     1      42.300  19.791  55.028  1.00  0.00     0.041 C 
ATOM     16  O   UNL     1      42.013  21.017  54.975  1.00  0.00    -0.550 OA
ATOM     17  O   UNL     1      41.281  18.849  55.109  1.00  0.00    -0.550 OA
ENDBRANCH  14  15
ENDBRANCH  13  14
ENDBRANCH  12  13
ENDBRANCH  11  12
ENDBRANCH  10  11
ENDBRANCH   9  10
ENDBRANCH   8   9
ENDBRANCH   7   8
ENDBRANCH   6   7
ENDBRANCH   5   6
ENDBRANCH   4   5
ENDBRANCH   3   4
ENDBRANCH   2   3
ENDBRANCH   1   2
BRANCH   1  18
ATOM     18  C   UNL     1      52.021  20.977  54.327  1.00  0.00     0.000 C 
BRANCH  18  19
ATOM     19  C   UNL     1      53.539  21.043  54.580  1.00  0.00     0.000 C 
BRANCH  19  20
ATOM     20  C   UNL     1      54.017  22.253  55.408  1.00  0.00     0.000 C 
BRANCH  20  21
ATOM     21  C   UNL     1      54.777  23.330  54.613  1.00  0.00     0.000 C 
BRANCH  21  22
ATOM     22  C   UNL     1      53.880  24.503  54.190  1.00  0.00     0.000 C 
BRANCH  22  23
ATOM     23  C   UNL     1      52.599  24.546  55.032  1.00  0.00     0.000 C 
BRANCH  23  24
ATOM     24  C   UNL     1      51.360  24.728  54.146  1.00  0.00    -0.000 C 
BRANCH  24  25
ATOM     25  C   UNL     1      51.762  24.963  52.683  1.00  0.00    -0.000 C 
BRANCH  25  26
ATOM     26  C   UNL     1      50.590  24.768  51.709  1.00  0.00    -0.000 C 
BRANCH  26  27
ATOM     27  C   UNL     1      49.246  24.575  52.430  1.00  0.00    -0.000 C 
BRANCH  27  28
ATOM     28  C   UNL     1      48.687  23.150  52.281  1.00  0.00    -0.000 C 
BRANCH  28  29
ATOM     29  C   UNL     1      47.747  22.733  53.431  1.00  0.00    -0.000 C 
BRANCH  29  30
ATOM     30  C   UNL     1      48.491  21.969  54.542  1.00  0.00    -0.000 C 
BRANCH  30  31
ATOM     31  C   UNL     1      48.445  22.699  55.893  1.00  0.00    -0.003 C 
ATOM     32  C   UNL     1      47.814  24.089  55.794  1.00  0.00     0.004 C 
ENDBRANCH  30  31
ENDBRANCH  29  30
ENDBRANCH  28  29
ENDBRANCH  27  28
ENDBRANCH  26  27
ENDBRANCH  25  26
ENDBRANCH  24  25
ENDBRANCH  23  24
ENDBRANCH  22  23
ENDBRANCH  21  22
ENDBRANCH  20  21
ENDBRANCH  19  20
ENDBRANCH  18  19
ENDBRANCH   1  18
TORSDOF 28
ENDMDL
MODEL 4
REMARK VINA RESULT:    -4.456      2.514      7.223
REMARK INTER + INTRA:         -16.569
REMARK INTER:                 -12.690
REMARK INTRA:                  -3.878
REMARK UNBOUND:                -4.818
REMARK SMILES CCCCCCCCCCCCCCCCCCCCCCCCCCCCCC(=O)[O-]
REMARK SMILES IDX 16 1 17 2 18 3 19 4 20 5 21 6 22 7 23 8 24 9 25 10 26 11
REMARK SMILES IDX 27 12 28 13 29 14 30 15 31 16 32 17 15 18 14 19 13 20 12 21
REMARK SMILES IDX 11 22 10 23 9 24 8 25 7 26 6 27 5 28 4 29 3 30 2 31 1 32
REMARK H PARENT
REMARK Flexibility Score: inf
ROOT
ATOM      1  C   UNL     1      47.756  21.932  53.267  1.00  0.00     0.000 C 
ENDROOT
BRANCH   1   2
ATOM      2  C   UNL     1      49.249  22.259  53.105  1.00  0.00     0.000 C 
BRANCH   2   3
ATOM      3  C   UNL     1      49.492  23.634  52.453  1.00  0.00     0.000 C 
BRANCH   3   4
ATOM      4  C   UNL     1      50.219  24.602  53.400  1.00  0.00     0.000 C 
BRANCH   4   5
ATOM      5  C   UNL     1      50.244  24.095  54.851  1.00  0.00     0.000 C 
BRANCH   5   6
ATOM      6  C   UNL     1      51.668  23.866  55.383  1.00  0.00     0.000 C 
BRANCH   6   7
ATOM      7  C   UNL     1      52.088  22.382  55.431  1.00  0.00     0.000 C 
BRANCH   7   8
ATOM      8  C   UNL     1      53.263  22.067  54.488  1.00  0.00     0.000 C 
BRANCH   8   9
ATOM      9  C   UNL     1      53.663  23.265  53.609  1.00  0.00     0.000 C 
BRANCH   9  10
ATOM     10  C   UNL     1      53.517  23.003  52.096  1.00  0.00     0.000 C 
BRANCH  10  11
ATOM     11  C   UNL     1      52.788  21.678  51.804  1.00  0.00     0.000 C 
BRANCH  11  12
ATOM     12  C   UNL     1      53.283  21.004  50.515  1.00  0.00     0.000 C 
BRANCH  12  13
ATOM     13  C   UNL     1      52.134  20.454  49.658  1.00  0.00     0.006 C 
BRANCH  13  14
ATOM     14  C   UNL     1      50.810  21.136  50.015  1.00  0.00     0.053 C 
BRANCH  14  15
ATOM     15  C   UNL     1      49.697  20.137  50.040  1.00  0.00     0.041 C 
ATOM     16  O   UNL     1      48.524  20.487  49.741  1.00  0.00    -0.550 OA
ATOM     17  O   UNL     1      49.961  18.808  50.346  1.00  0.00    -0.550 OA
ENDBRANCH  14  15
ENDBRANCH  13  14
ENDBRANCH  12  13
ENDBRANCH  11  12
ENDBRANCH  10  11
ENDBRANCH   9  10
ENDBRANCH   8   9
ENDBRANCH   7   8
ENDBRANCH   6   7
ENDBRANCH   5   6
ENDBRANCH   4   5
ENDBRANCH   3   4
ENDBRANCH   2   3
ENDBRANCH   1   2
BRANCH   1  18
ATOM     18  C   UNL     1      47.335  21.805  54.742  1.00  0.00     0.000 C 
BRANCH  18  19
ATOM     19  C   UNL     1      46.221  22.794  55.131  1.00  0.00     0.000 C 
BRANCH  19  20
ATOM     20  C   UNL     1      46.317  24.186  54.476  1.00  0.00     0.000 C 
BRANCH  20  21
ATOM     21  C   UNL     1      45.045  25.046  54.579  1.00  0.00     0.000 C 
BRANCH  21  22
ATOM     22  C   UNL     1      43.979  24.427  55.496  1.00  0.00     0.000 C 
BRANCH  22  23
ATOM     23  C   UNL     1      42.578  24.927  55.125  1.00  0.00     0.000 C 
BRANCH  23  24
ATOM     24  C   UNL     1      41.498  23.938  55.581  1.00  0.00    -0.000 C 
BRANCH  24  25
ATOM     25  C   UNL     1      41.358  22.779  54.583  1.00  0.00    -0.000 C 
BRANCH  25  26
ATOM     26  C   UNL     1      41.929  21.460  55.124  1.00  0.00    -0.000 C 
BRANCH  26  27
ATOM     27  C   UNL     1      41.853  20.317  54.099  1.00  0.00    -0.000 C 
BRANCH  27  28
ATOM     28  C   UNL     1      42.414  18.990  54.639  1.00  0.00    -0.000 C 
BRANCH  28  29
ATOM     29  C   UNL     1      43.815  18.646  54.095  1.00  0.00    -0.000 C 
BRANCH  29  30
ATOM     30  C   UNL     1      43.771  18.179  52.629  1.00  0.00    -0.000 C 
BRANCH  30  31
ATOM     31  C   UNL     1      45.139  17.697  52.121  1.00  0.00    -0.003 C 
ATOM     32  C   UNL     1      46.062  18.850  51.723  1.00  0.00     0.004 C 
ENDBRANCH  30  31
ENDBRANCH  29  30
ENDBRANCH  28  29
ENDBRANCH  27  28
ENDBRANCH  26  27
ENDBRANCH  25  26
ENDBRANCH  24  25
ENDBRANCH  23  24
ENDBRANCH  22  23
ENDBRANCH  21  22
ENDBRANCH  20  21
ENDBRANCH  19  20
ENDBRANCH  18  19
ENDBRANCH   1  18
TORSDOF 28
ENDMDL
MODEL 5
REMARK VINA RESULT:    -4.403      1.327      4.839
REMARK INTER + INTRA:         -16.429
REMARK INTER:                 -11.703
REMARK INTRA:                  -4.725
REMARK UNBOUND:                -4.818
REMARK SMILES CCCCCCCCCCCCCCCCCCCCCCCCCCCCCC(=O)[O-]
REMARK SMILES IDX 16 1 17 2 18 3 19 4 20 5 21 6 22 7 23 8 24 9 25 10 26 11
REMARK SMILES IDX 27 12 28 13 29 14 30 15 31 16 32 17 15 18 14 19 13 20 12 21
REMARK SMILES IDX 11 22 10 23 9 24 8 25 7 26 6 27 5 28 4 29 3 30 2 31 1 32
REMARK H PARENT
REMARK Flexibility Score: inf
ROOT
ATOM      1  C   UNL     1      49.193  19.312  49.878  1.00  0.00     0.000 C 
ENDROOT
BRANCH   1   2
ATOM      2  C   UNL     1      48.546  20.704  49.788  1.00  0.00     0.000 C 
BRANCH   2   3
ATOM      3  C   UNL     1      47.423  20.907  50.823  1.00  0.00     0.000 C 
BRANCH   3   4
ATOM      4  C   UNL     1      47.961  21.421  52.168  1.00  0.00     0.000 C 
BRANCH   4   5
ATOM      5  C   UNL     1      48.442  22.879  52.088  1.00  0.00     0.000 C 
BRANCH   5   6
ATOM      6  C   UNL     1      47.436  23.877  52.685  1.00  0.00     0.000 C 
BRANCH   6   7
ATOM      7  C   UNL     1      47.637  24.146  54.191  1.00  0.00     0.000 C 
BRANCH   7   8
ATOM      8  C   UNL     1      46.684  23.319  55.073  1.00  0.00     0.000 C 
BRANCH   8   9
ATOM      9  C   UNL     1      47.340  22.045  55.633  1.00  0.00     0.000 C 
BRANCH   9  10
ATOM     10  C   UNL     1      46.328  20.957  56.050  1.00  0.00     0.000 C 
BRANCH  10  11
ATOM     11  C   UNL     1      45.598  20.348  54.839  1.00  0.00     0.000 C 
BRANCH  11  12
ATOM     12  C   UNL     1      44.242  19.731  55.216  1.00  0.00     0.000 C 
BRANCH  12  13
ATOM     13  C   UNL     1      43.533  19.086  54.016  1.00  0.00     0.006 C 
BRANCH  13  14
ATOM     14  C   UNL     1      44.440  18.058  53.333  1.00  0.00     0.053 C 
BRANCH  14  15
ATOM     15  C   UNL     1      44.010  17.840  51.917  1.00  0.00     0.041 C 
ATOM     16  O   UNL     1      44.486  16.883  51.250  1.00  0.00    -0.550 OA
ATOM     17  O   UNL     1      43.048  18.664  51.346  1.00  0.00    -0.550 OA
ENDBRANCH  14  15
ENDBRANCH  13  14
ENDBRANCH  12  13
ENDBRANCH  11  12
ENDBRANCH  10  11
ENDBRANCH   9  10
ENDBRANCH   8   9
ENDBRANCH   7   8
ENDBRANCH   6   7
ENDBRANCH   5   6
ENDBRANCH   4   5
ENDBRANCH   3   4
ENDBRANCH   2   3
ENDBRANCH   1   2
BRANCH   1  18
ATOM     18  C   UNL     1      50.710  19.381  50.127  1.00  0.00     0.000 C 
BRANCH  18  19
ATOM     19  C   UNL     1      51.293  20.784  49.872  1.00  0.00     0.000 C 
BRANCH  19  20
ATOM     20  C   UNL     1      52.807  20.925  50.125  1.00  0.00     0.000 C 
BRANCH  20  21
ATOM     21  C   UNL     1      53.196  21.321  51.560  1.00  0.00     0.000 C 
BRANCH  21  22
ATOM     22  C   UNL     1      51.991  21.762  52.404  1.00  0.00     0.000 C 
BRANCH  22  23
ATOM     23  C   UNL     1      51.709  20.754  53.525  1.00  0.00     0.000 C 
BRANCH  23  24
ATOM     24  C   UNL     1      50.859  21.384  54.635  1.00  0.00    -0.000 C 
BRANCH  24  25
ATOM     25  C   UNL     1      51.053  22.906  54.678  1.00  0.00    -0.000 C 
BRANCH  25  26
ATOM     26  C   UNL     1      50.822  23.494  56.079  1.00  0.00    -0.000 C 
BRANCH  26  27
ATOM     27  C   UNL     1      52.084  24.148  56.663  1.00  0.00    -0.000 C 
BRANCH  27  28
ATOM     28  C   UNL     1      52.982  23.149  57.413  1.00  0.00    -0.000 C 
BRANCH  28  29
ATOM     29  C   UNL     1      54.430  23.100  56.880  1.00  0.00    -0.000 C 
BRANCH  29  30
ATOM     30  C   UNL     1      54.524  22.384  55.521  1.00  0.00    -0.000 C 
BRANCH  30  31
ATOM     31  C   UNL     1      54.821  23.350  54.364  1.00  0.00    -0.003 C 
ATOM     32  C   UNL     1      55.809  24.451  54.751  1.00  0.00     0.004 C 
ENDBRANCH  30  31
ENDBRANCH  29  30
ENDBRANCH  28  29
ENDBRANCH  27  28
ENDBRANCH  26  27
ENDBRANCH  25  26
ENDBRANCH  24  25
ENDBRANCH  23  24
ENDBRANCH  22  23
ENDBRANCH  21  22
ENDBRANCH  20  21
ENDBRANCH  19  20
ENDBRANCH  18  19
ENDBRANCH   1  18
TORSDOF 28
ENDMDL
MODEL 6
REMARK VINA RESULT:    -4.373      1.854      4.731
REMARK INTER + INTRA:         -16.350
REMARK INTER:                 -11.873
REMARK INTRA:                  -4.477
REMARK UNBOUND:                -4.818
REMARK SMILES CCCCCCCCCCCCCCCCCCCCCCCCCCCCCC(=O)[O-]
REMARK SMILES IDX 16 1 17 2 18 3 19 4 20 5 21 6 22 7 23 8 24 9 25 10 26 11
REMARK SMILES IDX 27 12 28 13 29 14 30 15 31 16 32 17 15 18 14 19 13 20 12 21
REMARK SMILES IDX 11 22 10 23 9 24 8 25 7 26 6 27 5 28 4 29 3 30 2 31 1 32
REMARK H PARENT
REMARK Flexibility Score: inf
ROOT
ATOM      1  C   UNL     1      53.022  21.189  53.992  1.00  0.00     0.000 C 
ENDROOT
BRANCH   1   2
ATOM      2  C   UNL     1      51.625  20.687  53.592  1.00  0.00     0.000 C 
BRANCH   2   3
ATOM      3  C   UNL     1      50.497  21.630  54.050  1.00  0.00     0.000 C 
BRANCH   3   4
ATOM      4  C   UNL     1      49.671  22.162  52.867  1.00  0.00     0.000 C 
BRANCH   4   5
ATOM      5  C   UNL     1      49.877  23.668  52.639  1.00  0.00     0.000 C 
BRANCH   5   6
ATOM      6  C   UNL     1      48.607  24.494  52.899  1.00  0.00     0.000 C 
BRANCH   6   7
ATOM      7  C   UNL     1      47.363  23.644  53.232  1.00  0.00     0.000 C 
BRANCH   7   8
ATOM      8  C   UNL     1      46.735  24.018  54.587  1.00  0.00     0.000 C 
BRANCH   8   9
ATOM      9  C   UNL     1      46.909  22.921  55.651  1.00  0.00     0.000 C 
BRANCH   9  10
ATOM     10  C   UNL     1      46.944  21.492  55.071  1.00  0.00     0.000 C 
BRANCH  10  11
ATOM     11  C   UNL     1      45.908  20.569  55.739  1.00  0.00     0.000 C 
BRANCH  11  12
ATOM     12  C   UNL     1      44.509  20.706  55.118  1.00  0.00     0.000 C 
BRANCH  12  13
ATOM     13  C   UNL     1      43.811  19.351  54.929  1.00  0.00     0.006 C 
BRANCH  13  14
ATOM     14  C   UNL     1      42.322  19.450  55.275  1.00  0.00     0.053 C 
BRANCH  14  15
ATOM     15  C   UNL     1      41.614  20.326  54.291  1.00  0.00     0.041 C 
ATOM     16  O   UNL     1      41.252  19.864  53.176  1.00  0.00    -0.550 OA
ATOM     17  O   UNL     1      41.309  21.641  54.623  1.00  0.00    -0.550 OA
ENDBRANCH  14  15
ENDBRANCH  13  14
ENDBRANCH  12  13
ENDBRANCH  11  12
ENDBRANCH  10  11
ENDBRANCH   9  10
ENDBRANCH   8   9
ENDBRANCH   7   8
ENDBRANCH   6   7
ENDBRANCH   5   6
ENDBRANCH   4   5
ENDBRANCH   3   4
ENDBRANCH   2   3
ENDBRANCH   1   2
BRANCH   1  18
ATOM     18  C   UNL     1      53.578  22.235  53.010  1.00  0.00     0.000 C 
BRANCH  18  19
ATOM     19  C   UNL     1      52.932  22.145  51.615  1.00  0.00     0.000 C 
BRANCH  19  20
ATOM     20  C   UNL     1      53.655  21.225  50.611  1.00  0.00     0.000 C 
BRANCH  20  21
ATOM     21  C   UNL     1      52.753  20.597  49.534  1.00  0.00     0.000 C 
BRANCH  21  22
ATOM     22  C   UNL     1      51.262  20.647  49.900  1.00  0.00     0.000 C 
BRANCH  22  23
ATOM     23  C   UNL     1      50.730  19.247  50.227  1.00  0.00     0.000 C 
BRANCH  23  24
ATOM     24  C   UNL     1      49.229  19.141  49.929  1.00  0.00    -0.000 C 
BRANCH  24  25
ATOM     25  C   UNL     1      48.623  20.528  49.669  1.00  0.00    -0.000 C 
BRANCH  25  26
ATOM     26  C   UNL     1      47.190  20.659  50.207  1.00  0.00    -0.000 C 
BRANCH  26  27
ATOM     27  C   UNL     1      47.088  20.326  51.705  1.00  0.00    -0.000 C 
BRANCH  27  28
ATOM     28  C   UNL     1      46.058  19.223  52.003  1.00  0.00    -0.000 C 
BRANCH  28  29
ATOM     29  C   UNL     1      45.139  18.897  50.807  1.00  0.00    -0.000 C 
BRANCH  29  30
ATOM     30  C   UNL     1      43.720  18.502  51.255  1.00  0.00    -0.000 C 
BRANCH  30  31
ATOM     31  C   UNL     1      43.587  16.998  51.536  1.00  0.00    -0.003 C 
ATOM     32  C   UNL     1      44.745  16.183  50.958  1.00  0.00     0.004 C 
ENDBRANCH  30  31
ENDBRANCH  29  30
ENDBRANCH  28  29
ENDBRANCH  27  28
ENDBRANCH  26  27
ENDBRANCH  25  26
ENDBRANCH  24  25
ENDBRANCH  23  24
ENDBRANCH  22  23
ENDBRANCH  21  22
ENDBRANCH  20  21
ENDBRANCH  19  20
ENDBRANCH  18  19
ENDBRANCH   1  18
TORSDOF 28
ENDMDL
MODEL 7
REMARK VINA RESULT:    -4.349      2.251      4.538
REMARK INTER + INTRA:         -16.285
REMARK INTER:                 -13.423
REMARK INTRA:                  -2.862
REMARK UNBOUND:                -4.818
REMARK SMILES CCCCCCCCCCCCCCCCCCCCCCCCCCCCCC(=O)[O-]
REMARK SMILES IDX 16 1 17 2 18 3 19 4 20 5 21 6 22 7 23 8 24 9 25 10 26 11
REMARK SMILES IDX 27 12 28 13 29 14 30 15 31 16 32 17 15 18 14 19 13 20 12 21
REMARK SMILES IDX 11 22 10 23 9 24 8 25 7 26 6 27 5 28 4 29 3 30 2 31 1 32
REMARK H PARENT
REMARK Flexibility Score: inf
ROOT
ATOM      1  C   UNL     1      47.307  21.876  54.443  1.00  0.00     0.000 C 
ENDROOT
BRANCH   1   2
ATOM      2  C   UNL     1      46.331  22.833  55.146  1.00  0.00     0.000 C 
BRANCH   2   3
ATOM      3  C   UNL     1      46.292  24.229  54.498  1.00  0.00     0.000 C 
BRANCH   3   4
ATOM      4  C   UNL     1      45.072  25.045  54.954  1.00  0.00     0.000 C 
BRANCH   4   5
ATOM      5  C   UNL     1      43.830  24.166  55.180  1.00  0.00     0.000 C 
BRANCH   5   6
ATOM      6  C   UNL     1      42.557  24.983  55.455  1.00  0.00     0.000 C 
BRANCH   6   7
ATOM      7  C   UNL     1      41.248  24.200  55.226  1.00  0.00     0.000 C 
BRANCH   7   8
ATOM      8  C   UNL     1      41.452  22.676  55.279  1.00  0.00     0.000 C 
BRANCH   8   9
ATOM      9  C   UNL     1      41.037  21.970  53.977  1.00  0.00     0.000 C 
BRANCH   9  10
ATOM     10  C   UNL     1      41.279  20.445  53.992  1.00  0.00     0.000 C 
BRANCH  10  11
ATOM     11  C   UNL     1      42.171  20.011  55.169  1.00  0.00     0.000 C 
BRANCH  11  12
ATOM     12  C   UNL     1      42.888  18.678  54.906  1.00  0.00     0.000 C 
BRANCH  12  13
ATOM     13  C   UNL     1      43.410  18.563  53.466  1.00  0.00     0.006 C 
BRANCH  13  14
ATOM     14  C   UNL     1      44.936  18.430  53.447  1.00  0.00     0.053 C 
BRANCH  14  15
ATOM     15  C   UNL     1      45.425  18.209  52.050  1.00  0.00     0.041 C 
ATOM     16  O   UNL     1      45.057  17.192  51.404  1.00  0.00    -0.550 OA
ATOM     17  O   UNL     1      46.249  19.149  51.444  1.00  0.00    -0.550 OA
ENDBRANCH  14  15
ENDBRANCH  13  14
ENDBRANCH  12  13
ENDBRANCH  11  12
ENDBRANCH  10  11
ENDBRANCH   9  10
ENDBRANCH   8   9
ENDBRANCH   7   8
ENDBRANCH   6   7
ENDBRANCH   5   6
ENDBRANCH   4   5
ENDBRANCH   3   4
ENDBRANCH   2   3
ENDBRANCH   1   2
BRANCH   1  18
ATOM     18  C   UNL     1      48.701  22.496  54.242  1.00  0.00     0.000 C 
BRANCH  18  19
ATOM     19  C   UNL     1      49.417  22.798  55.571  1.00  0.00     0.000 C 
BRANCH  19  20
ATOM     20  C   UNL     1      50.204  24.123  55.610  1.00  0.00     0.000 C 
BRANCH  20  21
ATOM     21  C   UNL     1      50.925  24.494  54.302  1.00  0.00     0.000 C 
BRANCH  21  22
ATOM     22  C   UNL     1      52.355  25.005  54.534  1.00  0.00     0.000 C 
BRANCH  22  23
ATOM     23  C   UNL     1      53.388  23.958  54.102  1.00  0.00     0.000 C 
BRANCH  23  24
ATOM     24  C   UNL     1      53.429  22.782  55.087  1.00  0.00    -0.000 C 
BRANCH  24  25
ATOM     25  C   UNL     1      53.566  21.447  54.340  1.00  0.00    -0.000 C 
BRANCH  25  26
ATOM     26  C   UNL     1      52.207  20.853  53.937  1.00  0.00    -0.000 C 
BRANCH  26  27
ATOM     27  C   UNL     1      51.815  21.201  52.492  1.00  0.00    -0.000 C 
BRANCH  27  28
ATOM     28  C   UNL     1      53.023  21.259  51.542  1.00  0.00    -0.000 C 
BRANCH  28  29
ATOM     29  C   UNL     1      52.775  20.566  50.186  1.00  0.00    -0.000 C 
BRANCH  29  30
ATOM     30  C   UNL     1      54.086  20.286  49.428  1.00  0.00    -0.000 C 
BRANCH  30  31
ATOM     31  C   UNL     1      54.386  21.343  48.355  1.00  0.00    -0.003 C 
ATOM     32  C   UNL     1      55.757  21.154  47.705  1.00  0.00     0.004 C 
ENDBRANCH  30  31
ENDBRANCH  29  30
ENDBRANCH  28  29
ENDBRANCH  27  28
ENDBRANCH  26  27
ENDBRANCH  25  26
ENDBRANCH  24  25
ENDBRANCH  23  24
ENDBRANCH  22  23
ENDBRANCH  21  22
ENDBRANCH  20  21
ENDBRANCH  19  20
ENDBRANCH  18  19
ENDBRANCH   1  18
TORSDOF 28
ENDMDL
MODEL 8
REMARK VINA RESULT:    -4.287      3.987      8.690
REMARK INTER + INTRA:         -16.123
REMARK INTER:                 -12.932
REMARK INTRA:                  -3.191
REMARK UNBOUND:                -4.818
REMARK SMILES CCCCCCCCCCCCCCCCCCCCCCCCCCCCCC(=O)[O-]
REMARK SMILES IDX 16 1 17 2 18 3 19 4 20 5 21 6 22 7 23 8 24 9 25 10 26 11
REMARK SMILES IDX 27 12 28 13 29 14 30 15 31 16 32 17 15 18 14 19 13 20 12 21
REMARK SMILES IDX 11 22 10 23 9 24 8 25 7 26 6 27 5 28 4 29 3 30 2 31 1 32
REMARK H PARENT
REMARK Flexibility Score: inf
ROOT
ATOM      1  C   UNL     1      47.354  22.312  54.226  1.00  0.00     0.000 C 
ENDROOT
BRANCH   1   2
ATOM      2  C   UNL     1      47.934  23.390  53.295  1.00  0.00     0.000 C 
BRANCH   2   3
ATOM      3  C   UNL     1      48.151  22.883  51.857  1.00  0.00     0.000 C 
BRANCH   3   4
ATOM      4  C   UNL     1      47.844  21.383  51.720  1.00  0.00     0.000 C 
BRANCH   4   5
ATOM      5  C   UNL     1      48.113  20.857  50.300  1.00  0.00     0.000 C 
BRANCH   5   6
ATOM      6  C   UNL     1      48.698  19.435  50.287  1.00  0.00     0.000 C 
BRANCH   6   7
ATOM      7  C   UNL     1      50.240  19.392  50.244  1.00  0.00     0.000 C 
BRANCH   7   8
ATOM      8  C   UNL     1      50.862  20.764  49.930  1.00  0.00     0.000 C 
BRANCH   8   9
ATOM      9  C   UNL     1      52.378  20.809  50.188  1.00  0.00     0.000 C 
BRANCH   9  10
ATOM     10  C   UNL     1      52.769  21.586  51.463  1.00  0.00     0.000 C 
BRANCH  10  11
ATOM     11  C   UNL     1      52.091  21.015  52.722  1.00  0.00     0.000 C 
BRANCH  11  12
ATOM     12  C   UNL     1      51.277  22.072  53.484  1.00  0.00     0.000 C 
BRANCH  12  13
ATOM     13  C   UNL     1      51.845  22.359  54.882  1.00  0.00     0.006 C 
BRANCH  13  14
ATOM     14  C   UNL     1      53.156  21.601  55.106  1.00  0.00     0.053 C 
BRANCH  14  15
ATOM     15  C   UNL     1      54.280  22.558  55.348  1.00  0.00     0.041 C 
ATOM     16  O   UNL     1      54.823  23.157  54.381  1.00  0.00    -0.550 OA
ATOM     17  O   UNL     1      54.699  22.827  56.646  1.00  0.00    -0.550 OA
ENDBRANCH  14  15
ENDBRANCH  13  14
ENDBRANCH  12  13
ENDBRANCH  11  12
ENDBRANCH  10  11
ENDBRANCH   9  10
ENDBRANCH   8   9
ENDBRANCH   7   8
ENDBRANCH   6   7
ENDBRANCH   5   6
ENDBRANCH   4   5
ENDBRANCH   3   4
ENDBRANCH   2   3
ENDBRANCH   1   2
BRANCH   1  18
ATOM     18  C   UNL     1      46.259  22.863  55.156  1.00  0.00     0.000 C 
BRANCH  18  19
ATOM     19  C   UNL     1      45.906  24.332  54.858  1.00  0.00     0.000 C 
BRANCH  19  20
ATOM     20  C   UNL     1      44.526  24.795  55.366  1.00  0.00     0.000 C 
BRANCH  20  21
ATOM     21  C   UNL     1      43.377  23.797  55.139  1.00  0.00     0.000 C 
BRANCH  21  22
ATOM     22  C   UNL     1      41.998  24.390  55.463  1.00  0.00     0.000 C 
BRANCH  22  23
ATOM     23  C   UNL     1      40.960  23.282  55.679  1.00  0.00     0.000 C 
BRANCH  23  24
ATOM     24  C   UNL     1      40.129  23.048  54.412  1.00  0.00    -0.000 C 
BRANCH  24  25
ATOM     25  C   UNL     1      40.087  21.556  54.051  1.00  0.00    -0.000 C 
BRANCH  25  26
ATOM     26  C   UNL     1      41.478  20.985  53.735  1.00  0.00    -0.000 C 
BRANCH  26  27
ATOM     27  C   UNL     1      41.896  19.871  54.708  1.00  0.00    -0.000 C 
BRANCH  27  28
ATOM     28  C   UNL     1      43.355  20.003  55.178  1.00  0.00    -0.000 C 
BRANCH  28  29
ATOM     29  C   UNL     1      44.343  19.133  54.374  1.00  0.00    -0.000 C 
BRANCH  29  30
ATOM     30  C   UNL     1      43.623  18.090  53.502  1.00  0.00    -0.000 C 
BRANCH  30  31
ATOM     31  C   UNL     1      44.048  18.157  52.027  1.00  0.00    -0.003 C 
ATOM     32  C   UNL     1      44.021  16.791  51.340  1.00  0.00     0.004 C 
ENDBRANCH  30  31
ENDBRANCH  29  30
ENDBRANCH  28  29
ENDBRANCH  27  28
ENDBRANCH  26  27
ENDBRANCH  25  26
ENDBRANCH  24  25
ENDBRANCH  23  24
ENDBRANCH  22  23
ENDBRANCH  21  22
ENDBRANCH  20  21
ENDBRANCH  19  20
ENDBRANCH  18  19
ENDBRANCH   1  18
TORSDOF 28
ENDMDL
MODEL 9
REMARK VINA RESULT:    -4.264      1.713      5.071
REMARK INTER + INTRA:         -16.061
REMARK INTER:                 -10.944
REMARK INTRA:                  -5.117
REMARK UNBOUND:                -4.818
REMARK SMILES CCCCCCCCCCCCCCCCCCCCCCCCCCCCCC(=O)[O-]
REMARK SMILES IDX 16 1 17 2 18 3 19 4 20 5 21 6 22 7 23 8 24 9 25 10 26 11
REMARK SMILES IDX 27 12 28 13 29 14 30 15 31 16 32 17 15 18 14 19 13 20 12 21
REMARK SMILES IDX 11 22 10 23 9 24 8 25 7 26 6 27 5 28 4 29 3 30 2 31 1 32
REMARK H PARENT
REMARK Flexibility Score: inf
ROOT
ATOM      1  C   UNL     1      53.581  23.898  52.805  1.00  0.00     0.000 C 
ENDROOT
BRANCH   1   2
ATOM      2  C   UNL     1      53.737  23.115  51.492  1.00  0.00     0.000 C 
BRANCH   2   3
ATOM      3  C   UNL     1      53.315  21.639  51.622  1.00  0.00     0.000 C 
BRANCH   3   4
ATOM      4  C   UNL     1      53.085  20.980  50.252  1.00  0.00     0.000 C 
BRANCH   4   5
ATOM      5  C   UNL     1      51.593  20.876  49.895  1.00  0.00     0.000 C 
BRANCH   5   6
ATOM      6  C   UNL     1      50.802  19.992  50.874  1.00  0.00     0.000 C 
BRANCH   6   7
ATOM      7  C   UNL     1      49.498  19.414  50.284  1.00  0.00     0.000 C 
BRANCH   7   8
ATOM      8  C   UNL     1      48.639  20.483  49.586  1.00  0.00     0.000 C 
BRANCH   8   9
ATOM      9  C   UNL     1      47.232  20.612  50.194  1.00  0.00     0.000 C 
BRANCH   9  10
ATOM     10  C   UNL     1      46.982  19.668  51.389  1.00  0.00     0.000 C 
BRANCH  10  11
ATOM     11  C   UNL     1      45.524  19.176  51.445  1.00  0.00     0.000 C 
BRANCH  11  12
ATOM     12  C   UNL     1      45.305  18.105  52.526  1.00  0.00     0.000 C 
BRANCH  12  13
ATOM     13  C   UNL     1      43.824  17.936  52.896  1.00  0.00     0.006 C 
BRANCH  13  14
ATOM     14  C   UNL     1      43.630  17.992  54.415  1.00  0.00     0.053 C 
BRANCH  14  15
ATOM     15  C   UNL     1      43.578  19.411  54.884  1.00  0.00     0.041 C 
ATOM     16  O   UNL     1      42.469  19.983  55.054  1.00  0.00    -0.550 OA
ATOM     17  O   UNL     1      44.754  20.090  55.180  1.00  0.00    -0.550 OA
ENDBRANCH  14  15
ENDBRANCH  13  14
ENDBRANCH  12  13
ENDBRANCH  11  12
ENDBRANCH  10  11
ENDBRANCH   9  10
ENDBRANCH   8   9
ENDBRANCH   7   8
ENDBRANCH   6   7
ENDBRANCH   5   6
ENDBRANCH   4   5
ENDBRANCH   3   4
ENDBRANCH   2   3
ENDBRANCH   1   2
BRANCH   1  18
ATOM     18  C   UNL     1      52.626  25.097  52.668  1.00  0.00     0.000 C 
BRANCH  18  19
ATOM     19  C   UNL     1      51.406  24.788  51.781  1.00  0.00     0.000 C 
BRANCH  19  20
ATOM     20  C   UNL     1      50.092  24.510  52.540  1.00  0.00     0.000 C 
BRANCH  20  21
ATOM     21  C   UNL     1      49.362  23.219  52.129  1.00  0.00     0.000 C 
BRANCH  21  22
ATOM     22  C   UNL     1      47.835  23.330  52.262  1.00  0.00     0.000 C 
BRANCH  22  23
ATOM     23  C   UNL     1      47.403  23.228  53.729  1.00  0.00     0.000 C 
BRANCH  23  24
ATOM     24  C   UNL     1      47.762  21.858  54.318  1.00  0.00    -0.000 C 
BRANCH  24  25
ATOM     25  C   UNL     1      47.645  21.872  55.849  1.00  0.00    -0.000 C 
BRANCH  25  26
ATOM     26  C   UNL     1      47.897  23.263  56.450  1.00  0.00    -0.000 C 
BRANCH  26  27
ATOM     27  C   UNL     1      49.320  23.416  57.012  1.00  0.00    -0.000 C 
BRANCH  27  28
ATOM     28  C   UNL     1      50.310  23.991  55.985  1.00  0.00    -0.000 C 
BRANCH  28  29
ATOM     29  C   UNL     1      51.789  23.798  56.379  1.00  0.00    -0.000 C 
BRANCH  29  30
ATOM     30  C   UNL     1      52.357  22.461  55.869  1.00  0.00    -0.000 C 
BRANCH  30  31
ATOM     31  C   UNL     1      51.569  21.902  54.676  1.00  0.00    -0.003 C 
ATOM     32  C   UNL     1      51.462  20.376  54.700  1.00  0.00     0.004 C 
ENDBRANCH  30  31
ENDBRANCH  29  30
ENDBRANCH  28  29
ENDBRANCH  27  28
ENDBRANCH  26  27
ENDBRANCH  25  26
ENDBRANCH  24  25
ENDBRANCH  23  24
ENDBRANCH  22  23
ENDBRANCH  21  22
ENDBRANCH  20  21
ENDBRANCH  19  20
ENDBRANCH  18  19
ENDBRANCH   1  18
TORSDOF 28
ENDMDL
