MODEL 1
REMARK VINA RESULT:    -4.796      0.000      0.000
REMARK INTER + INTRA:          -7.376
REMARK INTER:                  -7.038
REMARK INTRA:                  -0.337
REMARK UNBOUND:                -0.337
REMARK SMILES O=C([O-])CCCCCCCC(=O)[O-]
REMARK SMILES IDX 7 1 6 2 5 3 4 4 2 5 1 6 3 7 8 8 9 9 10 10 11 11 12 12 13 13
REMARK H PARENT
REMARK Flexibility Score: inf
ROOT
ATOM      1  C   UNL     1     -13.182  -1.069 -10.453  1.00  0.00     0.000 C 
ENDROOT
BRANCH   1   2
ATOM      2  C   UNL     1     -14.447  -0.206 -10.623  1.00  0.00     0.000 C 
BRANCH   2   3
ATOM      3  C   UNL     1     -14.782   0.619  -9.371  1.00  0.00     0.006 C 
BRANCH   3   4
ATOM      4  C   UNL     1     -15.011   2.090  -9.729  1.00  0.00     0.053 C 
BRANCH   4   5
ATOM      5  C   UNL     1     -13.965   2.953  -9.097  1.00  0.00     0.041 C 
ATOM      6  O   UNL     1     -12.751   2.798  -9.396  1.00  0.00    -0.550 OA
ATOM      7  O   UNL     1     -14.325   3.894  -8.141  1.00  0.00    -0.550 OA
ENDBRANCH   4   5
ENDBRANCH   3   4
ENDBRANCH   2   3
ENDBRANCH   1   2
BRANCH   1   8
ATOM      8  C   UNL     1     -11.902  -0.285 -10.114  1.00  0.00     0.000 C 
BRANCH   8   9
ATOM      9  C   UNL     1     -10.644  -1.169 -10.100  1.00  0.00     0.006 C 
BRANCH   9  10
ATOM     10  C   UNL     1     -10.943  -2.596  -9.623  1.00  0.00     0.053 C 
BRANCH  10  11
ATOM     11  C   UNL     1      -9.885  -3.100  -8.688  1.00  0.00     0.041 C 
ATOM     12  O   UNL     1      -9.751  -2.586  -7.547  1.00  0.00    -0.550 OA
ATOM     13  O   UNL     1      -9.072  -4.162  -9.066  1.00  0.00    -0.550 OA
ENDBRANCH  10  11
ENDBRANCH   9  10
ENDBRANCH   8   9
ENDBRANCH   1   8
TORSDOF 8
ENDMDL
MODEL 2
REMARK VINA RESULT:    -4.772      0.099      6.128
REMARK INTER + INTRA:          -7.340
REMARK INTER:                  -6.977
REMARK INTRA:                  -0.363
REMARK UNBOUND:                -0.337
REMARK SMILES O=C([O-])CCCCCCCC(=O)[O-]
REMARK SMILES IDX 7 1 6 2 5 3 4 4 2 5 1 6 3 7 8 8 9 9 10 10 11 11 12 12 13 13
REMARK H PARENT
REMARK Flexibility Score: inf
ROOT
ATOM      1  C   UNL     1     -13.178  -1.036 -10.509  1.00  0.00     0.000 C 
ENDROOT
BRANCH   1   2
ATOM      2  C   UNL     1     -11.910  -0.325 -10.001  1.00  0.00     0.000 C 
BRANCH   2   3
ATOM      3  C   UNL     1     -10.643  -1.182 -10.143  1.00  0.00     0.006 C 
BRANCH   3   4
ATOM      4  C   UNL     1     -10.904  -2.623  -9.699  1.00  0.00     0.053 C 
BRANCH   4   5
ATOM      5  C   UNL     1      -9.837  -3.083  -8.757  1.00  0.00     0.041 C 
ATOM      6  O   UNL     1      -9.078  -4.037  -9.075  1.00  0.00    -0.550 OA
ATOM      7  O   UNL     1      -9.712  -2.492  -7.506  1.00  0.00    -0.550 OA
ENDBRANCH   4   5
ENDBRANCH   3   4
ENDBRANCH   2   3
ENDBRANCH   1   2
BRANCH   1   8
ATOM      8  C   UNL     1     -14.424  -0.141 -10.622  1.00  0.00     0.000 C 
BRANCH   8   9
ATOM      9  C   UNL     1     -14.723   0.637  -9.329  1.00  0.00     0.006 C 
BRANCH   9  10
ATOM     10  C   UNL     1     -15.023   2.117  -9.598  1.00  0.00     0.053 C 
BRANCH  10  11
ATOM     11  C   UNL     1     -13.971   3.011  -9.016  1.00  0.00     0.041 C 
ATOM     12  O   UNL     1     -14.273   3.853  -8.130  1.00  0.00    -0.550 OA
ATOM     13  O   UNL     1     -12.649   2.888  -9.426  1.00  0.00    -0.550 OA
ENDBRANCH  10  11
ENDBRANCH   9  10
ENDBRANCH   8   9
ENDBRANCH   1   8
TORSDOF 8
ENDMDL
MODEL 3
REMARK VINA RESULT:    -4.304      1.420      2.168
REMARK INTER + INTRA:          -6.654
REMARK INTER:                  -6.409
REMARK INTRA:                  -0.245
REMARK UNBOUND:                -0.337
REMARK SMILES O=C([O-])CCCCCCCC(=O)[O-]
REMARK SMILES IDX 7 1 6 2 5 3 4 4 2 5 1 6 3 7 8 8 9 9 10 10 11 11 12 12 13 13
REMARK H PARENT
REMARK Flexibility Score: inf
ROOT
ATOM      1  C   UNL     1     -11.254  -0.608  -9.953  1.00  0.00     0.000 C 
ENDROOT
BRANCH   1   2
ATOM      2  C   UNL     1     -12.737  -0.615 -10.367  1.00  0.00     0.000 C 
BRANCH   2   3
ATOM      3  C   UNL     1     -13.468   0.686 -10.001  1.00  0.00     0.006 C 
BRANCH   3   4
ATOM      4  C   UNL     1     -12.502   1.705  -9.390  1.00  0.00     0.053 C 
BRANCH   4   5
ATOM      5  C   UNL     1     -13.228   2.957  -9.015  1.00  0.00     0.041 C 
ATOM      6  O   UNL     1     -14.486   2.963  -8.944  1.00  0.00    -0.550 OA
ATOM      7  O   UNL     1     -12.521   4.131  -8.792  1.00  0.00    -0.550 OA
ENDBRANCH   4   5
ENDBRANCH   3   4
ENDBRANCH   2   3
ENDBRANCH   1   2
BRANCH   1   8
ATOM      8  C   UNL     1     -10.568  -1.985  -9.972  1.00  0.00     0.000 C 
BRANCH   8   9
ATOM      9  C   UNL     1     -10.044  -2.413  -8.591  1.00  0.00     0.006 C 
BRANCH   9  10
ATOM     10  C   UNL     1      -9.180  -3.679  -8.666  1.00  0.00     0.053 C 
BRANCH  10  11
ATOM     11  C   UNL     1      -9.816  -4.827  -7.942  1.00  0.00     0.041 C 
ATOM     12  O   UNL     1      -9.794  -5.982  -8.443  1.00  0.00    -0.550 OA
ATOM     13  O   UNL     1     -10.401  -4.627  -6.698  1.00  0.00    -0.550 OA
ENDBRANCH  10  11
ENDBRANCH   9  10
ENDBRANCH   8   9
ENDBRANCH   1   8
TORSDOF 8
ENDMDL
MODEL 4
REMARK VINA RESULT:    -4.280     15.907     17.594
REMARK INTER + INTRA:          -6.619
REMARK INTER:                  -5.766
REMARK INTRA:                  -0.853
REMARK UNBOUND:                -0.337
REMARK SMILES O=C([O-])CCCCCCCC(=O)[O-]
REMARK SMILES IDX 7 1 6 2 5 3 4 4 2 5 1 6 3 7 8 8 9 9 10 10 11 11 12 12 13 13
REMARK H PARENT
REMARK Flexibility Score: inf
ROOT
ATOM      1  C   UNL     1     -12.354   5.108   9.125  1.00  0.00     0.000 C 
ENDROOT
BRANCH   1   2
ATOM      2  C   UNL     1     -12.043   3.769   8.431  1.00  0.00     0.000 C 
BRANCH   2   3
ATOM      3  C   UNL     1     -10.745   3.806   7.610  1.00  0.00     0.006 C 
BRANCH   3   4
ATOM      4  C   UNL     1     -10.041   5.158   7.757  1.00  0.00     0.053 C 
BRANCH   4   5
ATOM      5  C   UNL     1     -10.112   5.928   6.477  1.00  0.00     0.041 C 
ATOM      6  O   UNL     1      -9.722   5.404   5.400  1.00  0.00    -0.550 OA
ATOM      7  O   UNL     1     -10.561   7.242   6.479  1.00  0.00    -0.550 OA
ENDBRANCH   4   5
ENDBRANCH   3   4
ENDBRANCH   2   3
ENDBRANCH   1   2
BRANCH   1   8
ATOM      8  C   UNL     1     -13.467   5.939   8.464  1.00  0.00     0.000 C 
BRANCH   8   9
ATOM      9  C   UNL     1     -14.027   5.285   7.189  1.00  0.00     0.006 C 
BRANCH   9  10
ATOM     10  C   UNL     1     -13.845   6.175   5.953  1.00  0.00     0.053 C 
BRANCH  10  11
ATOM     11  C   UNL     1     -13.527   5.368   4.731  1.00  0.00     0.041 C 
ATOM     12  O   UNL     1     -12.848   4.312   4.828  1.00  0.00    -0.550 OA
ATOM     13  O   UNL     1     -14.011   5.764   3.490  1.00  0.00    -0.550 OA
ENDBRANCH  10  11
ENDBRANCH   9  10
ENDBRANCH   8   9
ENDBRANCH   1   8
TORSDOF 8
ENDMDL
MODEL 5
REMARK VINA RESULT:    -4.267     15.916     17.335
REMARK INTER + INTRA:          -6.599
REMARK INTER:                  -5.716
REMARK INTRA:                  -0.884
REMARK UNBOUND:                -0.337
REMARK SMILES O=C([O-])CCCCCCCC(=O)[O-]
REMARK SMILES IDX 7 1 6 2 5 3 4 4 2 5 1 6 3 7 8 8 9 9 10 10 11 11 12 12 13 13
REMARK H PARENT
REMARK Flexibility Score: inf
ROOT
ATOM      1  C   UNL     1     -12.466   5.200   9.125  1.00  0.00     0.000 C 
ENDROOT
BRANCH   1   2
ATOM      2  C   UNL     1     -13.530   6.122   8.501  1.00  0.00     0.000 C 
BRANCH   2   3
ATOM      3  C   UNL     1     -14.216   5.501   7.274  1.00  0.00     0.006 C 
BRANCH   3   4
ATOM      4  C   UNL     1     -13.898   6.299   6.007  1.00  0.00     0.053 C 
BRANCH   4   5
ATOM      5  C   UNL     1     -13.775   5.384   4.829  1.00  0.00     0.041 C 
ATOM      6  O   UNL     1     -13.039   4.364   4.893  1.00  0.00    -0.550 OA
ATOM      7  O   UNL     1     -14.434   5.684   3.644  1.00  0.00    -0.550 OA
ENDBRANCH   4   5
ENDBRANCH   3   4
ENDBRANCH   2   3
ENDBRANCH   1   2
BRANCH   1   8
ATOM      8  C   UNL     1     -12.211   3.891   8.357  1.00  0.00     0.000 C 
BRANCH   8   9
ATOM      9  C   UNL     1     -10.862   3.883   7.617  1.00  0.00     0.006 C 
BRANCH   9  10
ATOM     10  C   UNL     1     -10.132   5.228   7.729  1.00  0.00     0.053 C 
BRANCH  10  11
ATOM     11  C   UNL     1     -10.168   5.987   6.437  1.00  0.00     0.041 C 
ATOM     12  O   UNL     1     -10.461   7.211   6.428  1.00  0.00    -0.550 OA
ATOM     13  O   UNL     1      -9.843   5.348   5.246  1.00  0.00    -0.550 OA
ENDBRANCH  10  11
ENDBRANCH   9  10
ENDBRANCH   8   9
ENDBRANCH   1   8
TORSDOF 8
ENDMDL
MODEL 6
REMARK VINA RESULT:    -4.242     15.020     16.405
REMARK INTER + INTRA:          -6.563
REMARK INTER:                  -6.051
REMARK INTRA:                  -0.512
REMARK UNBOUND:                -0.337
REMARK SMILES O=C([O-])CCCCCCCC(=O)[O-]
REMARK SMILES IDX 7 1 6 2 5 3 4 4 2 5 1 6 3 7 8 8 9 9 10 10 11 11 12 12 13 13
REMARK H PARENT
REMARK Flexibility Score: inf
ROOT
ATOM      1  C   UNL     1     -13.066   4.632   7.382  1.00  0.00     0.000 C 
ENDROOT
BRANCH   1   2
ATOM      2  C   UNL     1     -13.277   4.489   5.863  1.00  0.00     0.000 C 
BRANCH   2   3
ATOM      3  C   UNL     1     -13.499   5.835   5.159  1.00  0.00     0.006 C 
BRANCH   3   4
ATOM      4  C   UNL     1     -14.428   5.677   3.952  1.00  0.00     0.053 C 
BRANCH   4   5
ATOM      5  C   UNL     1     -14.358   6.886   3.074  1.00  0.00     0.041 C 
ATOM      6  O   UNL     1     -14.264   6.756   1.824  1.00  0.00    -0.550 OA
ATOM      7  O   UNL     1     -14.346   8.155   3.637  1.00  0.00    -0.550 OA
ENDBRANCH   4   5
ENDBRANCH   3   4
ENDBRANCH   2   3
ENDBRANCH   1   2
BRANCH   1   8
ATOM      8  C   UNL     1     -12.106   3.604   8.004  1.00  0.00     0.000 C 
BRANCH   8   9
ATOM      9  C   UNL     1     -10.636   3.846   7.619  1.00  0.00     0.006 C 
BRANCH   9  10
ATOM     10  C   UNL     1     -10.246   5.326   7.723  1.00  0.00     0.053 C 
BRANCH  10  11
ATOM     11  C   UNL     1      -9.669   5.838   6.438  1.00  0.00     0.041 C 
ATOM     12  O   UNL     1      -9.922   5.253   5.352  1.00  0.00    -0.550 OA
ATOM     13  O   UNL     1      -8.882   6.983   6.437  1.00  0.00    -0.550 OA
ENDBRANCH  10  11
ENDBRANCH   9  10
ENDBRANCH   8   9
ENDBRANCH   1   8
TORSDOF 8
ENDMDL
MODEL 7
REMARK VINA RESULT:    -4.225      5.545      7.176
REMARK INTER + INTRA:          -6.539
REMARK INTER:                  -5.769
REMARK INTRA:                  -0.770
REMARK UNBOUND:                -0.337
REMARK SMILES O=C([O-])CCCCCCCC(=O)[O-]
REMARK SMILES IDX 7 1 6 2 5 3 4 4 2 5 1 6 3 7 8 8 9 9 10 10 11 11 12 12 13 13
REMARK H PARENT
REMARK Flexibility Score: inf
ROOT
ATOM      1  C   UNL     1     -10.971  -5.518  -6.134  1.00  0.00     0.000 C 
ENDROOT
BRANCH   1   2
ATOM      2  C   UNL     1     -11.836  -6.149  -5.027  1.00  0.00     0.000 C 
BRANCH   2   3
ATOM      3  C   UNL     1     -12.824  -7.196  -5.562  1.00  0.00     0.006 C 
BRANCH   3   4
ATOM      4  C   UNL     1     -14.052  -6.525  -6.184  1.00  0.00     0.053 C 
BRANCH   4   5
ATOM      5  C   UNL     1     -14.011  -6.633  -7.675  1.00  0.00     0.041 C 
ATOM      6  O   UNL     1     -13.646  -7.708  -8.222  1.00  0.00    -0.550 OA
ATOM      7  O   UNL     1     -14.326  -5.533  -8.461  1.00  0.00    -0.550 OA
ENDBRANCH   4   5
ENDBRANCH   3   4
ENDBRANCH   2   3
ENDBRANCH   1   2
BRANCH   1   8
ATOM      8  C   UNL     1     -10.269  -6.525  -7.062  1.00  0.00     0.000 C 
BRANCH   8   9
ATOM      9  C   UNL     1     -10.445  -6.191  -8.553  1.00  0.00     0.006 C 
BRANCH   9  10
ATOM     10  C   UNL     1     -10.847  -4.727  -8.775  1.00  0.00     0.053 C 
BRANCH  10  11
ATOM     11  C   UNL     1      -9.670  -3.882  -9.156  1.00  0.00     0.041 C 
ATOM     12  O   UNL     1      -8.771  -3.630  -8.311  1.00  0.00    -0.550 OA
ATOM     13  O   UNL     1      -9.549  -3.402 -10.454  1.00  0.00    -0.550 OA
ENDBRANCH  10  11
ENDBRANCH   9  10
ENDBRANCH   8   9
ENDBRANCH   1   8
TORSDOF 8
ENDMDL
MODEL 8
REMARK VINA RESULT:    -4.183      5.273      7.096
REMARK INTER + INTRA:          -6.477
REMARK INTER:                  -5.734
REMARK INTRA:                  -0.744
REMARK UNBOUND:                -0.337
REMARK SMILES O=C([O-])CCCCCCCC(=O)[O-]
REMARK SMILES IDX 7 1 6 2 5 3 4 4 2 5 1 6 3 7 8 8 9 9 10 10 11 11 12 12 13 13
REMARK H PARENT
REMARK Flexibility Score: inf
ROOT
ATOM      1  C   UNL     1     -12.172  -6.258  -5.209  1.00  0.00     0.000 C 
ENDROOT
BRANCH   1   2
ATOM      2  C   UNL     1     -10.803  -6.142  -5.906  1.00  0.00     0.000 C 
BRANCH   2   3
ATOM      3  C   UNL     1     -10.613  -4.804  -6.635  1.00  0.00     0.006 C 
BRANCH   3   4
ATOM      4  C   UNL     1      -9.691  -4.965  -7.846  1.00  0.00     0.053 C 
BRANCH   4   5
ATOM      5  C   UNL     1      -9.776  -3.764  -8.734  1.00  0.00     0.041 C 
ATOM      6  O   UNL     1      -9.676  -3.892  -9.983  1.00  0.00    -0.550 OA
ATOM      7  O   UNL     1      -9.914  -2.498  -8.180  1.00  0.00    -0.550 OA
ENDBRANCH   4   5
ENDBRANCH   3   4
ENDBRANCH   2   3
ENDBRANCH   1   2
BRANCH   1   8
ATOM      8  C   UNL     1     -13.177  -7.193  -5.904  1.00  0.00     0.000 C 
BRANCH   8   9
ATOM      9  C   UNL     1     -13.796  -6.574  -7.169  1.00  0.00     0.006 C 
BRANCH   9  10
ATOM     10  C   UNL     1     -13.628  -7.477  -8.398  1.00  0.00     0.053 C 
BRANCH  10  11
ATOM     11  C   UNL     1     -12.340  -7.204  -9.113  1.00  0.00     0.041 C 
ATOM     12  O   UNL     1     -12.240  -6.213  -9.883  1.00  0.00    -0.550 OA
ATOM     13  O   UNL     1     -11.238  -8.024  -8.901  1.00  0.00    -0.550 OA
ENDBRANCH  10  11
ENDBRANCH   9  10
ENDBRANCH   8   9
ENDBRANCH   1   8
TORSDOF 8
ENDMDL
MODEL 9
REMARK VINA RESULT:    -4.120      5.735      7.001
REMARK INTER + INTRA:          -6.385
REMARK INTER:                  -5.647
REMARK INTRA:                  -0.738
REMARK UNBOUND:                -0.337
REMARK SMILES O=C([O-])CCCCCCCC(=O)[O-]
REMARK SMILES IDX 7 1 6 2 5 3 4 4 2 5 1 6 3 7 8 8 9 9 10 10 11 11 12 12 13 13
REMARK H PARENT
REMARK Flexibility Score: inf
ROOT
ATOM      1  C   UNL     1     -12.570  -6.255  -5.510  1.00  0.00     0.000 C 
ENDROOT
BRANCH   1   2
ATOM      2  C   UNL     1     -13.249  -7.525  -6.055  1.00  0.00     0.000 C 
BRANCH   2   3
ATOM      3  C   UNL     1     -13.258  -7.589  -7.590  1.00  0.00     0.006 C 
BRANCH   3   4
ATOM      4  C   UNL     1     -13.863  -6.316  -8.188  1.00  0.00     0.053 C 
BRANCH   4   5
ATOM      5  C   UNL     1     -13.114  -5.905  -9.416  1.00  0.00     0.041 C 
ATOM      6  O   UNL     1     -12.823  -4.694  -9.605  1.00  0.00    -0.550 OA
ATOM      7  O   UNL     1     -12.780  -6.851 -10.376  1.00  0.00    -0.550 OA
ENDBRANCH   4   5
ENDBRANCH   3   4
ENDBRANCH   2   3
ENDBRANCH   1   2
BRANCH   1   8
ATOM      8  C   UNL     1     -11.052  -6.177  -5.749  1.00  0.00     0.000 C 
BRANCH   8   9
ATOM      9  C   UNL     1     -10.639  -4.954  -6.587  1.00  0.00     0.006 C 
BRANCH   9  10
ATOM     10  C   UNL     1      -9.855  -5.351  -7.844  1.00  0.00     0.053 C 
BRANCH  10  11
ATOM     11  C   UNL     1      -9.303  -4.151  -8.554  1.00  0.00     0.041 C 
ATOM     12  O   UNL     1      -9.549  -3.970  -9.775  1.00  0.00    -0.550 OA
ATOM     13  O   UNL     1      -8.549  -3.216  -7.856  1.00  0.00    -0.550 OA
ENDBRANCH  10  11
ENDBRANCH   9  10
ENDBRANCH   8   9
ENDBRANCH   1   8
TORSDOF 8
ENDMDL
