MODEL 1
REMARK VINA RESULT:    -4.139      0.000      0.000
REMARK INTER + INTRA:          -9.830
REMARK INTER:                  -7.768
REMARK INTRA:                  -2.062
REMARK UNBOUND:                -2.062
REMARK SMILES O=C([O-])CCCCCCCCCCCCCCC(=O)[O-]
REMARK SMILES IDX 10 1 9 2 8 3 7 4 6 5 5 6 4 7 2 8 1 9 3 10 11 11 12 12 13 13
REMARK SMILES IDX 14 14 15 15 16 16 17 17 18 18 19 19 20 20
REMARK H PARENT
REMARK Flexibility Score: inf
ROOT
ATOM      1  C   UNL     1      48.670   0.099  75.449  1.00  0.00     0.000 C 
ENDROOT
BRANCH   1   2
ATOM      2  C   UNL     1      47.833   0.485  74.215  1.00  0.00     0.000 C 
BRANCH   2   3
ATOM      3  C   UNL     1      48.628   0.598  72.898  1.00  0.00     0.000 C 
BRANCH   3   4
ATOM      4  C   UNL     1      48.530  -0.625  71.969  1.00  0.00     0.000 C 
BRANCH   4   5
ATOM      5  C   UNL     1      49.906  -1.150  71.527  1.00  0.00     0.000 C 
BRANCH   5   6
ATOM      6  C   UNL     1      51.049  -0.630  72.413  1.00  0.00     0.006 C 
BRANCH   6   7
ATOM      7  C   UNL     1      51.956  -1.756  72.925  1.00  0.00     0.053 C 
BRANCH   7   8
ATOM      8  C   UNL     1      53.256  -1.756  72.185  1.00  0.00     0.041 C 
ATOM      9  O   UNL     1      53.643  -0.717  71.587  1.00  0.00    -0.550 OA
ATOM     10  O   UNL     1      54.064  -2.886  72.195  1.00  0.00    -0.550 OA
ENDBRANCH   7   8
ENDBRANCH   6   7
ENDBRANCH   5   6
ENDBRANCH   4   5
ENDBRANCH   3   4
ENDBRANCH   2   3
ENDBRANCH   1   2
BRANCH   1  11
ATOM     11  C   UNL     1      49.000  -1.402  75.562  1.00  0.00     0.000 C 
BRANCH  11  12
ATOM     12  C   UNL     1      47.781  -2.278  75.925  1.00  0.00     0.000 C 
BRANCH  12  13
ATOM     13  C   UNL     1      47.781  -3.621  75.177  1.00  0.00     0.000 C 
BRANCH  13  14
ATOM     14  C   UNL     1      48.913  -3.730  74.139  1.00  0.00     0.000 C 
BRANCH  14  15
ATOM     15  C   UNL     1      48.467  -4.175  72.735  1.00  0.00     0.000 C 
BRANCH  15  16
ATOM     16  C   UNL     1      48.461  -5.702  72.564  1.00  0.00     0.006 C 
BRANCH  16  17
ATOM     17  C   UNL     1      47.050  -6.212  72.256  1.00  0.00     0.053 C 
BRANCH  17  18
ATOM     18  C   UNL     1      46.628  -7.230  73.268  1.00  0.00     0.041 C 
ATOM     19  O   UNL     1      46.508  -6.907  74.479  1.00  0.00    -0.550 OA
ATOM     20  O   UNL     1      46.318  -8.523  72.866  1.00  0.00    -0.550 OA
ENDBRANCH  17  18
ENDBRANCH  16  17
ENDBRANCH  15  16
ENDBRANCH  14  15
ENDBRANCH  13  14
ENDBRANCH  12  13
ENDBRANCH  11  12
ENDBRANCH   1  11
TORSDOF 15
ENDMDL
MODEL 2
REMARK VINA RESULT:    -4.003      2.521      6.045
REMARK INTER + INTRA:          -9.575
REMARK INTER:                  -7.108
REMARK INTRA:                  -2.467
REMARK UNBOUND:                -2.062
REMARK SMILES O=C([O-])CCCCCCCCCCCCCCC(=O)[O-]
REMARK SMILES IDX 10 1 9 2 8 3 7 4 6 5 5 6 4 7 2 8 1 9 3 10 11 11 12 12 13 13
REMARK SMILES IDX 14 14 15 15 16 16 17 17 18 18 19 19 20 20
REMARK H PARENT
REMARK Flexibility Score: inf
ROOT
ATOM      1  C   UNL     1      52.398  -1.342  72.153  1.00  0.00     0.000 C 
ENDROOT
BRANCH   1   2
ATOM      2  C   UNL     1      52.428  -2.369  73.301  1.00  0.00     0.000 C 
BRANCH   2   3
ATOM      3  C   UNL     1      51.979  -3.793  72.913  1.00  0.00     0.000 C 
BRANCH   3   4
ATOM      4  C   UNL     1      50.597  -4.210  73.448  1.00  0.00     0.000 C 
BRANCH   4   5
ATOM      5  C   UNL     1      49.568  -4.440  72.328  1.00  0.00     0.000 C 
BRANCH   5   6
ATOM      6  C   UNL     1      48.127  -4.162  72.784  1.00  0.00     0.006 C 
BRANCH   6   7
ATOM      7  C   UNL     1      47.616  -5.204  73.788  1.00  0.00     0.053 C 
BRANCH   7   8
ATOM      8  C   UNL     1      46.677  -6.156  73.117  1.00  0.00     0.041 C 
ATOM      9  O   UNL     1      45.620  -6.519  73.700  1.00  0.00    -0.550 OA
ATOM     10  O   UNL     1      46.943  -6.606  71.830  1.00  0.00    -0.550 OA
ENDBRANCH   7   8
ENDBRANCH   6   7
ENDBRANCH   5   6
ENDBRANCH   4   5
ENDBRANCH   3   4
ENDBRANCH   2   3
ENDBRANCH   1   2
BRANCH   1  11
ATOM     11  C   UNL     1      51.253  -0.314  72.237  1.00  0.00     0.000 C 
BRANCH  11  12
ATOM     12  C   UNL     1      49.889  -0.869  71.770  1.00  0.00     0.000 C 
BRANCH  12  13
ATOM     13  C   UNL     1      48.768  -0.601  72.788  1.00  0.00     0.000 C 
BRANCH  13  14
ATOM     14  C   UNL     1      49.232  -0.759  74.247  1.00  0.00     0.000 C 
BRANCH  14  15
ATOM     15  C   UNL     1      48.154  -1.263  75.223  1.00  0.00     0.000 C 
BRANCH  15  16
ATOM     16  C   UNL     1      48.636  -2.429  76.099  1.00  0.00     0.006 C 
BRANCH  16  17
ATOM     17  C   UNL     1      50.086  -2.214  76.545  1.00  0.00     0.053 C 
BRANCH  17  18
ATOM     18  C   UNL     1      50.335  -2.883  77.860  1.00  0.00     0.041 C 
ATOM     19  O   UNL     1      51.317  -3.658  78.001  1.00  0.00    -0.550 OA
ATOM     20  O   UNL     1      49.510  -2.612  78.945  1.00  0.00    -0.550 OA
ENDBRANCH  17  18
ENDBRANCH  16  17
ENDBRANCH  15  16
ENDBRANCH  14  15
ENDBRANCH  13  14
ENDBRANCH  12  13
ENDBRANCH  11  12
ENDBRANCH   1  11
TORSDOF 15
ENDMDL
MODEL 3
REMARK VINA RESULT:    -3.948      2.005      3.505
REMARK INTER + INTRA:          -9.471
REMARK INTER:                  -7.779
REMARK INTRA:                  -1.692
REMARK UNBOUND:                -2.062
REMARK SMILES O=C([O-])CCCCCCCCCCCCCCC(=O)[O-]
REMARK SMILES IDX 10 1 9 2 8 3 7 4 6 5 5 6 4 7 2 8 1 9 3 10 11 11 12 12 13 13
REMARK SMILES IDX 14 14 15 15 16 16 17 17 18 18 19 19 20 20
REMARK H PARENT
REMARK Flexibility Score: inf
ROOT
ATOM      1  C   UNL     1      49.578  -1.053  71.750  1.00  0.00     0.000 C 
ENDROOT
BRANCH   1   2
ATOM      2  C   UNL     1      50.976  -1.492  72.226  1.00  0.00     0.000 C 
BRANCH   2   3
ATOM      3  C   UNL     1      52.115  -0.503  71.902  1.00  0.00     0.000 C 
BRANCH   3   4
ATOM      4  C   UNL     1      53.526  -1.117  71.883  1.00  0.00     0.000 C 
BRANCH   4   5
ATOM      5  C   UNL     1      53.780  -2.067  73.066  1.00  0.00     0.000 C 
BRANCH   5   6
ATOM      6  C   UNL     1      54.080  -3.505  72.614  1.00  0.00     0.006 C 
BRANCH   6   7
ATOM      7  C   UNL     1      53.687  -4.547  73.670  1.00  0.00     0.053 C 
BRANCH   7   8
ATOM      8  C   UNL     1      54.815  -5.500  73.906  1.00  0.00     0.041 C 
ATOM      9  O   UNL     1      54.578  -6.693  74.237  1.00  0.00    -0.550 OA
ATOM     10  O   UNL     1      56.128  -5.087  73.715  1.00  0.00    -0.550 OA
ENDBRANCH   7   8
ENDBRANCH   6   7
ENDBRANCH   5   6
ENDBRANCH   4   5
ENDBRANCH   3   4
ENDBRANCH   2   3
ENDBRANCH   1   2
BRANCH   1  11
ATOM     11  C   UNL     1      48.618  -0.622  72.876  1.00  0.00     0.000 C 
BRANCH  11  12
ATOM     12  C   UNL     1      49.320  -0.394  74.233  1.00  0.00     0.000 C 
BRANCH  12  13
ATOM     13  C   UNL     1      48.917  -1.440  75.285  1.00  0.00     0.000 C 
BRANCH  13  14
ATOM     14  C   UNL     1      48.242  -2.681  74.670  1.00  0.00     0.000 C 
BRANCH  14  15
ATOM     15  C   UNL     1      49.108  -3.953  74.655  1.00  0.00     0.000 C 
BRANCH  15  16
ATOM     16  C   UNL     1      49.238  -4.573  73.256  1.00  0.00     0.006 C 
BRANCH  16  17
ATOM     17  C   UNL     1      47.885  -4.590  72.537  1.00  0.00     0.053 C 
BRANCH  17  18
ATOM     18  C   UNL     1      47.181  -5.889  72.773  1.00  0.00     0.041 C 
ATOM     19  O   UNL     1      47.351  -6.853  71.981  1.00  0.00    -0.550 OA
ATOM     20  O   UNL     1      46.378  -6.051  73.895  1.00  0.00    -0.550 OA
ENDBRANCH  17  18
ENDBRANCH  16  17
ENDBRANCH  15  16
ENDBRANCH  14  15
ENDBRANCH  13  14
ENDBRANCH  12  13
ENDBRANCH  11  12
ENDBRANCH   1  11
TORSDOF 15
ENDMDL
MODEL 4
REMARK VINA RESULT:    -3.930      2.758      4.187
REMARK INTER + INTRA:          -9.438
REMARK INTER:                  -7.358
REMARK INTRA:                  -2.080
REMARK UNBOUND:                -2.062
REMARK SMILES O=C([O-])CCCCCCCCCCCCCCC(=O)[O-]
REMARK SMILES IDX 10 1 9 2 8 3 7 4 6 5 5 6 4 7 2 8 1 9 3 10 11 11 12 12 13 13
REMARK SMILES IDX 14 14 15 15 16 16 17 17 18 18 19 19 20 20
REMARK H PARENT
REMARK Flexibility Score: inf
ROOT
ATOM      1  C   UNL     1      51.210  -0.294  72.226  1.00  0.00     0.000 C 
ENDROOT
BRANCH   1   2
ATOM      2  C   UNL     1      49.925  -0.840  71.575  1.00  0.00     0.000 C 
BRANCH   2   3
ATOM      3  C   UNL     1      48.660  -0.751  72.453  1.00  0.00     0.000 C 
BRANCH   3   4
ATOM      4  C   UNL     1      48.648   0.411  73.463  1.00  0.00     0.000 C 
BRANCH   4   5
ATOM      5  C   UNL     1      48.631  -0.069  74.924  1.00  0.00     0.000 C 
BRANCH   5   6
ATOM      6  C   UNL     1      48.336  -1.572  75.048  1.00  0.00     0.006 C 
BRANCH   6   7
ATOM      7  C   UNL     1      49.363  -2.303  75.924  1.00  0.00     0.053 C 
BRANCH   7   8
ATOM      8  C   UNL     1      48.756  -2.672  77.240  1.00  0.00     0.041 C 
ATOM      9  O   UNL     1      48.143  -3.765  77.370  1.00  0.00    -0.550 OA
ATOM     10  O   UNL     1      48.908  -1.833  78.337  1.00  0.00    -0.550 OA
ENDBRANCH   7   8
ENDBRANCH   6   7
ENDBRANCH   5   6
ENDBRANCH   4   5
ENDBRANCH   3   4
ENDBRANCH   2   3
ENDBRANCH   1   2
BRANCH   1  11
ATOM     11  C   UNL     1      52.327  -1.336  72.423  1.00  0.00     0.000 C 
BRANCH  11  12
ATOM     12  C   UNL     1      51.945  -2.476  73.392  1.00  0.00     0.000 C 
BRANCH  12  13
ATOM     13  C   UNL     1      51.857  -3.840  72.688  1.00  0.00     0.000 C 
BRANCH  13  14
ATOM     14  C   UNL     1      50.459  -4.126  72.108  1.00  0.00     0.000 C 
BRANCH  14  15
ATOM     15  C   UNL     1      49.455  -4.737  73.101  1.00  0.00     0.000 C 
BRANCH  15  16
ATOM     16  C   UNL     1      47.992  -4.462  72.720  1.00  0.00     0.006 C 
BRANCH  16  17
ATOM     17  C   UNL     1      47.279  -5.758  72.319  1.00  0.00     0.053 C 
BRANCH  17  18
ATOM     18  C   UNL     1      46.540  -6.333  73.486  1.00  0.00     0.041 C 
ATOM     19  O   UNL     1      45.431  -5.849  73.833  1.00  0.00    -0.550 OA
ATOM     20  O   UNL     1      47.052  -7.435  74.159  1.00  0.00    -0.550 OA
ENDBRANCH  17  18
ENDBRANCH  16  17
ENDBRANCH  15  16
ENDBRANCH  14  15
ENDBRANCH  13  14
ENDBRANCH  12  13
ENDBRANCH  11  12
ENDBRANCH   1  11
TORSDOF 15
ENDMDL
MODEL 5
REMARK VINA RESULT:    -3.919      3.662      6.779
REMARK INTER + INTRA:          -9.419
REMARK INTER:                  -7.681
REMARK INTRA:                  -1.738
REMARK UNBOUND:                -2.062
REMARK SMILES O=C([O-])CCCCCCCCCCCCCCC(=O)[O-]
REMARK SMILES IDX 10 1 9 2 8 3 7 4 6 5 5 6 4 7 2 8 1 9 3 10 11 11 12 12 13 13
REMARK SMILES IDX 14 14 15 15 16 16 17 17 18 18 19 19 20 20
REMARK H PARENT
REMARK Flexibility Score: inf
ROOT
ATOM      1  C   UNL     1      50.676  -3.419  75.543  1.00  0.00     0.000 C 
ENDROOT
BRANCH   1   2
ATOM      2  C   UNL     1      50.951  -4.885  75.155  1.00  0.00     0.000 C 
BRANCH   2   3
ATOM      3  C   UNL     1      50.209  -5.935  76.007  1.00  0.00     0.000 C 
BRANCH   3   4
ATOM      4  C   UNL     1      50.938  -6.365  77.293  1.00  0.00     0.000 C 
BRANCH   4   5
ATOM      5  C   UNL     1      50.133  -6.057  78.567  1.00  0.00     0.000 C 
BRANCH   5   6
ATOM      6  C   UNL     1      50.231  -4.582  78.985  1.00  0.00     0.006 C 
BRANCH   6   7
ATOM      7  C   UNL     1      51.681  -4.084  79.050  1.00  0.00     0.053 C 
BRANCH   7   8
ATOM      8  C   UNL     1      51.717  -2.630  79.400  1.00  0.00     0.041 C 
ATOM      9  O   UNL     1      51.578  -2.263  80.597  1.00  0.00    -0.550 OA
ATOM     10  O   UNL     1      51.953  -1.682  78.412  1.00  0.00    -0.550 OA
ENDBRANCH   7   8
ENDBRANCH   6   7
ENDBRANCH   5   6
ENDBRANCH   4   5
ENDBRANCH   3   4
ENDBRANCH   2   3
ENDBRANCH   1   2
BRANCH   1  11
ATOM     11  C   UNL     1      49.185  -3.056  75.677  1.00  0.00     0.000 C 
BRANCH  11  12
ATOM     12  C   UNL     1      48.594  -2.390  74.414  1.00  0.00     0.000 C 
BRANCH  12  13
ATOM     13  C   UNL     1      48.750  -0.861  74.431  1.00  0.00     0.000 C 
BRANCH  13  14
ATOM     14  C   UNL     1      48.613  -0.228  73.034  1.00  0.00     0.000 C 
BRANCH  14  15
ATOM     15  C   UNL     1      49.487  -0.869  71.941  1.00  0.00     0.000 C 
BRANCH  15  16
ATOM     16  C   UNL     1      50.990  -0.654  72.171  1.00  0.00     0.006 C 
BRANCH  16  17
ATOM     17  C   UNL     1      51.717  -1.993  72.327  1.00  0.00     0.053 C 
BRANCH  17  18
ATOM     18  C   UNL     1      53.193  -1.778  72.446  1.00  0.00     0.041 C 
ATOM     19  O   UNL     1      53.792  -1.031  71.629  1.00  0.00    -0.550 OA
ATOM     20  O   UNL     1      53.899  -2.363  73.490  1.00  0.00    -0.550 OA
ENDBRANCH  17  18
ENDBRANCH  16  17
ENDBRANCH  15  16
ENDBRANCH  14  15
ENDBRANCH  13  14
ENDBRANCH  12  13
ENDBRANCH  11  12
ENDBRANCH   1  11
TORSDOF 15
ENDMDL
MODEL 6
REMARK VINA RESULT:    -3.912      1.814      6.876
REMARK INTER + INTRA:          -9.405
REMARK INTER:                  -7.136
REMARK INTRA:                  -2.269
REMARK UNBOUND:                -2.062
REMARK SMILES O=C([O-])CCCCCCCCCCCCCCC(=O)[O-]
REMARK SMILES IDX 10 1 9 2 8 3 7 4 6 5 5 6 4 7 2 8 1 9 3 10 11 11 12 12 13 13
REMARK SMILES IDX 14 14 15 15 16 16 17 17 18 18 19 19 20 20
REMARK H PARENT
REMARK Flexibility Score: inf
ROOT
ATOM      1  C   UNL     1      49.452  -4.106  74.653  1.00  0.00     0.000 C 
ENDROOT
BRANCH   1   2
ATOM      2  C   UNL     1      49.165  -4.975  73.414  1.00  0.00     0.000 C 
BRANCH   2   3
ATOM      3  C   UNL     1      47.752  -4.812  72.816  1.00  0.00     0.000 C 
BRANCH   3   4
ATOM      4  C   UNL     1      46.754  -5.924  73.190  1.00  0.00     0.000 C 
BRANCH   4   5
ATOM      5  C   UNL     1      45.647  -5.436  74.138  1.00  0.00     0.000 C 
BRANCH   5   6
ATOM      6  C   UNL     1      45.922  -5.803  75.605  1.00  0.00     0.006 C 
BRANCH   6   7
ATOM      7  C   UNL     1      46.926  -6.955  75.746  1.00  0.00     0.053 C 
BRANCH   7   8
ATOM      8  C   UNL     1      46.231  -8.199  76.199  1.00  0.00     0.041 C 
ATOM      9  O   UNL     1      46.765  -8.943  77.064  1.00  0.00    -0.550 OA
ATOM     10  O   UNL     1      44.971  -8.514  75.704  1.00  0.00    -0.550 OA
ENDBRANCH   7   8
ENDBRANCH   6   7
ENDBRANCH   5   6
ENDBRANCH   4   5
ENDBRANCH   3   4
ENDBRANCH   2   3
ENDBRANCH   1   2
BRANCH   1  11
ATOM     11  C   UNL     1      48.407  -3.009  74.929  1.00  0.00     0.000 C 
BRANCH  11  12
ATOM     12  C   UNL     1      49.026  -1.634  75.261  1.00  0.00     0.000 C 
BRANCH  12  13
ATOM     13  C   UNL     1      48.376  -0.490  74.467  1.00  0.00     0.000 C 
BRANCH  13  14
ATOM     14  C   UNL     1      49.225  -0.035  73.265  1.00  0.00     0.000 C 
BRANCH  14  15
ATOM     15  C   UNL     1      49.012  -0.844  71.974  1.00  0.00     0.000 C 
BRANCH  15  16
ATOM     16  C   UNL     1      50.136  -1.855  71.707  1.00  0.00     0.006 C 
BRANCH  16  17
ATOM     17  C   UNL     1      51.454  -1.386  72.333  1.00  0.00     0.053 C 
BRANCH  17  18
ATOM     18  C   UNL     1      52.166  -2.532  72.980  1.00  0.00     0.041 C 
ATOM     19  O   UNL     1      52.267  -3.634  72.379  1.00  0.00    -0.550 OA
ATOM     20  O   UNL     1      52.760  -2.369  74.225  1.00  0.00    -0.550 OA
ENDBRANCH  17  18
ENDBRANCH  16  17
ENDBRANCH  15  16
ENDBRANCH  14  15
ENDBRANCH  13  14
ENDBRANCH  12  13
ENDBRANCH  11  12
ENDBRANCH   1  11
TORSDOF 15
ENDMDL
MODEL 7
REMARK VINA RESULT:    -3.886      2.273      5.815
REMARK INTER + INTRA:          -9.356
REMARK INTER:                  -7.548
REMARK INTRA:                  -1.808
REMARK UNBOUND:                -2.062
REMARK SMILES O=C([O-])CCCCCCCCCCCCCCC(=O)[O-]
REMARK SMILES IDX 10 1 9 2 8 3 7 4 6 5 5 6 4 7 2 8 1 9 3 10 11 11 12 12 13 13
REMARK SMILES IDX 14 14 15 15 16 16 17 17 18 18 19 19 20 20
REMARK H PARENT
REMARK Flexibility Score: inf
ROOT
ATOM      1  C   UNL     1      49.390  -0.090  73.244  1.00  0.00     0.000 C 
ENDROOT
BRANCH   1   2
ATOM      2  C   UNL     1      48.604  -0.792  74.367  1.00  0.00     0.000 C 
BRANCH   2   3
ATOM      3  C   UNL     1      49.454  -1.676  75.304  1.00  0.00     0.000 C 
BRANCH   3   4
ATOM      4  C   UNL     1      49.504  -3.167  74.926  1.00  0.00     0.000 C 
BRANCH   4   5
ATOM      5  C   UNL     1      48.256  -3.630  74.157  1.00  0.00     0.000 C 
BRANCH   5   6
ATOM      6  C   UNL     1      48.605  -4.412  72.881  1.00  0.00     0.006 C 
BRANCH   6   7
ATOM      7  C   UNL     1      47.488  -5.376  72.457  1.00  0.00     0.053 C 
BRANCH   7   8
ATOM      8  C   UNL     1      47.793  -6.763  72.925  1.00  0.00     0.041 C 
ATOM      9  O   UNL     1      47.318  -7.184  74.013  1.00  0.00    -0.550 OA
ATOM     10  O   UNL     1      48.563  -7.610  72.137  1.00  0.00    -0.550 OA
ENDBRANCH   7   8
ENDBRANCH   6   7
ENDBRANCH   5   6
ENDBRANCH   4   5
ENDBRANCH   3   4
ENDBRANCH   2   3
ENDBRANCH   1   2
BRANCH   1  11
ATOM     11  C   UNL     1      49.539  -0.911  71.949  1.00  0.00     0.000 C 
BRANCH  11  12
ATOM     12  C   UNL     1      50.867  -1.694  71.863  1.00  0.00     0.000 C 
BRANCH  12  13
ATOM     13  C   UNL     1      52.094  -0.794  72.082  1.00  0.00     0.000 C 
BRANCH  13  14
ATOM     14  C   UNL     1      53.398  -1.591  72.265  1.00  0.00     0.000 C 
BRANCH  14  15
ATOM     15  C   UNL     1      53.494  -2.392  73.576  1.00  0.00     0.000 C 
BRANCH  15  16
ATOM     16  C   UNL     1      53.966  -3.838  73.362  1.00  0.00     0.006 C 
BRANCH  16  17
ATOM     17  C   UNL     1      52.904  -4.836  73.833  1.00  0.00     0.053 C 
BRANCH  17  18
ATOM     18  C   UNL     1      53.547  -6.017  74.490  1.00  0.00     0.041 C 
ATOM     19  O   UNL     1      53.090  -6.464  75.575  1.00  0.00    -0.550 OA
ATOM     20  O   UNL     1      54.619  -6.654  73.879  1.00  0.00    -0.550 OA
ENDBRANCH  17  18
ENDBRANCH  16  17
ENDBRANCH  15  16
ENDBRANCH  14  15
ENDBRANCH  13  14
ENDBRANCH  12  13
ENDBRANCH  11  12
ENDBRANCH   1  11
TORSDOF 15
ENDMDL
MODEL 8
REMARK VINA RESULT:    -3.886      3.068      6.804
REMARK INTER + INTRA:          -9.355
REMARK INTER:                  -7.415
REMARK INTRA:                  -1.941
REMARK UNBOUND:                -2.062
REMARK SMILES O=C([O-])CCCCCCCCCCCCCCC(=O)[O-]
REMARK SMILES IDX 10 1 9 2 8 3 7 4 6 5 5 6 4 7 2 8 1 9 3 10 11 11 12 12 13 13
REMARK SMILES IDX 14 14 15 15 16 16 17 17 18 18 19 19 20 20
REMARK H PARENT
REMARK Flexibility Score: inf
ROOT
ATOM      1  C   UNL     1      52.456  -2.341  73.185  1.00  0.00     0.000 C 
ENDROOT
BRANCH   1   2
ATOM      2  C   UNL     1      51.863  -3.682  72.711  1.00  0.00     0.000 C 
BRANCH   2   3
ATOM      3  C   UNL     1      50.531  -4.079  73.380  1.00  0.00     0.000 C 
BRANCH   3   4
ATOM      4  C   UNL     1      49.497  -4.726  72.441  1.00  0.00     0.000 C 
BRANCH   4   5
ATOM      5  C   UNL     1      48.059  -4.259  72.725  1.00  0.00     0.000 C 
BRANCH   5   6
ATOM      6  C   UNL     1      47.153  -5.401  73.212  1.00  0.00     0.006 C 
BRANCH   6   7
ATOM      7  C   UNL     1      46.415  -5.052  74.511  1.00  0.00     0.053 C 
BRANCH   7   8
ATOM      8  C   UNL     1      47.391  -4.823  75.620  1.00  0.00     0.041 C 
ATOM      9  O   UNL     1      48.256  -5.698  75.894  1.00  0.00    -0.550 OA
ATOM     10  O   UNL     1      47.380  -3.624  76.322  1.00  0.00    -0.550 OA
ENDBRANCH   7   8
ENDBRANCH   6   7
ENDBRANCH   5   6
ENDBRANCH   4   5
ENDBRANCH   3   4
ENDBRANCH   2   3
ENDBRANCH   1   2
BRANCH   1  11
ATOM     11  C   UNL     1      52.420  -1.213  72.136  1.00  0.00     0.000 C 
BRANCH  11  12
ATOM     12  C   UNL     1      51.180  -0.299  72.254  1.00  0.00     0.000 C 
BRANCH  12  13
ATOM     13  C   UNL     1      49.942  -0.899  71.570  1.00  0.00     0.000 C 
BRANCH  13  14
ATOM     14  C   UNL     1      48.649  -0.694  72.381  1.00  0.00     0.000 C 
BRANCH  14  15
ATOM     15  C   UNL     1      48.823  -0.751  73.909  1.00  0.00     0.000 C 
BRANCH  15  16
ATOM     16  C   UNL     1      48.286   0.500  74.620  1.00  0.00     0.006 C 
BRANCH  16  17
ATOM     17  C   UNL     1      48.390   1.732  73.714  1.00  0.00     0.053 C 
BRANCH  17  18
ATOM     18  C   UNL     1      47.116   2.516  73.747  1.00  0.00     0.041 C 
ATOM     19  O   UNL     1      47.100   3.714  73.359  1.00  0.00    -0.550 OA
ATOM     20  O   UNL     1      45.936   1.910  74.160  1.00  0.00    -0.550 OA
ENDBRANCH  17  18
ENDBRANCH  16  17
ENDBRANCH  15  16
ENDBRANCH  14  15
ENDBRANCH  13  14
ENDBRANCH  12  13
ENDBRANCH  11  12
ENDBRANCH   1  11
TORSDOF 15
ENDMDL
MODEL 9
REMARK VINA RESULT:    -3.847      1.158      2.066
REMARK INTER + INTRA:          -9.283
REMARK INTER:                  -7.553
REMARK INTRA:                  -1.730
REMARK UNBOUND:                -2.062
REMARK SMILES O=C([O-])CCCCCCCCCCCCCCC(=O)[O-]
REMARK SMILES IDX 10 1 9 2 8 3 7 4 6 5 5 6 4 7 2 8 1 9 3 10 11 11 12 12 13 13
REMARK SMILES IDX 14 14 15 15 16 16 17 17 18 18 19 19 20 20
REMARK H PARENT
REMARK Flexibility Score: inf
ROOT
ATOM      1  C   UNL     1      47.947  -1.971  75.873  1.00  0.00     0.000 C 
ENDROOT
BRANCH   1   2
ATOM      2  C   UNL     1      48.868  -0.902  75.254  1.00  0.00     0.000 C 
BRANCH   2   3
ATOM      3  C   UNL     1      48.164   0.107  74.324  1.00  0.00     0.000 C 
BRANCH   3   4
ATOM      4  C   UNL     1      48.862   0.346  72.973  1.00  0.00     0.000 C 
BRANCH   4   5
ATOM      5  C   UNL     1      48.822  -0.886  72.054  1.00  0.00     0.000 C 
BRANCH   5   6
ATOM      6  C   UNL     1      50.209  -1.516  71.851  1.00  0.00     0.006 C 
BRANCH   6   7
ATOM      7  C   UNL     1      51.350  -0.558  72.217  1.00  0.00     0.053 C 
BRANCH   7   8
ATOM      8  C   UNL     1      52.664  -1.271  72.170  1.00  0.00     0.041 C 
ATOM      9  O   UNL     1      52.809  -2.373  72.764  1.00  0.00    -0.550 OA
ATOM     10  O   UNL     1      53.716  -0.744  71.430  1.00  0.00    -0.550 OA
ENDBRANCH   7   8
ENDBRANCH   6   7
ENDBRANCH   5   6
ENDBRANCH   4   5
ENDBRANCH   3   4
ENDBRANCH   2   3
ENDBRANCH   1   2
BRANCH   1  11
ATOM     11  C   UNL     1      47.883  -3.298  75.093  1.00  0.00     0.000 C 
BRANCH  11  12
ATOM     12  C   UNL     1      49.272  -3.874  74.737  1.00  0.00     0.000 C 
BRANCH  12  13
ATOM     13  C   UNL     1      49.274  -4.604  73.384  1.00  0.00     0.000 C 
BRANCH  13  14
ATOM     14  C   UNL     1      47.939  -4.474  72.629  1.00  0.00     0.000 C 
BRANCH  14  15
ATOM     15  C   UNL     1      47.284  -5.808  72.230  1.00  0.00     0.000 C 
BRANCH  15  16
ATOM     16  C   UNL     1      47.115  -6.771  73.415  1.00  0.00     0.006 C 
BRANCH  16  17
ATOM     17  C   UNL     1      46.481  -8.090  72.961  1.00  0.00     0.053 C 
BRANCH  17  18
ATOM     18  C   UNL     1      47.502  -8.965  72.305  1.00  0.00     0.041 C 
ATOM     19  O   UNL     1      48.719  -8.850  72.604  1.00  0.00    -0.550 OA
ATOM     20  O   UNL     1      47.103  -9.942  71.401  1.00  0.00    -0.550 OA
ENDBRANCH  17  18
ENDBRANCH  16  17
ENDBRANCH  15  16
ENDBRANCH  14  15
ENDBRANCH  13  14
ENDBRANCH  12  13
ENDBRANCH  11  12
ENDBRANCH   1  11
TORSDOF 15
ENDMDL
