MODEL 1
REMARK VINA RESULT:     1.658      0.000      0.000
REMARK INTER + INTRA:           1.663
REMARK INTER:                   1.949
REMARK INTRA:                  -0.286
REMARK UNBOUND:                -0.286
REMARK SMILES O=c1cc(-c2ccc(O)c(O)c2)oc2cc(O)cc(O)c12
REMARK SMILES IDX 4 1 3 2 2 3 1 4 21 5 19 6 18 7 16 8 15 9 14 10 13 11 5 12
REMARK SMILES IDX 6 13 7 14 8 15 12 16 10 17 9 18 11 20 20 22 17 24
REMARK H PARENT 9 19 11 21 20 23 17 25
REMARK Flexibility Score: inf
ROOT
ATOM      1  C   UNL     1     161.209 145.197 172.539  1.00  0.00     0.138 A 
ATOM      2  C   UNL     1     162.109 145.284 171.468  1.00  0.00     0.100 A 
ATOM      3  C   UNL     1     161.625 145.321 170.160  1.00  0.00     0.197 A 
ATOM      4  O   UNL     1     162.460 145.344 169.219  1.00  0.00    -0.289 OA
ATOM      5  C   UNL     1     160.229 145.307 169.925  1.00  0.00     0.107 A 
ATOM      6  C   UNL     1     159.619 145.374 168.636  1.00  0.00     0.134 A 
ATOM      7  C   UNL     1     158.229 145.251 168.523  1.00  0.00     0.093 A 
ATOM      8  C   UNL     1     157.422 145.122 169.656  1.00  0.00     0.123 A 
ATOM      9  C   UNL     1     158.003 145.105 170.921  1.00  0.00     0.094 A 
ATOM     10  C   UNL     1     159.390 145.191 171.066  1.00  0.00     0.146 A 
ATOM     11  O   UNL     1     159.904 145.152 172.291  1.00  0.00    -0.456 OA
ENDROOT
BRANCH   1  12
ATOM     12  C   UNL     1     161.668 145.158 173.950  1.00  0.00     0.021 A 
ATOM     13  C   UNL     1     160.951 144.396 174.889  1.00  0.00     0.016 A 
ATOM     14  C   UNL     1     161.366 144.337 176.221  1.00  0.00     0.051 A 
ATOM     15  C   UNL     1     162.507 145.027 176.638  1.00  0.00     0.157 A 
ATOM     16  C   UNL     1     162.825 145.842 174.372  1.00  0.00     0.062 A 
ATOM     17  C   UNL     1     163.243 145.781 175.710  1.00  0.00     0.158 A 
BRANCH  15  18
ATOM     18  O   UNL     1     162.894 144.951 177.976  1.00  0.00    -0.504 OA
ATOM     19  H   UNL     1     163.541 144.246 178.309  1.00  0.00     0.293 HD
ENDBRANCH  15  18
BRANCH  17  20
ATOM     20  O   UNL     1     164.388 146.464 176.118  1.00  0.00    -0.504 OA
ATOM     21  H   UNL     1     164.877 147.100 175.499  1.00  0.00     0.293 HD
ENDBRANCH  17  20
ENDBRANCH   1  12
BRANCH   6  22
ATOM     22  O   UNL     1     160.324 145.582 167.446  1.00  0.00    -0.507 OA
ATOM     23  H   UNL     1     160.139 145.113 166.573  1.00  0.00     0.293 HD
ENDBRANCH   6  22
BRANCH   8  24
ATOM     24  O   UNL     1     156.039 145.016 169.535  1.00  0.00    -0.508 OA
ATOM     25  H   UNL     1     155.449 144.818 170.335  1.00  0.00     0.293 HD
ENDBRANCH   8  24
TORSDOF 5
ENDMDL
MODEL 2
REMARK VINA RESULT:     3.815      2.203      2.554
REMARK INTER + INTRA:           4.198
REMARK INTER:                   4.488
REMARK INTRA:                  -0.290
REMARK UNBOUND:                -0.286
REMARK SMILES O=c1cc(-c2ccc(O)c(O)c2)oc2cc(O)cc(O)c12
REMARK SMILES IDX 4 1 3 2 2 3 1 4 21 5 19 6 18 7 16 8 15 9 14 10 13 11 5 12
REMARK SMILES IDX 6 13 7 14 8 15 12 16 10 17 9 18 11 20 20 22 17 24
REMARK H PARENT 9 19 11 21 20 23 17 25
REMARK Flexibility Score: inf
ROOT
ATOM      1  C   UNL     1     160.711 145.663 172.977  1.00  0.00     0.138 A 
ATOM      2  C   UNL     1     160.326 144.708 172.026  1.00  0.00     0.100 A 
ATOM      3  C   UNL     1     159.861 145.126 170.778  1.00  0.00     0.197 A 
ATOM      4  O   UNL     1     159.472 144.246 169.966  1.00  0.00    -0.289 OA
ATOM      5  C   UNL     1     159.816 146.506 170.469  1.00  0.00     0.107 A 
ATOM      6  C   UNL     1     159.392 147.047 169.218  1.00  0.00     0.134 A 
ATOM      7  C   UNL     1     159.295 148.436 169.064  1.00  0.00     0.093 A 
ATOM      8  C   UNL     1     159.662 149.303 170.095  1.00  0.00     0.123 A 
ATOM      9  C   UNL     1     160.125 148.786 171.303  1.00  0.00     0.094 A 
ATOM     10  C   UNL     1     160.199 147.405 171.501  1.00  0.00     0.146 A 
ATOM     11  O   UNL     1     160.628 146.954 172.675  1.00  0.00    -0.456 OA
ENDROOT
BRANCH   1  12
ATOM     12  C   UNL     1     161.216 145.276 174.319  1.00  0.00     0.021 A 
ATOM     13  C   UNL     1     160.525 144.303 175.062  1.00  0.00     0.016 A 
ATOM     14  C   UNL     1     160.983 143.917 176.324  1.00  0.00     0.051 A 
ATOM     15  C   UNL     1     162.141 144.485 176.861  1.00  0.00     0.157 A 
ATOM     16  C   UNL     1     162.390 145.836 174.858  1.00  0.00     0.062 A 
ATOM     17  C   UNL     1     162.852 145.446 176.124  1.00  0.00     0.158 A 
BRANCH  15  18
ATOM     18  O   UNL     1     162.572 144.080 178.125  1.00  0.00    -0.504 OA
ATOM     19  H   UNL     1     162.086 144.353 178.971  1.00  0.00     0.293 HD
ENDBRANCH  15  18
BRANCH  17  20
ATOM     20  O   UNL     1     164.014 146.008 176.650  1.00  0.00    -0.504 OA
ATOM     21  H   UNL     1     164.747 146.370 176.052  1.00  0.00     0.293 HD
ENDBRANCH  17  20
ENDBRANCH   1  12
BRANCH   6  22
ATOM     22  O   UNL     1     159.079 146.274 168.095  1.00  0.00    -0.507 OA
ATOM     23  H   UNL     1     159.735 145.713 167.577  1.00  0.00     0.293 HD
ENDBRANCH   6  22
BRANCH   8  24
ATOM     24  O   UNL     1     159.578 150.683 169.927  1.00  0.00    -0.508 OA
ATOM     25  H   UNL     1     158.761 151.205 170.225  1.00  0.00     0.293 HD
ENDBRANCH   8  24
TORSDOF 5
ENDMDL
