MODEL 1
REMARK VINA RESULT:    -3.610      0.000      0.000
REMARK INTER + INTRA:         -10.799
REMARK INTER:                  -7.831
REMARK INTRA:                  -2.968
REMARK UNBOUND:                -2.968
REMARK SMILES CCCCCCCCCCCCCCCCCCCCCC(=O)[O-]
REMARK SMILES IDX 12 1 11 2 10 3 9 4 8 5 7 6 6 7 5 8 4 9 3 10 2 11 1 12 13 13
REMARK SMILES IDX 14 14 15 15 16 16 17 17 18 18 19 19 20 20 21 21 22 22 23 23
REMARK SMILES IDX 24 24
REMARK H PARENT
REMARK Flexibility Score: inf
ROOT
ATOM      1  C   UNL     1      57.447   2.744  94.770  1.00  0.00     0.000 C 
ENDROOT
BRANCH   1   2
ATOM      2  C   UNL     1      56.503   3.952  94.685  1.00  0.00     0.000 C 
BRANCH   2   3
ATOM      3  C   UNL     1      56.961   5.069  95.631  1.00  0.00     0.000 C 
BRANCH   3   4
ATOM      4  C   UNL     1      58.445   5.400  95.415  1.00  0.00    -0.000 C 
BRANCH   4   5
ATOM      5  C   UNL     1      59.245   5.396  96.727  1.00  0.00    -0.000 C 
BRANCH   5   6
ATOM      6  C   UNL     1      60.720   5.770  96.519  1.00  0.00    -0.000 C 
BRANCH   6   7
ATOM      7  C   UNL     1      60.850   7.054  95.690  1.00  0.00    -0.000 C 
BRANCH   7   8
ATOM      8  C   UNL     1      60.691   8.298  96.574  1.00  0.00    -0.000 C 
BRANCH   8   9
ATOM      9  C   UNL     1      59.450   9.105  96.174  1.00  0.00    -0.000 C 
BRANCH   9  10
ATOM     10  C   UNL     1      59.436   9.381  94.663  1.00  0.00    -0.000 C 
BRANCH  10  11
ATOM     11  C   UNL     1      58.192   8.802  93.970  1.00  0.00    -0.003 C 
ATOM     12  C   UNL     1      56.961   8.789  94.878  1.00  0.00     0.004 C 
ENDBRANCH  10  11
ENDBRANCH   9  10
ENDBRANCH   8   9
ENDBRANCH   7   8
ENDBRANCH   6   7
ENDBRANCH   5   6
ENDBRANCH   4   5
ENDBRANCH   3   4
ENDBRANCH   2   3
ENDBRANCH   1   2
BRANCH   1  13
ATOM     13  C   UNL     1      56.852   1.573  95.570  1.00  0.00     0.000 C 
BRANCH  13  14
ATOM     14  C   UNL     1      57.807   0.939  96.601  1.00  0.00     0.000 C 
BRANCH  14  15
ATOM     15  C   UNL     1      59.100   1.751  96.838  1.00  0.00     0.000 C 
BRANCH  15  16
ATOM     16  C   UNL     1      60.362   0.875  96.763  1.00  0.00     0.000 C 
BRANCH  16  17
ATOM     17  C   UNL     1      60.100  -0.509  96.140  1.00  0.00     0.000 C 
BRANCH  17  18
ATOM     18  C   UNL     1      61.004  -0.861  94.944  1.00  0.00     0.000 C 
BRANCH  18  19
ATOM     19  C   UNL     1      60.252  -1.596  93.819  1.00  0.00     0.000 C 
BRANCH  19  20
ATOM     20  C   UNL     1      58.898  -0.945  93.490  1.00  0.00     0.006 C 
BRANCH  20  21
ATOM     21  C   UNL     1      59.025   0.193  92.466  1.00  0.00     0.053 C 
BRANCH  21  22
ATOM     22  C   UNL     1      58.603  -0.261  91.102  1.00  0.00     0.041 C 
ATOM     23  O   UNL     1      58.378  -1.484  90.883  1.00  0.00    -0.550 OA
ATOM     24  O   UNL     1      58.521   0.649  90.056  1.00  0.00    -0.550 OA
ENDBRANCH  21  22
ENDBRANCH  20  21
ENDBRANCH  19  20
ENDBRANCH  18  19
ENDBRANCH  17  18
ENDBRANCH  16  17
ENDBRANCH  15  16
ENDBRANCH  14  15
ENDBRANCH  13  14
ENDBRANCH   1  13
TORSDOF 20
ENDMDL
MODEL 2
REMARK VINA RESULT:    -3.527      3.431      7.662
REMARK INTER + INTRA:         -10.618
REMARK INTER:                  -6.862
REMARK INTRA:                  -3.756
REMARK UNBOUND:                -2.968
REMARK SMILES CCCCCCCCCCCCCCCCCCCCCC(=O)[O-]
REMARK SMILES IDX 12 1 11 2 10 3 9 4 8 5 7 6 6 7 5 8 4 9 3 10 2 11 1 12 13 13
REMARK SMILES IDX 14 14 15 15 16 16 17 17 18 18 19 19 20 20 21 21 22 22 23 23
REMARK SMILES IDX 24 24
REMARK H PARENT
REMARK Flexibility Score: inf
ROOT
ATOM      1  C   UNL     1      57.104  -1.792  95.535  1.00  0.00     0.000 C 
ENDROOT
BRANCH   1   2
ATOM      2  C   UNL     1      56.851  -0.895  96.756  1.00  0.00     0.000 C 
BRANCH   2   3
ATOM      3  C   UNL     1      56.470   0.525  96.318  1.00  0.00     0.000 C 
BRANCH   3   4
ATOM      4  C   UNL     1      57.474   1.555  96.856  1.00  0.00    -0.000 C 
BRANCH   4   5
ATOM      5  C   UNL     1      58.774   1.592  96.037  1.00  0.00    -0.000 C 
BRANCH   5   6
ATOM      6  C   UNL     1      59.985   1.080  96.832  1.00  0.00    -0.000 C 
BRANCH   6   7
ATOM      7  C   UNL     1      60.632  -0.121  96.134  1.00  0.00    -0.000 C 
BRANCH   7   8
ATOM      8  C   UNL     1      60.165  -0.230  94.677  1.00  0.00    -0.000 C 
BRANCH   8   9
ATOM      9  C   UNL     1      60.705  -1.503  94.016  1.00  0.00    -0.000 C 
BRANCH   9  10
ATOM     10  C   UNL     1      60.472  -1.477  92.498  1.00  0.00    -0.000 C 
BRANCH  10  11
ATOM     11  C   UNL     1      60.099  -2.858  91.935  1.00  0.00    -0.003 C 
ATOM     12  C   UNL     1      60.141  -3.961  92.996  1.00  0.00     0.004 C 
ENDBRANCH  10  11
ENDBRANCH   9  10
ENDBRANCH   8   9
ENDBRANCH   7   8
ENDBRANCH   6   7
ENDBRANCH   5   6
ENDBRANCH   4   5
ENDBRANCH   3   4
ENDBRANCH   2   3
ENDBRANCH   1   2
BRANCH   1  13
ATOM     13  C   UNL     1      56.163  -1.483  94.358  1.00  0.00     0.000 C 
BRANCH  13  14
ATOM     14  C   UNL     1      56.837  -1.476  92.972  1.00  0.00     0.000 C 
BRANCH  14  15
ATOM     15  C   UNL     1      56.532  -0.213  92.136  1.00  0.00     0.000 C 
BRANCH  15  16
ATOM     16  C   UNL     1      57.276   1.028  92.659  1.00  0.00     0.000 C 
BRANCH  16  17
ATOM     17  C   UNL     1      56.328   2.124  93.181  1.00  0.00     0.000 C 
BRANCH  17  18
ATOM     18  C   UNL     1      56.940   3.536  93.232  1.00  0.00     0.000 C 
BRANCH  18  19
ATOM     19  C   UNL     1      56.520   4.327  94.485  1.00  0.00     0.000 C 
BRANCH  19  20
ATOM     20  C   UNL     1      57.715   4.974  95.205  1.00  0.00     0.006 C 
BRANCH  20  21
ATOM     21  C   UNL     1      57.317   5.622  96.540  1.00  0.00     0.053 C 
BRANCH  21  22
ATOM     22  C   UNL     1      57.677   7.076  96.559  1.00  0.00     0.041 C 
ATOM     23  O   UNL     1      56.916   7.909  97.125  1.00  0.00    -0.550 OA
ATOM     24  O   UNL     1      58.814   7.524  95.899  1.00  0.00    -0.550 OA
ENDBRANCH  21  22
ENDBRANCH  20  21
ENDBRANCH  19  20
ENDBRANCH  18  19
ENDBRANCH  17  18
ENDBRANCH  16  17
ENDBRANCH  15  16
ENDBRANCH  14  15
ENDBRANCH  13  14
ENDBRANCH   1  13
TORSDOF 20
ENDMDL
MODEL 3
REMARK VINA RESULT:    -3.466      3.592      8.005
REMARK INTER + INTRA:         -10.487
REMARK INTER:                  -7.711
REMARK INTRA:                  -2.776
REMARK UNBOUND:                -2.968
REMARK SMILES CCCCCCCCCCCCCCCCCCCCCC(=O)[O-]
REMARK SMILES IDX 12 1 11 2 10 3 9 4 8 5 7 6 6 7 5 8 4 9 3 10 2 11 1 12 13 13
REMARK SMILES IDX 14 14 15 15 16 16 17 17 18 18 19 19 20 20 21 21 22 22 23 23
REMARK SMILES IDX 24 24
REMARK H PARENT
REMARK Flexibility Score: inf
ROOT
ATOM      1  C   UNL     1      56.753   1.979  93.324  1.00  0.00     0.000 C 
ENDROOT
BRANCH   1   2
ATOM      2  C   UNL     1      57.762   1.008  93.952  1.00  0.00     0.000 C 
BRANCH   2   3
ATOM      3  C   UNL     1      57.090   0.145  95.028  1.00  0.00     0.000 C 
BRANCH   3   4
ATOM      4  C   UNL     1      57.895   0.169  96.336  1.00  0.00    -0.000 C 
BRANCH   4   5
ATOM      5  C   UNL     1      58.831   1.385  96.427  1.00  0.00    -0.000 C 
BRANCH   5   6
ATOM      6  C   UNL     1      60.280   0.989  96.747  1.00  0.00    -0.000 C 
BRANCH   6   7
ATOM      7  C   UNL     1      60.539  -0.480  96.394  1.00  0.00    -0.000 C 
BRANCH   7   8
ATOM      8  C   UNL     1      61.124  -0.612  94.982  1.00  0.00    -0.000 C 
BRANCH   8   9
ATOM      9  C   UNL     1      60.596  -1.868  94.280  1.00  0.00    -0.000 C 
BRANCH   9  10
ATOM     10  C   UNL     1      60.233  -1.570  92.818  1.00  0.00    -0.000 C 
BRANCH  10  11
ATOM     11  C   UNL     1      59.031  -2.394  92.329  1.00  0.00    -0.003 C 
ATOM     12  C   UNL     1      58.162  -2.913  93.477  1.00  0.00     0.004 C 
ENDBRANCH  10  11
ENDBRANCH   9  10
ENDBRANCH   8   9
ENDBRANCH   7   8
ENDBRANCH   6   7
ENDBRANCH   5   6
ENDBRANCH   4   5
ENDBRANCH   3   4
ENDBRANCH   2   3
ENDBRANCH   1   2
BRANCH   1  13
ATOM     13  C   UNL     1      56.907   3.420  93.839  1.00  0.00     0.000 C 
BRANCH  13  14
ATOM     14  C   UNL     1      55.926   3.818  94.960  1.00  0.00     0.000 C 
BRANCH  14  15
ATOM     15  C   UNL     1      56.618   4.333  96.242  1.00  0.00     0.000 C 
BRANCH  15  16
ATOM     16  C   UNL     1      58.011   4.922  95.958  1.00  0.00     0.000 C 
BRANCH  16  17
ATOM     17  C   UNL     1      58.402   6.046  96.936  1.00  0.00     0.000 C 
BRANCH  17  18
ATOM     18  C   UNL     1      59.547   6.954  96.452  1.00  0.00     0.000 C 
BRANCH  18  19
ATOM     19  C   UNL     1      60.342   6.345  95.282  1.00  0.00     0.000 C 
BRANCH  19  20
ATOM     20  C   UNL     1      61.054   7.410  94.432  1.00  0.00     0.006 C 
BRANCH  20  21
ATOM     21  C   UNL     1      60.083   8.456  93.865  1.00  0.00     0.053 C 
BRANCH  21  22
ATOM     22  C   UNL     1      60.694   9.824  93.886  1.00  0.00     0.041 C 
ATOM     23  O   UNL     1      61.060  10.371  92.809  1.00  0.00    -0.550 OA
ATOM     24  O   UNL     1      60.922  10.469  95.095  1.00  0.00    -0.550 OA
ENDBRANCH  21  22
ENDBRANCH  20  21
ENDBRANCH  19  20
ENDBRANCH  18  19
ENDBRANCH  17  18
ENDBRANCH  16  17
ENDBRANCH  15  16
ENDBRANCH  14  15
ENDBRANCH  13  14
ENDBRANCH   1  13
TORSDOF 20
ENDMDL
MODEL 4
REMARK VINA RESULT:    -3.457      4.064      7.760
REMARK INTER + INTRA:         -10.467
REMARK INTER:                  -6.749
REMARK INTRA:                  -3.718
REMARK UNBOUND:                -2.968
REMARK SMILES CCCCCCCCCCCCCCCCCCCCCC(=O)[O-]
REMARK SMILES IDX 12 1 11 2 10 3 9 4 8 5 7 6 6 7 5 8 4 9 3 10 2 11 1 12 13 13
REMARK SMILES IDX 14 14 15 15 16 16 17 17 18 18 19 19 20 20 21 21 22 22 23 23
REMARK SMILES IDX 24 24
REMARK H PARENT
REMARK Flexibility Score: inf
ROOT
ATOM      1  C   UNL     1      56.948   0.776  95.357  1.00  0.00     0.000 C 
ENDROOT
BRANCH   1   2
ATOM      2  C   UNL     1      56.423   0.386  96.746  1.00  0.00     0.000 C 
BRANCH   2   3
ATOM      3  C   UNL     1      56.372  -1.139  96.901  1.00  0.00     0.000 C 
BRANCH   3   4
ATOM      4  C   UNL     1      57.022  -1.837  95.697  1.00  0.00    -0.000 C 
BRANCH   4   5
ATOM      5  C   UNL     1      56.368  -3.191  95.379  1.00  0.00    -0.000 C 
BRANCH   5   6
ATOM      6  C   UNL     1      55.625  -3.185  94.035  1.00  0.00    -0.000 C 
BRANCH   6   7
ATOM      7  C   UNL     1      56.602  -3.354  92.866  1.00  0.00    -0.000 C 
BRANCH   7   8
ATOM      8  C   UNL     1      57.677  -4.398  93.193  1.00  0.00    -0.000 C 
BRANCH   8   9
ATOM      9  C   UNL     1      58.484  -4.771  91.944  1.00  0.00    -0.000 C 
BRANCH   9  10
ATOM     10  C   UNL     1      58.201  -3.793  90.794  1.00  0.00    -0.000 C 
BRANCH  10  11
ATOM     11  C   UNL     1      58.983  -4.142  89.518  1.00  0.00    -0.003 C 
ATOM     12  C   UNL     1      60.426  -3.632  89.548  1.00  0.00     0.004 C 
ENDBRANCH  10  11
ENDBRANCH   9  10
ENDBRANCH   8   9
ENDBRANCH   7   8
ENDBRANCH   6   7
ENDBRANCH   5   6
ENDBRANCH   4   5
ENDBRANCH   3   4
ENDBRANCH   2   3
ENDBRANCH   1   2
BRANCH   1  13
ATOM     13  C   UNL     1      58.226   1.631  95.417  1.00  0.00     0.000 C 
BRANCH  13  14
ATOM     14  C   UNL     1      58.987   1.569  96.756  1.00  0.00     0.000 C 
BRANCH  14  15
ATOM     15  C   UNL     1      60.371   0.890  96.657  1.00  0.00     0.000 C 
BRANCH  15  16
ATOM     16  C   UNL     1      60.265  -0.601  96.288  1.00  0.00     0.000 C 
BRANCH  16  17
ATOM     17  C   UNL     1      61.108  -0.979  95.056  1.00  0.00     0.000 C 
BRANCH  17  18
ATOM     18  C   UNL     1      60.476  -2.046  94.143  1.00  0.00     0.000 C 
BRANCH  18  19
ATOM     19  C   UNL     1      60.351  -1.585  92.679  1.00  0.00     0.000 C 
BRANCH  19  20
ATOM     20  C   UNL     1      59.717  -0.191  92.549  1.00  0.00     0.006 C 
BRANCH  20  21
ATOM     21  C   UNL     1      58.259  -0.249  92.067  1.00  0.00     0.053 C 
BRANCH  21  22
ATOM     22  C   UNL     1      57.965   0.865  91.109  1.00  0.00     0.041 C 
ATOM     23  O   UNL     1      57.437   1.933  91.524  1.00  0.00    -0.550 OA
ATOM     24  O   UNL     1      58.212   0.703  89.752  1.00  0.00    -0.550 OA
ENDBRANCH  21  22
ENDBRANCH  20  21
ENDBRANCH  19  20
ENDBRANCH  18  19
ENDBRANCH  17  18
ENDBRANCH  16  17
ENDBRANCH  15  16
ENDBRANCH  14  15
ENDBRANCH  13  14
ENDBRANCH   1  13
TORSDOF 20
ENDMDL
MODEL 5
REMARK VINA RESULT:    -3.432      3.025      7.608
REMARK INTER + INTRA:         -10.412
REMARK INTER:                  -7.137
REMARK INTRA:                  -3.275
REMARK UNBOUND:                -2.968
REMARK SMILES CCCCCCCCCCCCCCCCCCCCCC(=O)[O-]
REMARK SMILES IDX 12 1 11 2 10 3 9 4 8 5 7 6 6 7 5 8 4 9 3 10 2 11 1 12 13 13
REMARK SMILES IDX 14 14 15 15 16 16 17 17 18 18 19 19 20 20 21 21 22 22 23 23
REMARK SMILES IDX 24 24
REMARK H PARENT
REMARK Flexibility Score: inf
ROOT
ATOM      1  C   UNL     1      56.235  -1.612  93.152  1.00  0.00     0.000 C 
ENDROOT
BRANCH   1   2
ATOM      2  C   UNL     1      56.616  -2.518  94.333  1.00  0.00     0.000 C 
BRANCH   2   3
ATOM      3  C   UNL     1      55.710  -2.247  95.541  1.00  0.00     0.000 C 
BRANCH   3   4
ATOM      4  C   UNL     1      56.534  -1.803  96.758  1.00  0.00    -0.000 C 
BRANCH   4   5
ATOM      5  C   UNL     1      57.960  -1.374  96.378  1.00  0.00    -0.000 C 
BRANCH   5   6
ATOM      6  C   UNL     1      58.157   0.147  96.451  1.00  0.00    -0.000 C 
BRANCH   6   7
ATOM      7  C   UNL     1      59.452   0.568  95.748  1.00  0.00    -0.000 C 
BRANCH   7   8
ATOM      8  C   UNL     1      60.612  -0.363  96.124  1.00  0.00    -0.000 C 
BRANCH   8   9
ATOM      9  C   UNL     1      61.124  -1.132  94.901  1.00  0.00    -0.000 C 
BRANCH   9  10
ATOM     10  C   UNL     1      60.374  -0.705  93.630  1.00  0.00    -0.000 C 
BRANCH  10  11
ATOM     11  C   UNL     1      59.964  -1.903  92.757  1.00  0.00    -0.003 C 
ATOM     12  C   UNL     1      60.416  -3.243  93.341  1.00  0.00     0.004 C 
ENDBRANCH  10  11
ENDBRANCH   9  10
ENDBRANCH   8   9
ENDBRANCH   7   8
ENDBRANCH   6   7
ENDBRANCH   5   6
ENDBRANCH   4   5
ENDBRANCH   3   4
ENDBRANCH   2   3
ENDBRANCH   1   2
BRANCH   1  13
ATOM     13  C   UNL     1      56.129  -0.129  93.544  1.00  0.00     0.000 C 
BRANCH  13  14
ATOM     14  C   UNL     1      57.142   0.801  92.846  1.00  0.00     0.000 C 
BRANCH  14  15
ATOM     15  C   UNL     1      56.844   2.305  93.038  1.00  0.00     0.000 C 
BRANCH  15  16
ATOM     16  C   UNL     1      55.771   2.556  94.112  1.00  0.00     0.000 C 
BRANCH  16  17
ATOM     17  C   UNL     1      56.355   3.079  95.438  1.00  0.00     0.000 C 
BRANCH  17  18
ATOM     18  C   UNL     1      57.649   3.902  95.294  1.00  0.00     0.000 C 
BRANCH  18  19
ATOM     19  C   UNL     1      58.384   4.104  96.631  1.00  0.00     0.000 C 
BRANCH  19  20
ATOM     20  C   UNL     1      58.790   5.568  96.868  1.00  0.00     0.006 C 
BRANCH  20  21
ATOM     21  C   UNL     1      60.178   5.894  96.296  1.00  0.00     0.053 C 
BRANCH  21  22
ATOM     22  C   UNL     1      60.078   6.872  95.165  1.00  0.00     0.041 C 
ATOM     23  O   UNL     1      60.935   6.859  94.239  1.00  0.00    -0.550 OA
ATOM     24  O   UNL     1      59.081   7.838  95.164  1.00  0.00    -0.550 OA
ENDBRANCH  21  22
ENDBRANCH  20  21
ENDBRANCH  19  20
ENDBRANCH  18  19
ENDBRANCH  17  18
ENDBRANCH  16  17
ENDBRANCH  15  16
ENDBRANCH  14  15
ENDBRANCH  13  14
ENDBRANCH   1  13
TORSDOF 20
ENDMDL
MODEL 6
REMARK VINA RESULT:    -3.406      3.271      7.791
REMARK INTER + INTRA:         -10.355
REMARK INTER:                  -7.346
REMARK INTRA:                  -3.009
REMARK UNBOUND:                -2.968
REMARK SMILES CCCCCCCCCCCCCCCCCCCCCC(=O)[O-]
REMARK SMILES IDX 12 1 11 2 10 3 9 4 8 5 7 6 6 7 5 8 4 9 3 10 2 11 1 12 13 13
REMARK SMILES IDX 14 14 15 15 16 16 17 17 18 18 19 19 20 20 21 21 22 22 23 23
REMARK SMILES IDX 24 24
REMARK H PARENT
REMARK Flexibility Score: inf
ROOT
ATOM      1  C   UNL     1      57.801   0.846  91.344  1.00  0.00     0.000 C 
ENDROOT
BRANCH   1   2
ATOM      2  C   UNL     1      58.499  -0.519  91.435  1.00  0.00     0.000 C 
BRANCH   2   3
ATOM      3  C   UNL     1      59.661  -0.470  92.435  1.00  0.00     0.000 C 
BRANCH   3   4
ATOM      4  C   UNL     1      60.232  -1.874  92.685  1.00  0.00    -0.000 C 
BRANCH   4   5
ATOM      5  C   UNL     1      60.813  -2.029  94.099  1.00  0.00    -0.000 C 
BRANCH   5   6
ATOM      6  C   UNL     1      61.098  -0.677  94.770  1.00  0.00    -0.000 C 
BRANCH   6   7
ATOM      7  C   UNL     1      60.440  -0.600  96.152  1.00  0.00    -0.000 C 
BRANCH   7   8
ATOM      8  C   UNL     1      59.585   0.666  96.286  1.00  0.00    -0.000 C 
BRANCH   8   9
ATOM      9  C   UNL     1      58.096   0.350  96.105  1.00  0.00    -0.000 C 
BRANCH   9  10
ATOM     10  C   UNL     1      57.855  -1.167  96.083  1.00  0.00    -0.000 C 
BRANCH  10  11
ATOM     11  C   UNL     1      57.014  -1.613  94.876  1.00  0.00    -0.003 C 
ATOM     12  C   UNL     1      55.627  -0.966  94.849  1.00  0.00     0.004 C 
ENDBRANCH  10  11
ENDBRANCH   9  10
ENDBRANCH   8   9
ENDBRANCH   7   8
ENDBRANCH   6   7
ENDBRANCH   5   6
ENDBRANCH   4   5
ENDBRANCH   3   4
ENDBRANCH   2   3
ENDBRANCH   1   2
BRANCH   1  13
ATOM     13  C   UNL     1      57.610   1.515  92.716  1.00  0.00     0.000 C 
BRANCH  13  14
ATOM     14  C   UNL     1      56.379   2.436  92.825  1.00  0.00     0.000 C 
BRANCH  14  15
ATOM     15  C   UNL     1      55.941   2.724  94.278  1.00  0.00     0.000 C 
BRANCH  15  16
ATOM     16  C   UNL     1      56.455   4.084  94.784  1.00  0.00     0.000 C 
BRANCH  16  17
ATOM     17  C   UNL     1      57.874   4.009  95.378  1.00  0.00     0.000 C 
BRANCH  17  18
ATOM     18  C   UNL     1      57.995   4.517  96.827  1.00  0.00     0.000 C 
BRANCH  18  19
ATOM     19  C   UNL     1      58.408   5.998  96.910  1.00  0.00     0.000 C 
BRANCH  19  20
ATOM     20  C   UNL     1      59.786   6.264  96.282  1.00  0.00     0.006 C 
BRANCH  20  21
ATOM     21  C   UNL     1      60.280   7.697  96.534  1.00  0.00     0.053 C 
BRANCH  21  22
ATOM     22  C   UNL     1      60.076   8.556  95.324  1.00  0.00     0.041 C 
ATOM     23  O   UNL     1      58.936   9.035  95.073  1.00  0.00    -0.550 OA
ATOM     24  O   UNL     1      61.123   8.776  94.438  1.00  0.00    -0.550 OA
ENDBRANCH  21  22
ENDBRANCH  20  21
ENDBRANCH  19  20
ENDBRANCH  18  19
ENDBRANCH  17  18
ENDBRANCH  16  17
ENDBRANCH  15  16
ENDBRANCH  14  15
ENDBRANCH  13  14
ENDBRANCH   1  13
TORSDOF 20
ENDMDL
MODEL 7
REMARK VINA RESULT:    -3.401      3.678      8.821
REMARK INTER + INTRA:         -10.346
REMARK INTER:                  -7.882
REMARK INTRA:                  -2.464
REMARK UNBOUND:                -2.968
REMARK SMILES CCCCCCCCCCCCCCCCCCCCCC(=O)[O-]
REMARK SMILES IDX 12 1 11 2 10 3 9 4 8 5 7 6 6 7 5 8 4 9 3 10 2 11 1 12 13 13
REMARK SMILES IDX 14 14 15 15 16 16 17 17 18 18 19 19 20 20 21 21 22 22 23 23
REMARK SMILES IDX 24 24
REMARK H PARENT
REMARK Flexibility Score: inf
ROOT
ATOM      1  C   UNL     1      59.978  -0.472  96.043  1.00  0.00     0.000 C 
ENDROOT
BRANCH   1   2
ATOM      2  C   UNL     1      60.675  -0.695  94.693  1.00  0.00     0.000 C 
BRANCH   2   3
ATOM      3  C   UNL     1      59.780  -0.237  93.535  1.00  0.00     0.000 C 
BRANCH   3   4
ATOM      4  C   UNL     1      59.872  -1.209  92.349  1.00  0.00    -0.000 C 
BRANCH   4   5
ATOM      5  C   UNL     1      60.641  -2.493  92.700  1.00  0.00    -0.000 C 
BRANCH   5   6
ATOM      6  C   UNL     1      59.709  -3.684  92.965  1.00  0.00    -0.000 C 
BRANCH   6   7
ATOM      7  C   UNL     1      58.317  -3.434  92.374  1.00  0.00    -0.000 C 
BRANCH   7   8
ATOM      8  C   UNL     1      57.237  -3.497  93.461  1.00  0.00    -0.000 C 
BRANCH   8   9
ATOM      9  C   UNL     1      56.468  -2.173  93.553  1.00  0.00    -0.000 C 
BRANCH   9  10
ATOM     10  C   UNL     1      56.718  -1.484  94.902  1.00  0.00    -0.000 C 
BRANCH  10  11
ATOM     11  C   UNL     1      56.453  -2.414  96.097  1.00  0.00    -0.003 C 
ATOM     12  C   UNL     1      54.961  -2.627  96.362  1.00  0.00     0.004 C 
ENDBRANCH  10  11
ENDBRANCH   9  10
ENDBRANCH   8   9
ENDBRANCH   7   8
ENDBRANCH   6   7
ENDBRANCH   5   6
ENDBRANCH   4   5
ENDBRANCH   3   4
ENDBRANCH   2   3
ENDBRANCH   1   2
BRANCH   1  13
ATOM     13  C   UNL     1      60.505   0.764  96.793  1.00  0.00     0.000 C 
BRANCH  13  14
ATOM     14  C   UNL     1      59.465   1.877  97.022  1.00  0.00     0.000 C 
BRANCH  14  15
ATOM     15  C   UNL     1      58.007   1.435  96.762  1.00  0.00     0.000 C 
BRANCH  15  16
ATOM     16  C   UNL     1      57.338   2.255  95.645  1.00  0.00     0.000 C 
BRANCH  16  17
ATOM     17  C   UNL     1      57.835   3.712  95.586  1.00  0.00     0.000 C 
BRANCH  17  18
ATOM     18  C   UNL     1      57.195   4.654  96.623  1.00  0.00     0.000 C 
BRANCH  18  19
ATOM     19  C   UNL     1      57.208   6.129  96.182  1.00  0.00     0.000 C 
BRANCH  19  20
ATOM     20  C   UNL     1      58.632   6.684  96.014  1.00  0.00     0.006 C 
BRANCH  20  21
ATOM     21  C   UNL     1      59.014   7.674  97.124  1.00  0.00     0.053 C 
BRANCH  21  22
ATOM     22  C   UNL     1      59.864   8.784  96.586  1.00  0.00     0.041 C 
ATOM     23  O   UNL     1      59.463   9.471  95.606  1.00  0.00    -0.550 OA
ATOM     24  O   UNL     1      61.125   9.020  97.119  1.00  0.00    -0.550 OA
ENDBRANCH  21  22
ENDBRANCH  20  21
ENDBRANCH  19  20
ENDBRANCH  18  19
ENDBRANCH  17  18
ENDBRANCH  16  17
ENDBRANCH  15  16
ENDBRANCH  14  15
ENDBRANCH  13  14
ENDBRANCH   1  13
TORSDOF 20
ENDMDL
MODEL 8
REMARK VINA RESULT:    -3.397      3.467      7.701
REMARK INTER + INTRA:         -10.337
REMARK INTER:                  -6.538
REMARK INTRA:                  -3.799
REMARK UNBOUND:                -2.968
REMARK SMILES CCCCCCCCCCCCCCCCCCCCCC(=O)[O-]
REMARK SMILES IDX 12 1 11 2 10 3 9 4 8 5 7 6 6 7 5 8 4 9 3 10 2 11 1 12 13 13
REMARK SMILES IDX 14 14 15 15 16 16 17 17 18 18 19 19 20 20 21 21 22 22 23 23
REMARK SMILES IDX 24 24
REMARK H PARENT
REMARK Flexibility Score: inf
ROOT
ATOM      1  C   UNL     1      60.994  -0.630  94.825  1.00  0.00     0.000 C 
ENDROOT
BRANCH   1   2
ATOM      2  C   UNL     1      60.785  -0.534  96.343  1.00  0.00     0.000 C 
BRANCH   2   3
ATOM      3  C   UNL     1      60.389   0.891  96.750  1.00  0.00     0.000 C 
BRANCH   3   4
ATOM      4  C   UNL     1      59.111   1.336  96.025  1.00  0.00    -0.000 C 
BRANCH   4   5
ATOM      5  C   UNL     1      57.836   0.939  96.785  1.00  0.00    -0.000 C 
BRANCH   5   6
ATOM      6  C   UNL     1      56.981  -0.076  96.011  1.00  0.00    -0.000 C 
BRANCH   6   7
ATOM      7  C   UNL     1      57.326  -1.512  96.423  1.00  0.00    -0.000 C 
BRANCH   7   8
ATOM      8  C   UNL     1      56.083  -2.253  96.931  1.00  0.00    -0.000 C 
BRANCH   8   9
ATOM      9  C   UNL     1      55.642  -3.336  95.939  1.00  0.00    -0.000 C 
BRANCH   9  10
ATOM     10  C   UNL     1      56.566  -3.370  94.714  1.00  0.00    -0.000 C 
BRANCH  10  11
ATOM     11  C   UNL     1      55.812  -3.108  93.400  1.00  0.00    -0.003 C 
ATOM     12  C   UNL     1      54.580  -2.220  93.590  1.00  0.00     0.004 C 
ENDBRANCH  10  11
ENDBRANCH   9  10
ENDBRANCH   8   9
ENDBRANCH   7   8
ENDBRANCH   6   7
ENDBRANCH   5   6
ENDBRANCH   4   5
ENDBRANCH   3   4
ENDBRANCH   2   3
ENDBRANCH   1   2
BRANCH   1  13
ATOM     13  C   UNL     1      60.265  -1.828  94.193  1.00  0.00     0.000 C 
BRANCH  13  14
ATOM     14  C   UNL     1      59.227  -1.462  93.114  1.00  0.00     0.000 C 
BRANCH  14  15
ATOM     15  C   UNL     1      59.635  -0.256  92.238  1.00  0.00     0.000 C 
BRANCH  15  16
ATOM     16  C   UNL     1      58.416   0.506  91.689  1.00  0.00     0.000 C 
BRANCH  16  17
ATOM     17  C   UNL     1      57.139   0.283  92.522  1.00  0.00     0.000 C 
BRANCH  17  18
ATOM     18  C   UNL     1      56.173   1.482  92.556  1.00  0.00     0.000 C 
BRANCH  18  19
ATOM     19  C   UNL     1      56.756   2.742  91.891  1.00  0.00     0.000 C 
BRANCH  19  20
ATOM     20  C   UNL     1      56.976   3.890  92.890  1.00  0.00     0.006 C 
BRANCH  20  21
ATOM     21  C   UNL     1      56.629   3.491  94.332  1.00  0.00     0.053 C 
BRANCH  21  22
ATOM     22  C   UNL     1      57.214   4.460  95.314  1.00  0.00     0.041 C 
ATOM     23  O   UNL     1      58.048   5.325  94.929  1.00  0.00    -0.550 OA
ATOM     24  O   UNL     1      56.892   4.369  96.662  1.00  0.00    -0.550 OA
ENDBRANCH  21  22
ENDBRANCH  20  21
ENDBRANCH  19  20
ENDBRANCH  18  19
ENDBRANCH  17  18
ENDBRANCH  16  17
ENDBRANCH  15  16
ENDBRANCH  14  15
ENDBRANCH  13  14
ENDBRANCH   1  13
TORSDOF 20
ENDMDL
