MODEL 1
REMARK VINA RESULT:     1.951      0.000      0.000
REMARK INTER + INTRA:           2.335
REMARK INTER:                   2.521
REMARK INTRA:                  -0.187
REMARK UNBOUND:                -0.187
REMARK SMILES CCCCCCC(=O)[O-]
REMARK SMILES IDX 5 1 6 2 7 3 8 4 9 5 4 6 3 7 2 8 1 9
REMARK H PARENT
REMARK Flexibility Score: inf
ROOT
ATOM      1  C   UNL     1     -37.284  16.018  17.572  1.00  0.00     0.006 C 
ENDROOT
BRANCH   1   2
ATOM      2  C   UNL     1     -36.789  17.449  17.798  1.00  0.00     0.053 C 
BRANCH   2   3
ATOM      3  C   UNL     1     -35.331  17.557  17.478  1.00  0.00     0.041 C 
ATOM      4  O   UNL     1     -34.808  16.782  16.636  1.00  0.00    -0.550 OA
ATOM      5  O   UNL     1     -34.539  18.481  18.149  1.00  0.00    -0.550 OA
ENDBRANCH   2   3
ENDBRANCH   1   2
BRANCH   1   6
ATOM      6  C   UNL     1     -38.449  15.684  18.510  1.00  0.00     0.000 C 
BRANCH   6   7
ATOM      7  C   UNL     1     -39.555  16.741  18.412  1.00  0.00    -0.000 C 
BRANCH   7   8
ATOM      8  C   UNL     1     -40.193  16.742  17.018  1.00  0.00    -0.003 C 
ATOM      9  C   UNL     1     -40.682  18.136  16.636  1.00  0.00     0.004 C 
ENDBRANCH   7   8
ENDBRANCH   6   7
ENDBRANCH   1   6
TORSDOF 5
ENDMDL
MODEL 2
REMARK VINA RESULT:     2.316      1.165      1.560
REMARK INTER + INTRA:           2.806
REMARK INTER:                   2.278
REMARK INTRA:                   0.527
REMARK UNBOUND:                -0.187
REMARK SMILES CCCCCCC(=O)[O-]
REMARK SMILES IDX 5 1 6 2 7 3 8 4 9 5 4 6 3 7 2 8 1 9
REMARK H PARENT
REMARK Flexibility Score: inf
ROOT
ATOM      1  C   UNL     1     -36.200  16.116  17.372  1.00  0.00     0.006 C 
ENDROOT
BRANCH   1   2
ATOM      2  C   UNL     1     -35.090  17.066  16.911  1.00  0.00     0.053 C 
BRANCH   2   3
ATOM      3  C   UNL     1     -35.023  18.266  17.801  1.00  0.00     0.041 C 
ATOM      4  O   UNL     1     -35.955  19.111  17.797  1.00  0.00    -0.550 OA
ATOM      5  O   UNL     1     -33.905  18.477  18.600  1.00  0.00    -0.550 OA
ENDBRANCH   2   3
ENDBRANCH   1   2
BRANCH   1   6
ATOM      6  C   UNL     1     -37.475  16.891  17.722  1.00  0.00     0.000 C 
BRANCH   6   7
ATOM      7  C   UNL     1     -38.499  15.982  18.413  1.00  0.00    -0.000 C 
BRANCH   7   8
ATOM      8  C   UNL     1     -39.922  16.523  18.235  1.00  0.00    -0.003 C 
ATOM      9  C   UNL     1     -40.044  17.348  16.957  1.00  0.00     0.004 C 
ENDBRANCH   7   8
ENDBRANCH   6   7
ENDBRANCH   1   6
TORSDOF 5
ENDMDL
MODEL 3
REMARK VINA RESULT:     2.639      3.656      5.542
REMARK INTER + INTRA:           3.223
REMARK INTER:                   3.367
REMARK INTRA:                  -0.144
REMARK UNBOUND:                -0.187
REMARK SMILES CCCCCCC(=O)[O-]
REMARK SMILES IDX 5 1 6 2 7 3 8 4 9 5 4 6 3 7 2 8 1 9
REMARK H PARENT
REMARK Flexibility Score: inf
ROOT
ATOM      1  C   UNL     1     -34.525  15.139  17.436  1.00  0.00     0.006 C 
ENDROOT
BRANCH   1   2
ATOM      2  C   UNL     1     -35.051  16.323  16.619  1.00  0.00     0.053 C 
BRANCH   2   3
ATOM      3  C   UNL     1     -35.704  17.329  17.513  1.00  0.00     0.041 C 
ATOM      4  O   UNL     1     -36.922  17.215  17.812  1.00  0.00    -0.550 OA
ATOM      5  O   UNL     1     -34.980  18.421  17.976  1.00  0.00    -0.550 OA
ENDBRANCH   2   3
ENDBRANCH   1   2
BRANCH   1   6
ATOM      6  C   UNL     1     -33.689  14.196  16.563  1.00  0.00     0.000 C 
BRANCH   6   7
ATOM      7  C   UNL     1     -33.605  12.799  17.187  1.00  0.00    -0.000 C 
BRANCH   7   8
ATOM      8  C   UNL     1     -32.564  12.760  18.312  1.00  0.00    -0.003 C 
ATOM      9  C   UNL     1     -33.190  12.304  19.627  1.00  0.00     0.004 C 
ENDBRANCH   7   8
ENDBRANCH   6   7
ENDBRANCH   1   6
TORSDOF 5
ENDMDL
MODEL 4
REMARK VINA RESULT:     2.821      3.389      4.490
REMARK INTER + INTRA:           3.459
REMARK INTER:                   3.540
REMARK INTRA:                  -0.081
REMARK UNBOUND:                -0.187
REMARK SMILES CCCCCCC(=O)[O-]
REMARK SMILES IDX 5 1 6 2 7 3 8 4 9 5 4 6 3 7 2 8 1 9
REMARK H PARENT
REMARK Flexibility Score: inf
ROOT
ATOM      1  C   UNL     1     -34.357  15.047  17.780  1.00  0.00     0.006 C 
ENDROOT
BRANCH   1   2
ATOM      2  C   UNL     1     -33.960  13.774  17.026  1.00  0.00     0.053 C 
BRANCH   2   3
ATOM      3  C   UNL     1     -32.800  13.107  17.696  1.00  0.00     0.041 C 
ATOM      4  O   UNL     1     -32.931  12.615  18.847  1.00  0.00    -0.550 OA
ATOM      5  O   UNL     1     -31.561  13.074  17.069  1.00  0.00    -0.550 OA
ENDBRANCH   2   3
ENDBRANCH   1   2
BRANCH   1   6
ATOM      6  C   UNL     1     -35.108  16.018  16.863  1.00  0.00     0.000 C 
BRANCH   6   7
ATOM      7  C   UNL     1     -35.405  17.338  17.584  1.00  0.00    -0.000 C 
BRANCH   7   8
ATOM      8  C   UNL     1     -36.915  17.546  17.749  1.00  0.00    -0.003 C 
ATOM      9  C   UNL     1     -37.652  16.211  17.820  1.00  0.00     0.004 C 
ENDBRANCH   7   8
ENDBRANCH   6   7
ENDBRANCH   1   6
TORSDOF 5
ENDMDL
MODEL 5
REMARK VINA RESULT:     3.023      2.895      4.789
REMARK INTER + INTRA:           3.719
REMARK INTER:                   3.914
REMARK INTRA:                  -0.194
REMARK UNBOUND:                -0.187
REMARK SMILES CCCCCCC(=O)[O-]
REMARK SMILES IDX 5 1 6 2 7 3 8 4 9 5 4 6 3 7 2 8 1 9
REMARK H PARENT
REMARK Flexibility Score: inf
ROOT
ATOM      1  C   UNL     1     -37.374  16.977  17.817  1.00  0.00     0.006 C 
ENDROOT
BRANCH   1   2
ATOM      2  C   UNL     1     -38.522  16.078  18.288  1.00  0.00     0.053 C 
BRANCH   2   3
ATOM      3  C   UNL     1     -39.841  16.662  17.893  1.00  0.00     0.041 C 
ATOM      4  O   UNL     1     -40.903  16.249  18.428  1.00  0.00    -0.550 OA
ATOM      5  O   UNL     1     -39.903  17.629  16.896  1.00  0.00    -0.550 OA
ENDBRANCH   2   3
ENDBRANCH   1   2
BRANCH   1   6
ATOM      6  C   UNL     1     -36.300  16.161  17.088  1.00  0.00     0.000 C 
BRANCH   6   7
ATOM      7  C   UNL     1     -34.966  16.916  17.051  1.00  0.00    -0.000 C 
BRANCH   7   8
ATOM      8  C   UNL     1     -35.129  18.346  17.578  1.00  0.00    -0.003 C 
ATOM      9  C   UNL     1     -33.963  18.738  18.482  1.00  0.00     0.004 C 
ENDBRANCH   7   8
ENDBRANCH   6   7
ENDBRANCH   1   6
TORSDOF 5
ENDMDL
MODEL 6
REMARK VINA RESULT:     3.228      3.614      4.737
REMARK INTER + INTRA:           3.985
REMARK INTER:                   3.997
REMARK INTRA:                  -0.012
REMARK UNBOUND:                -0.187
REMARK SMILES CCCCCCC(=O)[O-]
REMARK SMILES IDX 5 1 6 2 7 3 8 4 9 5 4 6 3 7 2 8 1 9
REMARK H PARENT
REMARK Flexibility Score: inf
ROOT
ATOM      1  C   UNL     1     -34.353  15.063  17.715  1.00  0.00     0.006 C 
ENDROOT
BRANCH   1   2
ATOM      2  C   UNL     1     -33.948  13.775  16.992  1.00  0.00     0.053 C 
BRANCH   2   3
ATOM      3  C   UNL     1     -32.817  13.106  17.706  1.00  0.00     0.041 C 
ATOM      4  O   UNL     1     -32.990  12.622  18.855  1.00  0.00    -0.550 OA
ATOM      5  O   UNL     1     -31.556  13.062  17.123  1.00  0.00    -0.550 OA
ENDBRANCH   2   3
ENDBRANCH   1   2
BRANCH   1   6
ATOM      6  C   UNL     1     -35.068  16.027  16.761  1.00  0.00     0.000 C 
BRANCH   6   7
ATOM      7  C   UNL     1     -36.386  16.523  17.367  1.00  0.00    -0.000 C 
BRANCH   7   8
ATOM      8  C   UNL     1     -36.278  17.993  17.791  1.00  0.00    -0.003 C 
ATOM      9  C   UNL     1     -34.821  18.445  17.848  1.00  0.00     0.004 C 
ENDBRANCH   7   8
ENDBRANCH   6   7
ENDBRANCH   1   6
TORSDOF 5
ENDMDL
MODEL 7
REMARK VINA RESULT:     3.409      3.390      5.282
REMARK INTER + INTRA:           4.219
REMARK INTER:                   4.328
REMARK INTRA:                  -0.109
REMARK UNBOUND:                -0.187
REMARK SMILES CCCCCCC(=O)[O-]
REMARK SMILES IDX 5 1 6 2 7 3 8 4 9 5 4 6 3 7 2 8 1 9
REMARK H PARENT
REMARK Flexibility Score: inf
ROOT
ATOM      1  C   UNL     1     -35.473  16.372  16.841  1.00  0.00     0.006 C 
ENDROOT
BRANCH   1   2
ATOM      2  C   UNL     1     -36.322  17.245  17.770  1.00  0.00     0.053 C 
BRANCH   2   3
ATOM      3  C   UNL     1     -37.715  16.708  17.866  1.00  0.00     0.041 C 
ATOM      4  O   UNL     1     -37.941  15.640  18.493  1.00  0.00    -0.550 OA
ATOM      5  O   UNL     1     -38.758  17.361  17.220  1.00  0.00    -0.550 OA
ENDBRANCH   2   3
ENDBRANCH   1   2
BRANCH   1   6
ATOM      6  C   UNL     1     -34.592  15.409  17.645  1.00  0.00     0.000 C 
BRANCH   6   7
ATOM      7  C   UNL     1     -34.357  14.105  16.874  1.00  0.00    -0.000 C 
BRANCH   7   8
ATOM      8  C   UNL     1     -32.986  13.506  17.212  1.00  0.00    -0.003 C 
ATOM      9  C   UNL     1     -33.038  12.707  18.512  1.00  0.00     0.004 C 
ENDBRANCH   7   8
ENDBRANCH   6   7
ENDBRANCH   1   6
TORSDOF 5
ENDMDL
