MODEL 1
REMARK VINA RESULT:    -4.071      0.000      0.000
REMARK INTER + INTRA:         -15.828
REMARK INTER:                 -10.259
REMARK INTRA:                  -5.569
REMARK UNBOUND:                -5.569
REMARK SMILES CCCCCCCCCCCCCCCCCCCCCCCCCCCC(=O)[O-]
REMARK SMILES IDX 15 1 16 2 17 3 18 4 19 5 20 6 21 7 22 8 23 9 24 10 25 11
REMARK SMILES IDX 26 12 27 13 28 14 29 15 30 16 14 17 13 18 12 19 11 20 10 21
REMARK SMILES IDX 9 22 8 23 7 24 6 25 5 26 4 27 3 28 2 29 1 30
REMARK H PARENT
REMARK Flexibility Score: inf
ROOT
ATOM      1  C   UNL     1      47.567  -1.739  76.630  1.00  0.00     0.000 C 
ENDROOT
BRANCH   1   2
ATOM      2  C   UNL     1      47.472  -2.158  78.107  1.00  0.00     0.000 C 
BRANCH   2   3
ATOM      3  C   UNL     1      47.470  -3.684  78.293  1.00  0.00     0.000 C 
BRANCH   3   4
ATOM      4  C   UNL     1      48.772  -4.201  78.927  1.00  0.00     0.000 C 
BRANCH   4   5
ATOM      5  C   UNL     1      49.062  -5.667  78.562  1.00  0.00     0.000 C 
BRANCH   5   6
ATOM      6  C   UNL     1      47.812  -6.412  78.062  1.00  0.00     0.000 C 
BRANCH   6   7
ATOM      7  C   UNL     1      47.933  -6.844  76.592  1.00  0.00     0.000 C 
BRANCH   7   8
ATOM      8  C   UNL     1      46.734  -6.387  75.743  1.00  0.00     0.000 C 
BRANCH   8   9
ATOM      9  C   UNL     1      46.998  -5.053  75.026  1.00  0.00     0.000 C 
BRANCH   9  10
ATOM     10  C   UNL     1      46.495  -5.055  73.572  1.00  0.00     0.000 C 
BRANCH  10  11
ATOM     11  C   UNL     1      47.631  -5.225  72.552  1.00  0.00     0.000 C 
BRANCH  11  12
ATOM     12  C   UNL     1      48.038  -6.696  72.362  1.00  0.00     0.006 C 
BRANCH  12  13
ATOM     13  C   UNL     1      46.832  -7.597  72.067  1.00  0.00     0.053 C 
BRANCH  13  14
ATOM     14  C   UNL     1      47.254  -8.952  71.584  1.00  0.00     0.041 C 
ATOM     15  O   UNL     1      46.450  -9.673  70.936  1.00  0.00    -0.550 OA
ATOM     16  O   UNL     1      48.526  -9.429  71.873  1.00  0.00    -0.550 OA
ENDBRANCH  13  14
ENDBRANCH  12  13
ENDBRANCH  11  12
ENDBRANCH  10  11
ENDBRANCH   9  10
ENDBRANCH   8   9
ENDBRANCH   7   8
ENDBRANCH   6   7
ENDBRANCH   5   6
ENDBRANCH   4   5
ENDBRANCH   3   4
ENDBRANCH   2   3
ENDBRANCH   1   2
BRANCH   1  17
ATOM     17  C   UNL     1      48.874  -0.994  76.305  1.00  0.00     0.000 C 
BRANCH  17  18
ATOM     18  C   UNL     1      50.108  -1.899  76.113  1.00  0.00     0.000 C 
BRANCH  18  19
ATOM     19  C   UNL     1      49.841  -3.221  75.369  1.00  0.00     0.000 C 
BRANCH  19  20
ATOM     20  C   UNL     1      50.716  -4.407  75.818  1.00  0.00     0.000 C 
BRANCH  20  21
ATOM     21  C   UNL     1      50.841  -5.525  74.761  1.00  0.00     0.000 C 
BRANCH  21  22
ATOM     22  C   UNL     1      51.701  -5.108  73.553  1.00  0.00    -0.000 C 
BRANCH  22  23
ATOM     23  C   UNL     1      53.176  -4.873  73.943  1.00  0.00    -0.000 C 
BRANCH  23  24
ATOM     24  C   UNL     1      53.785  -3.610  73.312  1.00  0.00    -0.000 C 
BRANCH  24  25
ATOM     25  C   UNL     1      52.943  -2.350  73.570  1.00  0.00    -0.000 C 
BRANCH  25  26
ATOM     26  C   UNL     1      52.524  -1.641  72.272  1.00  0.00    -0.000 C 
BRANCH  26  27
ATOM     27  C   UNL     1      51.099  -1.072  72.342  1.00  0.00    -0.000 C 
BRANCH  27  28
ATOM     28  C   UNL     1      50.065  -2.132  71.935  1.00  0.00    -0.000 C 
BRANCH  28  29
ATOM     29  C   UNL     1      48.622  -1.696  72.235  1.00  0.00    -0.003 C 
ATOM     30  C   UNL     1      48.505  -0.199  72.523  1.00  0.00     0.004 C 
ENDBRANCH  28  29
ENDBRANCH  27  28
ENDBRANCH  26  27
ENDBRANCH  25  26
ENDBRANCH  24  25
ENDBRANCH  23  24
ENDBRANCH  22  23
ENDBRANCH  21  22
ENDBRANCH  20  21
ENDBRANCH  19  20
ENDBRANCH  18  19
ENDBRANCH  17  18
ENDBRANCH   1  17
TORSDOF 26
ENDMDL
MODEL 2
REMARK VINA RESULT:    -4.041      2.221      6.103
REMARK INTER + INTRA:         -15.753
REMARK INTER:                 -10.547
REMARK INTRA:                  -5.206
REMARK UNBOUND:                -5.569
REMARK SMILES CCCCCCCCCCCCCCCCCCCCCCCCCCCC(=O)[O-]
REMARK SMILES IDX 15 1 16 2 17 3 18 4 19 5 20 6 21 7 22 8 23 9 24 10 25 11
REMARK SMILES IDX 26 12 27 13 28 14 29 15 30 16 14 17 13 18 12 19 11 20 10 21
REMARK SMILES IDX 9 22 8 23 7 24 6 25 5 26 4 27 3 28 2 29 1 30
REMARK H PARENT
REMARK Flexibility Score: inf
ROOT
ATOM      1  C   UNL     1      48.054  -5.975  78.540  1.00  0.00     0.000 C 
ENDROOT
BRANCH   1   2
ATOM      2  C   UNL     1      49.516  -6.185  78.110  1.00  0.00     0.000 C 
BRANCH   2   3
ATOM      3  C   UNL     1      50.394  -4.951  78.369  1.00  0.00     0.000 C 
BRANCH   3   4
ATOM      4  C   UNL     1      49.574  -3.727  78.812  1.00  0.00     0.000 C 
BRANCH   4   5
ATOM      5  C   UNL     1      50.162  -2.405  78.291  1.00  0.00     0.000 C 
BRANCH   5   6
ATOM      6  C   UNL     1      50.195  -2.336  76.755  1.00  0.00     0.000 C 
BRANCH   6   7
ATOM      7  C   UNL     1      48.791  -2.225  76.139  1.00  0.00     0.000 C 
BRANCH   7   8
ATOM      8  C   UNL     1      48.311  -0.768  76.026  1.00  0.00     0.000 C 
BRANCH   8   9
ATOM      9  C   UNL     1      47.969  -0.373  74.580  1.00  0.00     0.000 C 
BRANCH   9  10
ATOM     10  C   UNL     1      48.461  -1.408  73.554  1.00  0.00     0.000 C 
BRANCH  10  11
ATOM     11  C   UNL     1      49.206  -0.765  72.374  1.00  0.00     0.000 C 
BRANCH  11  12
ATOM     12  C   UNL     1      50.521  -1.491  72.042  1.00  0.00     0.006 C 
BRANCH  12  13
ATOM     13  C   UNL     1      50.918  -2.498  73.130  1.00  0.00     0.053 C 
BRANCH  13  14
ATOM     14  C   UNL     1      50.813  -3.912  72.644  1.00  0.00     0.041 C 
ATOM     15  O   UNL     1      51.489  -4.823  73.191  1.00  0.00    -0.550 OA
ATOM     16  O   UNL     1      49.987  -4.219  71.569  1.00  0.00    -0.550 OA
ENDBRANCH  13  14
ENDBRANCH  12  13
ENDBRANCH  11  12
ENDBRANCH  10  11
ENDBRANCH   9  10
ENDBRANCH   8   9
ENDBRANCH   7   8
ENDBRANCH   6   7
ENDBRANCH   5   6
ENDBRANCH   4   5
ENDBRANCH   3   4
ENDBRANCH   2   3
ENDBRANCH   1   2
BRANCH   1  17
ATOM     17  C   UNL     1      47.177  -7.218  78.299  1.00  0.00     0.000 C 
BRANCH  17  18
ATOM     18  C   UNL     1      47.954  -8.502  77.940  1.00  0.00     0.000 C 
BRANCH  18  19
ATOM     19  C   UNL     1      47.251  -9.431  76.933  1.00  0.00     0.000 C 
BRANCH  19  20
ATOM     20  C   UNL     1      45.928  -8.888  76.361  1.00  0.00     0.000 C 
BRANCH  20  21
ATOM     21  C   UNL     1      45.678  -9.277  74.888  1.00  0.00     0.000 C 
BRANCH  21  22
ATOM     22  C   UNL     1      44.857  -8.222  74.125  1.00  0.00    -0.000 C 
BRANCH  22  23
ATOM     23  C   UNL     1      44.564  -6.977  74.990  1.00  0.00    -0.000 C 
BRANCH  23  24
ATOM     24  C   UNL     1      44.812  -5.648  74.258  1.00  0.00    -0.000 C 
BRANCH  24  25
ATOM     25  C   UNL     1      45.948  -4.825  74.885  1.00  0.00    -0.000 C 
BRANCH  25  26
ATOM     26  C   UNL     1      47.231  -4.844  74.040  1.00  0.00    -0.000 C 
BRANCH  26  27
ATOM     27  C   UNL     1      48.329  -5.728  74.651  1.00  0.00    -0.000 C 
BRANCH  27  28
ATOM     28  C   UNL     1      48.455  -7.054  73.886  1.00  0.00    -0.000 C 
BRANCH  28  29
ATOM     29  C   UNL     1      47.991  -6.941  72.426  1.00  0.00    -0.003 C 
ATOM     30  C   UNL     1      47.717  -8.302  71.786  1.00  0.00     0.004 C 
ENDBRANCH  28  29
ENDBRANCH  27  28
ENDBRANCH  26  27
ENDBRANCH  25  26
ENDBRANCH  24  25
ENDBRANCH  23  24
ENDBRANCH  22  23
ENDBRANCH  21  22
ENDBRANCH  20  21
ENDBRANCH  19  20
ENDBRANCH  18  19
ENDBRANCH  17  18
ENDBRANCH   1  17
TORSDOF 26
ENDMDL
MODEL 3
REMARK VINA RESULT:    -4.033      2.912      6.341
REMARK INTER + INTRA:         -15.733
REMARK INTER:                 -11.384
REMARK INTRA:                  -4.349
REMARK UNBOUND:                -5.569
REMARK SMILES CCCCCCCCCCCCCCCCCCCCCCCCCCCC(=O)[O-]
REMARK SMILES IDX 15 1 16 2 17 3 18 4 19 5 20 6 21 7 22 8 23 9 24 10 25 11
REMARK SMILES IDX 26 12 27 13 28 14 29 15 30 16 14 17 13 18 12 19 11 20 10 21
REMARK SMILES IDX 9 22 8 23 7 24 6 25 5 26 4 27 3 28 2 29 1 30
REMARK H PARENT
REMARK Flexibility Score: inf
ROOT
ATOM      1  C   UNL     1      48.394  -4.317  78.771  1.00  0.00     0.000 C 
ENDROOT
BRANCH   1   2
ATOM      2  C   UNL     1      49.902  -4.123  78.541  1.00  0.00     0.000 C 
BRANCH   2   3
ATOM      3  C   UNL     1      50.237  -2.762  77.910  1.00  0.00     0.000 C 
BRANCH   3   4
ATOM      4  C   UNL     1      49.684  -2.623  76.482  1.00  0.00     0.000 C 
BRANCH   4   5
ATOM      5  C   UNL     1      49.353  -1.166  76.117  1.00  0.00     0.000 C 
BRANCH   5   6
ATOM      6  C   UNL     1      47.892  -0.985  75.670  1.00  0.00     0.000 C 
BRANCH   6   7
ATOM      7  C   UNL     1      47.611   0.428  75.135  1.00  0.00     0.000 C 
BRANCH   7   8
ATOM      8  C   UNL     1      47.391   0.449  73.612  1.00  0.00     0.000 C 
BRANCH   8   9
ATOM      9  C   UNL     1      48.694   0.697  72.834  1.00  0.00     0.000 C 
BRANCH   9  10
ATOM     10  C   UNL     1      48.913  -0.330  71.710  1.00  0.00     0.000 C 
BRANCH  10  11
ATOM     11  C   UNL     1      48.818  -1.781  72.205  1.00  0.00     0.000 C 
BRANCH  11  12
ATOM     12  C   UNL     1      50.096  -2.588  71.915  1.00  0.00     0.006 C 
BRANCH  12  13
ATOM     13  C   UNL     1      51.125  -2.469  73.047  1.00  0.00     0.053 C 
BRANCH  13  14
ATOM     14  C   UNL     1      52.404  -1.846  72.573  1.00  0.00     0.041 C 
ATOM     15  O   UNL     1      52.378  -0.810  71.858  1.00  0.00    -0.550 OA
ATOM     16  O   UNL     1      53.623  -2.426  72.900  1.00  0.00    -0.550 OA
ENDBRANCH  13  14
ENDBRANCH  12  13
ENDBRANCH  11  12
ENDBRANCH  10  11
ENDBRANCH   9  10
ENDBRANCH   8   9
ENDBRANCH   7   8
ENDBRANCH   6   7
ENDBRANCH   5   6
ENDBRANCH   4   5
ENDBRANCH   3   4
ENDBRANCH   2   3
ENDBRANCH   1   2
BRANCH   1  17
ATOM     17  C   UNL     1      47.923  -5.749  78.458  1.00  0.00     0.000 C 
BRANCH  17  18
ATOM     18  C   UNL     1      49.048  -6.739  78.093  1.00  0.00     0.000 C 
BRANCH  18  19
ATOM     19  C   UNL     1      48.607  -8.207  77.950  1.00  0.00     0.000 C 
BRANCH  19  20
ATOM     20  C   UNL     1      47.098  -8.454  78.140  1.00  0.00     0.000 C 
BRANCH  20  21
ATOM     21  C   UNL     1      46.419  -9.131  76.929  1.00  0.00     0.000 C 
BRANCH  21  22
ATOM     22  C   UNL     1      45.449  -8.191  76.190  1.00  0.00    -0.000 C 
BRANCH  22  23
ATOM     23  C   UNL     1      46.174  -7.302  75.158  1.00  0.00    -0.000 C 
BRANCH  23  24
ATOM     24  C   UNL     1      45.423  -6.000  74.832  1.00  0.00    -0.000 C 
BRANCH  24  25
ATOM     25  C   UNL     1      46.220  -4.741  75.210  1.00  0.00    -0.000 C 
BRANCH  25  26
ATOM     26  C   UNL     1      47.524  -4.602  74.410  1.00  0.00    -0.000 C 
BRANCH  26  27
ATOM     27  C   UNL     1      47.349  -4.959  72.926  1.00  0.00    -0.000 C 
BRANCH  27  28
ATOM     28  C   UNL     1      48.430  -5.949  72.468  1.00  0.00    -0.000 C 
BRANCH  28  29
ATOM     29  C   UNL     1      47.847  -7.304  72.036  1.00  0.00    -0.003 C 
ATOM     30  C   UNL     1      46.440  -7.181  71.450  1.00  0.00     0.004 C 
ENDBRANCH  28  29
ENDBRANCH  27  28
ENDBRANCH  26  27
ENDBRANCH  25  26
ENDBRANCH  24  25
ENDBRANCH  23  24
ENDBRANCH  22  23
ENDBRANCH  21  22
ENDBRANCH  20  21
ENDBRANCH  19  20
ENDBRANCH  18  19
ENDBRANCH  17  18
ENDBRANCH   1  17
TORSDOF 26
ENDMDL
MODEL 4
REMARK VINA RESULT:    -3.993      3.516      7.093
REMARK INTER + INTRA:         -15.631
REMARK INTER:                 -10.225
REMARK INTRA:                  -5.405
REMARK UNBOUND:                -5.569
REMARK SMILES CCCCCCCCCCCCCCCCCCCCCCCCCCCC(=O)[O-]
REMARK SMILES IDX 15 1 16 2 17 3 18 4 19 5 20 6 21 7 22 8 23 9 24 10 25 11
REMARK SMILES IDX 26 12 27 13 28 14 29 15 30 16 14 17 13 18 12 19 11 20 10 21
REMARK SMILES IDX 9 22 8 23 7 24 6 25 5 26 4 27 3 28 2 29 1 30
REMARK H PARENT
REMARK Flexibility Score: inf
ROOT
ATOM      1  C   UNL     1      47.122  -3.503  75.503  1.00  0.00     0.000 C 
ENDROOT
BRANCH   1   2
ATOM      2  C   UNL     1      47.255  -4.704  74.551  1.00  0.00     0.000 C 
BRANCH   2   3
ATOM      3  C   UNL     1      47.435  -4.282  73.084  1.00  0.00     0.000 C 
BRANCH   3   4
ATOM      4  C   UNL     1      48.658  -4.945  72.427  1.00  0.00     0.000 C 
BRANCH   4   5
ATOM      5  C   UNL     1      49.709  -5.393  73.456  1.00  0.00     0.000 C 
BRANCH   5   6
ATOM      6  C   UNL     1      51.036  -4.626  73.319  1.00  0.00     0.000 C 
BRANCH   6   7
ATOM      7  C   UNL     1      50.973  -3.526  72.248  1.00  0.00     0.000 C 
BRANCH   7   8
ATOM      8  C   UNL     1      51.533  -2.183  72.747  1.00  0.00     0.000 C 
BRANCH   8   9
ATOM      9  C   UNL     1      50.738  -0.980  72.214  1.00  0.00     0.000 C 
BRANCH   9  10
ATOM     10  C   UNL     1      49.320  -1.366  71.760  1.00  0.00     0.000 C 
BRANCH  10  11
ATOM     11  C   UNL     1      48.268  -0.312  72.140  1.00  0.00     0.000 C 
BRANCH  11  12
ATOM     12  C   UNL     1      48.893   0.937  72.785  1.00  0.00     0.006 C 
BRANCH  12  13
ATOM     13  C   UNL     1      48.450   1.118  74.244  1.00  0.00     0.053 C 
BRANCH  13  14
ATOM     14  C   UNL     1      47.377   2.156  74.376  1.00  0.00     0.041 C 
ATOM     15  O   UNL     1      46.877   2.685  73.348  1.00  0.00    -0.550 OA
ATOM     16  O   UNL     1      46.948   2.558  75.634  1.00  0.00    -0.550 OA
ENDBRANCH  13  14
ENDBRANCH  12  13
ENDBRANCH  11  12
ENDBRANCH  10  11
ENDBRANCH   9  10
ENDBRANCH   8   9
ENDBRANCH   7   8
ENDBRANCH   6   7
ENDBRANCH   5   6
ENDBRANCH   4   5
ENDBRANCH   3   4
ENDBRANCH   2   3
ENDBRANCH   1   2
BRANCH   1  17
ATOM     17  C   UNL     1      48.053  -2.337  75.126  1.00  0.00     0.000 C 
BRANCH  17  18
ATOM     18  C   UNL     1      49.470  -2.414  75.730  1.00  0.00     0.000 C 
BRANCH  18  19
ATOM     19  C   UNL     1      49.576  -3.198  77.051  1.00  0.00     0.000 C 
BRANCH  19  20
ATOM     20  C   UNL     1      50.452  -4.464  76.987  1.00  0.00     0.000 C 
BRANCH  20  21
ATOM     21  C   UNL     1      49.899  -5.648  77.810  1.00  0.00     0.000 C 
BRANCH  21  22
ATOM     22  C   UNL     1      48.640  -5.275  78.615  1.00  0.00    -0.000 C 
BRANCH  22  23
ATOM     23  C   UNL     1      47.583  -6.400  78.594  1.00  0.00    -0.000 C 
BRANCH  23  24
ATOM     24  C   UNL     1      48.014  -7.633  77.782  1.00  0.00    -0.000 C 
BRANCH  24  25
ATOM     25  C   UNL     1      47.125  -7.877  76.552  1.00  0.00    -0.000 C 
BRANCH  25  26
ATOM     26  C   UNL     1      47.939  -8.087  75.265  1.00  0.00    -0.000 C 
BRANCH  26  27
ATOM     27  C   UNL     1      47.221  -8.991  74.252  1.00  0.00    -0.000 C 
BRANCH  27  28
ATOM     28  C   UNL     1      46.465  -8.155  73.209  1.00  0.00    -0.000 C 
BRANCH  28  29
ATOM     29  C   UNL     1      47.102  -8.232  71.813  1.00  0.00    -0.003 C 
ATOM     30  C   UNL     1      46.133  -8.746  70.748  1.00  0.00     0.004 C 
ENDBRANCH  28  29
ENDBRANCH  27  28
ENDBRANCH  26  27
ENDBRANCH  25  26
ENDBRANCH  24  25
ENDBRANCH  23  24
ENDBRANCH  22  23
ENDBRANCH  21  22
ENDBRANCH  20  21
ENDBRANCH  19  20
ENDBRANCH  18  19
ENDBRANCH  17  18
ENDBRANCH   1  17
TORSDOF 26
ENDMDL
MODEL 5
REMARK VINA RESULT:    -3.992      3.361      7.073
REMARK INTER + INTRA:         -15.629
REMARK INTER:                 -10.177
REMARK INTRA:                  -5.452
REMARK UNBOUND:                -5.569
REMARK SMILES CCCCCCCCCCCCCCCCCCCCCCCCCCCC(=O)[O-]
REMARK SMILES IDX 15 1 16 2 17 3 18 4 19 5 20 6 21 7 22 8 23 9 24 10 25 11
REMARK SMILES IDX 26 12 27 13 28 14 29 15 30 16 14 17 13 18 12 19 11 20 10 21
REMARK SMILES IDX 9 22 8 23 7 24 6 25 5 26 4 27 3 28 2 29 1 30
REMARK H PARENT
REMARK Flexibility Score: inf
ROOT
ATOM      1  C   UNL     1      49.436  -0.545  71.748  1.00  0.00     0.000 C 
ENDROOT
BRANCH   1   2
ATOM      2  C   UNL     1      50.742   0.224  72.011  1.00  0.00     0.000 C 
BRANCH   2   3
ATOM      3  C   UNL     1      51.977  -0.691  72.032  1.00  0.00     0.000 C 
BRANCH   3   4
ATOM      4  C   UNL     1      51.627  -2.143  72.397  1.00  0.00     0.000 C 
BRANCH   4   5
ATOM      5  C   UNL     1      52.426  -2.654  73.608  1.00  0.00     0.000 C 
BRANCH   5   6
ATOM      6  C   UNL     1      52.846  -4.127  73.461  1.00  0.00     0.000 C 
BRANCH   6   7
ATOM      7  C   UNL     1      51.824  -5.096  74.077  1.00  0.00     0.000 C 
BRANCH   7   8
ATOM      8  C   UNL     1      52.368  -5.812  75.325  1.00  0.00     0.000 C 
BRANCH   8   9
ATOM      9  C   UNL     1      51.335  -5.878  76.461  1.00  0.00     0.000 C 
BRANCH   9  10
ATOM     10  C   UNL     1      51.985  -6.105  77.836  1.00  0.00     0.000 C 
BRANCH  10  11
ATOM     11  C   UNL     1      51.583  -5.038  78.866  1.00  0.00     0.000 C 
BRANCH  11  12
ATOM     12  C   UNL     1      50.333  -4.249  78.439  1.00  0.00     0.006 C 
BRANCH  12  13
ATOM     13  C   UNL     1      50.569  -2.733  78.462  1.00  0.00     0.053 C 
BRANCH  13  14
ATOM     14  C   UNL     1      49.797  -2.065  79.560  1.00  0.00     0.041 C 
ATOM     15  O   UNL     1      48.838  -1.296  79.283  1.00  0.00    -0.550 OA
ATOM     16  O   UNL     1      50.152  -2.273  80.886  1.00  0.00    -0.550 OA
ENDBRANCH  13  14
ENDBRANCH  12  13
ENDBRANCH  11  12
ENDBRANCH  10  11
ENDBRANCH   9  10
ENDBRANCH   8   9
ENDBRANCH   7   8
ENDBRANCH   6   7
ENDBRANCH   5   6
ENDBRANCH   4   5
ENDBRANCH   3   4
ENDBRANCH   2   3
ENDBRANCH   1   2
BRANCH   1  17
ATOM     17  C   UNL     1      48.208   0.129  72.386  1.00  0.00     0.000 C 
BRANCH  17  18
ATOM     18  C   UNL     1      48.343   0.434  73.892  1.00  0.00     0.000 C 
BRANCH  18  19
ATOM     19  C   UNL     1      48.019  -0.743  74.830  1.00  0.00     0.000 C 
BRANCH  19  20
ATOM     20  C   UNL     1      49.219  -1.644  75.180  1.00  0.00     0.000 C 
BRANCH  20  21
ATOM     21  C   UNL     1      48.883  -3.151  75.203  1.00  0.00     0.000 C 
BRANCH  21  22
ATOM     22  C   UNL     1      47.823  -3.539  74.156  1.00  0.00    -0.000 C 
BRANCH  22  23
ATOM     23  C   UNL     1      48.449  -3.829  72.775  1.00  0.00    -0.000 C 
BRANCH  23  24
ATOM     24  C   UNL     1      48.508  -5.327  72.430  1.00  0.00    -0.000 C 
BRANCH  24  25
ATOM     25  C   UNL     1      47.708  -6.197  73.413  1.00  0.00    -0.000 C 
BRANCH  25  26
ATOM     26  C   UNL     1      48.597  -7.171  74.202  1.00  0.00    -0.000 C 
BRANCH  26  27
ATOM     27  C   UNL     1      47.928  -7.671  75.491  1.00  0.00    -0.000 C 
BRANCH  27  28
ATOM     28  C   UNL     1      47.697  -6.514  76.474  1.00  0.00    -0.000 C 
BRANCH  28  29
ATOM     29  C   UNL     1      47.825  -6.950  77.941  1.00  0.00    -0.003 C 
ATOM     30  C   UNL     1      48.804  -8.109  78.131  1.00  0.00     0.004 C 
ENDBRANCH  28  29
ENDBRANCH  27  28
ENDBRANCH  26  27
ENDBRANCH  25  26
ENDBRANCH  24  25
ENDBRANCH  23  24
ENDBRANCH  22  23
ENDBRANCH  21  22
ENDBRANCH  20  21
ENDBRANCH  19  20
ENDBRANCH  18  19
ENDBRANCH  17  18
ENDBRANCH   1  17
TORSDOF 26
ENDMDL
MODEL 6
REMARK VINA RESULT:    -3.980      2.533      6.528
REMARK INTER + INTRA:         -15.598
REMARK INTER:                 -10.968
REMARK INTRA:                  -4.630
REMARK UNBOUND:                -5.569
REMARK SMILES CCCCCCCCCCCCCCCCCCCCCCCCCCCC(=O)[O-]
REMARK SMILES IDX 15 1 16 2 17 3 18 4 19 5 20 6 21 7 22 8 23 9 24 10 25 11
REMARK SMILES IDX 26 12 27 13 28 14 29 15 30 16 14 17 13 18 12 19 11 20 10 21
REMARK SMILES IDX 9 22 8 23 7 24 6 25 5 26 4 27 3 28 2 29 1 30
REMARK H PARENT
REMARK Flexibility Score: inf
ROOT
ATOM      1  C   UNL     1      46.516  -6.576  72.575  1.00  0.00     0.000 C 
ENDROOT
BRANCH   1   2
ATOM      2  C   UNL     1      47.802  -5.732  72.535  1.00  0.00     0.000 C 
BRANCH   2   3
ATOM      3  C   UNL     1      47.598  -4.310  73.079  1.00  0.00     0.000 C 
BRANCH   3   4
ATOM      4  C   UNL     1      48.381  -4.059  74.379  1.00  0.00     0.000 C 
BRANCH   4   5
ATOM      5  C   UNL     1      47.488  -3.517  75.509  1.00  0.00     0.000 C 
BRANCH   5   6
ATOM      6  C   UNL     1      47.457  -1.979  75.552  1.00  0.00     0.000 C 
BRANCH   6   7
ATOM      7  C   UNL     1      48.829  -1.354  75.256  1.00  0.00     0.000 C 
BRANCH   7   8
ATOM      8  C   UNL     1      48.743  -0.194  74.248  1.00  0.00     0.000 C 
BRANCH   8   9
ATOM      9  C   UNL     1      48.222  -0.647  72.875  1.00  0.00     0.000 C 
BRANCH   9  10
ATOM     10  C   UNL     1      49.335  -0.718  71.816  1.00  0.00     0.000 C 
BRANCH  10  11
ATOM     11  C   UNL     1      50.158  -2.012  71.907  1.00  0.00     0.000 C 
BRANCH  11  12
ATOM     12  C   UNL     1      51.607  -1.758  72.359  1.00  0.00     0.006 C 
BRANCH  12  13
ATOM     13  C   UNL     1      51.939  -2.480  73.672  1.00  0.00     0.053 C 
BRANCH  13  14
ATOM     14  C   UNL     1      52.507  -3.846  73.429  1.00  0.00     0.041 C 
ATOM     15  O   UNL     1      53.738  -3.990  73.207  1.00  0.00    -0.550 OA
ATOM     16  O   UNL     1      51.672  -4.956  73.421  1.00  0.00    -0.550 OA
ENDBRANCH  13  14
ENDBRANCH  12  13
ENDBRANCH  11  12
ENDBRANCH  10  11
ENDBRANCH   9  10
ENDBRANCH   8   9
ENDBRANCH   7   8
ENDBRANCH   6   7
ENDBRANCH   5   6
ENDBRANCH   4   5
ENDBRANCH   3   4
ENDBRANCH   2   3
ENDBRANCH   1   2
BRANCH   1  17
ATOM     17  C   UNL     1      45.479  -6.032  73.574  1.00  0.00     0.000 C 
BRANCH  17  18
ATOM     18  C   UNL     1      45.119  -6.993  74.726  1.00  0.00     0.000 C 
BRANCH  18  19
ATOM     19  C   UNL     1      46.222  -7.998  75.109  1.00  0.00     0.000 C 
BRANCH  19  20
ATOM     20  C   UNL     1      47.337  -7.428  76.006  1.00  0.00     0.000 C 
BRANCH  20  21
ATOM     21  C   UNL     1      47.006  -7.469  77.514  1.00  0.00     0.000 C 
BRANCH  21  22
ATOM     22  C   UNL     1      48.001  -6.657  78.363  1.00  0.00    -0.000 C 
BRANCH  22  23
ATOM     23  C   UNL     1      49.319  -6.380  77.608  1.00  0.00    -0.000 C 
BRANCH  23  24
ATOM     24  C   UNL     1      50.309  -5.510  78.400  1.00  0.00    -0.000 C 
BRANCH  24  25
ATOM     25  C   UNL     1      50.508  -4.118  77.778  1.00  0.00    -0.000 C 
BRANCH  25  26
ATOM     26  C   UNL     1      49.666  -3.034  78.469  1.00  0.00    -0.000 C 
BRANCH  26  27
ATOM     27  C   UNL     1      50.520  -2.056  79.290  1.00  0.00    -0.000 C 
BRANCH  27  28
ATOM     28  C   UNL     1      51.083  -2.740  80.545  1.00  0.00    -0.000 C 
BRANCH  28  29
ATOM     29  C   UNL     1      52.619  -2.750  80.574  1.00  0.00    -0.003 C 
ATOM     30  C   UNL     1      53.200  -4.164  80.583  1.00  0.00     0.004 C 
ENDBRANCH  28  29
ENDBRANCH  27  28
ENDBRANCH  26  27
ENDBRANCH  25  26
ENDBRANCH  24  25
ENDBRANCH  23  24
ENDBRANCH  22  23
ENDBRANCH  21  22
ENDBRANCH  20  21
ENDBRANCH  19  20
ENDBRANCH  18  19
ENDBRANCH  17  18
ENDBRANCH   1  17
TORSDOF 26
ENDMDL
MODEL 7
REMARK VINA RESULT:    -3.958      2.868      6.847
REMARK INTER + INTRA:         -15.543
REMARK INTER:                 -10.826
REMARK INTRA:                  -4.717
REMARK UNBOUND:                -5.569
REMARK SMILES CCCCCCCCCCCCCCCCCCCCCCCCCCCC(=O)[O-]
REMARK SMILES IDX 15 1 16 2 17 3 18 4 19 5 20 6 21 7 22 8 23 9 24 10 25 11
REMARK SMILES IDX 26 12 27 13 28 14 29 15 30 16 14 17 13 18 12 19 11 20 10 21
REMARK SMILES IDX 9 22 8 23 7 24 6 25 5 26 4 27 3 28 2 29 1 30
REMARK H PARENT
REMARK Flexibility Score: inf
ROOT
ATOM      1  C   UNL     1      51.929  -5.944  76.385  1.00  0.00     0.000 C 
ENDROOT
BRANCH   1   2
ATOM      2  C   UNL     1      51.237  -6.682  75.226  1.00  0.00     0.000 C 
BRANCH   2   3
ATOM      3  C   UNL     1      50.220  -5.801  74.483  1.00  0.00     0.000 C 
BRANCH   3   4
ATOM      4  C   UNL     1      49.929  -4.485  75.225  1.00  0.00     0.000 C 
BRANCH   4   5
ATOM      5  C   UNL     1      48.465  -4.038  75.080  1.00  0.00     0.000 C 
BRANCH   5   6
ATOM      6  C   UNL     1      48.310  -2.793  74.190  1.00  0.00     0.000 C 
BRANCH   6   7
ATOM      7  C   UNL     1      48.244  -3.142  72.695  1.00  0.00     0.000 C 
BRANCH   7   8
ATOM      8  C   UNL     1      49.571  -2.867  71.965  1.00  0.00     0.000 C 
BRANCH   8   9
ATOM      9  C   UNL     1      50.198  -1.524  72.373  1.00  0.00     0.000 C 
BRANCH   9  10
ATOM     10  C   UNL     1      51.735  -1.550  72.318  1.00  0.00     0.000 C 
BRANCH  10  11
ATOM     11  C   UNL     1      52.304  -2.977  72.317  1.00  0.00     0.000 C 
BRANCH  11  12
ATOM     12  C   UNL     1      53.689  -3.060  72.982  1.00  0.00     0.006 C 
BRANCH  12  13
ATOM     13  C   UNL     1      53.900  -4.390  73.716  1.00  0.00     0.053 C 
BRANCH  13  14
ATOM     14  C   UNL     1      55.063  -5.155  73.158  1.00  0.00     0.041 C 
ATOM     15  O   UNL     1      55.510  -6.163  73.768  1.00  0.00    -0.550 OA
ATOM     16  O   UNL     1      55.667  -4.740  71.979  1.00  0.00    -0.550 OA
ENDBRANCH  13  14
ENDBRANCH  12  13
ENDBRANCH  11  12
ENDBRANCH  10  11
ENDBRANCH   9  10
ENDBRANCH   8   9
ENDBRANCH   7   8
ENDBRANCH   6   7
ENDBRANCH   5   6
ENDBRANCH   4   5
ENDBRANCH   3   4
ENDBRANCH   2   3
ENDBRANCH   1   2
BRANCH   1  17
ATOM     17  C   UNL     1      51.723  -6.640  77.742  1.00  0.00     0.000 C 
BRANCH  17  18
ATOM     18  C   UNL     1      50.303  -7.192  77.982  1.00  0.00     0.000 C 
BRANCH  18  19
ATOM     19  C   UNL     1      49.244  -6.136  78.349  1.00  0.00     0.000 C 
BRANCH  19  20
ATOM     20  C   UNL     1      47.850  -6.374  77.738  1.00  0.00     0.000 C 
BRANCH  20  21
ATOM     21  C   UNL     1      47.100  -7.579  78.347  1.00  0.00     0.000 C 
BRANCH  21  22
ATOM     22  C   UNL     1      46.952  -8.749  77.357  1.00  0.00    -0.000 C 
BRANCH  22  23
ATOM     23  C   UNL     1      46.629  -8.263  75.928  1.00  0.00    -0.000 C 
BRANCH  23  24
ATOM     24  C   UNL     1      45.152  -8.439  75.538  1.00  0.00    -0.000 C 
BRANCH  24  25
ATOM     25  C   UNL     1      44.581  -7.217  74.800  1.00  0.00    -0.000 C 
BRANCH  25  26
ATOM     26  C   UNL     1      45.660  -6.183  74.442  1.00  0.00    -0.000 C 
BRANCH  26  27
ATOM     27  C   UNL     1      45.941  -6.120  72.933  1.00  0.00    -0.000 C 
BRANCH  27  28
ATOM     28  C   UNL     1      47.287  -6.778  72.597  1.00  0.00    -0.000 C 
BRANCH  28  29
ATOM     29  C   UNL     1      47.134  -8.231  72.122  1.00  0.00    -0.003 C 
ATOM     30  C   UNL     1      46.320  -8.348  70.832  1.00  0.00     0.004 C 
ENDBRANCH  28  29
ENDBRANCH  27  28
ENDBRANCH  26  27
ENDBRANCH  25  26
ENDBRANCH  24  25
ENDBRANCH  23  24
ENDBRANCH  22  23
ENDBRANCH  21  22
ENDBRANCH  20  21
ENDBRANCH  19  20
ENDBRANCH  18  19
ENDBRANCH  17  18
ENDBRANCH   1  17
TORSDOF 26
ENDMDL
MODEL 8
REMARK VINA RESULT:    -3.934      1.490      5.683
REMARK INTER + INTRA:         -15.483
REMARK INTER:                 -11.161
REMARK INTRA:                  -4.321
REMARK UNBOUND:                -5.569
REMARK SMILES CCCCCCCCCCCCCCCCCCCCCCCCCCCC(=O)[O-]
REMARK SMILES IDX 15 1 16 2 17 3 18 4 19 5 20 6 21 7 22 8 23 9 24 10 25 11
REMARK SMILES IDX 26 12 27 13 28 14 29 15 30 16 14 17 13 18 12 19 11 20 10 21
REMARK SMILES IDX 9 22 8 23 7 24 6 25 5 26 4 27 3 28 2 29 1 30
REMARK H PARENT
REMARK Flexibility Score: inf
ROOT
ATOM      1  C   UNL     1      49.741  -0.334  72.024  1.00  0.00     0.000 C 
ENDROOT
BRANCH   1   2
ATOM      2  C   UNL     1      51.209   0.129  72.027  1.00  0.00     0.000 C 
BRANCH   2   3
ATOM      3  C   UNL     1      52.201  -1.044  72.057  1.00  0.00     0.000 C 
BRANCH   3   4
ATOM      4  C   UNL     1      51.841  -2.094  73.121  1.00  0.00     0.000 C 
BRANCH   4   5
ATOM      5  C   UNL     1      51.606  -3.489  72.516  1.00  0.00     0.000 C 
BRANCH   5   6
ATOM      6  C   UNL     1      51.282  -4.550  73.582  1.00  0.00     0.000 C 
BRANCH   6   7
ATOM      7  C   UNL     1      49.803  -4.966  73.569  1.00  0.00     0.000 C 
BRANCH   7   8
ATOM      8  C   UNL     1      49.014  -4.303  72.426  1.00  0.00     0.000 C 
BRANCH   8   9
ATOM      9  C   UNL     1      47.545  -4.756  72.387  1.00  0.00     0.000 C 
BRANCH   9  10
ATOM     10  C   UNL     1      46.898  -4.780  73.782  1.00  0.00     0.000 C 
BRANCH  10  11
ATOM     11  C   UNL     1      45.951  -5.975  73.976  1.00  0.00     0.000 C 
BRANCH  11  12
ATOM     12  C   UNL     1      46.625  -7.319  73.649  1.00  0.00     0.006 C 
BRANCH  12  13
ATOM     13  C   UNL     1      45.840  -8.121  72.602  1.00  0.00     0.053 C 
BRANCH  13  14
ATOM     14  C   UNL     1      46.640  -8.335  71.352  1.00  0.00     0.041 C 
ATOM     15  O   UNL     1      47.891  -8.471  71.415  1.00  0.00    -0.550 OA
ATOM     16  O   UNL     1      46.007  -8.360  70.116  1.00  0.00    -0.550 OA
ENDBRANCH  13  14
ENDBRANCH  12  13
ENDBRANCH  11  12
ENDBRANCH  10  11
ENDBRANCH   9  10
ENDBRANCH   8   9
ENDBRANCH   7   8
ENDBRANCH   6   7
ENDBRANCH   5   6
ENDBRANCH   4   5
ENDBRANCH   3   4
ENDBRANCH   2   3
ENDBRANCH   1   2
BRANCH   1  17
ATOM     17  C   UNL     1      48.796   0.676  72.699  1.00  0.00     0.000 C 
BRANCH  17  18
ATOM     18  C   UNL     1      47.857   0.076  73.765  1.00  0.00     0.000 C 
BRANCH  18  19
ATOM     19  C   UNL     1      48.247  -1.327  74.266  1.00  0.00     0.000 C 
BRANCH  19  20
ATOM     20  C   UNL     1      49.154  -1.344  75.511  1.00  0.00     0.000 C 
BRANCH  20  21
ATOM     21  C   UNL     1      49.157  -2.693  76.262  1.00  0.00     0.000 C 
BRANCH  21  22
ATOM     22  C   UNL     1      50.471  -2.946  77.023  1.00  0.00    -0.000 C 
BRANCH  22  23
ATOM     23  C   UNL     1      50.223  -3.465  78.455  1.00  0.00    -0.000 C 
BRANCH  23  24
ATOM     24  C   UNL     1      50.914  -4.807  78.751  1.00  0.00    -0.000 C 
BRANCH  24  25
ATOM     25  C   UNL     1      50.106  -6.016  78.252  1.00  0.00    -0.000 C 
BRANCH  25  26
ATOM     26  C   UNL     1      48.593  -5.844  78.457  1.00  0.00    -0.000 C 
BRANCH  26  27
ATOM     27  C   UNL     1      47.775  -6.315  77.246  1.00  0.00    -0.000 C 
BRANCH  27  28
ATOM     28  C   UNL     1      47.667  -7.847  77.220  1.00  0.00    -0.000 C 
BRANCH  28  29
ATOM     29  C   UNL     1      47.015  -8.416  78.490  1.00  0.00    -0.003 C 
ATOM     30  C   UNL     1      47.502  -9.827  78.823  1.00  0.00     0.004 C 
ENDBRANCH  28  29
ENDBRANCH  27  28
ENDBRANCH  26  27
ENDBRANCH  25  26
ENDBRANCH  24  25
ENDBRANCH  23  24
ENDBRANCH  22  23
ENDBRANCH  21  22
ENDBRANCH  20  21
ENDBRANCH  19  20
ENDBRANCH  18  19
ENDBRANCH  17  18
ENDBRANCH   1  17
TORSDOF 26
ENDMDL
MODEL 9
REMARK VINA RESULT:    -3.933      3.403      6.866
REMARK INTER + INTRA:         -15.481
REMARK INTER:                 -10.494
REMARK INTRA:                  -4.987
REMARK UNBOUND:                -5.569
REMARK SMILES CCCCCCCCCCCCCCCCCCCCCCCCCCCC(=O)[O-]
REMARK SMILES IDX 15 1 16 2 17 3 18 4 19 5 20 6 21 7 22 8 23 9 24 10 25 11
REMARK SMILES IDX 26 12 27 13 28 14 29 15 30 16 14 17 13 18 12 19 11 20 10 21
REMARK SMILES IDX 9 22 8 23 7 24 6 25 5 26 4 27 3 28 2 29 1 30
REMARK H PARENT
REMARK Flexibility Score: inf
ROOT
ATOM      1  C   UNL     1      48.582  -4.653  78.698  1.00  0.00     0.000 C 
ENDROOT
BRANCH   1   2
ATOM      2  C   UNL     1      49.074  -3.216  78.455  1.00  0.00     0.000 C 
BRANCH   2   3
ATOM      3  C   UNL     1      48.493  -2.596  77.174  1.00  0.00     0.000 C 
BRANCH   3   4
ATOM      4  C   UNL     1      49.347  -2.902  75.933  1.00  0.00     0.000 C 
BRANCH   4   5
ATOM      5  C   UNL     1      48.815  -4.102  75.132  1.00  0.00     0.000 C 
BRANCH   5   6
ATOM      6  C   UNL     1      47.630  -3.730  74.225  1.00  0.00     0.000 C 
BRANCH   6   7
ATOM      7  C   UNL     1      47.859  -4.137  72.760  1.00  0.00     0.000 C 
BRANCH   7   8
ATOM      8  C   UNL     1      49.284  -4.657  72.509  1.00  0.00     0.000 C 
BRANCH   8   9
ATOM      9  C   UNL     1      50.113  -3.700  71.635  1.00  0.00     0.000 C 
BRANCH   9  10
ATOM     10  C   UNL     1      51.072  -2.828  72.463  1.00  0.00     0.000 C 
BRANCH  10  11
ATOM     11  C   UNL     1      50.527  -1.411  72.701  1.00  0.00     0.000 C 
BRANCH  11  12
ATOM     12  C   UNL     1      49.448  -1.014  71.678  1.00  0.00     0.006 C 
BRANCH  12  13
ATOM     13  C   UNL     1      48.303  -0.222  72.322  1.00  0.00     0.053 C 
BRANCH  13  14
ATOM     14  C   UNL     1      48.795   0.681  73.413  1.00  0.00     0.041 C 
ATOM     15  O   UNL     1      49.432   1.729  73.130  1.00  0.00    -0.550 OA
ATOM     16  O   UNL     1      48.571   0.350  74.744  1.00  0.00    -0.550 OA
ENDBRANCH  13  14
ENDBRANCH  12  13
ENDBRANCH  11  12
ENDBRANCH  10  11
ENDBRANCH   9  10
ENDBRANCH   8   9
ENDBRANCH   7   8
ENDBRANCH   6   7
ENDBRANCH   5   6
ENDBRANCH   4   5
ENDBRANCH   3   4
ENDBRANCH   2   3
ENDBRANCH   1   2
BRANCH   1  17
ATOM     17  C   UNL     1      49.664  -5.710  78.411  1.00  0.00     0.000 C 
BRANCH  17  18
ATOM     18  C   UNL     1      49.127  -7.117  78.078  1.00  0.00     0.000 C 
BRANCH  18  19
ATOM     19  C   UNL     1      47.593  -7.245  78.060  1.00  0.00     0.000 C 
BRANCH  19  20
ATOM     20  C   UNL     1      47.050  -8.620  78.492  1.00  0.00     0.000 C 
BRANCH  20  21
ATOM     21  C   UNL     1      47.859  -9.812  77.936  1.00  0.00     0.000 C 
BRANCH  21  22
ATOM     22  C   UNL     1      47.585 -10.072  76.444  1.00  0.00    -0.000 C 
BRANCH  22  23
ATOM     23  C   UNL     1      48.854  -9.900  75.582  1.00  0.00    -0.000 C 
BRANCH  23  24
ATOM     24  C   UNL     1      48.616  -9.102  74.289  1.00  0.00    -0.000 C 
BRANCH  24  25
ATOM     25  C   UNL     1      48.110  -7.675  74.554  1.00  0.00    -0.000 C 
BRANCH  25  26
ATOM     26  C   UNL     1      46.772  -7.382  73.857  1.00  0.00    -0.000 C 
BRANCH  26  27
ATOM     27  C   UNL     1      45.621  -7.168  74.852  1.00  0.00    -0.000 C 
BRANCH  27  28
ATOM     28  C   UNL     1      44.768  -8.438  74.984  1.00  0.00    -0.000 C 
BRANCH  28  29
ATOM     29  C   UNL     1      44.777  -9.293  73.708  1.00  0.00    -0.003 C 
ATOM     30  C   UNL     1      44.707 -10.792  74.000  1.00  0.00     0.004 C 
ENDBRANCH  28  29
ENDBRANCH  27  28
ENDBRANCH  26  27
ENDBRANCH  25  26
ENDBRANCH  24  25
ENDBRANCH  23  24
ENDBRANCH  22  23
ENDBRANCH  21  22
ENDBRANCH  20  21
ENDBRANCH  19  20
ENDBRANCH  18  19
ENDBRANCH  17  18
ENDBRANCH   1  17
TORSDOF 26
ENDMDL
