MODEL 1
REMARK VINA RESULT:    -4.535      0.000      0.000
REMARK INTER + INTRA:          -6.111
REMARK INTER:                  -5.861
REMARK INTRA:                  -0.250
REMARK UNBOUND:                -0.250
REMARK SMILES CCCCCCC(=O)[O-]
REMARK SMILES IDX 5 1 6 2 7 3 8 4 9 5 4 6 3 7 2 8 1 9
REMARK H PARENT
REMARK Flexibility Score: inf
ROOT
ATOM      1  C   UNL     1      43.861  27.088   4.651  1.00  0.00     0.006 C 
ENDROOT
BRANCH   1   2
ATOM      2  C   UNL     1      45.023  27.095   5.653  1.00  0.00     0.053 C 
BRANCH   2   3
ATOM      3  C   UNL     1      44.579  26.546   6.972  1.00  0.00     0.041 C 
ATOM      4  O   UNL     1      45.387  25.907   7.696  1.00  0.00    -0.550 OA
ATOM      5  O   UNL     1      43.259  26.696   7.379  1.00  0.00    -0.550 OA
ENDBRANCH   2   3
ENDBRANCH   1   2
BRANCH   1   6
ATOM      6  C   UNL     1      44.192  26.321   3.359  1.00  0.00     0.000 C 
BRANCH   6   7
ATOM      7  C   UNL     1      45.550  26.672   2.718  1.00  0.00    -0.000 C 
BRANCH   7   8
ATOM      8  C   UNL     1      46.412  25.462   2.319  1.00  0.00    -0.003 C 
ATOM      9  C   UNL     1      47.128  24.822   3.508  1.00  0.00     0.004 C 
ENDBRANCH   7   8
ENDBRANCH   6   7
ENDBRANCH   1   6
TORSDOF 5
ENDMDL
MODEL 2
REMARK VINA RESULT:    -4.494      2.529      4.278
REMARK INTER + INTRA:          -6.058
REMARK INTER:                  -5.810
REMARK INTRA:                  -0.248
REMARK UNBOUND:                -0.250
REMARK SMILES CCCCCCC(=O)[O-]
REMARK SMILES IDX 5 1 6 2 7 3 8 4 9 5 4 6 3 7 2 8 1 9
REMARK H PARENT
REMARK Flexibility Score: inf
ROOT
ATOM      1  C   UNL     1      44.350  26.427   3.320  1.00  0.00     0.006 C 
ENDROOT
BRANCH   1   2
ATOM      2  C   UNL     1      45.833  26.546   2.946  1.00  0.00     0.053 C 
BRANCH   2   3
ATOM      3  C   UNL     1      46.467  25.192   2.883  1.00  0.00     0.041 C 
ATOM      4  O   UNL     1      46.273  24.449   1.886  1.00  0.00    -0.550 OA
ATOM      5  O   UNL     1      47.229  24.730   3.949  1.00  0.00    -0.550 OA
ENDBRANCH   2   3
ENDBRANCH   1   2
BRANCH   1   6
ATOM      6  C   UNL     1      44.028  27.053   4.689  1.00  0.00     0.000 C 
BRANCH   6   7
ATOM      7  C   UNL     1      45.235  27.220   5.633  1.00  0.00    -0.000 C 
BRANCH   7   8
ATOM      8  C   UNL     1      45.155  26.410   6.939  1.00  0.00    -0.003 C 
ATOM      9  C   UNL     1      43.720  26.187   7.414  1.00  0.00     0.004 C 
ENDBRANCH   7   8
ENDBRANCH   6   7
ENDBRANCH   1   6
TORSDOF 5
ENDMDL
MODEL 3
REMARK VINA RESULT:    -4.491      0.825      1.490
REMARK INTER + INTRA:          -6.054
REMARK INTER:                  -5.870
REMARK INTRA:                  -0.184
REMARK UNBOUND:                -0.250
REMARK SMILES CCCCCCC(=O)[O-]
REMARK SMILES IDX 5 1 6 2 7 3 8 4 9 5 4 6 3 7 2 8 1 9
REMARK H PARENT
REMARK Flexibility Score: inf
ROOT
ATOM      1  C   UNL     1      45.349  26.986   5.228  1.00  0.00     0.006 C 
ENDROOT
BRANCH   1   2
ATOM      2  C   UNL     1      44.767  27.640   6.488  1.00  0.00     0.053 C 
BRANCH   2   3
ATOM      3  C   UNL     1      44.037  26.627   7.313  1.00  0.00     0.041 C 
ATOM      4  O   UNL     1      42.797  26.737   7.499  1.00  0.00    -0.550 OA
ATOM      5  O   UNL     1      44.735  25.589   7.918  1.00  0.00    -0.550 OA
ENDBRANCH   2   3
ENDBRANCH   1   2
BRANCH   1   6
ATOM      6  C   UNL     1      44.313  26.837   4.100  1.00  0.00     0.000 C 
BRANCH   6   7
ATOM      7  C   UNL     1      44.901  26.555   2.703  1.00  0.00    -0.000 C 
BRANCH   7   8
ATOM      8  C   UNL     1      46.273  25.859   2.705  1.00  0.00    -0.003 C 
ATOM      9  C   UNL     1      46.266  24.525   1.958  1.00  0.00     0.004 C 
ENDBRANCH   7   8
ENDBRANCH   6   7
ENDBRANCH   1   6
TORSDOF 5
ENDMDL
MODEL 4
REMARK VINA RESULT:    -4.216      2.309      4.144
REMARK INTER + INTRA:          -5.698
REMARK INTER:                  -5.465
REMARK INTRA:                  -0.233
REMARK UNBOUND:                -0.250
REMARK SMILES CCCCCCC(=O)[O-]
REMARK SMILES IDX 5 1 6 2 7 3 8 4 9 5 4 6 3 7 2 8 1 9
REMARK H PARENT
REMARK Flexibility Score: inf
ROOT
ATOM      1  C   UNL     1      46.132  26.354   3.134  1.00  0.00     0.006 C 
ENDROOT
BRANCH   1   2
ATOM      2  C   UNL     1      46.520  24.977   2.581  1.00  0.00     0.053 C 
BRANCH   2   3
ATOM      3  C   UNL     1      47.238  24.178   3.623  1.00  0.00     0.041 C 
ATOM      4  O   UNL     1      47.635  23.012   3.365  1.00  0.00    -0.550 OA
ATOM      5  O   UNL     1      47.424  24.703   4.895  1.00  0.00    -0.550 OA
ENDBRANCH   2   3
ENDBRANCH   1   2
BRANCH   1   6
ATOM      6  C   UNL     1      44.623  26.636   3.028  1.00  0.00     0.000 C 
BRANCH   6   7
ATOM      7  C   UNL     1      43.931  27.007   4.355  1.00  0.00    -0.000 C 
BRANCH   7   8
ATOM      8  C   UNL     1      44.858  27.047   5.582  1.00  0.00    -0.003 C 
ATOM      9  C   UNL     1      44.097  26.991   6.906  1.00  0.00     0.004 C 
ENDBRANCH   7   8
ENDBRANCH   6   7
ENDBRANCH   1   6
TORSDOF 5
ENDMDL
MODEL 5
REMARK VINA RESULT:    -3.978     14.627     15.401
REMARK INTER + INTRA:          -5.391
REMARK INTER:                  -5.247
REMARK INTRA:                  -0.145
REMARK UNBOUND:                -0.250
REMARK SMILES CCCCCCC(=O)[O-]
REMARK SMILES IDX 5 1 6 2 7 3 8 4 9 5 4 6 3 7 2 8 1 9
REMARK H PARENT
REMARK Flexibility Score: inf
ROOT
ATOM      1  C   UNL     1      40.981  23.225  18.573  1.00  0.00     0.006 C 
ENDROOT
BRANCH   1   2
ATOM      2  C   UNL     1      42.297  23.233  19.361  1.00  0.00     0.053 C 
BRANCH   2   3
ATOM      3  C   UNL     1      42.026  23.298  20.831  1.00  0.00     0.041 C 
ATOM      4  O   UNL     1      41.255  24.179  21.293  1.00  0.00    -0.550 OA
ATOM      5  O   UNL     1      42.664  22.418  21.695  1.00  0.00    -0.550 OA
ENDBRANCH   2   3
ENDBRANCH   1   2
BRANCH   1   6
ATOM      6  C   UNL     1      40.940  22.134  17.488  1.00  0.00     0.000 C 
BRANCH   6   7
ATOM      7  C   UNL     1      39.529  21.747  17.001  1.00  0.00    -0.000 C 
BRANCH   7   8
ATOM      8  C   UNL     1      38.548  22.923  16.852  1.00  0.00    -0.003 C 
ATOM      9  C   UNL     1      37.166  22.622  17.430  1.00  0.00     0.004 C 
ENDBRANCH   7   8
ENDBRANCH   6   7
ENDBRANCH   1   6
TORSDOF 5
ENDMDL
MODEL 6
REMARK VINA RESULT:    -3.912     14.731     15.527
REMARK INTER + INTRA:          -5.306
REMARK INTER:                  -5.133
REMARK INTRA:                  -0.172
REMARK UNBOUND:                -0.250
REMARK SMILES CCCCCCC(=O)[O-]
REMARK SMILES IDX 5 1 6 2 7 3 8 4 9 5 4 6 3 7 2 8 1 9
REMARK H PARENT
REMARK Flexibility Score: inf
ROOT
ATOM      1  C   UNL     1      41.127  23.773  19.856  1.00  0.00     0.006 C 
ENDROOT
BRANCH   1   2
ATOM      2  C   UNL     1      42.460  23.064  19.588  1.00  0.00     0.053 C 
BRANCH   2   3
ATOM      3  C   UNL     1      42.860  22.239  20.770  1.00  0.00     0.041 C 
ATOM      4  O   UNL     1      43.222  21.043  20.614  1.00  0.00    -0.550 OA
ATOM      5  O   UNL     1      42.785  22.774  22.050  1.00  0.00    -0.550 OA
ENDBRANCH   2   3
ENDBRANCH   1   2
BRANCH   1   6
ATOM      6  C   UNL     1      40.136  23.643  18.685  1.00  0.00     0.000 C 
BRANCH   6   7
ATOM      7  C   UNL     1      40.498  22.572  17.637  1.00  0.00    -0.000 C 
BRANCH   7   8
ATOM      8  C   UNL     1      39.298  21.825  17.029  1.00  0.00    -0.003 C 
ATOM      9  C   UNL     1      38.100  22.737  16.766  1.00  0.00     0.004 C 
ENDBRANCH   7   8
ENDBRANCH   6   7
ENDBRANCH   1   6
TORSDOF 5
ENDMDL
MODEL 7
REMARK VINA RESULT:    -3.727     10.509     12.257
REMARK INTER + INTRA:          -5.067
REMARK INTER:                  -4.686
REMARK INTRA:                  -0.381
REMARK UNBOUND:                -0.250
REMARK SMILES CCCCCCC(=O)[O-]
REMARK SMILES IDX 5 1 6 2 7 3 8 4 9 5 4 6 3 7 2 8 1 9
REMARK H PARENT
REMARK Flexibility Score: inf
ROOT
ATOM      1  C   UNL     1      44.742  31.524  17.022  1.00  0.00     0.006 C 
ENDROOT
BRANCH   1   2
ATOM      2  C   UNL     1      43.337  32.128  17.136  1.00  0.00     0.053 C 
BRANCH   2   3
ATOM      3  C   UNL     1      43.093  33.098  16.023  1.00  0.00     0.041 C 
ATOM      4  O   UNL     1      44.041  33.455  15.276  1.00  0.00    -0.550 OA
ATOM      5  O   UNL     1      41.829  33.646  15.843  1.00  0.00    -0.550 OA
ENDBRANCH   2   3
ENDBRANCH   1   2
BRANCH   1   6
ATOM      6  C   UNL     1      44.742  30.130  16.371  1.00  0.00     0.000 C 
BRANCH   6   7
ATOM      7  C   UNL     1      45.248  30.087  14.915  1.00  0.00    -0.000 C 
BRANCH   7   8
ATOM      8  C   UNL     1      44.305  29.389  13.919  1.00  0.00    -0.003 C 
ATOM      9  C   UNL     1      42.866  29.893  14.010  1.00  0.00     0.004 C 
ENDBRANCH   7   8
ENDBRANCH   6   7
ENDBRANCH   1   6
TORSDOF 5
ENDMDL
MODEL 8
REMARK VINA RESULT:    -3.652     14.485     15.486
REMARK INTER + INTRA:          -4.969
REMARK INTER:                  -4.819
REMARK INTRA:                  -0.150
REMARK UNBOUND:                -0.250
REMARK SMILES CCCCCCC(=O)[O-]
REMARK SMILES IDX 5 1 6 2 7 3 8 4 9 5 4 6 3 7 2 8 1 9
REMARK H PARENT
REMARK Flexibility Score: inf
ROOT
ATOM      1  C   UNL     1      40.275  23.510  18.715  1.00  0.00     0.006 C 
ENDROOT
BRANCH   1   2
ATOM      2  C   UNL     1      39.068  24.016  17.914  1.00  0.00     0.053 C 
BRANCH   2   3
ATOM      3  C   UNL     1      38.433  22.891  17.159  1.00  0.00     0.041 C 
ATOM      4  O   UNL     1      37.221  22.957  16.826  1.00  0.00    -0.550 OA
ATOM      5  O   UNL     1      39.167  21.748  16.868  1.00  0.00    -0.550 OA
ENDBRANCH   2   3
ENDBRANCH   1   2
BRANCH   1   6
ATOM      6  C   UNL     1      40.982  24.630  19.499  1.00  0.00     0.000 C 
BRANCH   6   7
ATOM      7  C   UNL     1      41.547  24.211  20.872  1.00  0.00    -0.000 C 
BRANCH   7   8
ATOM      8  C   UNL     1      42.283  22.860  20.887  1.00  0.00    -0.003 C 
ATOM      9  C   UNL     1      43.734  22.967  20.418  1.00  0.00     0.004 C 
ENDBRANCH   7   8
ENDBRANCH   6   7
ENDBRANCH   1   6
TORSDOF 5
ENDMDL
MODEL 9
REMARK VINA RESULT:    -3.587      8.588      9.563
REMARK INTER + INTRA:          -4.886
REMARK INTER:                  -4.712
REMARK INTRA:                  -0.174
REMARK UNBOUND:                -0.250
REMARK SMILES CCCCCCC(=O)[O-]
REMARK SMILES IDX 5 1 6 2 7 3 8 4 9 5 4 6 3 7 2 8 1 9
REMARK H PARENT
REMARK Flexibility Score: inf
ROOT
ATOM      1  C   UNL     1      45.274  31.436  13.372  1.00  0.00     0.006 C 
ENDROOT
BRANCH   1   2
ATOM      2  C   UNL     1      44.580  30.079  13.543  1.00  0.00     0.053 C 
BRANCH   2   3
ATOM      3  C   UNL     1      43.163  30.269  13.984  1.00  0.00     0.041 C 
ATOM      4  O   UNL     1      42.338  29.323  13.888  1.00  0.00    -0.550 OA
ATOM      5  O   UNL     1      42.741  31.506  14.455  1.00  0.00    -0.550 OA
ENDBRANCH   2   3
ENDBRANCH   1   2
BRANCH   1   6
ATOM      6  C   UNL     1      45.187  31.975  11.934  1.00  0.00     0.000 C 
BRANCH   6   7
ATOM      7  C   UNL     1      46.313  31.509  10.990  1.00  0.00    -0.000 C 
BRANCH   7   8
ATOM      8  C   UNL     1      47.229  32.630  10.468  1.00  0.00    -0.003 C 
ATOM      9  C   UNL     1      46.781  34.021  10.915  1.00  0.00     0.004 C 
ENDBRANCH   7   8
ENDBRANCH   6   7
ENDBRANCH   1   6
TORSDOF 5
ENDMDL
