MODEL 1
REMARK VINA RESULT:    -3.333      0.000      0.000
REMARK INTER + INTRA:          -9.001
REMARK INTER:                  -6.450
REMARK INTRA:                  -2.551
REMARK UNBOUND:                -2.551
REMARK SMILES CCCCCCCCCCCCCCCCCC(=O)[O-]
REMARK SMILES IDX 10 1 11 2 12 3 13 4 14 5 15 6 16 7 17 8 18 9 19 10 20 11
REMARK SMILES IDX 9 12 8 13 7 14 6 15 5 16 4 17 3 18 2 19 1 20
REMARK H PARENT
REMARK Flexibility Score: inf
ROOT
ATOM      1  C   UNL     1      44.567  20.961  78.968  1.00  0.00     0.000 C 
ENDROOT
BRANCH   1   2
ATOM      2  C   UNL     1      44.520  22.180  78.030  1.00  0.00     0.000 C 
BRANCH   2   3
ATOM      3  C   UNL     1      43.389  22.090  76.991  1.00  0.00     0.000 C 
BRANCH   3   4
ATOM      4  C   UNL     1      42.192  22.988  77.343  1.00  0.00     0.000 C 
BRANCH   4   5
ATOM      5  C   UNL     1      40.841  22.314  77.057  1.00  0.00     0.000 C 
BRANCH   5   6
ATOM      6  C   UNL     1      40.769  20.929  77.709  1.00  0.00     0.000 C 
BRANCH   6   7
ATOM      7  C   UNL     1      40.765  21.038  79.241  1.00  0.00     0.006 C 
BRANCH   7   8
ATOM      8  C   UNL     1      40.588  19.675  79.921  1.00  0.00     0.053 C 
BRANCH   8   9
ATOM      9  C   UNL     1      39.155  19.408  80.268  1.00  0.00     0.041 C 
ATOM     10  O   UNL     1      38.592  18.357  79.865  1.00  0.00    -0.550 OA
ATOM     11  O   UNL     1      38.452  20.305  81.063  1.00  0.00    -0.550 OA
ENDBRANCH   8   9
ENDBRANCH   7   8
ENDBRANCH   6   7
ENDBRANCH   5   6
ENDBRANCH   4   5
ENDBRANCH   3   4
ENDBRANCH   2   3
ENDBRANCH   1   2
BRANCH   1  12
ATOM     12  C   UNL     1      44.412  19.594  78.272  1.00  0.00     0.000 C 
BRANCH  12  13
ATOM     13  C   UNL     1      45.734  18.905  77.872  1.00  0.00    -0.000 C 
BRANCH  13  14
ATOM     14  C   UNL     1      45.883  18.595  76.372  1.00  0.00    -0.000 C 
BRANCH  14  15
ATOM     15  C   UNL     1      45.966  19.862  75.505  1.00  0.00    -0.000 C 
BRANCH  15  16
ATOM     16  C   UNL     1      47.406  20.377  75.329  1.00  0.00    -0.000 C 
BRANCH  16  17
ATOM     17  C   UNL     1      47.664  21.799  75.864  1.00  0.00    -0.000 C 
BRANCH  17  18
ATOM     18  C   UNL     1      48.006  21.824  77.361  1.00  0.00    -0.000 C 
BRANCH  18  19
ATOM     19  C   UNL     1      49.152  20.857  77.678  1.00  0.00    -0.003 C 
ATOM     20  C   UNL     1      49.044  20.319  79.102  1.00  0.00     0.004 C 
ENDBRANCH  18  19
ENDBRANCH  17  18
ENDBRANCH  16  17
ENDBRANCH  15  16
ENDBRANCH  14  15
ENDBRANCH  13  14
ENDBRANCH  12  13
ENDBRANCH   1  12
TORSDOF 16
ENDMDL
MODEL 2
REMARK VINA RESULT:    -3.276     15.765     17.228
REMARK INTER + INTRA:          -8.892
REMARK INTER:                  -6.473
REMARK INTRA:                  -2.419
REMARK UNBOUND:                -2.551
REMARK SMILES CCCCCCCCCCCCCCCCCC(=O)[O-]
REMARK SMILES IDX 10 1 11 2 12 3 13 4 14 5 15 6 16 7 17 8 18 9 19 10 20 11
REMARK SMILES IDX 9 12 8 13 7 14 6 15 5 16 4 17 3 18 2 19 1 20
REMARK H PARENT
REMARK Flexibility Score: inf
ROOT
ATOM      1  C   UNL     1      51.702  31.767  89.087  1.00  0.00     0.000 C 
ENDROOT
BRANCH   1   2
ATOM      2  C   UNL     1      50.602  31.897  90.156  1.00  0.00     0.000 C 
BRANCH   2   3
ATOM      3  C   UNL     1      49.803  30.597  90.350  1.00  0.00     0.000 C 
BRANCH   3   4
ATOM      4  C   UNL     1      48.518  30.810  91.165  1.00  0.00     0.000 C 
BRANCH   4   5
ATOM      5  C   UNL     1      47.271  30.248  90.465  1.00  0.00     0.000 C 
BRANCH   5   6
ATOM      6  C   UNL     1      46.230  31.350  90.231  1.00  0.00     0.000 C 
BRANCH   6   7
ATOM      7  C   UNL     1      45.347  31.549  91.471  1.00  0.00     0.006 C 
BRANCH   7   8
ATOM      8  C   UNL     1      44.377  30.380  91.688  1.00  0.00     0.053 C 
BRANCH   8   9
ATOM      9  C   UNL     1      43.799  30.386  93.070  1.00  0.00     0.041 C 
ATOM     10  O   UNL     1      43.739  31.459  93.727  1.00  0.00    -0.550 OA
ATOM     11  O   UNL     1      43.297  29.213  93.620  1.00  0.00    -0.550 OA
ENDBRANCH   8   9
ENDBRANCH   7   8
ENDBRANCH   6   7
ENDBRANCH   5   6
ENDBRANCH   4   5
ENDBRANCH   3   4
ENDBRANCH   2   3
ENDBRANCH   1   2
BRANCH   1  12
ATOM     12  C   UNL     1      52.281  33.103  88.580  1.00  0.00     0.000 C 
BRANCH  12  13
ATOM     13  C   UNL     1      52.213  33.312  87.053  1.00  0.00    -0.000 C 
BRANCH  13  14
ATOM     14  C   UNL     1      51.379  34.521  86.593  1.00  0.00    -0.000 C 
BRANCH  14  15
ATOM     15  C   UNL     1      50.766  35.305  87.766  1.00  0.00    -0.000 C 
BRANCH  15  16
ATOM     16  C   UNL     1      49.247  35.098  87.898  1.00  0.00    -0.000 C 
BRANCH  16  17
ATOM     17  C   UNL     1      48.614  34.183  86.833  1.00  0.00    -0.000 C 
BRANCH  17  18
ATOM     18  C   UNL     1      48.188  32.818  87.390  1.00  0.00    -0.000 C 
BRANCH  18  19
ATOM     19  C   UNL     1      48.864  31.677  86.621  1.00  0.00    -0.003 C 
ATOM     20  C   UNL     1      48.236  30.329  86.966  1.00  0.00     0.004 C 
ENDBRANCH  18  19
ENDBRANCH  17  18
ENDBRANCH  16  17
ENDBRANCH  15  16
ENDBRANCH  14  15
ENDBRANCH  13  14
ENDBRANCH  12  13
ENDBRANCH   1  12
TORSDOF 16
ENDMDL
MODEL 3
REMARK VINA RESULT:    -3.273     15.785     17.107
REMARK INTER + INTRA:          -8.885
REMARK INTER:                  -6.819
REMARK INTRA:                  -2.066
REMARK UNBOUND:                -2.551
REMARK SMILES CCCCCCCCCCCCCCCCCC(=O)[O-]
REMARK SMILES IDX 10 1 11 2 12 3 13 4 14 5 15 6 16 7 17 8 18 9 19 10 20 11
REMARK SMILES IDX 9 12 8 13 7 14 6 15 5 16 4 17 3 18 2 19 1 20
REMARK H PARENT
REMARK Flexibility Score: inf
ROOT
ATOM      1  C   UNL     1      48.232  33.584  87.898  1.00  0.00     0.000 C 
ENDROOT
BRANCH   1   2
ATOM      2  C   UNL     1      48.051  32.210  87.229  1.00  0.00     0.000 C 
BRANCH   2   3
ATOM      3  C   UNL     1      47.187  31.249  88.064  1.00  0.00     0.000 C 
BRANCH   3   4
ATOM      4  C   UNL     1      46.784  31.845  89.421  1.00  0.00     0.000 C 
BRANCH   4   5
ATOM      5  C   UNL     1      45.441  31.302  89.933  1.00  0.00     0.000 C 
BRANCH   5   6
ATOM      6  C   UNL     1      45.558  29.822  90.316  1.00  0.00     0.000 C 
BRANCH   6   7
ATOM      7  C   UNL     1      45.928  29.663  91.798  1.00  0.00     0.006 C 
BRANCH   7   8
ATOM      8  C   UNL     1      44.786  29.054  92.621  1.00  0.00     0.053 C 
BRANCH   8   9
ATOM      9  C   UNL     1      43.708  30.056  92.903  1.00  0.00     0.041 C 
ATOM     10  O   UNL     1      42.518  29.815  92.570  1.00  0.00    -0.550 OA
ATOM     11  O   UNL     1      44.012  31.240  93.563  1.00  0.00    -0.550 OA
ENDBRANCH   8   9
ENDBRANCH   7   8
ENDBRANCH   6   7
ENDBRANCH   5   6
ENDBRANCH   4   5
ENDBRANCH   3   4
ENDBRANCH   2   3
ENDBRANCH   1   2
BRANCH   1  12
ATOM     12  C   UNL     1      48.992  34.627  87.054  1.00  0.00     0.000 C 
BRANCH  12  13
ATOM     13  C   UNL     1      50.229  35.249  87.735  1.00  0.00    -0.000 C 
BRANCH  13  14
ATOM     14  C   UNL     1      51.586  34.790  87.172  1.00  0.00    -0.000 C 
BRANCH  14  15
ATOM     15  C   UNL     1      52.633  34.536  88.269  1.00  0.00    -0.000 C 
BRANCH  15  16
ATOM     16  C   UNL     1      53.012  33.050  88.406  1.00  0.00    -0.000 C 
BRANCH  16  17
ATOM     17  C   UNL     1      51.823  32.073  88.471  1.00  0.00    -0.000 C 
BRANCH  17  18
ATOM     18  C   UNL     1      51.091  32.107  89.820  1.00  0.00    -0.000 C 
BRANCH  18  19
ATOM     19  C   UNL     1      50.290  30.819  90.042  1.00  0.00    -0.003 C 
ATOM     20  C   UNL     1      49.652  30.796  91.428  1.00  0.00     0.004 C 
ENDBRANCH  18  19
ENDBRANCH  17  18
ENDBRANCH  16  17
ENDBRANCH  15  16
ENDBRANCH  14  15
ENDBRANCH  13  14
ENDBRANCH  12  13
ENDBRANCH   1  12
TORSDOF 16
ENDMDL
MODEL 4
REMARK VINA RESULT:    -3.254     15.525     17.258
REMARK INTER + INTRA:          -8.848
REMARK INTER:                  -5.965
REMARK INTRA:                  -2.884
REMARK UNBOUND:                -2.551
REMARK SMILES CCCCCCCCCCCCCCCCCC(=O)[O-]
REMARK SMILES IDX 10 1 11 2 12 3 13 4 14 5 15 6 16 7 17 8 18 9 19 10 20 11
REMARK SMILES IDX 9 12 8 13 7 14 6 15 5 16 4 17 3 18 2 19 1 20
REMARK H PARENT
REMARK Flexibility Score: inf
ROOT
ATOM      1  C   UNL     1      52.656  33.306  89.133  1.00  0.00     0.000 C 
ENDROOT
BRANCH   1   2
ATOM      2  C   UNL     1      52.847  31.802  88.869  1.00  0.00     0.000 C 
BRANCH   2   3
ATOM      3  C   UNL     1      51.543  30.999  89.021  1.00  0.00     0.000 C 
BRANCH   3   4
ATOM      4  C   UNL     1      50.586  31.618  90.052  1.00  0.00     0.000 C 
BRANCH   4   5
ATOM      5  C   UNL     1      50.010  30.578  91.025  1.00  0.00     0.000 C 
BRANCH   5   6
ATOM      6  C   UNL     1      48.487  30.717  91.138  1.00  0.00     0.000 C 
BRANCH   6   7
ATOM      7  C   UNL     1      47.830  30.739  89.750  1.00  0.00     0.006 C 
BRANCH   7   8
ATOM      8  C   UNL     1      46.742  31.814  89.638  1.00  0.00     0.053 C 
BRANCH   8   9
ATOM      9  C   UNL     1      45.413  31.311  90.116  1.00  0.00     0.041 C 
ATOM     10  O   UNL     1      44.603  30.793  89.303  1.00  0.00    -0.550 OA
ATOM     11  O   UNL     1      45.083  31.386  91.463  1.00  0.00    -0.550 OA
ENDBRANCH   8   9
ENDBRANCH   7   8
ENDBRANCH   6   7
ENDBRANCH   5   6
ENDBRANCH   4   5
ENDBRANCH   3   4
ENDBRANCH   2   3
ENDBRANCH   1   2
BRANCH   1  12
ATOM     12  C   UNL     1      53.117  34.233  87.990  1.00  0.00     0.000 C 
BRANCH  12  13
ATOM     13  C   UNL     1      53.199  33.572  86.599  1.00  0.00    -0.000 C 
BRANCH  13  14
ATOM     14  C   UNL     1      52.581  34.388  85.449  1.00  0.00    -0.000 C 
BRANCH  14  15
ATOM     15  C   UNL     1      51.273  33.777  84.917  1.00  0.00    -0.000 C 
BRANCH  15  16
ATOM     16  C   UNL     1      50.968  32.394  85.520  1.00  0.00    -0.000 C 
BRANCH  16  17
ATOM     17  C   UNL     1      49.591  32.262  86.196  1.00  0.00    -0.000 C 
BRANCH  17  18
ATOM     18  C   UNL     1      48.893  33.613  86.408  1.00  0.00    -0.000 C 
BRANCH  18  19
ATOM     19  C   UNL     1      49.118  34.129  87.833  1.00  0.00    -0.003 C 
ATOM     20  C   UNL     1      49.619  35.571  87.826  1.00  0.00     0.004 C 
ENDBRANCH  18  19
ENDBRANCH  17  18
ENDBRANCH  16  17
ENDBRANCH  15  16
ENDBRANCH  14  15
ENDBRANCH  13  14
ENDBRANCH  12  13
ENDBRANCH   1  12
TORSDOF 16
ENDMDL
MODEL 5
REMARK VINA RESULT:    -3.231      5.868      8.951
REMARK INTER + INTRA:          -8.805
REMARK INTER:                  -5.826
REMARK INTRA:                  -2.979
REMARK UNBOUND:                -2.551
REMARK SMILES CCCCCCCCCCCCCCCCCC(=O)[O-]
REMARK SMILES IDX 10 1 11 2 12 3 13 4 14 5 15 6 16 7 17 8 18 9 19 10 20 11
REMARK SMILES IDX 9 12 8 13 7 14 6 15 5 16 4 17 3 18 2 19 1 20
REMARK H PARENT
REMARK Flexibility Score: inf
ROOT
ATOM      1  C   UNL     1      49.174  20.780  79.025  1.00  0.00     0.000 C 
ENDROOT
BRANCH   1   2
ATOM      2  C   UNL     1      50.707  20.748  79.156  1.00  0.00     0.000 C 
BRANCH   2   3
ATOM      3  C   UNL     1      51.268  21.976  79.894  1.00  0.00     0.000 C 
BRANCH   3   4
ATOM      4  C   UNL     1      50.949  23.295  79.173  1.00  0.00     0.000 C 
BRANCH   4   5
ATOM      5  C   UNL     1      51.785  23.492  77.899  1.00  0.00     0.000 C 
BRANCH   5   6
ATOM      6  C   UNL     1      50.915  24.008  76.747  1.00  0.00     0.000 C 
BRANCH   6   7
ATOM      7  C   UNL     1      51.069  23.124  75.500  1.00  0.00     0.006 C 
BRANCH   7   8
ATOM      8  C   UNL     1      51.874  21.850  75.786  1.00  0.00     0.053 C 
BRANCH   8   9
ATOM      9  C   UNL     1      52.997  21.670  74.810  1.00  0.00     0.041 C 
ATOM     10  O   UNL     1      53.646  20.592  74.784  1.00  0.00    -0.550 OA
ATOM     11  O   UNL     1      53.303  22.680  73.907  1.00  0.00    -0.550 OA
ENDBRANCH   8   9
ENDBRANCH   7   8
ENDBRANCH   6   7
ENDBRANCH   5   6
ENDBRANCH   4   5
ENDBRANCH   3   4
ENDBRANCH   2   3
ENDBRANCH   1   2
BRANCH   1  12
ATOM     12  C   UNL     1      48.641  20.791  77.578  1.00  0.00     0.000 C 
BRANCH  12  13
ATOM     13  C   UNL     1      47.867  22.063  77.172  1.00  0.00    -0.000 C 
BRANCH  13  14
ATOM     14  C   UNL     1      47.330  22.070  75.729  1.00  0.00    -0.000 C 
BRANCH  14  15
ATOM     15  C   UNL     1      47.886  20.915  74.879  1.00  0.00    -0.000 C 
BRANCH  15  16
ATOM     16  C   UNL     1      46.789  19.963  74.370  1.00  0.00    -0.000 C 
BRANCH  16  17
ATOM     17  C   UNL     1      45.688  19.622  75.393  1.00  0.00    -0.000 C 
BRANCH  17  18
ATOM     18  C   UNL     1      45.993  18.356  76.205  1.00  0.00    -0.000 C 
BRANCH  18  19
ATOM     19  C   UNL     1      45.615  18.543  77.678  1.00  0.00    -0.003 C 
ATOM     20  C   UNL     1      44.945  19.895  77.909  1.00  0.00     0.004 C 
ENDBRANCH  18  19
ENDBRANCH  17  18
ENDBRANCH  16  17
ENDBRANCH  15  16
ENDBRANCH  14  15
ENDBRANCH  13  14
ENDBRANCH  12  13
ENDBRANCH   1  12
TORSDOF 16
ENDMDL
MODEL 6
REMARK VINA RESULT:    -3.219      3.358      6.605
REMARK INTER + INTRA:          -8.781
REMARK INTER:                  -6.177
REMARK INTRA:                  -2.603
REMARK UNBOUND:                -2.551
REMARK SMILES CCCCCCCCCCCCCCCCCC(=O)[O-]
REMARK SMILES IDX 10 1 11 2 12 3 13 4 14 5 15 6 16 7 17 8 18 9 19 10 20 11
REMARK SMILES IDX 9 12 8 13 7 14 6 15 5 16 4 17 3 18 2 19 1 20
REMARK H PARENT
REMARK Flexibility Score: inf
ROOT
ATOM      1  C   UNL     1      37.956  20.651  80.983  1.00  0.00     0.000 C 
ENDROOT
BRANCH   1   2
ATOM      2  C   UNL     1      38.684  19.341  80.632  1.00  0.00     0.000 C 
BRANCH   2   3
ATOM      3  C   UNL     1      39.805  19.539  79.598  1.00  0.00     0.000 C 
BRANCH   3   4
ATOM      4  C   UNL     1      41.145  19.919  80.245  1.00  0.00     0.000 C 
BRANCH   4   5
ATOM      5  C   UNL     1      42.281  20.062  79.220  1.00  0.00     0.000 C 
BRANCH   5   6
ATOM      6  C   UNL     1      43.216  21.218  79.595  1.00  0.00     0.000 C 
BRANCH   6   7
ATOM      7  C   UNL     1      44.617  21.010  79.001  1.00  0.00     0.006 C 
BRANCH   7   8
ATOM      8  C   UNL     1      44.766  19.639  78.329  1.00  0.00     0.053 C 
BRANCH   8   9
ATOM      9  C   UNL     1      46.105  19.482  77.675  1.00  0.00     0.041 C 
ATOM     10  O   UNL     1      47.159  19.613  78.351  1.00  0.00    -0.550 OA
ATOM     11  O   UNL     1      46.188  19.160  76.326  1.00  0.00    -0.550 OA
ENDBRANCH   8   9
ENDBRANCH   7   8
ENDBRANCH   6   7
ENDBRANCH   5   6
ENDBRANCH   4   5
ENDBRANCH   3   4
ENDBRANCH   2   3
ENDBRANCH   1   2
BRANCH   1  12
ATOM     12  C   UNL     1      37.864  21.675  79.834  1.00  0.00     0.000 C 
BRANCH  12  13
ATOM     13  C   UNL     1      38.502  23.050  80.126  1.00  0.00    -0.000 C 
BRANCH  13  14
ATOM     14  C   UNL     1      39.886  23.278  79.491  1.00  0.00    -0.000 C 
BRANCH  14  15
ATOM     15  C   UNL     1      39.814  23.525  77.974  1.00  0.00    -0.000 C 
BRANCH  15  16
ATOM     16  C   UNL     1      40.357  22.345  77.148  1.00  0.00    -0.000 C 
BRANCH  16  17
ATOM     17  C   UNL     1      41.715  22.594  76.463  1.00  0.00    -0.000 C 
BRANCH  17  18
ATOM     18  C   UNL     1      42.030  21.571  75.364  1.00  0.00    -0.000 C 
BRANCH  18  19
ATOM     19  C   UNL     1      43.539  21.320  75.263  1.00  0.00    -0.003 C 
ATOM     20  C   UNL     1      44.333  22.551  75.692  1.00  0.00     0.004 C 
ENDBRANCH  18  19
ENDBRANCH  17  18
ENDBRANCH  16  17
ENDBRANCH  15  16
ENDBRANCH  14  15
ENDBRANCH  13  14
ENDBRANCH  12  13
ENDBRANCH   1  12
TORSDOF 16
ENDMDL
MODEL 7
REMARK VINA RESULT:    -3.157      2.379      4.954
REMARK INTER + INTRA:          -8.662
REMARK INTER:                  -5.834
REMARK INTRA:                  -2.828
REMARK UNBOUND:                -2.551
REMARK SMILES CCCCCCCCCCCCCCCCCC(=O)[O-]
REMARK SMILES IDX 10 1 11 2 12 3 13 4 14 5 15 6 16 7 17 8 18 9 19 10 20 11
REMARK SMILES IDX 9 12 8 13 7 14 6 15 5 16 4 17 3 18 2 19 1 20
REMARK H PARENT
REMARK Flexibility Score: inf
ROOT
ATOM      1  C   UNL     1      47.488  20.557  74.666  1.00  0.00     0.000 C 
ENDROOT
BRANCH   1   2
ATOM      2  C   UNL     1      47.101  22.015  74.361  1.00  0.00     0.000 C 
BRANCH   2   3
ATOM      3  C   UNL     1      46.601  22.772  75.604  1.00  0.00     0.000 C 
BRANCH   3   4
ATOM      4  C   UNL     1      45.068  22.831  75.683  1.00  0.00     0.000 C 
BRANCH   4   5
ATOM      5  C   UNL     1      44.395  22.641  74.315  1.00  0.00     0.000 C 
BRANCH   5   6
ATOM      6  C   UNL     1      43.246  21.631  74.405  1.00  0.00     0.000 C 
BRANCH   6   7
ATOM      7  C   UNL     1      42.730  21.507  75.846  1.00  0.00     0.006 C 
BRANCH   7   8
ATOM      8  C   UNL     1      41.198  21.551  75.921  1.00  0.00     0.053 C 
BRANCH   8   9
ATOM      9  C   UNL     1      40.709  22.791  76.605  1.00  0.00     0.041 C 
ATOM     10  O   UNL     1      41.251  23.180  77.673  1.00  0.00    -0.550 OA
ATOM     11  O   UNL     1      39.678  23.535  76.046  1.00  0.00    -0.550 OA
ENDBRANCH   8   9
ENDBRANCH   7   8
ENDBRANCH   6   7
ENDBRANCH   5   6
ENDBRANCH   4   5
ENDBRANCH   3   4
ENDBRANCH   2   3
ENDBRANCH   1   2
BRANCH   1  12
ATOM     12  C   UNL     1      46.374  19.520  74.420  1.00  0.00     0.000 C 
BRANCH  12  13
ATOM     13  C   UNL     1      45.832  18.824  75.687  1.00  0.00    -0.000 C 
BRANCH  13  14
ATOM     14  C   UNL     1      46.367  19.379  77.019  1.00  0.00    -0.000 C 
BRANCH  14  15
ATOM     15  C   UNL     1      45.295  19.424  78.121  1.00  0.00    -0.000 C 
BRANCH  15  16
ATOM     16  C   UNL     1      45.308  20.741  78.918  1.00  0.00    -0.000 C 
BRANCH  16  17
ATOM     17  C   UNL     1      43.921  21.278  79.321  1.00  0.00    -0.000 C 
BRANCH  17  18
ATOM     18  C   UNL     1      42.799  20.248  79.126  1.00  0.00    -0.000 C 
BRANCH  18  19
ATOM     19  C   UNL     1      41.581  20.594  79.991  1.00  0.00    -0.003 C 
ATOM     20  C   UNL     1      40.380  19.725  79.626  1.00  0.00     0.004 C 
ENDBRANCH  18  19
ENDBRANCH  17  18
ENDBRANCH  16  17
ENDBRANCH  15  16
ENDBRANCH  14  15
ENDBRANCH  13  14
ENDBRANCH  12  13
ENDBRANCH   1  12
TORSDOF 16
ENDMDL
MODEL 8
REMARK VINA RESULT:    -3.137     16.207     17.933
REMARK INTER + INTRA:          -8.622
REMARK INTER:                  -5.996
REMARK INTRA:                  -2.626
REMARK UNBOUND:                -2.551
REMARK SMILES CCCCCCCCCCCCCCCCCC(=O)[O-]
REMARK SMILES IDX 10 1 11 2 12 3 13 4 14 5 15 6 16 7 17 8 18 9 19 10 20 11
REMARK SMILES IDX 9 12 8 13 7 14 6 15 5 16 4 17 3 18 2 19 1 20
REMARK H PARENT
REMARK Flexibility Score: inf
ROOT
ATOM      1  C   UNL     1      48.512  32.870  88.081  1.00  0.00     0.000 C 
ENDROOT
BRANCH   1   2
ATOM      2  C   UNL     1      47.708  31.658  87.576  1.00  0.00     0.000 C 
BRANCH   2   3
ATOM      3  C   UNL     1      46.848  31.014  88.676  1.00  0.00     0.000 C 
BRANCH   3   4
ATOM      4  C   UNL     1      47.429  31.227  90.082  1.00  0.00     0.000 C 
BRANCH   4   5
ATOM      5  C   UNL     1      48.077  29.957  90.655  1.00  0.00     0.000 C 
BRANCH   5   6
ATOM      6  C   UNL     1      49.606  30.048  90.599  1.00  0.00     0.000 C 
BRANCH   6   7
ATOM      7  C   UNL     1      50.112  31.300  91.330  1.00  0.00     0.006 C 
BRANCH   7   8
ATOM      8  C   UNL     1      51.250  31.996  90.573  1.00  0.00     0.053 C 
BRANCH   8   9
ATOM      9  C   UNL     1      52.492  32.098  91.407  1.00  0.00     0.041 C 
ATOM     10  O   UNL     1      52.742  31.226  92.279  1.00  0.00    -0.550 OA
ATOM     11  O   UNL     1      53.388  33.138  91.196  1.00  0.00    -0.550 OA
ENDBRANCH   8   9
ENDBRANCH   7   8
ENDBRANCH   6   7
ENDBRANCH   5   6
ENDBRANCH   4   5
ENDBRANCH   3   4
ENDBRANCH   2   3
ENDBRANCH   1   2
BRANCH   1  12
ATOM     12  C   UNL     1      48.460  34.114  87.171  1.00  0.00     0.000 C 
BRANCH  12  13
ATOM     13  C   UNL     1      49.832  34.679  86.751  1.00  0.00    -0.000 C 
BRANCH  13  14
ATOM     14  C   UNL     1      50.705  35.206  87.904  1.00  0.00    -0.000 C 
BRANCH  14  15
ATOM     15  C   UNL     1      52.196  34.871  87.727  1.00  0.00    -0.000 C 
BRANCH  15  16
ATOM     16  C   UNL     1      52.575  34.573  86.265  1.00  0.00    -0.000 C 
BRANCH  16  17
ATOM     17  C   UNL     1      52.996  33.119  85.980  1.00  0.00    -0.000 C 
BRANCH  17  18
ATOM     18  C   UNL     1      52.854  32.202  87.203  1.00  0.00    -0.000 C 
BRANCH  18  19
ATOM     19  C   UNL     1      51.692  31.219  87.021  1.00  0.00    -0.003 C 
ATOM     20  C   UNL     1      51.086  31.332  85.624  1.00  0.00     0.004 C 
ENDBRANCH  18  19
ENDBRANCH  17  18
ENDBRANCH  16  17
ENDBRANCH  15  16
ENDBRANCH  14  15
ENDBRANCH  13  14
ENDBRANCH  12  13
ENDBRANCH   1  12
TORSDOF 16
ENDMDL
MODEL 9
REMARK VINA RESULT:    -3.128     16.742     18.458
REMARK INTER + INTRA:          -8.605
REMARK INTER:                  -5.989
REMARK INTRA:                  -2.616
REMARK UNBOUND:                -2.551
REMARK SMILES CCCCCCCCCCCCCCCCCC(=O)[O-]
REMARK SMILES IDX 10 1 11 2 12 3 13 4 14 5 15 6 16 7 17 8 18 9 19 10 20 11
REMARK SMILES IDX 9 12 8 13 7 14 6 15 5 16 4 17 3 18 2 19 1 20
REMARK H PARENT
REMARK Flexibility Score: inf
ROOT
ATOM      1  C   UNL     1      52.381  34.972  86.999  1.00  0.00     0.000 C 
ENDROOT
BRANCH   1   2
ATOM      2  C   UNL     1      53.485  33.917  87.188  1.00  0.00     0.000 C 
BRANCH   2   3
ATOM      3  C   UNL     1      53.088  32.534  86.641  1.00  0.00     0.000 C 
BRANCH   3   4
ATOM      4  C   UNL     1      53.038  31.459  87.737  1.00  0.00     0.000 C 
BRANCH   4   5
ATOM      5  C   UNL     1      51.602  31.102  88.154  1.00  0.00     0.000 C 
BRANCH   5   6
ATOM      6  C   UNL     1      51.528  30.789  89.653  1.00  0.00     0.000 C 
BRANCH   6   7
ATOM      7  C   UNL     1      51.220  32.053  90.467  1.00  0.00     0.006 C 
BRANCH   7   8
ATOM      8  C   UNL     1      52.193  32.243  91.637  1.00  0.00     0.053 C 
BRANCH   8   9
ATOM      9  C   UNL     1      53.562  32.630  91.166  1.00  0.00     0.041 C 
ATOM     10  O   UNL     1      53.775  33.790  90.727  1.00  0.00    -0.550 OA
ATOM     11  O   UNL     1      54.608  31.719  91.243  1.00  0.00    -0.550 OA
ENDBRANCH   8   9
ENDBRANCH   7   8
ENDBRANCH   6   7
ENDBRANCH   5   6
ENDBRANCH   4   5
ENDBRANCH   3   4
ENDBRANCH   2   3
ENDBRANCH   1   2
BRANCH   1  12
ATOM     12  C   UNL     1      51.276  34.963  88.074  1.00  0.00     0.000 C 
BRANCH  12  13
ATOM     13  C   UNL     1      49.833  34.899  87.534  1.00  0.00    -0.000 C 
BRANCH  13  14
ATOM     14  C   UNL     1      49.557  33.761  86.535  1.00  0.00    -0.000 C 
BRANCH  14  15
ATOM     15  C   UNL     1      48.763  34.227  85.302  1.00  0.00    -0.000 C 
BRANCH  15  16
ATOM     16  C   UNL     1      49.650  34.444  84.063  1.00  0.00    -0.000 C 
BRANCH  16  17
ATOM     17  C   UNL     1      50.831  33.464  83.922  1.00  0.00    -0.000 C 
BRANCH  17  18
ATOM     18  C   UNL     1      51.824  33.873  82.825  1.00  0.00    -0.000 C 
BRANCH  18  19
ATOM     19  C   UNL     1      53.183  34.248  83.426  1.00  0.00    -0.003 C 
ATOM     20  C   UNL     1      54.150  34.732  82.349  1.00  0.00     0.004 C 
ENDBRANCH  18  19
ENDBRANCH  17  18
ENDBRANCH  16  17
ENDBRANCH  15  16
ENDBRANCH  14  15
ENDBRANCH  13  14
ENDBRANCH  12  13
ENDBRANCH   1  12
TORSDOF 16
ENDMDL
