MODEL 1
REMARK VINA RESULT:    -6.284      0.000      0.000
REMARK INTER + INTRA:          -7.671
REMARK INTER:                  -7.386
REMARK INTRA:                  -0.284
REMARK UNBOUND:                -0.284
REMARK SMILES O=c1c(O)c(-c2ccc(O)cc2)oc2cc(O)cc(O)c12
REMARK SMILES IDX 5 1 3 2 2 3 1 4 21 5 19 6 18 7 16 8 15 9 14 10 13 11 6 12
REMARK SMILES IDX 7 13 8 14 9 15 12 16 11 17 10 18 4 20 20 22 17 24
REMARK H PARENT 10 19 4 21 20 23 17 25
REMARK Flexibility Score: inf
ROOT
ATOM      1  C   UNL     1      11.396  -6.344  -9.465  1.00  0.00     0.180 A 
ATOM      2  C   UNL     1      11.170  -7.717  -9.679  1.00  0.00     0.208 A 
ATOM      3  C   UNL     1      10.253  -8.390  -8.858  1.00  0.00     0.238 A 
ATOM      4  O   UNL     1      10.051  -9.623  -9.034  1.00  0.00    -0.285 OA
ATOM      5  C   UNL     1       9.565  -7.679  -7.853  1.00  0.00     0.111 A 
ATOM      6  C   UNL     1       8.622  -8.282  -6.986  1.00  0.00     0.134 A 
ATOM      7  C   UNL     1       7.972  -7.504  -6.016  1.00  0.00     0.093 A 
ATOM      8  C   UNL     1       8.244  -6.140  -5.898  1.00  0.00     0.123 A 
ATOM      9  C   UNL     1       9.174  -5.539  -6.752  1.00  0.00     0.094 A 
ATOM     10  C   UNL     1       9.835  -6.297  -7.723  1.00  0.00     0.146 A 
ATOM     11  O   UNL     1      10.717  -5.702  -8.518  1.00  0.00    -0.452 OA
ENDROOT
BRANCH   1  12
ATOM     12  C   UNL     1      12.361  -5.568 -10.278  1.00  0.00     0.021 A 
ATOM     13  C   UNL     1      11.888  -4.747 -11.315  1.00  0.00     0.016 A 
ATOM     14  C   UNL     1      12.779  -3.988 -12.080  1.00  0.00     0.047 A 
ATOM     15  C   UNL     1      14.153  -4.030 -11.808  1.00  0.00     0.115 A 
ATOM     16  C   UNL     1      13.739  -5.589  -9.997  1.00  0.00     0.016 A 
ATOM     17  C   UNL     1      14.628  -4.828 -10.763  1.00  0.00     0.047 A 
BRANCH  15  18
ATOM     18  O   UNL     1      15.051  -3.279 -12.563  1.00  0.00    -0.508 OA
ATOM     19  H   UNL     1      16.020  -3.178 -12.286  1.00  0.00     0.293 HD
ENDBRANCH  15  18
ENDBRANCH   1  12
BRANCH   2  20
ATOM     20  O   UNL     1      11.828  -8.387 -10.714  1.00  0.00    -0.502 OA
ATOM     21  H   UNL     1      12.772  -8.741 -10.618  1.00  0.00     0.293 HD
ENDBRANCH   2  20
BRANCH   6  22
ATOM     22  O   UNL     1       8.328  -9.644  -7.079  1.00  0.00    -0.507 OA
ATOM     23  H   UNL     1       8.700 -10.219  -7.826  1.00  0.00     0.293 HD
ENDBRANCH   6  22
BRANCH   8  24
ATOM     24  O   UNL     1       7.583  -5.389  -4.928  1.00  0.00    -0.508 OA
ATOM     25  H   UNL     1       7.261  -4.446  -5.116  1.00  0.00     0.293 HD
ENDBRANCH   8  24
TORSDOF 5
ENDMDL
MODEL 2
REMARK VINA RESULT:    -6.123      8.534     12.270
REMARK INTER + INTRA:          -7.481
REMARK INTER:                  -7.279
REMARK INTRA:                  -0.202
REMARK UNBOUND:                -0.284
REMARK SMILES O=c1c(O)c(-c2ccc(O)cc2)oc2cc(O)cc(O)c12
REMARK SMILES IDX 5 1 3 2 2 3 1 4 21 5 19 6 18 7 16 8 15 9 14 10 13 11 6 12
REMARK SMILES IDX 7 13 8 14 9 15 12 16 11 17 10 18 4 20 20 22 17 24
REMARK H PARENT 10 19 4 21 20 23 17 25
REMARK Flexibility Score: inf
ROOT
ATOM      1  C   UNL     1      18.764  -0.954 -17.090  1.00  0.00     0.180 A 
ATOM      2  C   UNL     1      18.286  -0.098 -16.078  1.00  0.00     0.208 A 
ATOM      3  C   UNL     1      17.585  -0.651 -14.997  1.00  0.00     0.238 A 
ATOM      4  O   UNL     1      17.143   0.107 -14.090  1.00  0.00    -0.285 OA
ATOM      5  C   UNL     1      17.390  -2.047 -14.933  1.00  0.00     0.111 A 
ATOM      6  C   UNL     1      16.697  -2.684 -13.875  1.00  0.00     0.134 A 
ATOM      7  C   UNL     1      16.552  -4.080 -13.880  1.00  0.00     0.093 A 
ATOM      8  C   UNL     1      17.086  -4.847 -14.917  1.00  0.00     0.123 A 
ATOM      9  C   UNL     1      17.771  -4.223 -15.964  1.00  0.00     0.094 A 
ATOM     10  C   UNL     1      17.923  -2.834 -15.979  1.00  0.00     0.146 A 
ATOM     11  O   UNL     1      18.574  -2.266 -16.989  1.00  0.00    -0.452 OA
ENDROOT
BRANCH   1  12
ATOM     12  C   UNL     1      19.496  -0.444 -18.272  1.00  0.00     0.021 A 
ATOM     13  C   UNL     1      18.848  -0.394 -19.517  1.00  0.00     0.016 A 
ATOM     14  C   UNL     1      19.514   0.105 -20.641  1.00  0.00     0.047 A 
ATOM     15  C   UNL     1      20.829   0.574 -20.531  1.00  0.00     0.115 A 
ATOM     16  C   UNL     1      20.810   0.047 -18.164  1.00  0.00     0.016 A 
ATOM     17  C   UNL     1      21.472   0.547 -19.290  1.00  0.00     0.047 A 
BRANCH  15  18
ATOM     18  O   UNL     1      21.502   1.073 -21.644  1.00  0.00    -0.508 OA
ATOM     19  H   UNL     1      21.450   2.052 -21.898  1.00  0.00     0.293 HD
ENDBRANCH  15  18
ENDBRANCH   1  12
BRANCH   2  20
ATOM     20  O   UNL     1      18.536   1.276 -16.140  1.00  0.00    -0.502 OA
ATOM     21  H   UNL     1      17.963   1.907 -16.686  1.00  0.00     0.293 HD
ENDBRANCH   2  20
BRANCH   6  22
ATOM     22  O   UNL     1      16.153  -1.944 -12.823  1.00  0.00    -0.507 OA
ATOM     23  H   UNL     1      16.645  -1.826 -11.945  1.00  0.00     0.293 HD
ENDBRANCH   6  22
BRANCH   8  24
ATOM     24  O   UNL     1      16.930  -6.232 -14.896  1.00  0.00    -0.508 OA
ATOM     25  H   UNL     1      17.633  -6.838 -14.490  1.00  0.00     0.293 HD
ENDBRANCH   8  24
TORSDOF 5
ENDMDL
MODEL 3
REMARK VINA RESULT:    -6.106      8.320     11.992
REMARK INTER + INTRA:          -7.461
REMARK INTER:                  -7.198
REMARK INTRA:                  -0.263
REMARK UNBOUND:                -0.284
REMARK SMILES O=c1c(O)c(-c2ccc(O)cc2)oc2cc(O)cc(O)c12
REMARK SMILES IDX 5 1 3 2 2 3 1 4 21 5 19 6 18 7 16 8 15 9 14 10 13 11 6 12
REMARK SMILES IDX 7 13 8 14 9 15 12 16 11 17 10 18 4 20 20 22 17 24
REMARK H PARENT 10 19 4 21 20 23 17 25
REMARK Flexibility Score: inf
ROOT
ATOM      1  C   UNL     1      18.511  -1.188 -16.954  1.00  0.00     0.180 A 
ATOM      2  C   UNL     1      17.874  -0.383 -15.990  1.00  0.00     0.208 A 
ATOM      3  C   UNL     1      17.156  -1.002 -14.956  1.00  0.00     0.238 A 
ATOM      4  O   UNL     1      16.573  -0.290 -14.093  1.00  0.00    -0.285 OA
ATOM      5  C   UNL     1      17.103  -2.409 -14.891  1.00  0.00     0.111 A 
ATOM      6  C   UNL     1      16.404  -3.112 -13.879  1.00  0.00     0.134 A 
ATOM      7  C   UNL     1      16.405  -4.515 -13.878  1.00  0.00     0.093 A 
ATOM      8  C   UNL     1      17.090  -5.227 -14.865  1.00  0.00     0.123 A 
ATOM      9  C   UNL     1      17.782  -4.539 -15.866  1.00  0.00     0.094 A 
ATOM     10  C   UNL     1      17.791  -3.141 -15.887  1.00  0.00     0.146 A 
ATOM     11  O   UNL     1      18.451  -2.513 -16.852  1.00  0.00    -0.452 OA
ENDROOT
BRANCH   1  12
ATOM     12  C   UNL     1      19.272  -0.609 -18.085  1.00  0.00     0.021 A 
ATOM     13  C   UNL     1      20.594  -0.180 -17.881  1.00  0.00     0.016 A 
ATOM     14  C   UNL     1      21.339   0.348 -18.940  1.00  0.00     0.047 A 
ATOM     15  C   UNL     1      20.775   0.440 -20.219  1.00  0.00     0.115 A 
ATOM     16  C   UNL     1      18.721  -0.532 -19.377  1.00  0.00     0.016 A 
ATOM     17  C   UNL     1      19.468  -0.004 -20.434  1.00  0.00     0.047 A 
BRANCH  15  18
ATOM     18  O   UNL     1      21.507   0.965 -21.282  1.00  0.00    -0.508 OA
ATOM     19  H   UNL     1      22.194   1.697 -21.141  1.00  0.00     0.293 HD
ENDBRANCH  15  18
ENDBRANCH   1  12
BRANCH   2  20
ATOM     20  O   UNL     1      17.984   1.010 -16.049  1.00  0.00    -0.502 OA
ATOM     21  H   UNL     1      18.817   1.474 -16.390  1.00  0.00     0.293 HD
ENDBRANCH   2  20
BRANCH   6  22
ATOM     22  O   UNL     1      15.710  -2.428 -12.879  1.00  0.00    -0.507 OA
ATOM     23  H   UNL     1      16.188  -2.011 -12.088  1.00  0.00     0.293 HD
ENDBRANCH   6  22
BRANCH   8  24
ATOM     24  O   UNL     1      17.077  -6.620 -14.840  1.00  0.00    -0.508 OA
ATOM     25  H   UNL     1      17.914  -7.161 -15.025  1.00  0.00     0.293 HD
ENDBRANCH   8  24
TORSDOF 5
ENDMDL
MODEL 4
REMARK VINA RESULT:    -5.920      2.026      3.485
REMARK INTER + INTRA:          -7.242
REMARK INTER:                  -6.963
REMARK INTRA:                  -0.279
REMARK UNBOUND:                -0.284
REMARK SMILES O=c1c(O)c(-c2ccc(O)cc2)oc2cc(O)cc(O)c12
REMARK SMILES IDX 5 1 3 2 2 3 1 4 21 5 19 6 18 7 16 8 15 9 14 10 13 11 6 12
REMARK SMILES IDX 7 13 8 14 9 15 12 16 11 17 10 18 4 20 20 22 17 24
REMARK H PARENT 10 19 4 21 20 23 17 25
REMARK Flexibility Score: inf
ROOT
ATOM      1  C   UNL     1      12.855  -5.454 -10.696  1.00  0.00     0.180 A 
ATOM      2  C   UNL     1      11.860  -4.673 -11.315  1.00  0.00     0.208 A 
ATOM      3  C   UNL     1      10.520  -4.865 -10.945  1.00  0.00     0.238 A 
ATOM      4  O   UNL     1       9.619  -4.179 -11.500  1.00  0.00    -0.285 OA
ATOM      5  C   UNL     1      10.200  -5.816  -9.955  1.00  0.00     0.111 A 
ATOM      6  C   UNL     1       8.874  -6.068  -9.522  1.00  0.00     0.134 A 
ATOM      7  C   UNL     1       8.638  -7.025  -8.524  1.00  0.00     0.093 A 
ATOM      8  C   UNL     1       9.697  -7.732  -7.951  1.00  0.00     0.123 A 
ATOM      9  C   UNL     1      11.007  -7.487  -8.373  1.00  0.00     0.094 A 
ATOM     10  C   UNL     1      11.264  -6.540  -9.369  1.00  0.00     0.146 A 
ATOM     11  O   UNL     1      12.517  -6.332  -9.755  1.00  0.00    -0.452 OA
ENDROOT
BRANCH   1  12
ATOM     12  C   UNL     1      14.288  -5.324 -11.045  1.00  0.00     0.021 A 
ATOM     13  C   UNL     1      14.791  -6.002 -12.168  1.00  0.00     0.016 A 
ATOM     14  C   UNL     1      16.136  -5.875 -12.529  1.00  0.00     0.047 A 
ATOM     15  C   UNL     1      16.991  -5.056 -11.780  1.00  0.00     0.115 A 
ATOM     16  C   UNL     1      15.148  -4.487 -10.311  1.00  0.00     0.016 A 
ATOM     17  C   UNL     1      16.492  -4.361 -10.675  1.00  0.00     0.047 A 
BRANCH  15  18
ATOM     18  O   UNL     1      18.333  -4.922 -12.130  1.00  0.00    -0.508 OA
ATOM     19  H   UNL     1      18.623  -4.862 -13.099  1.00  0.00     0.293 HD
ENDBRANCH  15  18
ENDBRANCH   1  12
BRANCH   2  20
ATOM     20  O   UNL     1      12.209  -3.703 -12.258  1.00  0.00    -0.502 OA
ATOM     21  H   UNL     1      12.309  -3.915 -13.243  1.00  0.00     0.293 HD
ENDBRANCH   2  20
BRANCH   6  22
ATOM     22  O   UNL     1       7.795  -5.377 -10.076  1.00  0.00    -0.507 OA
ATOM     23  H   UNL     1       7.398  -4.560  -9.626  1.00  0.00     0.293 HD
ENDBRANCH   6  22
BRANCH   8  24
ATOM     24  O   UNL     1       9.435  -8.675  -6.960  1.00  0.00    -0.508 OA
ATOM     25  H   UNL     1      10.076  -8.826  -6.189  1.00  0.00     0.293 HD
ENDBRANCH   8  24
TORSDOF 5
ENDMDL
MODEL 5
REMARK VINA RESULT:    -5.891      4.382      4.886
REMARK INTER + INTRA:          -7.208
REMARK INTER:                  -6.910
REMARK INTRA:                  -0.298
REMARK UNBOUND:                -0.284
REMARK SMILES O=c1c(O)c(-c2ccc(O)cc2)oc2cc(O)cc(O)c12
REMARK SMILES IDX 5 1 3 2 2 3 1 4 21 5 19 6 18 7 16 8 15 9 14 10 13 11 6 12
REMARK SMILES IDX 7 13 8 14 9 15 12 16 11 17 10 18 4 20 20 22 17 24
REMARK H PARENT 10 19 4 21 20 23 17 25
REMARK Flexibility Score: inf
ROOT
ATOM      1  C   UNL     1       7.722  -4.535 -11.583  1.00  0.00     0.180 A 
ATOM      2  C   UNL     1       7.935  -5.838 -12.072  1.00  0.00     0.208 A 
ATOM      3  C   UNL     1       8.078  -6.892 -11.158  1.00  0.00     0.238 A 
ATOM      4  O   UNL     1       8.279  -8.062 -11.584  1.00  0.00    -0.285 OA
ATOM      5  C   UNL     1       7.987  -6.631  -9.774  1.00  0.00     0.111 A 
ATOM      6  C   UNL     1       8.116  -7.638  -8.786  1.00  0.00     0.134 A 
ATOM      7  C   UNL     1       8.004  -7.298  -7.430  1.00  0.00     0.093 A 
ATOM      8  C   UNL     1       7.766  -5.978  -7.043  1.00  0.00     0.123 A 
ATOM      9  C   UNL     1       7.637  -4.981  -8.014  1.00  0.00     0.094 A 
ATOM     10  C   UNL     1       7.748  -5.297  -9.371  1.00  0.00     0.146 A 
ATOM     11  O   UNL     1       7.627  -4.329 -10.272  1.00  0.00    -0.452 OA
ENDROOT
BRANCH   1  12
ATOM     12  C   UNL     1       7.580  -3.369 -12.484  1.00  0.00     0.021 A 
ATOM     13  C   UNL     1       6.298  -2.963 -12.892  1.00  0.00     0.016 A 
ATOM     14  C   UNL     1       6.140  -1.850 -13.724  1.00  0.00     0.047 A 
ATOM     15  C   UNL     1       7.259  -1.122 -14.147  1.00  0.00     0.115 A 
ATOM     16  C   UNL     1       8.697  -2.620 -12.896  1.00  0.00     0.016 A 
ATOM     17  C   UNL     1       8.535  -1.508 -13.728  1.00  0.00     0.047 A 
BRANCH  15  18
ATOM     18  O   UNL     1       7.113  -0.012 -14.977  1.00  0.00    -0.508 OA
ATOM     19  H   UNL     1       7.349   0.921 -14.659  1.00  0.00     0.293 HD
ENDBRANCH  15  18
ENDBRANCH   1  12
BRANCH   2  20
ATOM     20  O   UNL     1       7.971  -6.078 -13.449  1.00  0.00    -0.502 OA
ATOM     21  H   UNL     1       7.909  -7.010 -13.839  1.00  0.00     0.293 HD
ENDBRANCH   2  20
BRANCH   6  22
ATOM     22  O   UNL     1       8.354  -8.966  -9.142  1.00  0.00    -0.507 OA
ATOM     23  H   UNL     1       8.427  -9.254 -10.111  1.00  0.00     0.293 HD
ENDBRANCH   6  22
BRANCH   8  24
ATOM     24  O   UNL     1       7.657  -5.669  -5.688  1.00  0.00    -0.508 OA
ATOM     25  H   UNL     1       8.301  -6.049  -5.005  1.00  0.00     0.293 HD
ENDBRANCH   8  24
TORSDOF 5
ENDMDL
MODEL 6
REMARK VINA RESULT:    -5.883      8.155     11.587
REMARK INTER + INTRA:          -7.199
REMARK INTER:                  -7.008
REMARK INTRA:                  -0.191
REMARK UNBOUND:                -0.284
REMARK SMILES O=c1c(O)c(-c2ccc(O)cc2)oc2cc(O)cc(O)c12
REMARK SMILES IDX 5 1 3 2 2 3 1 4 21 5 19 6 18 7 16 8 15 9 14 10 13 11 6 12
REMARK SMILES IDX 7 13 8 14 9 15 12 16 11 17 10 18 4 20 20 22 17 24
REMARK H PARENT 10 19 4 21 20 23 17 25
REMARK Flexibility Score: inf
ROOT
ATOM      1  C   UNL     1      18.641  -2.057 -17.370  1.00  0.00     0.180 A 
ATOM      2  C   UNL     1      18.519  -3.441 -17.595  1.00  0.00     0.208 A 
ATOM      3  C   UNL     1      17.906  -4.237 -16.616  1.00  0.00     0.238 A 
ATOM      4  O   UNL     1      17.800  -5.479 -16.802  1.00  0.00    -0.285 OA
ATOM      5  C   UNL     1      17.410  -3.635 -15.441  1.00  0.00     0.111 A 
ATOM      6  C   UNL     1      16.775  -4.365 -14.406  1.00  0.00     0.134 A 
ATOM      7  C   UNL     1      16.300  -3.692 -13.271  1.00  0.00     0.093 A 
ATOM      8  C   UNL     1      16.445  -2.309 -13.150  1.00  0.00     0.123 A 
ATOM      9  C   UNL     1      17.070  -1.583 -14.168  1.00  0.00     0.094 A 
ATOM     10  C   UNL     1      17.553  -2.235 -15.307  1.00  0.00     0.146 A 
ATOM     11  O   UNL     1      18.148  -1.522 -16.256  1.00  0.00    -0.452 OA
ENDROOT
BRANCH   1  12
ATOM     12  C   UNL     1      19.292  -1.154 -18.348  1.00  0.00     0.021 A 
ATOM     13  C   UNL     1      18.632  -0.845 -19.549  1.00  0.00     0.016 A 
ATOM     14  C   UNL     1      19.218   0.022 -20.476  1.00  0.00     0.047 A 
ATOM     15  C   UNL     1      20.464   0.603 -20.206  1.00  0.00     0.115 A 
ATOM     16  C   UNL     1      20.533  -0.551 -18.075  1.00  0.00     0.016 A 
ATOM     17  C   UNL     1      21.116   0.318 -19.004  1.00  0.00     0.047 A 
BRANCH  15  18
ATOM     18  O   UNL     1      21.057   1.469 -21.123  1.00  0.00    -0.508 OA
ATOM     19  H   UNL     1      20.564   2.279 -21.481  1.00  0.00     0.293 HD
ENDBRANCH  15  18
ENDBRANCH   1  12
BRANCH   2  20
ATOM     20  O   UNL     1      18.975  -4.005 -18.791  1.00  0.00    -0.502 OA
ATOM     21  H   UNL     1      18.781  -4.965 -19.046  1.00  0.00     0.293 HD
ENDBRANCH   2  20
BRANCH   6  22
ATOM     22  O   UNL     1      16.615  -5.749 -14.497  1.00  0.00    -0.507 OA
ATOM     23  H   UNL     1      16.998  -6.280 -15.271  1.00  0.00     0.293 HD
ENDBRANCH   6  22
BRANCH   8  24
ATOM     24  O   UNL     1      15.962  -1.664 -12.013  1.00  0.00    -0.508 OA
ATOM     25  H   UNL     1      14.991  -1.740 -11.733  1.00  0.00     0.293 HD
ENDBRANCH   8  24
TORSDOF 5
ENDMDL
MODEL 7
REMARK VINA RESULT:    -5.818      2.473      3.751
REMARK INTER + INTRA:          -7.123
REMARK INTER:                  -6.912
REMARK INTRA:                  -0.210
REMARK UNBOUND:                -0.284
REMARK SMILES O=c1c(O)c(-c2ccc(O)cc2)oc2cc(O)cc(O)c12
REMARK SMILES IDX 5 1 3 2 2 3 1 4 21 5 19 6 18 7 16 8 15 9 14 10 13 11 6 12
REMARK SMILES IDX 7 13 8 14 9 15 12 16 11 17 10 18 4 20 20 22 17 24
REMARK H PARENT 10 19 4 21 20 23 17 25
REMARK Flexibility Score: inf
ROOT
ATOM      1  C   UNL     1      11.163  -6.179 -10.826  1.00  0.00     0.180 A 
ATOM      2  C   UNL     1      10.882  -6.431  -9.469  1.00  0.00     0.208 A 
ATOM      3  C   UNL     1       9.727  -7.155  -9.138  1.00  0.00     0.238 A 
ATOM      4  O   UNL     1       9.460  -7.377  -7.926  1.00  0.00    -0.285 OA
ATOM      5  C   UNL     1       8.886  -7.631 -10.165  1.00  0.00     0.111 A 
ATOM      6  C   UNL     1       7.704  -8.373  -9.916  1.00  0.00     0.134 A 
ATOM      7  C   UNL     1       6.924  -8.819 -10.993  1.00  0.00     0.093 A 
ATOM      8  C   UNL     1       7.300  -8.542 -12.308  1.00  0.00     0.123 A 
ATOM      9  C   UNL     1       8.465  -7.810 -12.560  1.00  0.00     0.094 A 
ATOM     10  C   UNL     1       9.255  -7.354 -11.501  1.00  0.00     0.146 A 
ATOM     11  O   UNL     1      10.354  -6.657 -11.768  1.00  0.00    -0.452 OA
ENDROOT
BRANCH   1  12
ATOM     12  C   UNL     1      12.352  -5.407 -11.254  1.00  0.00     0.021 A 
ATOM     13  C   UNL     1      13.622  -6.005 -11.196  1.00  0.00     0.016 A 
ATOM     14  C   UNL     1      14.755  -5.301 -11.616  1.00  0.00     0.047 A 
ATOM     15  C   UNL     1      14.630  -3.998 -12.114  1.00  0.00     0.115 A 
ATOM     16  C   UNL     1      12.232  -4.106 -11.774  1.00  0.00     0.016 A 
ATOM     17  C   UNL     1      13.367  -3.405 -12.195  1.00  0.00     0.047 A 
BRANCH  15  18
ATOM     18  O   UNL     1      15.752  -3.288 -12.536  1.00  0.00    -0.508 OA
ATOM     19  H   UNL     1      16.286  -3.576 -13.348  1.00  0.00     0.293 HD
ENDBRANCH  15  18
ENDBRANCH   1  12
BRANCH   2  20
ATOM     20  O   UNL     1      11.759  -5.990  -8.474  1.00  0.00    -0.502 OA
ATOM     21  H   UNL     1      11.473  -5.350  -7.744  1.00  0.00     0.293 HD
ENDBRANCH   2  20
BRANCH   6  22
ATOM     22  O   UNL     1       7.302  -8.667  -8.612  1.00  0.00    -0.507 OA
ATOM     23  H   UNL     1       6.373  -9.014  -8.407  1.00  0.00     0.293 HD
ENDBRANCH   6  22
BRANCH   8  24
ATOM     24  O   UNL     1       6.509  -8.999 -13.360  1.00  0.00    -0.508 OA
ATOM     25  H   UNL     1       6.675  -9.899 -13.796  1.00  0.00     0.293 HD
ENDBRANCH   8  24
TORSDOF 5
ENDMDL
MODEL 8
REMARK VINA RESULT:    -5.778      3.018      4.194
REMARK INTER + INTRA:          -7.076
REMARK INTER:                  -7.068
REMARK INTRA:                  -0.008
REMARK UNBOUND:                -0.284
REMARK SMILES O=c1c(O)c(-c2ccc(O)cc2)oc2cc(O)cc(O)c12
REMARK SMILES IDX 5 1 3 2 2 3 1 4 21 5 19 6 18 7 16 8 15 9 14 10 13 11 6 12
REMARK SMILES IDX 7 13 8 14 9 15 12 16 11 17 10 18 4 20 20 22 17 24
REMARK H PARENT 10 19 4 21 20 23 17 25
REMARK Flexibility Score: inf
ROOT
ATOM      1  C   UNL     1      10.656  -7.306 -10.235  1.00  0.00     0.180 A 
ATOM      2  C   UNL     1      10.313  -7.554  -8.891  1.00  0.00     0.208 A 
ATOM      3  C   UNL     1       9.265  -6.822  -8.313  1.00  0.00     0.238 A 
ATOM      4  O   UNL     1       8.957  -7.028  -7.107  1.00  0.00    -0.285 OA
ATOM      5  C   UNL     1       8.567  -5.873  -9.088  1.00  0.00     0.111 A 
ATOM      6  C   UNL     1       7.496  -5.097  -8.581  1.00  0.00     0.134 A 
ATOM      7  C   UNL     1       6.845  -4.179  -9.419  1.00  0.00     0.093 A 
ATOM      8  C   UNL     1       7.241  -4.024 -10.749  1.00  0.00     0.123 A 
ATOM      9  C   UNL     1       8.298  -4.788 -11.254  1.00  0.00     0.094 A 
ATOM     10  C   UNL     1       8.961  -5.705 -10.435  1.00  0.00     0.146 A 
ATOM     11  O   UNL     1       9.965  -6.414 -10.939  1.00  0.00    -0.452 OA
ENDROOT
BRANCH   1  12
ATOM     12  C   UNL     1      11.761  -8.024 -10.911  1.00  0.00     0.021 A 
ATOM     13  C   UNL     1      11.746  -9.428 -10.958  1.00  0.00     0.016 A 
ATOM     14  C   UNL     1      12.768 -10.125 -11.611  1.00  0.00     0.047 A 
ATOM     15  C   UNL     1      13.808  -9.426 -12.237  1.00  0.00     0.115 A 
ATOM     16  C   UNL     1      12.798  -7.329 -11.559  1.00  0.00     0.016 A 
ATOM     17  C   UNL     1      13.817  -8.029 -12.212  1.00  0.00     0.047 A 
BRANCH  15  18
ATOM     18  O   UNL     1      14.832 -10.110 -12.890  1.00  0.00    -0.508 OA
ATOM     19  H   UNL     1      15.806  -9.927 -12.683  1.00  0.00     0.293 HD
ENDBRANCH  15  18
ENDBRANCH   1  12
BRANCH   2  20
ATOM     20  O   UNL     1      10.989  -8.535  -8.160  1.00  0.00    -0.502 OA
ATOM     21  H   UNL     1      10.928  -9.519  -8.388  1.00  0.00     0.293 HD
ENDBRANCH   2  20
BRANCH   6  22
ATOM     22  O   UNL     1       7.076  -5.230  -7.256  1.00  0.00    -0.507 OA
ATOM     23  H   UNL     1       6.909  -6.139  -6.839  1.00  0.00     0.293 HD
ENDBRANCH   6  22
BRANCH   8  24
ATOM     24  O   UNL     1       6.577  -3.107 -11.560  1.00  0.00    -0.508 OA
ATOM     25  H   UNL     1       5.825  -3.393 -12.178  1.00  0.00     0.293 HD
ENDBRANCH   8  24
TORSDOF 5
ENDMDL
MODEL 9
REMARK VINA RESULT:    -5.723      9.563     13.087
REMARK INTER + INTRA:          -7.010
REMARK INTER:                  -6.742
REMARK INTRA:                  -0.268
REMARK UNBOUND:                -0.284
REMARK SMILES O=c1c(O)c(-c2ccc(O)cc2)oc2cc(O)cc(O)c12
REMARK SMILES IDX 5 1 3 2 2 3 1 4 21 5 19 6 18 7 16 8 15 9 14 10 13 11 6 12
REMARK SMILES IDX 7 13 8 14 9 15 12 16 11 17 10 18 4 20 20 22 17 24
REMARK H PARENT 10 19 4 21 20 23 17 25
REMARK Flexibility Score: inf
ROOT
ATOM      1  C   UNL     1      17.967  -3.947 -16.697  1.00  0.00     0.180 A 
ATOM      2  C   UNL     1      17.738  -2.955 -15.725  1.00  0.00     0.208 A 
ATOM      3  C   UNL     1      18.158  -1.642 -15.984  1.00  0.00     0.238 A 
ATOM      4  O   UNL     1      17.967  -0.746 -15.116  1.00  0.00    -0.285 OA
ATOM      5  C   UNL     1      18.780  -1.339 -17.213  1.00  0.00     0.111 A 
ATOM      6  C   UNL     1      19.230  -0.039 -17.553  1.00  0.00     0.134 A 
ATOM      7  C   UNL     1      19.832   0.183 -18.800  1.00  0.00     0.093 A 
ATOM      8  C   UNL     1      19.992  -0.863 -19.711  1.00  0.00     0.123 A 
ATOM      9  C   UNL     1      19.550  -2.147 -19.380  1.00  0.00     0.094 A 
ATOM     10  C   UNL     1      18.950  -2.391 -18.142  1.00  0.00     0.146 A 
ATOM     11  O   UNL     1      18.544  -3.621 -17.851  1.00  0.00    -0.452 OA
ENDROOT
BRANCH   1  12
ATOM     12  C   UNL     1      17.569  -5.359 -16.491  1.00  0.00     0.021 A 
ATOM     13  C   UNL     1      16.245  -5.749 -16.750  1.00  0.00     0.016 A 
ATOM     14  C   UNL     1      15.853  -7.081 -16.584  1.00  0.00     0.047 A 
ATOM     15  C   UNL     1      16.785  -8.042 -16.170  1.00  0.00     0.115 A 
ATOM     16  C   UNL     1      18.503  -6.333 -16.096  1.00  0.00     0.016 A 
ATOM     17  C   UNL     1      18.109  -7.665 -15.931  1.00  0.00     0.047 A 
BRANCH  15  18
ATOM     18  O   UNL     1      16.406  -9.372 -16.001  1.00  0.00    -0.508 OA
ATOM     19  H   UNL     1      16.074  -9.930 -16.778  1.00  0.00     0.293 HD
ENDBRANCH  15  18
ENDBRANCH   1  12
BRANCH   2  20
ATOM     20  O   UNL     1      17.074  -3.271 -14.536  1.00  0.00    -0.502 OA
ATOM     21  H   UNL     1      16.065  -3.248 -14.455  1.00  0.00     0.293 HD
ENDBRANCH   2  20
BRANCH   6  22
ATOM     22  O   UNL     1      19.084   1.027 -16.664  1.00  0.00    -0.507 OA
ATOM     23  H   UNL     1      19.239   1.986 -16.953  1.00  0.00     0.293 HD
ENDBRANCH   6  22
BRANCH   8  24
ATOM     24  O   UNL     1      20.592  -0.614 -20.944  1.00  0.00    -0.508 OA
ATOM     25  H   UNL     1      20.270   0.133 -21.549  1.00  0.00     0.293 HD
ENDBRANCH   8  24
TORSDOF 5
ENDMDL
