MODEL 1
REMARK VINA RESULT:    -5.216      0.000      0.000
REMARK INTER + INTRA:          -5.636
REMARK INTER:                  -5.673
REMARK INTRA:                   0.037
REMARK UNBOUND:                 0.037
REMARK SMILES COc1cc2ccc(=O)oc2cc1O
REMARK SMILES IDX 3 1 13 2 12 3 11 4 5 5 4 6 6 7 7 8 8 9 9 10 10 11 2 12 1 13
REMARK SMILES IDX 14 14
REMARK H PARENT 14 15
REMARK Flexibility Score: inf
ROOT
ATOM      1  C   UNL     1       9.744 -17.187   7.807  1.00  0.00     0.161 A 
ATOM      2  C   UNL     1       9.440 -15.921   7.281  1.00  0.00     0.161 A 
ATOM      3  C   UNL     1      10.446 -14.954   7.137  1.00  0.00     0.098 A 
ATOM      4  C   UNL     1      11.760 -15.242   7.514  1.00  0.00     0.142 A 
ATOM      5  C   UNL     1      12.074 -16.511   8.044  1.00  0.00     0.022 A 
ATOM      6  C   UNL     1      11.070 -17.479   8.189  1.00  0.00     0.062 A 
ATOM      7  C   UNL     1      13.398 -16.770   8.412  1.00  0.00     0.019 A 
ATOM      8  C   UNL     1      14.361 -15.775   8.249  1.00  0.00     0.094 A 
ATOM      9  C   UNL     1      13.975 -14.539   7.717  1.00  0.00     0.336 A 
ATOM     10  O   UNL     1      14.830 -13.629   7.561  1.00  0.00    -0.246 OA
ATOM     11  O   UNL     1      12.709 -14.320   7.374  1.00  0.00    -0.423 OA
ENDROOT
BRANCH   1  12
ATOM     12  O   UNL     1       8.707 -18.123   7.934  1.00  0.00    -0.493 OA
ATOM     13  C   UNL     1       7.745 -18.125   8.985  1.00  0.00     0.278 C 
ENDBRANCH   1  12
BRANCH   2  14
ATOM     14  O   UNL     1       8.130 -15.630   6.904  1.00  0.00    -0.504 OA
ATOM     15  H   UNL     1       7.343 -15.865   7.496  1.00  0.00     0.293 HD
ENDBRANCH   2  14
TORSDOF 2
ENDMDL
MODEL 2
REMARK VINA RESULT:    -5.108      1.666      5.320
REMARK INTER + INTRA:          -5.518
REMARK INTER:                  -5.461
REMARK INTRA:                  -0.058
REMARK UNBOUND:                 0.037
REMARK SMILES COc1cc2ccc(=O)oc2cc1O
REMARK SMILES IDX 3 1 13 2 12 3 11 4 5 5 4 6 6 7 7 8 8 9 9 10 10 11 2 12 1 13
REMARK SMILES IDX 14 14
REMARK H PARENT 14 15
REMARK Flexibility Score: inf
ROOT
ATOM      1  C   UNL     1      12.959 -15.979   7.580  1.00  0.00     0.161 A 
ATOM      2  C   UNL     1      12.925 -17.213   6.911  1.00  0.00     0.161 A 
ATOM      3  C   UNL     1      11.707 -17.880   6.717  1.00  0.00     0.098 A 
ATOM      4  C   UNL     1      10.515 -17.323   7.187  1.00  0.00     0.142 A 
ATOM      5  C   UNL     1      10.540 -16.083   7.861  1.00  0.00     0.022 A 
ATOM      6  C   UNL     1      11.757 -15.415   8.056  1.00  0.00     0.062 A 
ATOM      7  C   UNL     1       9.331 -15.550   8.320  1.00  0.00     0.019 A 
ATOM      8  C   UNL     1       8.146 -16.252   8.101  1.00  0.00     0.094 A 
ATOM      9  C   UNL     1       8.199 -17.477   7.425  1.00  0.00     0.336 A 
ATOM     10  O   UNL     1       7.141 -18.125   7.218  1.00  0.00    -0.246 OA
ATOM     11  O   UNL     1       9.362 -17.960   6.998  1.00  0.00    -0.423 OA
ENDROOT
BRANCH   1  12
ATOM     12  O   UNL     1      14.200 -15.347   7.752  1.00  0.00    -0.493 OA
ATOM     13  C   UNL     1      14.497 -14.022   7.323  1.00  0.00     0.278 C 
ENDBRANCH   1  12
BRANCH   2  14
ATOM     14  O   UNL     1      14.112 -17.772   6.441  1.00  0.00    -0.504 OA
ATOM     15  H   UNL     1      14.207 -18.087   5.483  1.00  0.00     0.293 HD
ENDBRANCH   2  14
TORSDOF 2
ENDMDL
MODEL 3
REMARK VINA RESULT:    -4.988      1.565      4.934
REMARK INTER + INTRA:          -5.388
REMARK INTER:                  -5.329
REMARK INTRA:                  -0.059
REMARK UNBOUND:                 0.037
REMARK SMILES COc1cc2ccc(=O)oc2cc1O
REMARK SMILES IDX 3 1 13 2 12 3 11 4 5 5 4 6 6 7 7 8 8 9 9 10 10 11 2 12 1 13
REMARK SMILES IDX 14 14
REMARK H PARENT 14 15
REMARK Flexibility Score: inf
ROOT
ATOM      1  C   UNL     1      12.480 -16.709   7.014  1.00  0.00     0.161 A 
ATOM      2  C   UNL     1      12.263 -15.414   7.508  1.00  0.00     0.161 A 
ATOM      3  C   UNL     1      10.989 -15.029   7.950  1.00  0.00     0.098 A 
ATOM      4  C   UNL     1       9.924 -15.932   7.903  1.00  0.00     0.142 A 
ATOM      5  C   UNL     1      10.133 -17.237   7.408  1.00  0.00     0.022 A 
ATOM      6  C   UNL     1      11.407 -17.623   6.965  1.00  0.00     0.062 A 
ATOM      7  C   UNL     1       9.049 -18.119   7.373  1.00  0.00     0.019 A 
ATOM      8  C   UNL     1       7.802 -17.688   7.825  1.00  0.00     0.094 A 
ATOM      9  C   UNL     1       7.669 -16.379   8.302  1.00  0.00     0.336 A 
ATOM     10  O   UNL     1       6.552 -15.972   8.715  1.00  0.00    -0.246 OA
ATOM     11  O   UNL     1       8.717 -15.561   8.325  1.00  0.00    -0.423 OA
ENDROOT
BRANCH   1  12
ATOM     12  O   UNL     1      13.771 -17.051   6.582  1.00  0.00    -0.493 OA
ATOM     13  C   UNL     1      14.542 -18.125   7.113  1.00  0.00     0.278 C 
ENDBRANCH   1  12
BRANCH   2  14
ATOM     14  O   UNL     1      13.323 -14.510   7.556  1.00  0.00    -0.504 OA
ATOM     15  H   UNL     1      13.417 -13.766   6.876  1.00  0.00     0.293 HD
ENDBRANCH   2  14
TORSDOF 2
ENDMDL
MODEL 4
REMARK VINA RESULT:    -4.718      1.853      2.371
REMARK INTER + INTRA:          -5.095
REMARK INTER:                  -5.055
REMARK INTRA:                  -0.040
REMARK UNBOUND:                 0.037
REMARK SMILES COc1cc2ccc(=O)oc2cc1O
REMARK SMILES IDX 3 1 13 2 12 3 11 4 5 5 4 6 6 7 7 8 8 9 9 10 10 11 2 12 1 13
REMARK SMILES IDX 14 14
REMARK H PARENT 14 15
REMARK Flexibility Score: inf
ROOT
ATOM      1  C   UNL     1       8.820 -16.316   7.732  1.00  0.00     0.161 A 
ATOM      2  C   UNL     1       9.031 -17.461   6.946  1.00  0.00     0.161 A 
ATOM      3  C   UNL     1      10.332 -17.935   6.724  1.00  0.00     0.098 A 
ATOM      4  C   UNL     1      11.429 -17.274   7.282  1.00  0.00     0.142 A 
ATOM      5  C   UNL     1      11.226 -16.124   8.072  1.00  0.00     0.022 A 
ATOM      6  C   UNL     1       9.926 -15.647   8.296  1.00  0.00     0.062 A 
ATOM      7  C   UNL     1      12.343 -15.483   8.618  1.00  0.00     0.019 A 
ATOM      8  C   UNL     1      13.616 -15.996   8.367  1.00  0.00     0.094 A 
ATOM      9  C   UNL     1      13.741 -17.141   7.573  1.00  0.00     0.336 A 
ATOM     10  O   UNL     1      14.880 -17.618   7.335  1.00  0.00    -0.246 OA
ATOM     11  O   UNL     1      12.661 -17.731   7.067  1.00  0.00    -0.423 OA
ENDROOT
BRANCH   1  12
ATOM     12  O   UNL     1       7.502 -15.877   7.928  1.00  0.00    -0.493 OA
ATOM     13  C   UNL     1       6.666 -16.288   9.007  1.00  0.00     0.278 C 
ENDBRANCH   1  12
BRANCH   2  14
ATOM     14  O   UNL     1       7.939 -18.122   6.388  1.00  0.00    -0.504 OA
ATOM     15  H   UNL     1       7.428 -18.830   6.902  1.00  0.00     0.293 HD
ENDBRANCH   2  14
TORSDOF 2
ENDMDL
MODEL 5
REMARK VINA RESULT:    -4.165      1.305      2.294
REMARK INTER + INTRA:          -4.493
REMARK INTER:                  -4.706
REMARK INTRA:                   0.213
REMARK UNBOUND:                 0.037
REMARK SMILES COc1cc2ccc(=O)oc2cc1O
REMARK SMILES IDX 3 1 13 2 12 3 11 4 5 5 4 6 6 7 7 8 8 9 9 10 10 11 2 12 1 13
REMARK SMILES IDX 14 14
REMARK H PARENT 14 15
REMARK Flexibility Score: inf
ROOT
ATOM      1  C   UNL     1       9.076 -16.006   7.832  1.00  0.00     0.161 A 
ATOM      2  C   UNL     1       9.554 -17.144   8.500  1.00  0.00     0.161 A 
ATOM      3  C   UNL     1      10.926 -17.296   8.747  1.00  0.00     0.098 A 
ATOM      4  C   UNL     1      11.830 -16.316   8.332  1.00  0.00     0.142 A 
ATOM      5  C   UNL     1      11.359 -15.168   7.660  1.00  0.00     0.022 A 
ATOM      6  C   UNL     1       9.987 -15.015   7.411  1.00  0.00     0.062 A 
ATOM      7  C   UNL     1      12.287 -14.203   7.256  1.00  0.00     0.019 A 
ATOM      8  C   UNL     1      13.641 -14.401   7.526  1.00  0.00     0.094 A 
ATOM      9  C   UNL     1      14.035 -15.564   8.197  1.00  0.00     0.336 A 
ATOM     10  O   UNL     1      15.252 -15.761   8.450  1.00  0.00    -0.246 OA
ATOM     11  O   UNL     1      13.131 -16.465   8.571  1.00  0.00    -0.423 OA
ENDROOT
BRANCH   1  12
ATOM     12  O   UNL     1       7.696 -15.896   7.606  1.00  0.00    -0.493 OA
ATOM     13  C   UNL     1       6.716 -15.786   8.634  1.00  0.00     0.278 C 
ENDBRANCH   1  12
BRANCH   2  14
ATOM     14  O   UNL     1       8.655 -18.125   8.916  1.00  0.00    -0.504 OA
ATOM     15  H   UNL     1       7.656 -17.957   8.929  1.00  0.00     0.293 HD
ENDBRANCH   2  14
TORSDOF 2
ENDMDL
MODEL 6
REMARK VINA RESULT:    -3.152      1.234      4.948
REMARK INTER + INTRA:          -3.391
REMARK INTER:                  -4.253
REMARK INTRA:                   0.861
REMARK UNBOUND:                 0.037
REMARK SMILES COc1cc2ccc(=O)oc2cc1O
REMARK SMILES IDX 3 1 13 2 12 3 11 4 5 5 4 6 6 7 7 8 8 9 9 10 10 11 2 12 1 13
REMARK SMILES IDX 14 14
REMARK H PARENT 14 15
REMARK Flexibility Score: inf
ROOT
ATOM      1  C   UNL     1      12.904 -15.298   7.588  1.00  0.00     0.161 A 
ATOM      2  C   UNL     1      12.008 -14.284   7.213  1.00  0.00     0.161 A 
ATOM      3  C   UNL     1      10.624 -14.498   7.290  1.00  0.00     0.098 A 
ATOM      4  C   UNL     1      10.124 -15.722   7.742  1.00  0.00     0.142 A 
ATOM      5  C   UNL     1      11.017 -16.746   8.121  1.00  0.00     0.022 A 
ATOM      6  C   UNL     1      12.401 -16.534   8.044  1.00  0.00     0.062 A 
ATOM      7  C   UNL     1      10.488 -17.960   8.570  1.00  0.00     0.019 A 
ATOM      8  C   UNL     1       9.104 -18.123   8.629  1.00  0.00     0.094 A 
ATOM      9  C   UNL     1       8.279 -17.063   8.236  1.00  0.00     0.336 A 
ATOM     10  O   UNL     1       7.028 -17.190   8.283  1.00  0.00    -0.246 OA
ATOM     11  O   UNL     1       8.809 -15.918   7.814  1.00  0.00    -0.423 OA
ENDROOT
BRANCH   1  12
ATOM     12  O   UNL     1      14.280 -15.040   7.494  1.00  0.00    -0.493 OA
ATOM     13  C   UNL     1      14.861 -13.739   7.517  1.00  0.00     0.278 C 
ENDBRANCH   1  12
BRANCH   2  14
ATOM     14  O   UNL     1      12.503 -13.062   6.761  1.00  0.00    -0.504 OA
ATOM     15  H   UNL     1      11.942 -12.440   6.192  1.00  0.00     0.293 HD
ENDBRANCH   2  14
TORSDOF 2
ENDMDL
