MODEL 1
REMARK VINA RESULT:    -5.080      0.000      0.000
REMARK INTER + INTRA:          -5.711
REMARK INTER:                  -5.526
REMARK INTRA:                  -0.185
REMARK UNBOUND:                -0.185
REMARK SMILES Cc1ccc(C(C)C)c(O)c1
REMARK SMILES IDX 1 1 2 2 11 3 9 4 5 5 4 6 3 7 10 8 6 10 7 11 8 12
REMARK H PARENT 10 9
REMARK Flexibility Score: inf
ROOT
ATOM      1  C   UNL     1     -19.413  42.278  33.864  1.00  0.00     0.044 C 
ATOM      2  C   UNL     1     -18.205  42.947  33.279  1.00  0.00    -0.047 A 
ATOM      3  C   UNL     1     -18.343  43.852  32.220  1.00  0.00     0.049 A 
ATOM      4  C   UNL     1     -17.224  44.459  31.635  1.00  0.00     0.119 A 
ATOM      5  C   UNL     1     -15.917  44.147  32.113  1.00  0.00    -0.004 A 
ATOM      6  C   UNL     1     -15.801  43.215  33.167  1.00  0.00     0.008 A 
ATOM      7  C   UNL     1     -16.927  42.620  33.736  1.00  0.00     0.004 A 
ENDROOT
BRANCH   4   8
ATOM      8  O   UNL     1     -17.477  45.351  30.591  1.00  0.00    -0.508 OA
ATOM      9  H   UNL     1     -16.865  45.516  29.811  1.00  0.00     0.293 HD
ENDBRANCH   4   8
BRANCH   5  10
ATOM     10  C   UNL     1     -14.624  44.747  31.562  1.00  0.00     0.017 C 
ATOM     11  C   UNL     1     -14.170  44.089  30.251  1.00  0.00     0.012 C 
ATOM     12  C   UNL     1     -13.508  44.829  32.613  1.00  0.00     0.012 C 
ENDBRANCH   5  10
TORSDOF 2
ENDMDL
MODEL 2
REMARK VINA RESULT:    -5.021      1.027      4.077
REMARK INTER + INTRA:          -5.647
REMARK INTER:                  -5.461
REMARK INTRA:                  -0.185
REMARK UNBOUND:                -0.185
REMARK SMILES Cc1ccc(C(C)C)c(O)c1
REMARK SMILES IDX 1 1 2 2 11 3 9 4 5 5 4 6 3 7 10 8 6 10 7 11 8 12
REMARK H PARENT 10 9
REMARK Flexibility Score: inf
ROOT
ATOM      1  C   UNL     1     -13.185  44.500  31.814  1.00  0.00     0.044 C 
ATOM      2  C   UNL     1     -14.633  44.253  32.119  1.00  0.00    -0.047 A 
ATOM      3  C   UNL     1     -15.623  44.656  31.216  1.00  0.00     0.049 A 
ATOM      4  C   UNL     1     -16.982  44.469  31.498  1.00  0.00     0.119 A 
ATOM      5  C   UNL     1     -17.373  43.867  32.731  1.00  0.00    -0.004 A 
ATOM      6  C   UNL     1     -16.358  43.489  33.636  1.00  0.00     0.008 A 
ATOM      7  C   UNL     1     -15.010  43.685  33.337  1.00  0.00     0.004 A 
ENDROOT
BRANCH   4   8
ATOM      8  O   UNL     1     -17.884  44.900  30.524  1.00  0.00    -0.508 OA
ATOM      9  H   UNL     1     -18.260  44.325  29.789  1.00  0.00     0.293 HD
ENDBRANCH   4   8
BRANCH   5  10
ATOM     10  C   UNL     1     -18.819  43.605  33.150  1.00  0.00     0.017 C 
ATOM     11  C   UNL     1     -19.445  44.781  33.913  1.00  0.00     0.012 C 
ATOM     12  C   UNL     1     -18.999  42.259  33.865  1.00  0.00     0.012 C 
ENDBRANCH   5  10
TORSDOF 2
ENDMDL
MODEL 3
REMARK VINA RESULT:    -4.938      2.293      5.009
REMARK INTER + INTRA:          -5.556
REMARK INTER:                  -5.372
REMARK INTRA:                  -0.184
REMARK UNBOUND:                -0.185
REMARK SMILES Cc1ccc(C(C)C)c(O)c1
REMARK SMILES IDX 1 1 2 2 11 3 9 4 5 5 4 6 3 7 10 8 6 10 7 11 8 12
REMARK H PARENT 10 9
REMARK Flexibility Score: inf
ROOT
ATOM      1  C   UNL     1     -11.657  44.737  30.168  1.00  0.00     0.044 C 
ATOM      2  C   UNL     1     -12.810  44.533  31.105  1.00  0.00    -0.047 A 
ATOM      3  C   UNL     1     -12.580  44.190  32.442  1.00  0.00     0.049 A 
ATOM      4  C   UNL     1     -13.644  43.958  33.324  1.00  0.00     0.119 A 
ATOM      5  C   UNL     1     -14.987  44.061  32.857  1.00  0.00    -0.004 A 
ATOM      6  C   UNL     1     -15.194  44.386  31.499  1.00  0.00     0.008 A 
ATOM      7  C   UNL     1     -14.123  44.612  30.636  1.00  0.00     0.004 A 
ENDROOT
BRANCH   4   8
ATOM      8  O   UNL     1     -13.301  43.631  34.637  1.00  0.00    -0.508 OA
ATOM      9  H   UNL     1     -13.913  43.191  35.302  1.00  0.00     0.293 HD
ENDBRANCH   4   8
BRANCH   5  10
ATOM     10  C   UNL     1     -16.227  43.838  33.722  1.00  0.00     0.017 C 
ATOM     11  C   UNL     1     -16.533  42.352  33.959  1.00  0.00     0.012 C 
ATOM     12  C   UNL     1     -17.446  44.634  33.235  1.00  0.00     0.012 C 
ENDBRANCH   5  10
TORSDOF 2
ENDMDL
MODEL 4
REMARK VINA RESULT:    -4.895     10.057     11.063
REMARK INTER + INTRA:          -5.509
REMARK INTER:                  -5.329
REMARK INTRA:                  -0.180
REMARK UNBOUND:                -0.185
REMARK SMILES Cc1ccc(C(C)C)c(O)c1
REMARK SMILES IDX 1 1 2 2 11 3 9 4 5 5 4 6 3 7 10 8 6 10 7 11 8 12
REMARK H PARENT 10 9
REMARK Flexibility Score: inf
ROOT
ATOM      1  C   UNL     1     -27.434  42.958  29.615  1.00  0.00     0.044 C 
ATOM      2  C   UNL     1     -26.732  41.645  29.437  1.00  0.00    -0.047 A 
ATOM      3  C   UNL     1     -26.474  41.151  28.154  1.00  0.00     0.049 A 
ATOM      4  C   UNL     1     -25.852  39.910  27.965  1.00  0.00     0.119 A 
ATOM      5  C   UNL     1     -25.483  39.124  29.096  1.00  0.00    -0.004 A 
ATOM      6  C   UNL     1     -25.774  39.632  30.381  1.00  0.00     0.008 A 
ATOM      7  C   UNL     1     -26.394  40.870  30.548  1.00  0.00     0.004 A 
ENDROOT
BRANCH   4   8
ATOM      8  O   UNL     1     -25.635  39.518  26.643  1.00  0.00    -0.508 OA
ATOM      9  H   UNL     1     -24.740  39.502  26.184  1.00  0.00     0.293 HD
ENDBRANCH   4   8
BRANCH   5  10
ATOM     10  C   UNL     1     -24.796  37.761  29.021  1.00  0.00     0.017 C 
ATOM     11  C   UNL     1     -25.776  36.588  29.172  1.00  0.00     0.012 C 
ATOM     12  C   UNL     1     -23.579  37.652  29.949  1.00  0.00     0.012 C 
ENDBRANCH   5  10
TORSDOF 2
ENDMDL
MODEL 5
REMARK VINA RESULT:    -4.838      2.444      3.443
REMARK INTER + INTRA:          -5.447
REMARK INTER:                  -5.292
REMARK INTRA:                  -0.155
REMARK UNBOUND:                -0.185
REMARK SMILES Cc1ccc(C(C)C)c(O)c1
REMARK SMILES IDX 1 1 2 2 11 3 9 4 5 5 4 6 3 7 10 8 6 10 7 11 8 12
REMARK H PARENT 10 9
REMARK Flexibility Score: inf
ROOT
ATOM      1  C   UNL     1     -17.559  44.544  33.332  1.00  0.00     0.044 C 
ATOM      2  C   UNL     1     -16.105  44.478  32.970  1.00  0.00    -0.047 A 
ATOM      3  C   UNL     1     -15.127  44.507  33.970  1.00  0.00     0.049 A 
ATOM      4  C   UNL     1     -13.763  44.484  33.652  1.00  0.00     0.119 A 
ATOM      5  C   UNL     1     -13.355  44.442  32.286  1.00  0.00    -0.004 A 
ATOM      6  C   UNL     1     -14.359  44.437  31.294  1.00  0.00     0.008 A 
ATOM      7  C   UNL     1     -15.711  44.461  31.631  1.00  0.00     0.004 A 
ENDROOT
BRANCH   4   8
ATOM      8  O   UNL     1     -12.874  44.508  34.728  1.00  0.00    -0.508 OA
ATOM      9  H   UNL     1     -12.061  43.922  34.819  1.00  0.00     0.293 HD
ENDBRANCH   4   8
BRANCH   5  10
ATOM     10  C   UNL     1     -11.902  44.409  31.814  1.00  0.00     0.017 C 
ATOM     11  C   UNL     1     -11.735  44.861  30.356  1.00  0.00     0.012 C 
ATOM     12  C   UNL     1     -11.207  43.073  32.114  1.00  0.00     0.012 C 
ENDBRANCH   5  10
TORSDOF 2
ENDMDL
MODEL 6
REMARK VINA RESULT:    -4.784      3.079      3.773
REMARK INTER + INTRA:          -5.388
REMARK INTER:                  -5.210
REMARK INTRA:                  -0.178
REMARK UNBOUND:                -0.185
REMARK SMILES Cc1ccc(C(C)C)c(O)c1
REMARK SMILES IDX 1 1 2 2 11 3 9 4 5 5 4 6 3 7 10 8 6 10 7 11 8 12
REMARK H PARENT 10 9
REMARK Flexibility Score: inf
ROOT
ATOM      1  C   UNL     1     -16.749  38.332  30.827  1.00  0.00     0.044 C 
ATOM      2  C   UNL     1     -16.969  39.770  31.190  1.00  0.00    -0.047 A 
ATOM      3  C   UNL     1     -17.924  40.117  32.153  1.00  0.00     0.049 A 
ATOM      4  C   UNL     1     -18.172  41.456  32.479  1.00  0.00     0.119 A 
ATOM      5  C   UNL     1     -17.450  42.492  31.815  1.00  0.00    -0.004 A 
ATOM      6  C   UNL     1     -16.508  42.120  30.832  1.00  0.00     0.008 A 
ATOM      7  C   UNL     1     -16.276  40.780  30.521  1.00  0.00     0.004 A 
ENDROOT
BRANCH   4   8
ATOM      8  O   UNL     1     -19.139  41.688  33.458  1.00  0.00    -0.508 OA
ATOM      9  H   UNL     1     -19.937  42.291  33.352  1.00  0.00     0.293 HD
ENDBRANCH   4   8
BRANCH   5  10
ATOM     10  C   UNL     1     -17.626  43.985  32.087  1.00  0.00     0.017 C 
ATOM     11  C   UNL     1     -17.243  44.862  30.886  1.00  0.00     0.012 C 
ATOM     12  C   UNL     1     -16.966  44.436  33.397  1.00  0.00     0.012 C 
ENDBRANCH   5  10
TORSDOF 2
ENDMDL
MODEL 7
REMARK VINA RESULT:    -4.727      2.064      4.200
REMARK INTER + INTRA:          -5.326
REMARK INTER:                  -5.205
REMARK INTRA:                  -0.121
REMARK UNBOUND:                -0.185
REMARK SMILES Cc1ccc(C(C)C)c(O)c1
REMARK SMILES IDX 1 1 2 2 11 3 9 4 5 5 4 6 3 7 10 8 6 10 7 11 8 12
REMARK H PARENT 10 9
REMARK Flexibility Score: inf
ROOT
ATOM      1  C   UNL     1     -14.650  42.246  28.090  1.00  0.00     0.044 C 
ATOM      2  C   UNL     1     -15.616  42.609  29.179  1.00  0.00    -0.047 A 
ATOM      3  C   UNL     1     -16.118  43.912  29.271  1.00  0.00     0.049 A 
ATOM      4  C   UNL     1     -16.991  44.281  30.303  1.00  0.00     0.119 A 
ATOM      5  C   UNL     1     -17.371  43.321  31.287  1.00  0.00    -0.004 A 
ATOM      6  C   UNL     1     -16.835  42.020  31.186  1.00  0.00     0.008 A 
ATOM      7  C   UNL     1     -15.966  41.671  30.152  1.00  0.00     0.004 A 
ENDROOT
BRANCH   4   8
ATOM      8  O   UNL     1     -17.437  45.604  30.295  1.00  0.00    -0.508 OA
ATOM      9  H   UNL     1     -18.072  45.995  29.620  1.00  0.00     0.293 HD
ENDBRANCH   4   8
BRANCH   5  10
ATOM     10  C   UNL     1     -18.318  43.601  32.453  1.00  0.00     0.017 C 
ATOM     11  C   UNL     1     -17.744  44.603  33.464  1.00  0.00     0.012 C 
ATOM     12  C   UNL     1     -18.852  42.321  33.110  1.00  0.00     0.012 C 
ENDBRANCH   5  10
TORSDOF 2
ENDMDL
MODEL 8
REMARK VINA RESULT:    -4.706      1.849      4.548
REMARK INTER + INTRA:          -5.304
REMARK INTER:                  -5.126
REMARK INTRA:                  -0.178
REMARK UNBOUND:                -0.185
REMARK SMILES Cc1ccc(C(C)C)c(O)c1
REMARK SMILES IDX 1 1 2 2 11 3 9 4 5 5 4 6 3 7 10 8 6 10 7 11 8 12
REMARK H PARENT 10 9
REMARK Flexibility Score: inf
ROOT
ATOM      1  C   UNL     1     -13.433  44.769  30.482  1.00  0.00     0.044 C 
ATOM      2  C   UNL     1     -14.631  44.390  31.302  1.00  0.00    -0.047 A 
ATOM      3  C   UNL     1     -14.468  43.881  32.595  1.00  0.00     0.049 A 
ATOM      4  C   UNL     1     -15.572  43.486  33.363  1.00  0.00     0.119 A 
ATOM      5  C   UNL     1     -16.886  43.591  32.821  1.00  0.00    -0.004 A 
ATOM      6  C   UNL     1     -17.024  44.087  31.506  1.00  0.00     0.008 A 
ATOM      7  C   UNL     1     -15.913  44.474  30.757  1.00  0.00     0.004 A 
ENDROOT
BRANCH   4   8
ATOM      8  O   UNL     1     -15.296  43.001  34.642  1.00  0.00    -0.508 OA
ATOM      9  H   UNL     1     -14.384  42.742  34.978  1.00  0.00     0.293 HD
ENDBRANCH   4   8
BRANCH   5  10
ATOM     10  C   UNL     1     -18.165  43.200  33.560  1.00  0.00     0.017 C 
ATOM     11  C   UNL     1     -18.708  41.828  33.133  1.00  0.00     0.012 C 
ATOM     12  C   UNL     1     -19.231  44.304  33.535  1.00  0.00     0.012 C 
ENDBRANCH   5  10
TORSDOF 2
ENDMDL
MODEL 9
REMARK VINA RESULT:    -4.617      1.973      2.609
REMARK INTER + INTRA:          -5.207
REMARK INTER:                  -5.034
REMARK INTRA:                  -0.173
REMARK UNBOUND:                -0.185
REMARK SMILES Cc1ccc(C(C)C)c(O)c1
REMARK SMILES IDX 1 1 2 2 11 3 9 4 5 5 4 6 3 7 10 8 6 10 7 11 8 12
REMARK H PARENT 10 9
REMARK Flexibility Score: inf
ROOT
ATOM      1  C   UNL     1     -19.409  42.225  34.153  1.00  0.00     0.044 C 
ATOM      2  C   UNL     1     -18.535  42.673  33.019  1.00  0.00    -0.047 A 
ATOM      3  C   UNL     1     -17.874  41.731  32.223  1.00  0.00     0.049 A 
ATOM      4  C   UNL     1     -17.024  42.130  31.183  1.00  0.00     0.119 A 
ATOM      5  C   UNL     1     -16.815  43.517  30.932  1.00  0.00    -0.004 A 
ATOM      6  C   UNL     1     -17.475  44.449  31.762  1.00  0.00     0.008 A 
ATOM      7  C   UNL     1     -18.317  44.033  32.793  1.00  0.00     0.004 A 
ENDROOT
BRANCH   4   8
ATOM      8  O   UNL     1     -16.422  41.107  30.447  1.00  0.00    -0.508 OA
ATOM      9  H   UNL     1     -15.493  40.754  30.601  1.00  0.00     0.293 HD
ENDBRANCH   4   8
BRANCH   5  10
ATOM     10  C   UNL     1     -15.919  44.075  29.827  1.00  0.00     0.017 C 
ATOM     11  C   UNL     1     -14.729  44.881  30.369  1.00  0.00     0.012 C 
ATOM     12  C   UNL     1     -16.704  44.819  28.739  1.00  0.00     0.012 C 
ENDBRANCH   5  10
TORSDOF 2
ENDMDL
