MODEL 1
REMARK VINA RESULT:    -3.546      0.000      0.000
REMARK INTER + INTRA:          -7.525
REMARK INTER:                  -6.033
REMARK INTRA:                  -1.492
REMARK UNBOUND:                -1.492
REMARK SMILES CCCCCCCCCCCCCC(=O)[O-]
REMARK SMILES IDX 8 1 9 2 10 3 11 4 12 5 13 6 14 7 15 8 16 9 7 10 6 11 5 12
REMARK SMILES IDX 4 13 3 14 2 15 1 16
REMARK H PARENT
REMARK Flexibility Score: inf
ROOT
ATOM      1  C   UNL     1      -6.428 -62.642  -0.998  1.00  0.00     0.000 C 
ENDROOT
BRANCH   1   2
ATOM      2  C   UNL     1      -5.272 -63.594  -1.349  1.00  0.00     0.000 C 
BRANCH   2   3
ATOM      3  C   UNL     1      -5.758 -64.898  -2.001  1.00  0.00     0.000 C 
BRANCH   3   4
ATOM      4  C   UNL     1      -5.133 -66.149  -1.366  1.00  0.00     0.000 C 
BRANCH   4   5
ATOM      5  C   UNL     1      -4.934 -67.254  -2.414  1.00  0.00     0.006 C 
BRANCH   5   6
ATOM      6  C   UNL     1      -4.162 -66.759  -3.643  1.00  0.00     0.053 C 
BRANCH   6   7
ATOM      7  C   UNL     1      -4.191 -67.760  -4.757  1.00  0.00     0.041 C 
ATOM      8  O   UNL     1      -3.536 -67.554  -5.812  1.00  0.00    -0.550 OA
ATOM      9  O   UNL     1      -4.966 -68.907  -4.642  1.00  0.00    -0.550 OA
ENDBRANCH   6   7
ENDBRANCH   5   6
ENDBRANCH   4   5
ENDBRANCH   3   4
ENDBRANCH   2   3
ENDBRANCH   1   2
BRANCH   1  10
ATOM     10  C   UNL     1      -7.096 -62.992   0.342  1.00  0.00     0.000 C 
BRANCH  10  11
ATOM     11  C   UNL     1      -6.115 -63.611   1.350  1.00  0.00    -0.000 C 
BRANCH  11  12
ATOM     12  C   UNL     1      -6.572 -65.017   1.768  1.00  0.00    -0.000 C 
BRANCH  12  13
ATOM     13  C   UNL     1      -8.097 -65.205   1.669  1.00  0.00    -0.000 C 
BRANCH  13  14
ATOM     14  C   UNL     1      -8.551 -66.554   1.084  1.00  0.00    -0.000 C 
BRANCH  14  15
ATOM     15  C   UNL     1      -8.707 -66.523  -0.443  1.00  0.00    -0.003 C 
ATOM     16  C   UNL     1      -8.991 -67.917  -0.996  1.00  0.00     0.004 C 
ENDBRANCH  14  15
ENDBRANCH  13  14
ENDBRANCH  12  13
ENDBRANCH  11  12
ENDBRANCH  10  11
ENDBRANCH   1  10
TORSDOF 12
ENDMDL
MODEL 2
REMARK VINA RESULT:    -3.462      1.517      2.804
REMARK INTER + INTRA:          -7.383
REMARK INTER:                  -6.072
REMARK INTRA:                  -1.310
REMARK UNBOUND:                -1.492
REMARK SMILES CCCCCCCCCCCCCC(=O)[O-]
REMARK SMILES IDX 8 1 9 2 10 3 11 4 12 5 13 6 14 7 15 8 16 9 7 10 6 11 5 12
REMARK SMILES IDX 4 13 3 14 2 15 1 16
REMARK H PARENT
REMARK Flexibility Score: inf
ROOT
ATOM      1  C   UNL     1      -6.827 -64.805  -1.476  1.00  0.00     0.000 C 
ENDROOT
BRANCH   1   2
ATOM      2  C   UNL     1      -5.834 -65.309  -0.414  1.00  0.00     0.000 C 
BRANCH   2   3
ATOM      3  C   UNL     1      -4.716 -66.175  -1.016  1.00  0.00     0.000 C 
BRANCH   3   4
ATOM      4  C   UNL     1      -5.196 -67.024  -2.202  1.00  0.00     0.000 C 
BRANCH   4   5
ATOM      5  C   UNL     1      -4.294 -66.814  -3.428  1.00  0.00     0.006 C 
BRANCH   5   6
ATOM      6  C   UNL     1      -4.489 -67.906  -4.487  1.00  0.00     0.053 C 
BRANCH   6   7
ATOM      7  C   UNL     1      -4.023 -67.458  -5.839  1.00  0.00     0.041 C 
ATOM      8  O   UNL     1      -4.187 -68.198  -6.844  1.00  0.00    -0.550 OA
ATOM      9  O   UNL     1      -3.378 -66.236  -5.982  1.00  0.00    -0.550 OA
ENDBRANCH   6   7
ENDBRANCH   5   6
ENDBRANCH   4   5
ENDBRANCH   3   4
ENDBRANCH   2   3
ENDBRANCH   1   2
BRANCH   1  10
ATOM     10  C   UNL     1      -8.246 -64.613  -0.915  1.00  0.00     0.000 C 
BRANCH  10  11
ATOM     11  C   UNL     1      -8.867 -65.925  -0.412  1.00  0.00    -0.000 C 
BRANCH  11  12
ATOM     12  C   UNL     1      -9.243 -65.820   1.074  1.00  0.00    -0.000 C 
BRANCH  12  13
ATOM     13  C   UNL     1      -8.337 -66.670   1.984  1.00  0.00    -0.000 C 
BRANCH  13  14
ATOM     14  C   UNL     1      -7.454 -65.870   2.957  1.00  0.00    -0.000 C 
BRANCH  14  15
ATOM     15  C   UNL     1      -7.755 -64.364   2.939  1.00  0.00    -0.003 C 
ATOM     16  C   UNL     1      -6.492 -63.553   2.665  1.00  0.00     0.004 C 
ENDBRANCH  14  15
ENDBRANCH  13  14
ENDBRANCH  12  13
ENDBRANCH  11  12
ENDBRANCH  10  11
ENDBRANCH   1  10
TORSDOF 12
ENDMDL
MODEL 3
REMARK VINA RESULT:    -3.456      1.642      2.484
REMARK INTER + INTRA:          -7.372
REMARK INTER:                  -5.955
REMARK INTRA:                  -1.417
REMARK UNBOUND:                -1.492
REMARK SMILES CCCCCCCCCCCCCC(=O)[O-]
REMARK SMILES IDX 8 1 9 2 10 3 11 4 12 5 13 6 14 7 15 8 16 9 7 10 6 11 5 12
REMARK SMILES IDX 4 13 3 14 2 15 1 16
REMARK H PARENT
REMARK Flexibility Score: inf
ROOT
ATOM      1  C   UNL     1      -4.822 -64.895  -0.507  1.00  0.00     0.000 C 
ENDROOT
BRANCH   1   2
ATOM      2  C   UNL     1      -4.545 -65.624  -1.834  1.00  0.00     0.000 C 
BRANCH   2   3
ATOM      3  C   UNL     1      -5.399 -66.890  -2.002  1.00  0.00     0.000 C 
BRANCH   3   4
ATOM      4  C   UNL     1      -4.865 -67.827  -3.095  1.00  0.00     0.000 C 
BRANCH   4   5
ATOM      5  C   UNL     1      -3.914 -67.080  -4.042  1.00  0.00     0.006 C 
BRANCH   5   6
ATOM      6  C   UNL     1      -4.341 -67.201  -5.510  1.00  0.00     0.053 C 
BRANCH   6   7
ATOM      7  C   UNL     1      -4.513 -65.857  -6.151  1.00  0.00     0.041 C 
ATOM      8  O   UNL     1      -5.507 -65.629  -6.888  1.00  0.00    -0.550 OA
ATOM      9  O   UNL     1      -3.558 -64.867  -5.958  1.00  0.00    -0.550 OA
ENDBRANCH   6   7
ENDBRANCH   5   6
ENDBRANCH   4   5
ENDBRANCH   3   4
ENDBRANCH   2   3
ENDBRANCH   1   2
BRANCH   1  10
ATOM     10  C   UNL     1      -5.259 -63.436  -0.714  1.00  0.00     0.000 C 
BRANCH  10  11
ATOM     11  C   UNL     1      -6.751 -63.215  -0.422  1.00  0.00    -0.000 C 
BRANCH  11  12
ATOM     12  C   UNL     1      -7.618 -63.720  -1.586  1.00  0.00    -0.000 C 
BRANCH  12  13
ATOM     13  C   UNL     1      -8.638 -64.790  -1.154  1.00  0.00    -0.000 C 
BRANCH  13  14
ATOM     14  C   UNL     1      -8.477 -65.299   0.290  1.00  0.00    -0.000 C 
BRANCH  14  15
ATOM     15  C   UNL     1      -8.511 -66.830   0.393  1.00  0.00    -0.003 C 
ATOM     16  C   UNL     1      -8.910 -67.462  -0.938  1.00  0.00     0.004 C 
ENDBRANCH  14  15
ENDBRANCH  13  14
ENDBRANCH  12  13
ENDBRANCH  11  12
ENDBRANCH  10  11
ENDBRANCH   1  10
TORSDOF 12
ENDMDL
MODEL 4
REMARK VINA RESULT:    -3.452      2.475      4.045
REMARK INTER + INTRA:          -7.365
REMARK INTER:                  -6.311
REMARK INTRA:                  -1.054
REMARK UNBOUND:                -1.492
REMARK SMILES CCCCCCCCCCCCCC(=O)[O-]
REMARK SMILES IDX 8 1 9 2 10 3 11 4 12 5 13 6 14 7 15 8 16 9 7 10 6 11 5 12
REMARK SMILES IDX 4 13 3 14 2 15 1 16
REMARK H PARENT
REMARK Flexibility Score: inf
ROOT
ATOM      1  C   UNL     1      -4.959 -67.312  -2.624  1.00  0.00     0.000 C 
ENDROOT
BRANCH   1   2
ATOM      2  C   UNL     1      -4.748 -68.120  -3.917  1.00  0.00     0.000 C 
BRANCH   2   3
ATOM      3  C   UNL     1      -3.715 -67.474  -4.854  1.00  0.00     0.000 C 
BRANCH   3   4
ATOM      4  C   UNL     1      -4.263 -67.235  -6.268  1.00  0.00     0.000 C 
BRANCH   4   5
ATOM      5  C   UNL     1      -4.275 -65.737  -6.607  1.00  0.00     0.006 C 
BRANCH   5   6
ATOM      6  C   UNL     1      -5.696 -65.200  -6.820  1.00  0.00     0.053 C 
BRANCH   6   7
ATOM      7  C   UNL     1      -6.195 -65.484  -8.204  1.00  0.00     0.041 C 
ATOM      8  O   UNL     1      -7.411 -65.742  -8.399  1.00  0.00    -0.550 OA
ATOM      9  O   UNL     1      -5.309 -65.495  -9.274  1.00  0.00    -0.550 OA
ENDBRANCH   6   7
ENDBRANCH   5   6
ENDBRANCH   4   5
ENDBRANCH   3   4
ENDBRANCH   2   3
ENDBRANCH   1   2
BRANCH   1  10
ATOM     10  C   UNL     1      -4.549 -65.838  -2.774  1.00  0.00     0.000 C 
BRANCH  10  11
ATOM     11  C   UNL     1      -5.383 -64.897  -1.891  1.00  0.00    -0.000 C 
BRANCH  11  12
ATOM     12  C   UNL     1      -5.664 -65.536  -0.522  1.00  0.00    -0.000 C 
BRANCH  12  13
ATOM     13  C   UNL     1      -7.068 -65.206   0.017  1.00  0.00    -0.000 C 
BRANCH  13  14
ATOM     14  C   UNL     1      -7.943 -66.428   0.348  1.00  0.00    -0.000 C 
BRANCH  14  15
ATOM     15  C   UNL     1      -8.962 -66.751  -0.754  1.00  0.00    -0.003 C 
ATOM     16  C   UNL     1      -8.968 -68.243  -1.078  1.00  0.00     0.004 C 
ENDBRANCH  14  15
ENDBRANCH  13  14
ENDBRANCH  12  13
ENDBRANCH  11  12
ENDBRANCH  10  11
ENDBRANCH   1  10
TORSDOF 12
ENDMDL
MODEL 5
REMARK VINA RESULT:    -3.380      3.494      6.855
REMARK INTER + INTRA:          -7.242
REMARK INTER:                  -6.401
REMARK INTRA:                  -0.842
REMARK UNBOUND:                -1.492
REMARK SMILES CCCCCCCCCCCCCC(=O)[O-]
REMARK SMILES IDX 8 1 9 2 10 3 11 4 12 5 13 6 14 7 15 8 16 9 7 10 6 11 5 12
REMARK SMILES IDX 4 13 3 14 2 15 1 16
REMARK H PARENT
REMARK Flexibility Score: inf
ROOT
ATOM      1  C   UNL     1      -4.147 -65.895  -3.598  1.00  0.00     0.000 C 
ENDROOT
BRANCH   1   2
ATOM      2  C   UNL     1      -4.642 -67.258  -3.084  1.00  0.00     0.000 C 
BRANCH   2   3
ATOM      3  C   UNL     1      -5.540 -67.131  -1.844  1.00  0.00     0.000 C 
BRANCH   3   4
ATOM      4  C   UNL     1      -5.322 -65.815  -1.084  1.00  0.00     0.000 C 
BRANCH   4   5
ATOM      5  C   UNL     1      -6.441 -65.580  -0.059  1.00  0.00     0.006 C 
BRANCH   5   6
ATOM      6  C   UNL     1      -7.837 -65.713  -0.682  1.00  0.00     0.053 C 
BRANCH   6   7
ATOM      7  C   UNL     1      -8.661 -66.749   0.019  1.00  0.00     0.041 C 
ATOM      8  O   UNL     1      -9.390 -67.534  -0.642  1.00  0.00    -0.550 OA
ATOM      9  O   UNL     1      -8.648 -66.827   1.406  1.00  0.00    -0.550 OA
ENDBRANCH   6   7
ENDBRANCH   5   6
ENDBRANCH   4   5
ENDBRANCH   3   4
ENDBRANCH   2   3
ENDBRANCH   1   2
BRANCH   1  10
ATOM     10  C   UNL     1      -3.890 -65.892  -5.113  1.00  0.00     0.000 C 
BRANCH  10  11
ATOM     11  C   UNL     1      -3.709 -67.305  -5.687  1.00  0.00    -0.000 C 
BRANCH  11  12
ATOM     12  C   UNL     1      -4.415 -67.441  -7.045  1.00  0.00    -0.000 C 
BRANCH  12  13
ATOM     13  C   UNL     1      -4.547 -66.099  -7.789  1.00  0.00    -0.000 C 
BRANCH  13  14
ATOM     14  C   UNL     1      -5.991 -65.647  -8.067  1.00  0.00    -0.000 C 
BRANCH  14  15
ATOM     15  C   UNL     1      -6.302 -64.252  -7.503  1.00  0.00    -0.003 C 
ATOM     16  C   UNL     1      -7.778 -64.123  -7.138  1.00  0.00     0.004 C 
ENDBRANCH  14  15
ENDBRANCH  13  14
ENDBRANCH  12  13
ENDBRANCH  11  12
ENDBRANCH  10  11
ENDBRANCH   1  10
TORSDOF 12
ENDMDL
MODEL 6
REMARK VINA RESULT:    -3.372      1.858      3.744
REMARK INTER + INTRA:          -7.230
REMARK INTER:                  -5.263
REMARK INTRA:                  -1.967
REMARK UNBOUND:                -1.492
REMARK SMILES CCCCCCCCCCCCCC(=O)[O-]
REMARK SMILES IDX 8 1 9 2 10 3 11 4 12 5 13 6 14 7 15 8 16 9 7 10 6 11 5 12
REMARK SMILES IDX 4 13 3 14 2 15 1 16
REMARK H PARENT
REMARK Flexibility Score: inf
ROOT
ATOM      1  C   UNL     1      -9.233 -65.764   0.686  1.00  0.00     0.000 C 
ENDROOT
BRANCH   1   2
ATOM      2  C   UNL     1      -8.345 -65.453  -0.531  1.00  0.00     0.000 C 
BRANCH   2   3
ATOM      3  C   UNL     1      -7.286 -66.538  -0.781  1.00  0.00     0.000 C 
BRANCH   3   4
ATOM      4  C   UNL     1      -5.858 -65.974  -0.833  1.00  0.00     0.000 C 
BRANCH   4   5
ATOM      5  C   UNL     1      -5.857 -64.531  -1.357  1.00  0.00     0.006 C 
BRANCH   5   6
ATOM      6  C   UNL     1      -5.240 -64.421  -2.758  1.00  0.00     0.053 C 
BRANCH   6   7
ATOM      7  C   UNL     1      -3.895 -65.076  -2.825  1.00  0.00     0.041 C 
ATOM      8  O   UNL     1      -2.922 -64.595  -2.186  1.00  0.00    -0.550 OA
ATOM      9  O   UNL     1      -3.707 -66.201  -3.617  1.00  0.00    -0.550 OA
ENDBRANCH   6   7
ENDBRANCH   5   6
ENDBRANCH   4   5
ENDBRANCH   3   4
ENDBRANCH   2   3
ENDBRANCH   1   2
BRANCH   1  10
ATOM     10  C   UNL     1      -8.502 -66.592   1.755  1.00  0.00     0.000 C 
BRANCH  10  11
ATOM     11  C   UNL     1      -8.835 -66.141   3.186  1.00  0.00    -0.000 C 
BRANCH  11  12
ATOM     12  C   UNL     1      -7.841 -65.074   3.669  1.00  0.00    -0.000 C 
BRANCH  12  13
ATOM     13  C   UNL     1      -6.493 -65.129   2.927  1.00  0.00    -0.000 C 
BRANCH  13  14
ATOM     14  C   UNL     1      -6.033 -63.796   2.310  1.00  0.00    -0.000 C 
BRANCH  14  15
ATOM     15  C   UNL     1      -7.079 -62.681   2.447  1.00  0.00    -0.003 C 
ATOM     16  C   UNL     1      -7.623 -62.266   1.082  1.00  0.00     0.004 C 
ENDBRANCH  14  15
ENDBRANCH  13  14
ENDBRANCH  12  13
ENDBRANCH  11  12
ENDBRANCH  10  11
ENDBRANCH   1  10
TORSDOF 12
ENDMDL
MODEL 7
REMARK VINA RESULT:    -3.345      3.040      6.318
REMARK INTER + INTRA:          -7.183
REMARK INTER:                  -5.536
REMARK INTRA:                  -1.647
REMARK UNBOUND:                -1.492
REMARK SMILES CCCCCCCCCCCCCC(=O)[O-]
REMARK SMILES IDX 8 1 9 2 10 3 11 4 12 5 13 6 14 7 15 8 16 9 7 10 6 11 5 12
REMARK SMILES IDX 4 13 3 14 2 15 1 16
REMARK H PARENT
REMARK Flexibility Score: inf
ROOT
ATOM      1  C   UNL     1      -5.729 -67.204  -1.874  1.00  0.00     0.000 C 
ENDROOT
BRANCH   1   2
ATOM      2  C   UNL     1      -4.865 -66.078  -1.278  1.00  0.00     0.000 C 
BRANCH   2   3
ATOM      3  C   UNL     1      -5.709 -64.950  -0.663  1.00  0.00     0.000 C 
BRANCH   3   4
ATOM      4  C   UNL     1      -6.841 -64.482  -1.589  1.00  0.00     0.000 C 
BRANCH   4   5
ATOM      5  C   UNL     1      -8.213 -64.724  -0.944  1.00  0.00     0.006 C 
BRANCH   5   6
ATOM      6  C   UNL     1      -8.102 -65.079   0.545  1.00  0.00     0.053 C 
BRANCH   6   7
ATOM      7  C   UNL     1      -8.572 -66.475   0.818  1.00  0.00     0.041 C 
ATOM      8  O   UNL     1      -9.052 -67.176  -0.110  1.00  0.00    -0.550 OA
ATOM      9  O   UNL     1      -8.510 -66.990   2.107  1.00  0.00    -0.550 OA
ENDBRANCH   6   7
ENDBRANCH   5   6
ENDBRANCH   4   5
ENDBRANCH   3   4
ENDBRANCH   2   3
ENDBRANCH   1   2
BRANCH   1  10
ATOM     10  C   UNL     1      -5.094 -67.839  -3.121  1.00  0.00     0.000 C 
BRANCH  10  11
ATOM     11  C   UNL     1      -4.073 -66.915  -3.803  1.00  0.00    -0.000 C 
BRANCH  11  12
ATOM     12  C   UNL     1      -4.383 -66.766  -5.301  1.00  0.00    -0.000 C 
BRANCH  12  13
ATOM     13  C   UNL     1      -4.542 -65.298  -5.737  1.00  0.00    -0.000 C 
BRANCH  13  14
ATOM     14  C   UNL     1      -4.757 -64.296  -4.589  1.00  0.00    -0.000 C 
BRANCH  14  15
ATOM     15  C   UNL     1      -3.588 -63.315  -4.422  1.00  0.00    -0.003 C 
ATOM     16  C   UNL     1      -3.015 -63.378  -3.009  1.00  0.00     0.004 C 
ENDBRANCH  14  15
ENDBRANCH  13  14
ENDBRANCH  12  13
ENDBRANCH  11  12
ENDBRANCH  10  11
ENDBRANCH   1  10
TORSDOF 12
ENDMDL
MODEL 8
REMARK VINA RESULT:    -3.342      1.953      3.184
REMARK INTER + INTRA:          -7.178
REMARK INTER:                  -6.130
REMARK INTRA:                  -1.049
REMARK UNBOUND:                -1.492
REMARK SMILES CCCCCCCCCCCCCC(=O)[O-]
REMARK SMILES IDX 8 1 9 2 10 3 11 4 12 5 13 6 14 7 15 8 16 9 7 10 6 11 5 12
REMARK SMILES IDX 4 13 3 14 2 15 1 16
REMARK H PARENT
REMARK Flexibility Score: inf
ROOT
ATOM      1  C   UNL     1      -4.876 -64.226  -3.858  1.00  0.00     0.000 C 
ENDROOT
BRANCH   1   2
ATOM      2  C   UNL     1      -3.835 -65.333  -3.616  1.00  0.00     0.000 C 
BRANCH   2   3
ATOM      3  C   UNL     1      -4.475 -66.657  -3.169  1.00  0.00     0.000 C 
BRANCH   3   4
ATOM      4  C   UNL     1      -4.463 -67.726  -4.273  1.00  0.00     0.000 C 
BRANCH   4   5
ATOM      5  C   UNL     1      -3.753 -67.206  -5.532  1.00  0.00     0.006 C 
BRANCH   5   6
ATOM      6  C   UNL     1      -4.150 -67.991  -6.789  1.00  0.00     0.053 C 
BRANCH   6   7
ATOM      7  C   UNL     1      -4.732 -67.097  -7.841  1.00  0.00     0.041 C 
ATOM      8  O   UNL     1      -4.465 -67.290  -9.056  1.00  0.00    -0.550 OA
ATOM      9  O   UNL     1      -5.542 -66.030  -7.476  1.00  0.00    -0.550 OA
ENDBRANCH   6   7
ENDBRANCH   5   6
ENDBRANCH   4   5
ENDBRANCH   3   4
ENDBRANCH   2   3
ENDBRANCH   1   2
BRANCH   1  10
ATOM     10  C   UNL     1      -5.445 -63.654  -2.549  1.00  0.00     0.000 C 
BRANCH  10  11
ATOM     11  C   UNL     1      -6.963 -63.428  -2.610  1.00  0.00    -0.000 C 
BRANCH  11  12
ATOM     12  C   UNL     1      -7.661 -64.055  -1.394  1.00  0.00    -0.000 C 
BRANCH  12  13
ATOM     13  C   UNL     1      -6.816 -65.150  -0.716  1.00  0.00    -0.000 C 
BRANCH  13  14
ATOM     14  C   UNL     1      -7.396 -66.573  -0.811  1.00  0.00    -0.000 C 
BRANCH  14  15
ATOM     15  C   UNL     1      -8.726 -66.729  -0.059  1.00  0.00    -0.003 C 
ATOM     16  C   UNL     1      -8.531 -66.561   1.445  1.00  0.00     0.004 C 
ENDBRANCH  14  15
ENDBRANCH  13  14
ENDBRANCH  12  13
ENDBRANCH  11  12
ENDBRANCH  10  11
ENDBRANCH   1  10
TORSDOF 12
ENDMDL
MODEL 9
REMARK VINA RESULT:    -3.322      4.767      7.012
REMARK INTER + INTRA:          -7.145
REMARK INTER:                  -5.408
REMARK INTRA:                  -1.737
REMARK UNBOUND:                -1.492
REMARK SMILES CCCCCCCCCCCCCC(=O)[O-]
REMARK SMILES IDX 8 1 9 2 10 3 11 4 12 5 13 6 14 7 15 8 16 9 7 10 6 11 5 12
REMARK SMILES IDX 4 13 3 14 2 15 1 16
REMARK H PARENT
REMARK Flexibility Score: inf
ROOT
ATOM      1  C   UNL     1      -7.789 -65.281   2.979  1.00  0.00     0.000 C 
ENDROOT
BRANCH   1   2
ATOM      2  C   UNL     1      -6.321 -64.863   2.786  1.00  0.00     0.000 C 
BRANCH   2   3
ATOM      3  C   UNL     1      -6.178 -63.400   2.337  1.00  0.00     0.000 C 
BRANCH   3   4
ATOM      4  C   UNL     1      -7.530 -62.737   2.031  1.00  0.00     0.000 C 
BRANCH   4   5
ATOM      5  C   UNL     1      -7.698 -61.439   2.834  1.00  0.00     0.006 C 
BRANCH   5   6
ATOM      6  C   UNL     1      -7.491 -60.189   1.968  1.00  0.00     0.053 C 
BRANCH   6   7
ATOM      7  C   UNL     1      -8.777 -59.457   1.734  1.00  0.00     0.041 C 
ATOM      8  O   UNL     1      -8.764 -58.235   1.432  1.00  0.00    -0.550 OA
ATOM      9  O   UNL     1      -9.990 -60.116   1.881  1.00  0.00    -0.550 OA
ENDBRANCH   6   7
ENDBRANCH   5   6
ENDBRANCH   4   5
ENDBRANCH   3   4
ENDBRANCH   2   3
ENDBRANCH   1   2
BRANCH   1  10
ATOM     10  C   UNL     1      -8.196 -66.450   2.067  1.00  0.00     0.000 C 
BRANCH  10  11
ATOM     11  C   UNL     1      -9.324 -66.079   1.093  1.00  0.00    -0.000 C 
BRANCH  11  12
ATOM     12  C   UNL     1      -8.909 -66.360  -0.360  1.00  0.00    -0.000 C 
BRANCH  12  13
ATOM     13  C   UNL     1      -8.512 -65.086  -1.127  1.00  0.00    -0.000 C 
BRANCH  13  14
ATOM     14  C   UNL     1      -7.016 -64.730  -1.070  1.00  0.00    -0.000 C 
BRANCH  14  15
ATOM     15  C   UNL     1      -6.104 -65.965  -1.101  1.00  0.00    -0.003 C 
ATOM     16  C   UNL     1      -4.760 -65.673  -0.440  1.00  0.00     0.004 C 
ENDBRANCH  14  15
ENDBRANCH  13  14
ENDBRANCH  12  13
ENDBRANCH  11  12
ENDBRANCH  10  11
ENDBRANCH   1  10
TORSDOF 12
ENDMDL
