MODEL 1
REMARK VINA RESULT:    -4.251      0.000      0.000
REMARK INTER + INTRA:         -13.796
REMARK INTER:                  -9.719
REMARK INTRA:                  -4.076
REMARK UNBOUND:                -4.076
REMARK SMILES CCCCCCCCCCCCCCCCCCCCCCCC(=O)[O-]
REMARK SMILES IDX 13 1 14 2 15 3 16 4 17 5 18 6 19 7 20 8 21 9 22 10 23 11
REMARK SMILES IDX 24 12 25 13 26 14 12 15 11 16 10 17 9 18 8 19 7 20 6 21 5 22
REMARK SMILES IDX 4 23 3 24 2 25 1 26
REMARK H PARENT
REMARK Flexibility Score: inf
ROOT
ATOM      1  C   UNL     1      51.202  -5.738  76.985  1.00  0.00     0.000 C 
ENDROOT
BRANCH   1   2
ATOM      2  C   UNL     1      50.251  -5.238  75.889  1.00  0.00     0.000 C 
BRANCH   2   3
ATOM      3  C   UNL     1      50.050  -6.307  74.805  1.00  0.00     0.000 C 
BRANCH   3   4
ATOM      4  C   UNL     1      48.574  -6.695  74.628  1.00  0.00     0.000 C 
BRANCH   4   5
ATOM      5  C   UNL     1      47.621  -5.503  74.831  1.00  0.00     0.000 C 
BRANCH   5   6
ATOM      6  C   UNL     1      47.003  -5.009  73.506  1.00  0.00     0.000 C 
BRANCH   6   7
ATOM      7  C   UNL     1      48.027  -4.390  72.536  1.00  0.00     0.000 C 
BRANCH   7   8
ATOM      8  C   UNL     1      48.283  -2.886  72.737  1.00  0.00     0.000 C 
BRANCH   8   9
ATOM      9  C   UNL     1      49.667  -2.388  72.272  1.00  0.00     0.000 C 
BRANCH   9  10
ATOM     10  C   UNL     1      50.809  -3.410  72.407  1.00  0.00     0.006 C 
BRANCH  10  11
ATOM     11  C   UNL     1      51.867  -2.995  73.438  1.00  0.00     0.053 C 
BRANCH  11  12
ATOM     12  C   UNL     1      53.103  -3.823  73.281  1.00  0.00     0.041 C 
ATOM     13  O   UNL     1      53.287  -4.833  74.010  1.00  0.00    -0.550 OA
ATOM     14  O   UNL     1      54.077  -3.451  72.363  1.00  0.00    -0.550 OA
ENDBRANCH  11  12
ENDBRANCH  10  11
ENDBRANCH   9  10
ENDBRANCH   8   9
ENDBRANCH   7   8
ENDBRANCH   6   7
ENDBRANCH   5   6
ENDBRANCH   4   5
ENDBRANCH   3   4
ENDBRANCH   2   3
ENDBRANCH   1   2
BRANCH   1  15
ATOM     15  C   UNL     1      50.440  -6.002  78.293  1.00  0.00     0.000 C 
BRANCH  15  16
ATOM     16  C   UNL     1      49.111  -5.234  78.366  1.00  0.00     0.000 C 
BRANCH  16  17
ATOM     17  C   UNL     1      47.910  -6.153  78.630  1.00  0.00     0.000 C 
BRANCH  17  18
ATOM     18  C   UNL     1      48.210  -7.584  78.170  1.00  0.00    -0.000 C 
BRANCH  18  19
ATOM     19  C   UNL     1      46.934  -8.436  78.124  1.00  0.00    -0.000 C 
BRANCH  19  20
ATOM     20  C   UNL     1      46.628  -8.980  76.718  1.00  0.00    -0.000 C 
BRANCH  20  21
ATOM     21  C   UNL     1      45.376  -8.355  76.067  1.00  0.00    -0.000 C 
BRANCH  21  22
ATOM     22  C   UNL     1      44.911  -9.137  74.829  1.00  0.00    -0.000 C 
BRANCH  22  23
ATOM     23  C   UNL     1      44.913  -8.246  73.578  1.00  0.00    -0.000 C 
BRANCH  23  24
ATOM     24  C   UNL     1      45.551  -8.937  72.363  1.00  0.00    -0.000 C 
BRANCH  24  25
ATOM     25  C   UNL     1      46.542  -8.028  71.621  1.00  0.00    -0.003 C 
ATOM     26  C   UNL     1      47.953  -8.607  71.659  1.00  0.00     0.004 C 
ENDBRANCH  24  25
ENDBRANCH  23  24
ENDBRANCH  22  23
ENDBRANCH  21  22
ENDBRANCH  20  21
ENDBRANCH  19  20
ENDBRANCH  18  19
ENDBRANCH  17  18
ENDBRANCH  16  17
ENDBRANCH  15  16
ENDBRANCH   1  15
TORSDOF 22
ENDMDL
MODEL 2
REMARK VINA RESULT:    -4.140      2.700      6.072
REMARK INTER + INTRA:         -13.541
REMARK INTER:                  -9.161
REMARK INTRA:                  -4.381
REMARK UNBOUND:                -4.076
REMARK SMILES CCCCCCCCCCCCCCCCCCCCCCCC(=O)[O-]
REMARK SMILES IDX 13 1 14 2 15 3 16 4 17 5 18 6 19 7 20 8 21 9 22 10 23 11
REMARK SMILES IDX 24 12 25 13 26 14 12 15 11 16 10 17 9 18 8 19 7 20 6 21 5 22
REMARK SMILES IDX 4 23 3 24 2 25 1 26
REMARK H PARENT
REMARK Flexibility Score: inf
ROOT
ATOM      1  C   UNL     1      49.436  -0.866  71.634  1.00  0.00     0.000 C 
ENDROOT
BRANCH   1   2
ATOM      2  C   UNL     1      50.680  -0.053  72.016  1.00  0.00     0.000 C 
BRANCH   2   3
ATOM      3  C   UNL     1      51.930  -0.945  72.056  1.00  0.00     0.000 C 
BRANCH   3   4
ATOM      4  C   UNL     1      51.839  -2.038  73.132  1.00  0.00     0.000 C 
BRANCH   4   5
ATOM      5  C   UNL     1      51.589  -3.435  72.534  1.00  0.00     0.000 C 
BRANCH   5   6
ATOM      6  C   UNL     1      50.367  -4.137  73.164  1.00  0.00     0.000 C 
BRANCH   6   7
ATOM      7  C   UNL     1      49.317  -4.596  72.134  1.00  0.00     0.000 C 
BRANCH   7   8
ATOM      8  C   UNL     1      47.867  -4.198  72.466  1.00  0.00     0.000 C 
BRANCH   8   9
ATOM      9  C   UNL     1      47.398  -4.558  73.890  1.00  0.00     0.000 C 
BRANCH   9  10
ATOM     10  C   UNL     1      46.356  -5.687  73.971  1.00  0.00     0.006 C 
BRANCH  10  11
ATOM     11  C   UNL     1      46.183  -6.440  72.645  1.00  0.00     0.053 C 
BRANCH  11  12
ATOM     12  C   UNL     1      46.911  -7.747  72.688  1.00  0.00     0.041 C 
ATOM     13  O   UNL     1      47.808  -8.001  71.841  1.00  0.00    -0.550 OA
ATOM     14  O   UNL     1      46.565  -8.705  73.632  1.00  0.00    -0.550 OA
ENDBRANCH  11  12
ENDBRANCH  10  11
ENDBRANCH   9  10
ENDBRANCH   8   9
ENDBRANCH   7   8
ENDBRANCH   6   7
ENDBRANCH   5   6
ENDBRANCH   4   5
ENDBRANCH   3   4
ENDBRANCH   2   3
ENDBRANCH   1   2
BRANCH   1  15
ATOM     15  C   UNL     1      48.230  -0.460  72.494  1.00  0.00     0.000 C 
BRANCH  15  16
ATOM     16  C   UNL     1      48.620  -0.150  73.947  1.00  0.00     0.000 C 
BRANCH  16  17
ATOM     17  C   UNL     1      48.362  -1.331  74.894  1.00  0.00     0.000 C 
BRANCH  17  18
ATOM     18  C   UNL     1      49.489  -1.454  75.927  1.00  0.00    -0.000 C 
BRANCH  18  19
ATOM     19  C   UNL     1      49.725  -2.918  76.323  1.00  0.00    -0.000 C 
BRANCH  19  20
ATOM     20  C   UNL     1      49.293  -3.224  77.767  1.00  0.00    -0.000 C 
BRANCH  20  21
ATOM     21  C   UNL     1      47.878  -3.829  77.878  1.00  0.00    -0.000 C 
BRANCH  21  22
ATOM     22  C   UNL     1      47.817  -4.989  78.884  1.00  0.00    -0.000 C 
BRANCH  22  23
ATOM     23  C   UNL     1      48.522  -6.237  78.332  1.00  0.00    -0.000 C 
BRANCH  23  24
ATOM     24  C   UNL     1      47.900  -6.733  77.017  1.00  0.00    -0.000 C 
BRANCH  24  25
ATOM     25  C   UNL     1      48.918  -7.447  76.116  1.00  0.00    -0.003 C 
ATOM     26  C   UNL     1      50.153  -6.580  75.889  1.00  0.00     0.004 C 
ENDBRANCH  24  25
ENDBRANCH  23  24
ENDBRANCH  22  23
ENDBRANCH  21  22
ENDBRANCH  20  21
ENDBRANCH  19  20
ENDBRANCH  18  19
ENDBRANCH  17  18
ENDBRANCH  16  17
ENDBRANCH  15  16
ENDBRANCH   1  15
TORSDOF 22
ENDMDL
MODEL 3
REMARK VINA RESULT:    -4.135      3.349      7.336
REMARK INTER + INTRA:         -13.529
REMARK INTER:                  -9.931
REMARK INTRA:                  -3.598
REMARK UNBOUND:                -4.076
REMARK SMILES CCCCCCCCCCCCCCCCCCCCCCCC(=O)[O-]
REMARK SMILES IDX 13 1 14 2 15 3 16 4 17 5 18 6 19 7 20 8 21 9 22 10 23 11
REMARK SMILES IDX 24 12 25 13 26 14 12 15 11 16 10 17 9 18 8 19 7 20 6 21 5 22
REMARK SMILES IDX 4 23 3 24 2 25 1 26
REMARK H PARENT
REMARK Flexibility Score: inf
ROOT
ATOM      1  C   UNL     1      51.198  -2.314  73.258  1.00  0.00     0.000 C 
ENDROOT
BRANCH   1   2
ATOM      2  C   UNL     1      51.284  -3.730  72.674  1.00  0.00     0.000 C 
BRANCH   2   3
ATOM      3  C   UNL     1      50.111  -4.005  71.722  1.00  0.00     0.000 C 
BRANCH   3   4
ATOM      4  C   UNL     1      49.027  -4.887  72.362  1.00  0.00     0.000 C 
BRANCH   4   5
ATOM      5  C   UNL     1      47.788  -4.082  72.791  1.00  0.00     0.000 C 
BRANCH   5   6
ATOM      6  C   UNL     1      47.835  -3.671  74.278  1.00  0.00     0.000 C 
BRANCH   6   7
ATOM      7  C   UNL     1      46.761  -4.356  75.145  1.00  0.00     0.000 C 
BRANCH   7   8
ATOM      8  C   UNL     1      45.696  -5.140  74.357  1.00  0.00     0.000 C 
BRANCH   8   9
ATOM      9  C   UNL     1      45.654  -6.656  74.642  1.00  0.00     0.000 C 
BRANCH   9  10
ATOM     10  C   UNL     1      46.660  -7.501  73.842  1.00  0.00     0.006 C 
BRANCH  10  11
ATOM     11  C   UNL     1      46.313  -7.593  72.350  1.00  0.00     0.053 C 
BRANCH  11  12
ATOM     12  C   UNL     1      45.824  -8.964  72.010  1.00  0.00     0.041 C 
ATOM     13  O   UNL     1      46.099  -9.477  70.893  1.00  0.00    -0.550 OA
ATOM     14  O   UNL     1      45.023  -9.659  72.908  1.00  0.00    -0.550 OA
ENDBRANCH  11  12
ENDBRANCH  10  11
ENDBRANCH   9  10
ENDBRANCH   8   9
ENDBRANCH   7   8
ENDBRANCH   6   7
ENDBRANCH   5   6
ENDBRANCH   4   5
ENDBRANCH   3   4
ENDBRANCH   2   3
ENDBRANCH   1   2
BRANCH   1  15
ATOM     15  C   UNL     1      51.471  -1.258  72.176  1.00  0.00     0.000 C 
BRANCH  15  16
ATOM     16  C   UNL     1      50.475  -0.089  72.229  1.00  0.00     0.000 C 
BRANCH  16  17
ATOM     17  C   UNL     1      49.079  -0.476  71.720  1.00  0.00     0.000 C 
BRANCH  17  18
ATOM     18  C   UNL     1      48.034  -0.317  72.829  1.00  0.00    -0.000 C 
BRANCH  18  19
ATOM     19  C   UNL     1      48.663   0.239  74.114  1.00  0.00    -0.000 C 
BRANCH  19  20
ATOM     20  C   UNL     1      47.882  -0.151  75.380  1.00  0.00    -0.000 C 
BRANCH  20  21
ATOM     21  C   UNL     1      48.778  -0.390  76.614  1.00  0.00    -0.000 C 
BRANCH  21  22
ATOM     22  C   UNL     1      48.428  -1.697  77.343  1.00  0.00    -0.000 C 
BRANCH  22  23
ATOM     23  C   UNL     1      49.604  -2.685  77.301  1.00  0.00    -0.000 C 
BRANCH  23  24
ATOM     24  C   UNL     1      49.737  -3.498  78.598  1.00  0.00    -0.000 C 
BRANCH  24  25
ATOM     25  C   UNL     1      49.435  -4.990  78.393  1.00  0.00    -0.003 C 
ATOM     26  C   UNL     1      47.954  -5.285  78.617  1.00  0.00     0.004 C 
ENDBRANCH  24  25
ENDBRANCH  23  24
ENDBRANCH  22  23
ENDBRANCH  21  22
ENDBRANCH  20  21
ENDBRANCH  19  20
ENDBRANCH  18  19
ENDBRANCH  17  18
ENDBRANCH  16  17
ENDBRANCH  15  16
ENDBRANCH   1  15
TORSDOF 22
ENDMDL
MODEL 4
REMARK VINA RESULT:    -4.081      1.867      4.673
REMARK INTER + INTRA:         -13.407
REMARK INTER:                  -9.699
REMARK INTRA:                  -3.708
REMARK UNBOUND:                -4.076
REMARK SMILES CCCCCCCCCCCCCCCCCCCCCCCC(=O)[O-]
REMARK SMILES IDX 13 1 14 2 15 3 16 4 17 5 18 6 19 7 20 8 21 9 22 10 23 11
REMARK SMILES IDX 24 12 25 13 26 14 12 15 11 16 10 17 9 18 8 19 7 20 6 21 5 22
REMARK SMILES IDX 4 23 3 24 2 25 1 26
REMARK H PARENT
REMARK Flexibility Score: inf
ROOT
ATOM      1  C   UNL     1      47.751  -5.139  74.681  1.00  0.00     0.000 C 
ENDROOT
BRANCH   1   2
ATOM      2  C   UNL     1      48.443  -3.789  74.909  1.00  0.00     0.000 C 
BRANCH   2   3
ATOM      3  C   UNL     1      47.441  -2.731  75.393  1.00  0.00     0.000 C 
BRANCH   3   4
ATOM      4  C   UNL     1      48.117  -1.592  76.173  1.00  0.00     0.000 C 
BRANCH   4   5
ATOM      5  C   UNL     1      49.026  -0.725  75.283  1.00  0.00     0.000 C 
BRANCH   5   6
ATOM      6  C   UNL     1      48.226   0.252  74.395  1.00  0.00     0.000 C 
BRANCH   6   7
ATOM      7  C   UNL     1      48.667   0.252  72.919  1.00  0.00     0.000 C 
BRANCH   7   8
ATOM      8  C   UNL     1      48.229  -0.982  72.111  1.00  0.00     0.000 C 
BRANCH   8   9
ATOM      9  C   UNL     1      49.324  -2.048  71.898  1.00  0.00     0.000 C 
BRANCH   9  10
ATOM     10  C   UNL     1      50.770  -1.537  72.029  1.00  0.00     0.006 C 
BRANCH  10  11
ATOM     11  C   UNL     1      51.679  -2.500  72.805  1.00  0.00     0.053 C 
BRANCH  11  12
ATOM     12  C   UNL     1      53.107  -2.306  72.406  1.00  0.00     0.041 C 
ATOM     13  O   UNL     1      53.922  -3.263  72.482  1.00  0.00    -0.550 OA
ATOM     14  O   UNL     1      53.551  -1.055  71.996  1.00  0.00    -0.550 OA
ENDBRANCH  11  12
ENDBRANCH  10  11
ENDBRANCH   9  10
ENDBRANCH   8   9
ENDBRANCH   7   8
ENDBRANCH   6   7
ENDBRANCH   5   6
ENDBRANCH   4   5
ENDBRANCH   3   4
ENDBRANCH   2   3
ENDBRANCH   1   2
BRANCH   1  15
ATOM     15  C   UNL     1      46.267  -5.068  75.075  1.00  0.00     0.000 C 
BRANCH  15  16
ATOM     16  C   UNL     1      45.342  -5.634  73.987  1.00  0.00     0.000 C 
BRANCH  16  17
ATOM     17  C   UNL     1      45.736  -7.054  73.555  1.00  0.00     0.000 C 
BRANCH  17  18
ATOM     18  C   UNL     1      44.648  -8.061  73.943  1.00  0.00    -0.000 C 
BRANCH  18  19
ATOM     19  C   UNL     1      44.683  -8.369  75.446  1.00  0.00    -0.000 C 
BRANCH  19  20
ATOM     20  C   UNL     1      46.084  -8.763  75.944  1.00  0.00    -0.000 C 
BRANCH  20  21
ATOM     21  C   UNL     1      46.463  -8.132  77.300  1.00  0.00    -0.000 C 
BRANCH  21  22
ATOM     22  C   UNL     1      47.946  -7.736  77.364  1.00  0.00    -0.000 C 
BRANCH  22  23
ATOM     23  C   UNL     1      48.201  -6.731  78.498  1.00  0.00    -0.000 C 
BRANCH  23  24
ATOM     24  C   UNL     1      49.391  -5.803  78.206  1.00  0.00    -0.000 C 
BRANCH  24  25
ATOM     25  C   UNL     1      49.095  -4.337  78.555  1.00  0.00    -0.003 C 
ATOM     26  C   UNL     1      47.633  -4.151  78.951  1.00  0.00     0.004 C 
ENDBRANCH  24  25
ENDBRANCH  23  24
ENDBRANCH  22  23
ENDBRANCH  21  22
ENDBRANCH  20  21
ENDBRANCH  19  20
ENDBRANCH  18  19
ENDBRANCH  17  18
ENDBRANCH  16  17
ENDBRANCH  15  16
ENDBRANCH   1  15
TORSDOF 22
ENDMDL
MODEL 5
REMARK VINA RESULT:    -4.062      3.328      7.779
REMARK INTER + INTRA:         -13.362
REMARK INTER:                  -9.526
REMARK INTRA:                  -3.836
REMARK UNBOUND:                -4.076
REMARK SMILES CCCCCCCCCCCCCCCCCCCCCCCC(=O)[O-]
REMARK SMILES IDX 13 1 14 2 15 3 16 4 17 5 18 6 19 7 20 8 21 9 22 10 23 11
REMARK SMILES IDX 24 12 25 13 26 14 12 15 11 16 10 17 9 18 8 19 7 20 6 21 5 22
REMARK SMILES IDX 4 23 3 24 2 25 1 26
REMARK H PARENT
REMARK Flexibility Score: inf
ROOT
ATOM      1  C   UNL     1      47.533  -4.483  73.418  1.00  0.00     0.000 C 
ENDROOT
BRANCH   1   2
ATOM      2  C   UNL     1      47.794  -4.234  74.909  1.00  0.00     0.000 C 
BRANCH   2   3
ATOM      3  C   UNL     1      47.725  -2.736  75.238  1.00  0.00     0.000 C 
BRANCH   3   4
ATOM      4  C   UNL     1      49.115  -2.111  75.436  1.00  0.00     0.000 C 
BRANCH   4   5
ATOM      5  C   UNL     1      49.984  -2.907  76.426  1.00  0.00     0.000 C 
BRANCH   5   6
ATOM      6  C   UNL     1      50.087  -2.221  77.805  1.00  0.00     0.000 C 
BRANCH   6   7
ATOM      7  C   UNL     1      49.537  -3.073  78.965  1.00  0.00     0.000 C 
BRANCH   7   8
ATOM      8  C   UNL     1      49.554  -4.592  78.717  1.00  0.00     0.000 C 
BRANCH   8   9
ATOM      9  C   UNL     1      48.164  -5.251  78.594  1.00  0.00     0.000 C 
BRANCH   9  10
ATOM     10  C   UNL     1      48.131  -6.562  77.790  1.00  0.00     0.006 C 
BRANCH  10  11
ATOM     11  C   UNL     1      47.119  -7.577  78.339  1.00  0.00     0.053 C 
BRANCH  11  12
ATOM     12  C   UNL     1      47.131  -8.826  77.515  1.00  0.00     0.041 C 
ATOM     13  O   UNL     1      46.100  -9.180  76.886  1.00  0.00    -0.550 OA
ATOM     14  O   UNL     1      48.267  -9.626  77.481  1.00  0.00    -0.550 OA
ENDBRANCH  11  12
ENDBRANCH  10  11
ENDBRANCH   9  10
ENDBRANCH   8   9
ENDBRANCH   7   8
ENDBRANCH   6   7
ENDBRANCH   5   6
ENDBRANCH   4   5
ENDBRANCH   3   4
ENDBRANCH   2   3
ENDBRANCH   1   2
BRANCH   1  15
ATOM     15  C   UNL     1      48.752  -5.139  72.749  1.00  0.00     0.000 C 
BRANCH  15  16
ATOM     16  C   UNL     1      49.858  -5.489  73.756  1.00  0.00     0.000 C 
BRANCH  16  17
ATOM     17  C   UNL     1      51.183  -4.774  73.453  1.00  0.00     0.000 C 
BRANCH  17  18
ATOM     18  C   UNL     1      51.003  -3.757  72.320  1.00  0.00    -0.000 C 
BRANCH  18  19
ATOM     19  C   UNL     1      51.621  -2.400  72.686  1.00  0.00    -0.000 C 
BRANCH  19  20
ATOM     20  C   UNL     1      50.772  -1.209  72.210  1.00  0.00    -0.000 C 
BRANCH  20  21
ATOM     21  C   UNL     1      49.312  -1.580  71.875  1.00  0.00    -0.000 C 
BRANCH  21  22
ATOM     22  C   UNL     1      48.415  -0.341  71.725  1.00  0.00    -0.000 C 
BRANCH  22  23
ATOM     23  C   UNL     1      48.618   0.633  72.896  1.00  0.00    -0.000 C 
BRANCH  23  24
ATOM     24  C   UNL     1      47.684   1.851  72.818  1.00  0.00    -0.000 C 
BRANCH  24  25
ATOM     25  C   UNL     1      46.958   2.123  74.143  1.00  0.00    -0.003 C 
ATOM     26  C   UNL     1      46.748   0.832  74.929  1.00  0.00     0.004 C 
ENDBRANCH  24  25
ENDBRANCH  23  24
ENDBRANCH  22  23
ENDBRANCH  21  22
ENDBRANCH  20  21
ENDBRANCH  19  20
ENDBRANCH  18  19
ENDBRANCH  17  18
ENDBRANCH  16  17
ENDBRANCH  15  16
ENDBRANCH   1  15
TORSDOF 22
ENDMDL
MODEL 6
REMARK VINA RESULT:    -4.061      2.023      3.069
REMARK INTER + INTRA:         -13.359
REMARK INTER:                 -10.488
REMARK INTRA:                  -2.871
REMARK UNBOUND:                -4.076
REMARK SMILES CCCCCCCCCCCCCCCCCCCCCCCC(=O)[O-]
REMARK SMILES IDX 13 1 14 2 15 3 16 4 17 5 18 6 19 7 20 8 21 9 22 10 23 11
REMARK SMILES IDX 24 12 25 13 26 14 12 15 11 16 10 17 9 18 8 19 7 20 6 21 5 22
REMARK SMILES IDX 4 23 3 24 2 25 1 26
REMARK H PARENT
REMARK Flexibility Score: inf
ROOT
ATOM      1  C   UNL     1      47.505  -4.098  76.564  1.00  0.00     0.000 C 
ENDROOT
BRANCH   1   2
ATOM      2  C   UNL     1      48.599  -3.668  75.577  1.00  0.00     0.000 C 
BRANCH   2   3
ATOM      3  C   UNL     1      48.252  -2.324  74.921  1.00  0.00     0.000 C 
BRANCH   3   4
ATOM      4  C   UNL     1      49.078  -1.160  75.490  1.00  0.00     0.000 C 
BRANCH   4   5
ATOM      5  C   UNL     1      48.352   0.192  75.375  1.00  0.00     0.000 C 
BRANCH   5   6
ATOM      6  C   UNL     1      47.462   0.280  74.117  1.00  0.00     0.000 C 
BRANCH   6   7
ATOM      7  C   UNL     1      48.166   0.914  72.902  1.00  0.00     0.000 C 
BRANCH   7   8
ATOM      8  C   UNL     1      48.824  -0.090  71.938  1.00  0.00     0.000 C 
BRANCH   8   9
ATOM      9  C   UNL     1      50.361  -0.185  72.039  1.00  0.00     0.000 C 
BRANCH   9  10
ATOM     10  C   UNL     1      50.914  -1.598  72.295  1.00  0.00     0.006 C 
BRANCH  10  11
ATOM     11  C   UNL     1      52.445  -1.636  72.384  1.00  0.00     0.053 C 
BRANCH  11  12
ATOM     12  C   UNL     1      52.894  -2.828  73.168  1.00  0.00     0.041 C 
ATOM     13  O   UNL     1      54.026  -3.337  72.955  1.00  0.00    -0.550 OA
ATOM     14  O   UNL     1      52.043  -3.408  74.101  1.00  0.00    -0.550 OA
ENDBRANCH  11  12
ENDBRANCH  10  11
ENDBRANCH   9  10
ENDBRANCH   8   9
ENDBRANCH   7   8
ENDBRANCH   6   7
ENDBRANCH   5   6
ENDBRANCH   4   5
ENDBRANCH   3   4
ENDBRANCH   2   3
ENDBRANCH   1   2
BRANCH   1  15
ATOM     15  C   UNL     1      48.006  -4.005  78.013  1.00  0.00     0.000 C 
BRANCH  15  16
ATOM     16  C   UNL     1      47.976  -5.361  78.734  1.00  0.00     0.000 C 
BRANCH  16  17
ATOM     17  C   UNL     1      49.138  -6.277  78.322  1.00  0.00     0.000 C 
BRANCH  17  18
ATOM     18  C   UNL     1      48.644  -7.710  78.093  1.00  0.00    -0.000 C 
BRANCH  18  19
ATOM     19  C   UNL     1      47.132  -7.824  78.333  1.00  0.00    -0.000 C 
BRANCH  19  20
ATOM     20  C   UNL     1      46.393  -8.515  77.174  1.00  0.00    -0.000 C 
BRANCH  20  21
ATOM     21  C   UNL     1      46.234  -7.629  75.921  1.00  0.00    -0.000 C 
BRANCH  21  22
ATOM     22  C   UNL     1      44.775  -7.554  75.442  1.00  0.00    -0.000 C 
BRANCH  22  23
ATOM     23  C   UNL     1      44.699  -7.137  73.966  1.00  0.00    -0.000 C 
BRANCH  23  24
ATOM     24  C   UNL     1      45.552  -5.897  73.658  1.00  0.00    -0.000 C 
BRANCH  24  25
ATOM     25  C   UNL     1      46.615  -6.164  72.583  1.00  0.00    -0.003 C 
ATOM     26  C   UNL     1      47.472  -4.925  72.338  1.00  0.00     0.004 C 
ENDBRANCH  24  25
ENDBRANCH  23  24
ENDBRANCH  22  23
ENDBRANCH  21  22
ENDBRANCH  20  21
ENDBRANCH  19  20
ENDBRANCH  18  19
ENDBRANCH  17  18
ENDBRANCH  16  17
ENDBRANCH  15  16
ENDBRANCH   1  15
TORSDOF 22
ENDMDL
MODEL 7
REMARK VINA RESULT:    -4.060      3.595      6.565
REMARK INTER + INTRA:         -13.357
REMARK INTER:                  -9.335
REMARK INTRA:                  -4.022
REMARK UNBOUND:                -4.076
REMARK SMILES CCCCCCCCCCCCCCCCCCCCCCCC(=O)[O-]
REMARK SMILES IDX 13 1 14 2 15 3 16 4 17 5 18 6 19 7 20 8 21 9 22 10 23 11
REMARK SMILES IDX 24 12 25 13 26 14 12 15 11 16 10 17 9 18 8 19 7 20 6 21 5 22
REMARK SMILES IDX 4 23 3 24 2 25 1 26
REMARK H PARENT
REMARK Flexibility Score: inf
ROOT
ATOM      1  C   UNL     1      48.135  -0.802  76.393  1.00  0.00     0.000 C 
ENDROOT
BRANCH   1   2
ATOM      2  C   UNL     1      48.621   0.099  75.250  1.00  0.00     0.000 C 
BRANCH   2   3
ATOM      3  C   UNL     1      47.511   0.321  74.213  1.00  0.00     0.000 C 
BRANCH   3   4
ATOM      4  C   UNL     1      48.035   0.951  72.914  1.00  0.00     0.000 C 
BRANCH   4   5
ATOM      5  C   UNL     1      49.260   0.207  72.349  1.00  0.00     0.000 C 
BRANCH   5   6
ATOM      6  C   UNL     1      48.876  -1.109  71.640  1.00  0.00     0.000 C 
BRANCH   6   7
ATOM      7  C   UNL     1      49.305  -2.374  72.406  1.00  0.00     0.000 C 
BRANCH   7   8
ATOM      8  C   UNL     1      48.161  -3.349  72.740  1.00  0.00     0.000 C 
BRANCH   8   9
ATOM      9  C   UNL     1      48.592  -4.642  73.464  1.00  0.00     0.000 C 
BRANCH   9  10
ATOM     10  C   UNL     1      47.597  -5.167  74.513  1.00  0.00     0.006 C 
BRANCH  10  11
ATOM     11  C   UNL     1      46.141  -5.131  74.030  1.00  0.00     0.053 C 
BRANCH  11  12
ATOM     12  C   UNL     1      45.370  -6.274  74.609  1.00  0.00     0.041 C 
ATOM     13  O   UNL     1      44.112  -6.288  74.544  1.00  0.00    -0.550 OA
ATOM     14  O   UNL     1      46.036  -7.302  75.264  1.00  0.00    -0.550 OA
ENDBRANCH  11  12
ENDBRANCH  10  11
ENDBRANCH   9  10
ENDBRANCH   8   9
ENDBRANCH   7   8
ENDBRANCH   6   7
ENDBRANCH   5   6
ENDBRANCH   4   5
ENDBRANCH   3   4
ENDBRANCH   2   3
ENDBRANCH   1   2
BRANCH   1  15
ATOM     15  C   UNL     1      47.088  -1.808  75.890  1.00  0.00     0.000 C 
BRANCH  15  16
ATOM     16  C   UNL     1      46.090  -2.215  76.984  1.00  0.00     0.000 C 
BRANCH  16  17
ATOM     17  C   UNL     1      46.386  -1.546  78.335  1.00  0.00     0.000 C 
BRANCH  17  18
ATOM     18  C   UNL     1      46.085  -2.506  79.492  1.00  0.00    -0.000 C 
BRANCH  18  19
ATOM     19  C   UNL     1      47.343  -2.790  80.324  1.00  0.00    -0.000 C 
BRANCH  19  20
ATOM     20  C   UNL     1      48.576  -2.014  79.828  1.00  0.00    -0.000 C 
BRANCH  20  21
ATOM     21  C   UNL     1      49.877  -2.843  79.835  1.00  0.00    -0.000 C 
BRANCH  21  22
ATOM     22  C   UNL     1      50.376  -3.156  78.416  1.00  0.00    -0.000 C 
BRANCH  22  23
ATOM     23  C   UNL     1      49.399  -4.083  77.677  1.00  0.00    -0.000 C 
BRANCH  23  24
ATOM     24  C   UNL     1      49.277  -5.463  78.343  1.00  0.00    -0.000 C 
BRANCH  24  25
ATOM     25  C   UNL     1      47.820  -5.931  78.469  1.00  0.00    -0.003 C 
ATOM     26  C   UNL     1      47.717  -7.447  78.335  1.00  0.00     0.004 C 
ENDBRANCH  24  25
ENDBRANCH  23  24
ENDBRANCH  22  23
ENDBRANCH  21  22
ENDBRANCH  20  21
ENDBRANCH  19  20
ENDBRANCH  18  19
ENDBRANCH  17  18
ENDBRANCH  16  17
ENDBRANCH  15  16
ENDBRANCH   1  15
TORSDOF 22
ENDMDL
MODEL 8
REMARK VINA RESULT:    -4.030      2.278      4.571
REMARK INTER + INTRA:         -13.289
REMARK INTER:                  -9.017
REMARK INTRA:                  -4.272
REMARK UNBOUND:                -4.076
REMARK SMILES CCCCCCCCCCCCCCCCCCCCCCCC(=O)[O-]
REMARK SMILES IDX 13 1 14 2 15 3 16 4 17 5 18 6 19 7 20 8 21 9 22 10 23 11
REMARK SMILES IDX 24 12 25 13 26 14 12 15 11 16 10 17 9 18 8 19 7 20 6 21 5 22
REMARK SMILES IDX 4 23 3 24 2 25 1 26
REMARK H PARENT
REMARK Flexibility Score: inf
ROOT
ATOM      1  C   UNL     1      48.499  -3.696  74.075  1.00  0.00     0.000 C 
ENDROOT
BRANCH   1   2
ATOM      2  C   UNL     1      48.045  -2.846  75.269  1.00  0.00     0.000 C 
BRANCH   2   3
ATOM      3  C   UNL     1      49.161  -1.894  75.724  1.00  0.00     0.000 C 
BRANCH   3   4
ATOM      4  C   UNL     1      48.740  -0.418  75.652  1.00  0.00     0.000 C 
BRANCH   4   5
ATOM      5  C   UNL     1      48.043  -0.066  74.326  1.00  0.00     0.000 C 
BRANCH   5   6
ATOM      6  C   UNL     1      48.800   1.018  73.530  1.00  0.00     0.000 C 
BRANCH   6   7
ATOM      7  C   UNL     1      49.804   0.450  72.508  1.00  0.00     0.000 C 
BRANCH   7   8
ATOM      8  C   UNL     1      49.359  -0.852  71.819  1.00  0.00     0.000 C 
BRANCH   8   9
ATOM      9  C   UNL     1      50.397  -1.994  71.844  1.00  0.00     0.000 C 
BRANCH   9  10
ATOM     10  C   UNL     1      51.752  -1.633  72.477  1.00  0.00     0.006 C 
BRANCH  10  11
ATOM     11  C   UNL     1      52.162  -2.591  73.604  1.00  0.00     0.053 C 
BRANCH  11  12
ATOM     12  C   UNL     1      53.286  -3.472  73.158  1.00  0.00     0.041 C 
ATOM     13  O   UNL     1      53.956  -3.174  72.134  1.00  0.00    -0.550 OA
ATOM     14  O   UNL     1      53.564  -4.646  73.845  1.00  0.00    -0.550 OA
ENDBRANCH  11  12
ENDBRANCH  10  11
ENDBRANCH   9  10
ENDBRANCH   8   9
ENDBRANCH   7   8
ENDBRANCH   6   7
ENDBRANCH   5   6
ENDBRANCH   4   5
ENDBRANCH   3   4
ENDBRANCH   2   3
ENDBRANCH   1   2
BRANCH   1  15
ATOM     15  C   UNL     1      48.630  -5.174  74.472  1.00  0.00     0.000 C 
BRANCH  15  16
ATOM     16  C   UNL     1      50.049  -5.720  74.249  1.00  0.00     0.000 C 
BRANCH  16  17
ATOM     17  C   UNL     1      50.635  -6.379  75.506  1.00  0.00     0.000 C 
BRANCH  17  18
ATOM     18  C   UNL     1      51.251  -5.325  76.433  1.00  0.00    -0.000 C 
BRANCH  18  19
ATOM     19  C   UNL     1      51.005  -5.667  77.909  1.00  0.00    -0.000 C 
BRANCH  19  20
ATOM     20  C   UNL     1      50.103  -4.643  78.618  1.00  0.00    -0.000 C 
BRANCH  20  21
ATOM     21  C   UNL     1      48.612  -4.758  78.238  1.00  0.00    -0.000 C 
BRANCH  21  22
ATOM     22  C   UNL     1      48.007  -6.109  78.652  1.00  0.00    -0.000 C 
BRANCH  22  23
ATOM     23  C   UNL     1      47.419  -6.846  77.440  1.00  0.00    -0.000 C 
BRANCH  23  24
ATOM     24  C   UNL     1      47.234  -8.350  77.698  1.00  0.00    -0.000 C 
BRANCH  24  25
ATOM     25  C   UNL     1      48.449  -8.984  78.390  1.00  0.00    -0.003 C 
ATOM     26  C   UNL     1      49.549  -9.305  77.383  1.00  0.00     0.004 C 
ENDBRANCH  24  25
ENDBRANCH  23  24
ENDBRANCH  22  23
ENDBRANCH  21  22
ENDBRANCH  20  21
ENDBRANCH  19  20
ENDBRANCH  18  19
ENDBRANCH  17  18
ENDBRANCH  16  17
ENDBRANCH  15  16
ENDBRANCH   1  15
TORSDOF 22
ENDMDL
MODEL 9
REMARK VINA RESULT:    -4.008      2.355      6.143
REMARK INTER + INTRA:         -13.239
REMARK INTER:                  -9.104
REMARK INTRA:                  -4.135
REMARK UNBOUND:                -4.076
REMARK SMILES CCCCCCCCCCCCCCCCCCCCCCCC(=O)[O-]
REMARK SMILES IDX 13 1 14 2 15 3 16 4 17 5 18 6 19 7 20 8 21 9 22 10 23 11
REMARK SMILES IDX 24 12 25 13 26 14 12 15 11 16 10 17 9 18 8 19 7 20 6 21 5 22
REMARK SMILES IDX 4 23 3 24 2 25 1 26
REMARK H PARENT
REMARK Flexibility Score: inf
ROOT
ATOM      1  C   UNL     1      47.625  -0.252  74.758  1.00  0.00     0.000 C 
ENDROOT
BRANCH   1   2
ATOM      2  C   UNL     1      47.924  -1.528  75.555  1.00  0.00     0.000 C 
BRANCH   2   3
ATOM      3  C   UNL     1      49.324  -1.469  76.184  1.00  0.00     0.000 C 
BRANCH   3   4
ATOM      4  C   UNL     1      50.224  -2.628  75.727  1.00  0.00     0.000 C 
BRANCH   4   5
ATOM      5  C   UNL     1      49.867  -3.959  76.414  1.00  0.00     0.000 C 
BRANCH   5   6
ATOM      6  C   UNL     1      49.482  -3.773  77.898  1.00  0.00     0.000 C 
BRANCH   6   7
ATOM      7  C   UNL     1      48.072  -4.290  78.242  1.00  0.00     0.000 C 
BRANCH   7   8
ATOM      8  C   UNL     1      48.023  -5.735  78.771  1.00  0.00     0.000 C 
BRANCH   8   9
ATOM      9  C   UNL     1      47.498  -6.782  77.767  1.00  0.00     0.000 C 
BRANCH   9  10
ATOM     10  C   UNL     1      48.492  -7.901  77.408  1.00  0.00     0.006 C 
BRANCH  10  11
ATOM     11  C   UNL     1      49.935  -7.573  77.812  1.00  0.00     0.053 C 
BRANCH  11  12
ATOM     12  C   UNL     1      50.821  -7.541  76.607  1.00  0.00     0.041 C 
ATOM     13  O   UNL     1      50.338  -7.729  75.460  1.00  0.00    -0.550 OA
ATOM     14  O   UNL     1      52.189  -7.350  76.755  1.00  0.00    -0.550 OA
ENDBRANCH  11  12
ENDBRANCH  10  11
ENDBRANCH   9  10
ENDBRANCH   8   9
ENDBRANCH   7   8
ENDBRANCH   6   7
ENDBRANCH   5   6
ENDBRANCH   4   5
ENDBRANCH   3   4
ENDBRANCH   2   3
ENDBRANCH   1   2
BRANCH   1  15
ATOM     15  C   UNL     1      48.873   0.225  73.998  1.00  0.00     0.000 C 
BRANCH  15  16
ATOM     16  C   UNL     1      48.604   0.439  72.501  1.00  0.00     0.000 C 
BRANCH  16  17
ATOM     17  C   UNL     1      48.601  -0.874  71.705  1.00  0.00     0.000 C 
BRANCH  17  18
ATOM     18  C   UNL     1      49.885  -1.669  71.967  1.00  0.00    -0.000 C 
BRANCH  18  19
ATOM     19  C   UNL     1      49.583  -3.155  72.205  1.00  0.00    -0.000 C 
BRANCH  19  20
ATOM     20  C   UNL     1      48.116  -3.414  72.588  1.00  0.00    -0.000 C 
BRANCH  20  21
ATOM     21  C   UNL     1      47.764  -4.909  72.734  1.00  0.00    -0.000 C 
BRANCH  21  22
ATOM     22  C   UNL     1      47.583  -5.325  74.202  1.00  0.00    -0.000 C 
BRANCH  22  23
ATOM     23  C   UNL     1      46.274  -4.766  74.778  1.00  0.00    -0.000 C 
BRANCH  23  24
ATOM     24  C   UNL     1      45.066  -5.667  74.480  1.00  0.00    -0.000 C 
BRANCH  24  25
ATOM     25  C   UNL     1      45.427  -7.160  74.493  1.00  0.00    -0.003 C 
ATOM     26  C   UNL     1      44.728  -7.884  75.641  1.00  0.00     0.004 C 
ENDBRANCH  24  25
ENDBRANCH  23  24
ENDBRANCH  22  23
ENDBRANCH  21  22
ENDBRANCH  20  21
ENDBRANCH  19  20
ENDBRANCH  18  19
ENDBRANCH  17  18
ENDBRANCH  16  17
ENDBRANCH  15  16
ENDBRANCH   1  15
TORSDOF 22
ENDMDL
