MODEL 1
REMARK VINA RESULT:    -4.302      0.000      0.000
REMARK INTER + INTRA:         -11.292
REMARK INTER:                  -9.332
REMARK INTRA:                  -1.960
REMARK UNBOUND:                -1.960
REMARK SMILES CCCCCCCCCCCCCCCCCCCCCC(=O)[O-]
REMARK SMILES IDX 12 1 11 2 10 3 9 4 8 5 7 6 6 7 5 8 4 9 3 10 2 11 1 12 13 13
REMARK SMILES IDX 14 14 15 15 16 16 17 17 18 18 19 19 20 20 21 21 22 22 23 23
REMARK SMILES IDX 24 24
REMARK H PARENT
REMARK Flexibility Score: inf
ROOT
ATOM      1  C   UNL     1       4.170   7.834   8.987  1.00  0.00     0.000 C 
ENDROOT
BRANCH   1   2
ATOM      2  C   UNL     1       3.934   9.152   9.739  1.00  0.00     0.000 C 
BRANCH   2   3
ATOM      3  C   UNL     1       4.636  10.345   9.070  1.00  0.00     0.000 C 
BRANCH   3   4
ATOM      4  C   UNL     1       4.449  10.360   7.543  1.00  0.00    -0.000 C 
BRANCH   4   5
ATOM      5  C   UNL     1       3.781  11.663   7.053  1.00  0.00    -0.000 C 
BRANCH   5   6
ATOM      6  C   UNL     1       4.721  12.564   6.230  1.00  0.00    -0.000 C 
BRANCH   6   7
ATOM      7  C   UNL     1       4.865  13.972   6.831  1.00  0.00    -0.000 C 
BRANCH   7   8
ATOM      8  C   UNL     1       6.290  14.275   7.327  1.00  0.00    -0.000 C 
BRANCH   8   9
ATOM      9  C   UNL     1       7.000  13.108   8.039  1.00  0.00    -0.000 C 
BRANCH   9  10
ATOM     10  C   UNL     1       8.281  12.657   7.326  1.00  0.00    -0.000 C 
BRANCH  10  11
ATOM     11  C   UNL     1       8.147  11.218   6.815  1.00  0.00    -0.003 C 
ATOM     12  C   UNL     1       8.212  10.214   7.961  1.00  0.00     0.004 C 
ENDBRANCH  10  11
ENDBRANCH   9  10
ENDBRANCH   8   9
ENDBRANCH   7   8
ENDBRANCH   6   7
ENDBRANCH   5   6
ENDBRANCH   4   5
ENDBRANCH   3   4
ENDBRANCH   2   3
ENDBRANCH   1   2
BRANCH   1  13
ATOM     13  C   UNL     1       3.981   6.629   9.917  1.00  0.00     0.000 C 
BRANCH  13  14
ATOM     14  C   UNL     1       4.548   5.351   9.286  1.00  0.00     0.000 C 
BRANCH  14  15
ATOM     15  C   UNL     1       3.608   4.806   8.204  1.00  0.00     0.000 C 
BRANCH  15  16
ATOM     16  C   UNL     1       4.053   3.414   7.738  1.00  0.00     0.000 C 
BRANCH  16  17
ATOM     17  C   UNL     1       5.208   2.885   8.603  1.00  0.00     0.000 C 
BRANCH  17  18
ATOM     18  C   UNL     1       6.402   2.404   7.754  1.00  0.00     0.000 C 
BRANCH  18  19
ATOM     19  C   UNL     1       7.185   3.544   7.081  1.00  0.00     0.000 C 
BRANCH  19  20
ATOM     20  C   UNL     1       6.988   3.585   5.557  1.00  0.00     0.006 C 
BRANCH  20  21
ATOM     21  C   UNL     1       8.313   3.771   4.805  1.00  0.00     0.053 C 
BRANCH  21  22
ATOM     22  C   UNL     1       9.128   2.513   4.790  1.00  0.00     0.041 C 
ATOM     23  O   UNL     1       9.006   1.691   3.842  1.00  0.00    -0.550 OA
ATOM     24  O   UNL     1      10.034   2.256   5.811  1.00  0.00    -0.550 OA
ENDBRANCH  21  22
ENDBRANCH  20  21
ENDBRANCH  19  20
ENDBRANCH  18  19
ENDBRANCH  17  18
ENDBRANCH  16  17
ENDBRANCH  15  16
ENDBRANCH  14  15
ENDBRANCH  13  14
ENDBRANCH   1  13
TORSDOF 20
ENDMDL
MODEL 2
REMARK VINA RESULT:    -4.276      4.089      9.499
REMARK INTER + INTRA:         -11.235
REMARK INTER:                  -9.697
REMARK INTRA:                  -1.538
REMARK UNBOUND:                -1.960
REMARK SMILES CCCCCCCCCCCCCCCCCCCCCC(=O)[O-]
REMARK SMILES IDX 12 1 11 2 10 3 9 4 8 5 7 6 6 7 5 8 4 9 3 10 2 11 1 12 13 13
REMARK SMILES IDX 14 14 15 15 16 16 17 17 18 18 19 19 20 20 21 21 22 22 23 23
REMARK SMILES IDX 24 24
REMARK H PARENT
REMARK Flexibility Score: inf
ROOT
ATOM      1  C   UNL     1       3.407   5.172   9.168  1.00  0.00     0.000 C 
ENDROOT
BRANCH   1   2
ATOM      2  C   UNL     1       3.008   4.565   7.816  1.00  0.00     0.000 C 
BRANCH   2   3
ATOM      3  C   UNL     1       4.204   3.953   7.069  1.00  0.00     0.000 C 
BRANCH   3   4
ATOM      4  C   UNL     1       5.211   3.279   8.017  1.00  0.00    -0.000 C 
BRANCH   4   5
ATOM      5  C   UNL     1       6.661   3.384   7.495  1.00  0.00    -0.000 C 
BRANCH   5   6
ATOM      6  C   UNL     1       6.752   3.684   5.988  1.00  0.00    -0.000 C 
BRANCH   6   7
ATOM      7  C   UNL     1       8.160   3.440   5.421  1.00  0.00    -0.000 C 
BRANCH   7   8
ATOM      8  C   UNL     1       8.293   2.089   4.695  1.00  0.00    -0.000 C 
BRANCH   8   9
ATOM      9  C   UNL     1       8.041   0.846   5.569  1.00  0.00    -0.000 C 
BRANCH   9  10
ATOM     10  C   UNL     1       7.495  -0.348   4.775  1.00  0.00    -0.000 C 
BRANCH  10  11
ATOM     11  C   UNL     1       7.118  -1.503   5.711  1.00  0.00    -0.003 C 
ATOM     12  C   UNL     1       6.472  -0.989   6.994  1.00  0.00     0.004 C 
ENDBRANCH  10  11
ENDBRANCH   9  10
ENDBRANCH   8   9
ENDBRANCH   7   8
ENDBRANCH   6   7
ENDBRANCH   5   6
ENDBRANCH   4   5
ENDBRANCH   3   4
ENDBRANCH   2   3
ENDBRANCH   1   2
BRANCH   1  13
ATOM     13  C   UNL     1       3.752   6.660   9.022  1.00  0.00     0.000 C 
BRANCH  13  14
ATOM     14  C   UNL     1       5.054   6.999   9.759  1.00  0.00     0.000 C 
BRANCH  14  15
ATOM     15  C   UNL     1       5.553   8.399   9.383  1.00  0.00     0.000 C 
BRANCH  15  16
ATOM     16  C   UNL     1       4.485   9.461   9.676  1.00  0.00     0.000 C 
BRANCH  16  17
ATOM     17  C   UNL     1       4.069  10.195   8.392  1.00  0.00     0.000 C 
BRANCH  17  18
ATOM     18  C   UNL     1       5.196  10.216   7.339  1.00  0.00     0.000 C 
BRANCH  18  19
ATOM     19  C   UNL     1       5.040  11.326   6.285  1.00  0.00     0.000 C 
BRANCH  19  20
ATOM     20  C   UNL     1       4.085  12.444   6.732  1.00  0.00     0.006 C 
BRANCH  20  21
ATOM     21  C   UNL     1       4.632  13.839   6.405  1.00  0.00     0.053 C 
BRANCH  21  22
ATOM     22  C   UNL     1       5.672  14.278   7.391  1.00  0.00     0.041 C 
ATOM     23  O   UNL     1       6.596  15.058   7.034  1.00  0.00    -0.550 OA
ATOM     24  O   UNL     1       5.612  13.841   8.709  1.00  0.00    -0.550 OA
ENDBRANCH  21  22
ENDBRANCH  20  21
ENDBRANCH  19  20
ENDBRANCH  18  19
ENDBRANCH  17  18
ENDBRANCH  16  17
ENDBRANCH  15  16
ENDBRANCH  14  15
ENDBRANCH  13  14
ENDBRANCH   1  13
TORSDOF 20
ENDMDL
MODEL 3
REMARK VINA RESULT:    -4.244      1.363      3.482
REMARK INTER + INTRA:         -11.166
REMARK INTER:                  -8.391
REMARK INTRA:                  -2.776
REMARK UNBOUND:                -1.960
REMARK SMILES CCCCCCCCCCCCCCCCCCCCCC(=O)[O-]
REMARK SMILES IDX 12 1 11 2 10 3 9 4 8 5 7 6 6 7 5 8 4 9 3 10 2 11 1 12 13 13
REMARK SMILES IDX 14 14 15 15 16 16 17 17 18 18 19 19 20 20 21 21 22 22 23 23
REMARK SMILES IDX 24 24
REMARK H PARENT
REMARK Flexibility Score: inf
ROOT
ATOM      1  C   UNL     1       5.103  10.263   6.940  1.00  0.00     0.000 C 
ENDROOT
BRANCH   1   2
ATOM      2  C   UNL     1       4.916  11.485   6.030  1.00  0.00     0.000 C 
BRANCH   2   3
ATOM      3  C   UNL     1       4.155  12.626   6.725  1.00  0.00     0.000 C 
BRANCH   3   4
ATOM      4  C   UNL     1       4.721  14.013   6.374  1.00  0.00    -0.000 C 
BRANCH   4   5
ATOM      5  C   UNL     1       6.064  14.289   7.086  1.00  0.00    -0.000 C 
BRANCH   5   6
ATOM      6  C   UNL     1       5.939  14.391   8.617  1.00  0.00    -0.000 C 
BRANCH   6   7
ATOM      7  C   UNL     1       6.745  13.306   9.349  1.00  0.00    -0.000 C 
BRANCH   7   8
ATOM      8  C   UNL     1       7.977  12.831   8.557  1.00  0.00    -0.000 C 
BRANCH   8   9
ATOM      9  C   UNL     1       8.512  11.440   8.945  1.00  0.00    -0.000 C 
BRANCH   9  10
ATOM     10  C   UNL     1       8.606  10.477   7.754  1.00  0.00    -0.000 C 
BRANCH  10  11
ATOM     11  C   UNL     1       8.562  11.241   6.426  1.00  0.00    -0.003 C 
ATOM     12  C   UNL     1       9.580  10.687   5.434  1.00  0.00     0.004 C 
ENDBRANCH  10  11
ENDBRANCH   9  10
ENDBRANCH   8   9
ENDBRANCH   7   8
ENDBRANCH   6   7
ENDBRANCH   5   6
ENDBRANCH   4   5
ENDBRANCH   3   4
ENDBRANCH   2   3
ENDBRANCH   1   2
BRANCH   1  13
ATOM     13  C   UNL     1       4.314  10.424   8.246  1.00  0.00     0.000 C 
BRANCH  13  14
ATOM     14  C   UNL     1       5.150   9.982   9.453  1.00  0.00     0.000 C 
BRANCH  14  15
ATOM     15  C   UNL     1       5.396   8.469   9.430  1.00  0.00     0.000 C 
BRANCH  15  16
ATOM     16  C   UNL     1       4.118   7.709   9.055  1.00  0.00     0.000 C 
BRANCH  16  17
ATOM     17  C   UNL     1       4.267   6.205   9.334  1.00  0.00     0.000 C 
BRANCH  17  18
ATOM     18  C   UNL     1       3.268   5.356   8.521  1.00  0.00     0.000 C 
BRANCH  18  19
ATOM     19  C   UNL     1       3.805   3.969   8.130  1.00  0.00     0.000 C 
BRANCH  19  20
ATOM     20  C   UNL     1       4.884   4.033   7.038  1.00  0.00     0.006 C 
BRANCH  20  21
ATOM     21  C   UNL     1       6.133   3.223   7.408  1.00  0.00     0.053 C 
BRANCH  21  22
ATOM     22  C   UNL     1       7.332   3.649   6.616  1.00  0.00     0.041 C 
ATOM     23  O   UNL     1       8.383   4.018   7.205  1.00  0.00    -0.550 OA
ATOM     24  O   UNL     1       7.296   3.622   5.227  1.00  0.00    -0.550 OA
ENDBRANCH  21  22
ENDBRANCH  20  21
ENDBRANCH  19  20
ENDBRANCH  18  19
ENDBRANCH  17  18
ENDBRANCH  16  17
ENDBRANCH  15  16
ENDBRANCH  14  15
ENDBRANCH  13  14
ENDBRANCH   1  13
TORSDOF 20
ENDMDL
MODEL 4
REMARK VINA RESULT:    -4.209     12.944     14.883
REMARK INTER + INTRA:         -11.091
REMARK INTER:                  -8.938
REMARK INTRA:                  -2.153
REMARK UNBOUND:                -1.960
REMARK SMILES CCCCCCCCCCCCCCCCCCCCCC(=O)[O-]
REMARK SMILES IDX 12 1 11 2 10 3 9 4 8 5 7 6 6 7 5 8 4 9 3 10 2 11 1 12 13 13
REMARK SMILES IDX 14 14 15 15 16 16 17 17 18 18 19 19 20 20 21 21 22 22 23 23
REMARK SMILES IDX 24 24
REMARK H PARENT
REMARK Flexibility Score: inf
ROOT
ATOM      1  C   UNL     1       5.596   7.201  -7.862  1.00  0.00     0.000 C 
ENDROOT
BRANCH   1   2
ATOM      2  C   UNL     1       7.022   7.610  -7.470  1.00  0.00     0.000 C 
BRANCH   2   3
ATOM      3  C   UNL     1       7.045   8.771  -6.462  1.00  0.00     0.000 C 
BRANCH   3   4
ATOM      4  C   UNL     1       8.389   8.881  -5.720  1.00  0.00    -0.000 C 
BRANCH   4   5
ATOM      5  C   UNL     1       8.213   9.391  -4.273  1.00  0.00    -0.000 C 
BRANCH   5   6
ATOM      6  C   UNL     1       9.454  10.118  -3.722  1.00  0.00    -0.000 C 
BRANCH   6   7
ATOM      7  C   UNL     1       9.154  11.568  -3.308  1.00  0.00    -0.000 C 
BRANCH   7   8
ATOM      8  C   UNL     1       8.236  12.302  -4.302  1.00  0.00    -0.000 C 
BRANCH   8   9
ATOM      9  C   UNL     1       8.871  12.627  -5.666  1.00  0.00    -0.000 C 
BRANCH   9  10
ATOM     10  C   UNL     1       7.839  12.783  -6.790  1.00  0.00    -0.000 C 
BRANCH  10  11
ATOM     11  C   UNL     1       6.413  12.612  -6.253  1.00  0.00    -0.003 C 
ATOM     12  C   UNL     1       5.481  12.051  -7.322  1.00  0.00     0.004 C 
ENDBRANCH  10  11
ENDBRANCH   9  10
ENDBRANCH   8   9
ENDBRANCH   7   8
ENDBRANCH   6   7
ENDBRANCH   5   6
ENDBRANCH   4   5
ENDBRANCH   3   4
ENDBRANCH   2   3
ENDBRANCH   1   2
BRANCH   1  13
ATOM     13  C   UNL     1       4.598   8.326  -7.560  1.00  0.00     0.000 C 
BRANCH  13  14
ATOM     14  C   UNL     1       3.315   8.161  -8.385  1.00  0.00     0.000 C 
BRANCH  14  15
ATOM     15  C   UNL     1       3.463   7.038  -9.417  1.00  0.00     0.000 C 
BRANCH  15  16
ATOM     16  C   UNL     1       2.166   6.226  -9.538  1.00  0.00     0.000 C 
BRANCH  16  17
ATOM     17  C   UNL     1       2.436   4.725  -9.355  1.00  0.00     0.000 C 
BRANCH  17  18
ATOM     18  C   UNL     1       3.943   4.396  -9.349  1.00  0.00     0.000 C 
BRANCH  18  19
ATOM     19  C   UNL     1       4.253   2.901  -9.532  1.00  0.00     0.000 C 
BRANCH  19  20
ATOM     20  C   UNL     1       5.148   2.337  -8.417  1.00  0.00     0.006 C 
BRANCH  20  21
ATOM     21  C   UNL     1       4.342   1.930  -7.176  1.00  0.00     0.053 C 
BRANCH  21  22
ATOM     22  C   UNL     1       5.222   1.727  -5.980  1.00  0.00     0.041 C 
ATOM     23  O   UNL     1       5.229   0.618  -5.380  1.00  0.00    -0.550 OA
ATOM     24  O   UNL     1       6.047   2.753  -5.538  1.00  0.00    -0.550 OA
ENDBRANCH  21  22
ENDBRANCH  20  21
ENDBRANCH  19  20
ENDBRANCH  18  19
ENDBRANCH  17  18
ENDBRANCH  16  17
ENDBRANCH  15  16
ENDBRANCH  14  15
ENDBRANCH  13  14
ENDBRANCH   1  13
TORSDOF 20
ENDMDL
MODEL 5
REMARK VINA RESULT:    -4.162      3.105      8.738
REMARK INTER + INTRA:         -10.988
REMARK INTER:                  -8.846
REMARK INTRA:                  -2.143
REMARK UNBOUND:                -1.960
REMARK SMILES CCCCCCCCCCCCCCCCCCCCCC(=O)[O-]
REMARK SMILES IDX 12 1 11 2 10 3 9 4 8 5 7 6 6 7 5 8 4 9 3 10 2 11 1 12 13 13
REMARK SMILES IDX 14 14 15 15 16 16 17 17 18 18 19 19 20 20 21 21 22 22 23 23
REMARK SMILES IDX 24 24
REMARK H PARENT
REMARK Flexibility Score: inf
ROOT
ATOM      1  C   UNL     1       3.828   8.873   8.958  1.00  0.00     0.000 C 
ENDROOT
BRANCH   1   2
ATOM      2  C   UNL     1       4.095   7.521   9.635  1.00  0.00     0.000 C 
BRANCH   2   3
ATOM      3  C   UNL     1       4.214   6.370   8.624  1.00  0.00     0.000 C 
BRANCH   3   4
ATOM      4  C   UNL     1       3.162   5.271   8.853  1.00  0.00    -0.000 C 
BRANCH   4   5
ATOM      5  C   UNL     1       3.084   4.284   7.669  1.00  0.00    -0.000 C 
BRANCH   5   6
ATOM      6  C   UNL     1       3.364   2.822   8.066  1.00  0.00    -0.000 C 
BRANCH   6   7
ATOM      7  C   UNL     1       4.645   2.673   8.903  1.00  0.00    -0.000 C 
BRANCH   7   8
ATOM      8  C   UNL     1       5.919   2.571   8.044  1.00  0.00    -0.000 C 
BRANCH   8   9
ATOM      9  C   UNL     1       6.853   3.794   8.107  1.00  0.00    -0.000 C 
BRANCH   9  10
ATOM     10  C   UNL     1       7.905   3.806   6.991  1.00  0.00    -0.000 C 
BRANCH  10  11
ATOM     11  C   UNL     1       7.268   3.498   5.631  1.00  0.00    -0.003 C 
ATOM     12  C   UNL     1       8.257   2.806   4.698  1.00  0.00     0.004 C 
ENDBRANCH  10  11
ENDBRANCH   9  10
ENDBRANCH   8   9
ENDBRANCH   7   8
ENDBRANCH   6   7
ENDBRANCH   5   6
ENDBRANCH   4   5
ENDBRANCH   3   4
ENDBRANCH   2   3
ENDBRANCH   1   2
BRANCH   1  13
ATOM     13  C   UNL     1       4.628   9.994   9.634  1.00  0.00     0.000 C 
BRANCH  13  14
ATOM     14  C   UNL     1       5.388  10.831   8.597  1.00  0.00     0.000 C 
BRANCH  14  15
ATOM     15  C   UNL     1       5.255  10.227   7.194  1.00  0.00     0.000 C 
BRANCH  15  16
ATOM     16  C   UNL     1       4.918  11.307   6.159  1.00  0.00     0.000 C 
BRANCH  16  17
ATOM     17  C   UNL     1       4.005  12.385   6.762  1.00  0.00     0.000 C 
BRANCH  17  18
ATOM     18  C   UNL     1       4.516  13.813   6.476  1.00  0.00     0.000 C 
BRANCH  18  19
ATOM     19  C   UNL     1       5.427  14.378   7.578  1.00  0.00     0.000 C 
BRANCH  19  20
ATOM     20  C   UNL     1       6.904  14.441   7.157  1.00  0.00     0.006 C 
BRANCH  20  21
ATOM     21  C   UNL     1       7.809  13.625   8.090  1.00  0.00     0.053 C 
BRANCH  21  22
ATOM     22  C   UNL     1       8.796  12.795   7.326  1.00  0.00     0.041 C 
ATOM     23  O   UNL     1       8.424  11.734   6.756  1.00  0.00    -0.550 OA
ATOM     24  O   UNL     1      10.120  13.201   7.227  1.00  0.00    -0.550 OA
ENDBRANCH  21  22
ENDBRANCH  20  21
ENDBRANCH  19  20
ENDBRANCH  18  19
ENDBRANCH  17  18
ENDBRANCH  16  17
ENDBRANCH  15  16
ENDBRANCH  14  15
ENDBRANCH  13  14
ENDBRANCH   1  13
TORSDOF 20
ENDMDL
MODEL 6
REMARK VINA RESULT:    -4.116      2.820      5.125
REMARK INTER + INTRA:         -10.889
REMARK INTER:                  -9.047
REMARK INTRA:                  -1.841
REMARK UNBOUND:                -1.960
REMARK SMILES CCCCCCCCCCCCCCCCCCCCCC(=O)[O-]
REMARK SMILES IDX 12 1 11 2 10 3 9 4 8 5 7 6 6 7 5 8 4 9 3 10 2 11 1 12 13 13
REMARK SMILES IDX 14 14 15 15 16 16 17 17 18 18 19 19 20 20 21 21 22 22 23 23
REMARK SMILES IDX 24 24
REMARK H PARENT
REMARK Flexibility Score: inf
ROOT
ATOM      1  C   UNL     1       4.370   4.211   7.107  1.00  0.00     0.000 C 
ENDROOT
BRANCH   1   2
ATOM      2  C   UNL     1       3.091   4.626   7.847  1.00  0.00     0.000 C 
BRANCH   2   3
ATOM      3  C   UNL     1       3.266   4.618   9.374  1.00  0.00     0.000 C 
BRANCH   3   4
ATOM      4  C   UNL     1       3.337   6.035   9.969  1.00  0.00    -0.000 C 
BRANCH   4   5
ATOM      5  C   UNL     1       4.772   6.604   9.945  1.00  0.00    -0.000 C 
BRANCH   5   6
ATOM      6  C   UNL     1       4.933   7.826   9.021  1.00  0.00    -0.000 C 
BRANCH   6   7
ATOM      7  C   UNL     1       3.850   8.892   9.257  1.00  0.00    -0.000 C 
BRANCH   7   8
ATOM      8  C   UNL     1       4.061  10.164   8.416  1.00  0.00    -0.000 C 
BRANCH   8   9
ATOM      9  C   UNL     1       5.107  10.044   7.293  1.00  0.00    -0.000 C 
BRANCH   9  10
ATOM     10  C   UNL     1       5.212  11.307   6.429  1.00  0.00    -0.000 C 
BRANCH  10  11
ATOM     11  C   UNL     1       4.088  12.295   6.761  1.00  0.00    -0.003 C 
ATOM     12  C   UNL     1       4.590  13.735   6.741  1.00  0.00     0.004 C 
ENDBRANCH  10  11
ENDBRANCH   9  10
ENDBRANCH   8   9
ENDBRANCH   7   8
ENDBRANCH   6   7
ENDBRANCH   5   6
ENDBRANCH   4   5
ENDBRANCH   3   4
ENDBRANCH   2   3
ENDBRANCH   1   2
BRANCH   1  13
ATOM     13  C   UNL     1       5.242   3.302   7.983  1.00  0.00     0.000 C 
BRANCH  13  14
ATOM     14  C   UNL     1       6.669   3.208   7.430  1.00  0.00     0.000 C 
BRANCH  14  15
ATOM     15  C   UNL     1       6.732   3.697   5.978  1.00  0.00     0.000 C 
BRANCH  15  16
ATOM     16  C   UNL     1       7.814   2.947   5.190  1.00  0.00     0.000 C 
BRANCH  16  17
ATOM     17  C   UNL     1       8.167   1.614   5.869  1.00  0.00     0.000 C 
BRANCH  17  18
ATOM     18  C   UNL     1       7.861   0.399   4.969  1.00  0.00     0.000 C 
BRANCH  18  19
ATOM     19  C   UNL     1       7.444  -0.860   5.748  1.00  0.00     0.000 C 
BRANCH  19  20
ATOM     20  C   UNL     1       6.640  -0.538   7.018  1.00  0.00     0.006 C 
BRANCH  20  21
ATOM     21  C   UNL     1       6.425  -1.777   7.897  1.00  0.00     0.053 C 
BRANCH  21  22
ATOM     22  C   UNL     1       5.476  -2.752   7.268  1.00  0.00     0.041 C 
ATOM     23  O   UNL     1       4.234  -2.632   7.446  1.00  0.00    -0.550 OA
ATOM     24  O   UNL     1       5.960  -3.780   6.470  1.00  0.00    -0.550 OA
ENDBRANCH  21  22
ENDBRANCH  20  21
ENDBRANCH  19  20
ENDBRANCH  18  19
ENDBRANCH  17  18
ENDBRANCH  16  17
ENDBRANCH  15  16
ENDBRANCH  14  15
ENDBRANCH  13  14
ENDBRANCH   1  13
TORSDOF 20
ENDMDL
MODEL 7
REMARK VINA RESULT:    -4.002      1.953      4.143
REMARK INTER + INTRA:         -10.641
REMARK INTER:                  -8.554
REMARK INTRA:                  -2.087
REMARK UNBOUND:                -1.960
REMARK SMILES CCCCCCCCCCCCCCCCCCCCCC(=O)[O-]
REMARK SMILES IDX 12 1 11 2 10 3 9 4 8 5 7 6 6 7 5 8 4 9 3 10 2 11 1 12 13 13
REMARK SMILES IDX 14 14 15 15 16 16 17 17 18 18 19 19 20 20 21 21 22 22 23 23
REMARK SMILES IDX 24 24
REMARK H PARENT
REMARK Flexibility Score: inf
ROOT
ATOM      1  C   UNL     1       2.815   3.574   8.255  1.00  0.00     0.000 C 
ENDROOT
BRANCH   1   2
ATOM      2  C   UNL     1       2.250   4.501   9.340  1.00  0.00     0.000 C 
BRANCH   2   3
ATOM      3  C   UNL     1       3.334   5.377   9.989  1.00  0.00     0.000 C 
BRANCH   3   4
ATOM      4  C   UNL     1       4.157   6.163   8.953  1.00  0.00    -0.000 C 
BRANCH   4   5
ATOM      5  C   UNL     1       4.834   7.406   9.569  1.00  0.00    -0.000 C 
BRANCH   5   6
ATOM      6  C   UNL     1       3.843   8.521   9.951  1.00  0.00    -0.000 C 
BRANCH   6   7
ATOM      7  C   UNL     1       3.888   9.710   8.978  1.00  0.00    -0.000 C 
BRANCH   7   8
ATOM      8  C   UNL     1       4.870   9.499   7.810  1.00  0.00    -0.000 C 
BRANCH   8   9
ATOM      9  C   UNL     1       5.607  10.764   7.334  1.00  0.00    -0.000 C 
BRANCH   9  10
ATOM     10  C   UNL     1       4.889  11.482   6.184  1.00  0.00    -0.000 C 
BRANCH  10  11
ATOM     11  C   UNL     1       4.099  12.691   6.699  1.00  0.00    -0.003 C 
ATOM     12  C   UNL     1       4.833  13.997   6.414  1.00  0.00     0.004 C 
ENDBRANCH  10  11
ENDBRANCH   9  10
ENDBRANCH   8   9
ENDBRANCH   7   8
ENDBRANCH   6   7
ENDBRANCH   5   6
ENDBRANCH   4   5
ENDBRANCH   3   4
ENDBRANCH   2   3
ENDBRANCH   1   2
BRANCH   1  13
ATOM     13  C   UNL     1       3.440   2.318   8.875  1.00  0.00     0.000 C 
BRANCH  13  14
ATOM     14  C   UNL     1       4.838   2.057   8.301  1.00  0.00     0.000 C 
BRANCH  14  15
ATOM     15  C   UNL     1       5.928   2.407   9.322  1.00  0.00     0.000 C 
BRANCH  15  16
ATOM     16  C   UNL     1       6.658   3.697   8.928  1.00  0.00     0.000 C 
BRANCH  16  17
ATOM     17  C   UNL     1       6.675   3.879   7.403  1.00  0.00     0.000 C 
BRANCH  17  18
ATOM     18  C   UNL     1       7.975   3.350   6.764  1.00  0.00     0.000 C 
BRANCH  18  19
ATOM     19  C   UNL     1       7.797   2.840   5.324  1.00  0.00     0.000 C 
BRANCH  19  20
ATOM     20  C   UNL     1       8.202   1.367   5.158  1.00  0.00     0.006 C 
BRANCH  20  21
ATOM     21  C   UNL     1       7.450   0.445   6.126  1.00  0.00     0.053 C 
BRANCH  21  22
ATOM     22  C   UNL     1       7.503  -0.988   5.690  1.00  0.00     0.041 C 
ATOM     23  O   UNL     1       7.914  -1.877   6.483  1.00  0.00    -0.550 OA
ATOM     24  O   UNL     1       7.081  -1.345   4.415  1.00  0.00    -0.550 OA
ENDBRANCH  21  22
ENDBRANCH  20  21
ENDBRANCH  19  20
ENDBRANCH  18  19
ENDBRANCH  17  18
ENDBRANCH  16  17
ENDBRANCH  15  16
ENDBRANCH  14  15
ENDBRANCH  13  14
ENDBRANCH   1  13
TORSDOF 20
ENDMDL
MODEL 8
REMARK VINA RESULT:    -3.997     13.465     15.568
REMARK INTER + INTRA:         -10.631
REMARK INTER:                  -8.294
REMARK INTRA:                  -2.337
REMARK UNBOUND:                -1.960
REMARK SMILES CCCCCCCCCCCCCCCCCCCCCC(=O)[O-]
REMARK SMILES IDX 12 1 11 2 10 3 9 4 8 5 7 6 6 7 5 8 4 9 3 10 2 11 1 12 13 13
REMARK SMILES IDX 14 14 15 15 16 16 17 17 18 18 19 19 20 20 21 21 22 22 23 23
REMARK SMILES IDX 24 24
REMARK H PARENT
REMARK Flexibility Score: inf
ROOT
ATOM      1  C   UNL     1       5.115   8.085  -7.306  1.00  0.00     0.000 C 
ENDROOT
BRANCH   1   2
ATOM      2  C   UNL     1       6.001   7.430  -8.375  1.00  0.00     0.000 C 
BRANCH   2   3
ATOM      3  C   UNL     1       6.552   6.066  -7.928  1.00  0.00     0.000 C 
BRANCH   3   4
ATOM      4  C   UNL     1       8.035   6.132  -7.524  1.00  0.00    -0.000 C 
BRANCH   4   5
ATOM      5  C   UNL     1       8.731   7.396  -8.072  1.00  0.00    -0.000 C 
BRANCH   5   6
ATOM      6  C   UNL     1       9.440   8.227  -6.987  1.00  0.00    -0.000 C 
BRANCH   6   7
ATOM      7  C   UNL     1       8.776   8.087  -5.608  1.00  0.00    -0.000 C 
BRANCH   7   8
ATOM      8  C   UNL     1       7.797   9.233  -5.289  1.00  0.00    -0.000 C 
BRANCH   8   9
ATOM      9  C   UNL     1       7.872  10.443  -6.238  1.00  0.00    -0.000 C 
BRANCH   9  10
ATOM     10  C   UNL     1       7.766  11.789  -5.508  1.00  0.00    -0.000 C 
BRANCH  10  11
ATOM     11  C   UNL     1       6.686  12.673  -6.142  1.00  0.00    -0.003 C 
ATOM     12  C   UNL     1       6.561  14.006  -5.411  1.00  0.00     0.004 C 
ENDBRANCH  10  11
ENDBRANCH   9  10
ENDBRANCH   8   9
ENDBRANCH   7   8
ENDBRANCH   6   7
ENDBRANCH   5   6
ENDBRANCH   4   5
ENDBRANCH   3   4
ENDBRANCH   2   3
ENDBRANCH   1   2
BRANCH   1  13
ATOM     13  C   UNL     1       3.878   8.734  -7.939  1.00  0.00     0.000 C 
BRANCH  13  14
ATOM     14  C   UNL     1       3.418   7.953  -9.177  1.00  0.00     0.000 C 
BRANCH  14  15
ATOM     15  C   UNL     1       1.998   7.407  -8.988  1.00  0.00     0.000 C 
BRANCH  15  16
ATOM     16  C   UNL     1       1.916   5.932  -9.402  1.00  0.00     0.000 C 
BRANCH  16  17
ATOM     17  C   UNL     1       3.319   5.328  -9.573  1.00  0.00     0.000 C 
BRANCH  17  18
ATOM     18  C   UNL     1       3.275   3.805  -9.815  1.00  0.00     0.000 C 
BRANCH  18  19
ATOM     19  C   UNL     1       4.588   3.083  -9.467  1.00  0.00     0.000 C 
BRANCH  19  20
ATOM     20  C   UNL     1       4.681   2.695  -7.983  1.00  0.00     0.006 C 
BRANCH  20  21
ATOM     21  C   UNL     1       4.898   1.188  -7.790  1.00  0.00     0.053 C 
BRANCH  21  22
ATOM     22  C   UNL     1       4.697   0.772  -6.364  1.00  0.00     0.041 C 
ATOM     23  O   UNL     1       5.383   1.300  -5.447  1.00  0.00    -0.550 OA
ATOM     24  O   UNL     1       3.741  -0.183  -6.044  1.00  0.00    -0.550 OA
ENDBRANCH  21  22
ENDBRANCH  20  21
ENDBRANCH  19  20
ENDBRANCH  18  19
ENDBRANCH  17  18
ENDBRANCH  16  17
ENDBRANCH  15  16
ENDBRANCH  14  15
ENDBRANCH  13  14
ENDBRANCH   1  13
TORSDOF 20
ENDMDL
MODEL 9
REMARK VINA RESULT:    -3.912     13.293     16.569
REMARK INTER + INTRA:         -10.446
REMARK INTER:                  -8.274
REMARK INTRA:                  -2.171
REMARK UNBOUND:                -1.960
REMARK SMILES CCCCCCCCCCCCCCCCCCCCCC(=O)[O-]
REMARK SMILES IDX 12 1 11 2 10 3 9 4 8 5 7 6 6 7 5 8 4 9 3 10 2 11 1 12 13 13
REMARK SMILES IDX 14 14 15 15 16 16 17 17 18 18 19 19 20 20 21 21 22 22 23 23
REMARK SMILES IDX 24 24
REMARK H PARENT
REMARK Flexibility Score: inf
ROOT
ATOM      1  C   UNL     1       6.281   7.519  -8.355  1.00  0.00     0.000 C 
ENDROOT
BRANCH   1   2
ATOM      2  C   UNL     1       5.257   7.914  -7.282  1.00  0.00     0.000 C 
BRANCH   2   3
ATOM      3  C   UNL     1       4.002   8.571  -7.880  1.00  0.00     0.000 C 
BRANCH   3   4
ATOM      4  C   UNL     1       3.545   7.894  -9.184  1.00  0.00    -0.000 C 
BRANCH   4   5
ATOM      5  C   UNL     1       2.221   7.120  -9.005  1.00  0.00    -0.000 C 
BRANCH   5   6
ATOM      6  C   UNL     1       2.324   5.630  -9.378  1.00  0.00    -0.000 C 
BRANCH   6   7
ATOM      7  C   UNL     1       3.745   5.071  -9.190  1.00  0.00    -0.000 C 
BRANCH   7   8
ATOM      8  C   UNL     1       3.778   3.537  -9.060  1.00  0.00    -0.000 C 
BRANCH   8   9
ATOM      9  C   UNL     1       5.039   2.962  -8.389  1.00  0.00    -0.000 C 
BRANCH   9  10
ATOM     10  C   UNL     1       4.846   1.532  -7.869  1.00  0.00    -0.000 C 
BRANCH  10  11
ATOM     11  C   UNL     1       4.497   1.533  -6.376  1.00  0.00    -0.003 C 
ATOM     12  C   UNL     1       4.205   0.123  -5.873  1.00  0.00     0.004 C 
ENDBRANCH  10  11
ENDBRANCH   9  10
ENDBRANCH   8   9
ENDBRANCH   7   8
ENDBRANCH   6   7
ENDBRANCH   5   6
ENDBRANCH   4   5
ENDBRANCH   3   4
ENDBRANCH   2   3
ENDBRANCH   1   2
BRANCH   1  13
ATOM     13  C   UNL     1       7.430   8.532  -8.418  1.00  0.00     0.000 C 
BRANCH  13  14
ATOM     14  C   UNL     1       8.779   7.825  -8.603  1.00  0.00     0.000 C 
BRANCH  14  15
ATOM     15  C   UNL     1       9.670   8.006  -7.368  1.00  0.00     0.000 C 
BRANCH  15  16
ATOM     16  C   UNL     1       9.291   7.010  -6.264  1.00  0.00     0.000 C 
BRANCH  16  17
ATOM     17  C   UNL     1       9.863   7.446  -4.907  1.00  0.00     0.000 C 
BRANCH  17  18
ATOM     18  C   UNL     1       9.570   8.928  -4.597  1.00  0.00     0.000 C 
BRANCH  18  19
ATOM     19  C   UNL     1       8.071   9.257  -4.497  1.00  0.00     0.000 C 
BRANCH  19  20
ATOM     20  C   UNL     1       7.662  10.453  -5.372  1.00  0.00     0.006 C 
BRANCH  20  21
ATOM     21  C   UNL     1       8.823  11.432  -5.594  1.00  0.00     0.053 C 
BRANCH  21  22
ATOM     22  C   UNL     1       8.725  12.628  -4.696  1.00  0.00     0.041 C 
ATOM     23  O   UNL     1       9.755  13.081  -4.128  1.00  0.00    -0.550 OA
ATOM     24  O   UNL     1       7.500  13.255  -4.500  1.00  0.00    -0.550 OA
ENDBRANCH  21  22
ENDBRANCH  20  21
ENDBRANCH  19  20
ENDBRANCH  18  19
ENDBRANCH  17  18
ENDBRANCH  16  17
ENDBRANCH  15  16
ENDBRANCH  14  15
ENDBRANCH  13  14
ENDBRANCH   1  13
TORSDOF 20
ENDMDL
