MODEL 1
REMARK VINA RESULT:    -3.054      0.000      0.000
REMARK INTER + INTRA:          -4.835
REMARK INTER:                  -4.125
REMARK INTRA:                  -0.709
REMARK UNBOUND:                -0.709
REMARK SMILES CCCCCCC=CC(=O)[O-]
REMARK SMILES IDX 5 1 6 2 7 3 8 4 9 5 10 6 11 7 4 8 3 9 2 10 1 11
REMARK H PARENT
REMARK Flexibility Score: inf
ROOT
ATOM      1  C   UNL     1    -102.255 -28.002 -13.800  1.00  0.00     0.004 C 
ENDROOT
BRANCH   1   2
ATOM      2  C   UNL     1    -101.168 -27.880 -12.718  1.00  0.00     0.027 C 
BRANCH   2   3
ATOM      3  C   UNL     1     -99.817 -28.326 -13.202  1.00  0.00    -0.025 C 
ATOM      4  C   UNL     1     -99.320 -29.526 -12.882  1.00  0.00     0.020 C 
BRANCH   4   5
ATOM      5  C   UNL     1     -97.998 -29.972 -13.346  1.00  0.00     0.064 C 
ATOM      6  O   UNL     1     -96.962 -29.532 -12.784  1.00  0.00    -0.545 OA
ATOM      7  O   UNL     1     -97.874 -30.875 -14.396  1.00  0.00    -0.545 OA
ENDBRANCH   4   5
ENDBRANCH   2   3
ENDBRANCH   1   2
BRANCH   1   8
ATOM      8  C   UNL     1    -101.975 -27.183 -15.073  1.00  0.00     0.000 C 
BRANCH   8   9
ATOM      9  C   UNL     1    -101.875 -28.056 -16.333  1.00  0.00    -0.000 C 
BRANCH   9  10
ATOM     10  C   UNL     1    -102.074 -29.538 -15.991  1.00  0.00    -0.003 C 
ATOM     11  C   UNL     1    -100.799 -30.337 -16.243  1.00  0.00     0.004 C 
ENDBRANCH   9  10
ENDBRANCH   8   9
ENDBRANCH   1   8
TORSDOF 6
ENDMDL
MODEL 2
REMARK VINA RESULT:    -2.941      1.520      2.493
REMARK INTER + INTRA:          -4.682
REMARK INTER:                  -4.322
REMARK INTRA:                  -0.360
REMARK UNBOUND:                -0.709
REMARK SMILES CCCCCCC=CC(=O)[O-]
REMARK SMILES IDX 5 1 6 2 7 3 8 4 9 5 10 6 11 7 4 8 3 9 2 10 1 11
REMARK H PARENT
REMARK Flexibility Score: inf
ROOT
ATOM      1  C   UNL     1    -101.744 -28.650 -14.982  1.00  0.00     0.004 C 
ENDROOT
BRANCH   1   2
ATOM      2  C   UNL     1    -101.329 -27.664 -13.876  1.00  0.00     0.027 C 
BRANCH   2   3
ATOM      3  C   UNL     1    -100.005 -28.014 -13.256  1.00  0.00    -0.025 C 
ATOM      4  C   UNL     1     -99.709 -29.268 -12.898  1.00  0.00     0.020 C 
BRANCH   4   5
ATOM      5  C   UNL     1     -98.419 -29.621 -12.287  1.00  0.00     0.064 C 
ATOM      6  O   UNL     1     -98.363 -29.869 -11.055  1.00  0.00    -0.545 OA
ATOM      7  O   UNL     1     -97.258 -29.686 -13.050  1.00  0.00    -0.545 OA
ENDBRANCH   4   5
ENDBRANCH   2   3
ENDBRANCH   1   2
BRANCH   1   8
ATOM      8  C   UNL     1    -101.914 -28.008 -16.371  1.00  0.00     0.000 C 
BRANCH   8   9
ATOM      9  C   UNL     1    -103.353 -27.542 -16.639  1.00  0.00    -0.000 C 
BRANCH   9  10
ATOM     10  C   UNL     1    -103.438 -26.012 -16.666  1.00  0.00    -0.003 C 
ATOM     11  C   UNL     1    -104.006 -25.469 -15.358  1.00  0.00     0.004 C 
ENDBRANCH   9  10
ENDBRANCH   8   9
ENDBRANCH   1   8
TORSDOF 6
ENDMDL
MODEL 3
REMARK VINA RESULT:    -2.936      3.028      4.438
REMARK INTER + INTRA:          -4.675
REMARK INTER:                  -4.219
REMARK INTRA:                  -0.456
REMARK UNBOUND:                -0.709
REMARK SMILES CCCCCCC=CC(=O)[O-]
REMARK SMILES IDX 5 1 6 2 7 3 8 4 9 5 10 6 11 7 4 8 3 9 2 10 1 11
REMARK H PARENT
REMARK Flexibility Score: inf
ROOT
ATOM      1  C   UNL     1    -103.409 -26.118 -16.842  1.00  0.00     0.004 C 
ENDROOT
BRANCH   1   2
ATOM      2  C   UNL     1    -102.654 -27.398 -16.441  1.00  0.00     0.027 C 
BRANCH   2   3
ATOM      3  C   UNL     1    -101.964 -27.271 -15.112  1.00  0.00    -0.025 C 
ATOM      4  C   UNL     1    -101.224 -28.266 -14.610  1.00  0.00     0.020 C 
BRANCH   4   5
ATOM      5  C   UNL     1    -100.548 -28.155 -13.309  1.00  0.00     0.064 C 
ATOM      6  O   UNL     1     -99.331 -28.458 -13.214  1.00  0.00    -0.545 OA
ATOM      7  O   UNL     1    -101.233 -27.718 -12.180  1.00  0.00    -0.545 OA
ENDBRANCH   4   5
ENDBRANCH   2   3
ENDBRANCH   1   2
BRANCH   1   8
ATOM      8  C   UNL     1    -104.940 -26.219 -16.710  1.00  0.00     0.000 C 
BRANCH   8   9
ATOM      9  C   UNL     1    -105.556 -25.011 -15.988  1.00  0.00    -0.000 C 
BRANCH   9  10
ATOM     10  C   UNL     1    -104.493 -24.249 -15.188  1.00  0.00    -0.003 C 
ATOM     11  C   UNL     1    -104.667 -24.472 -13.689  1.00  0.00     0.004 C 
ENDBRANCH   9  10
ENDBRANCH   8   9
ENDBRANCH   1   8
TORSDOF 6
ENDMDL
MODEL 4
REMARK VINA RESULT:    -2.925      3.362      5.402
REMARK INTER + INTRA:          -4.661
REMARK INTER:                  -4.370
REMARK INTRA:                  -0.290
REMARK UNBOUND:                -0.709
REMARK SMILES CCCCCCC=CC(=O)[O-]
REMARK SMILES IDX 5 1 6 2 7 3 8 4 9 5 10 6 11 7 4 8 3 9 2 10 1 11
REMARK H PARENT
REMARK Flexibility Score: inf
ROOT
ATOM      1  C   UNL     1    -100.425 -28.987 -12.450  1.00  0.00     0.004 C 
ENDROOT
BRANCH   1   2
ATOM      2  C   UNL     1    -100.329 -27.868 -13.502  1.00  0.00     0.027 C 
BRANCH   2   3
ATOM      3  C   UNL     1    -101.630 -27.632 -14.218  1.00  0.00    -0.025 C 
ATOM      4  C   UNL     1    -101.701 -27.620 -15.553  1.00  0.00     0.020 C 
BRANCH   4   5
ATOM      5  C   UNL     1    -102.967 -27.386 -16.264  1.00  0.00     0.064 C 
ATOM      6  O   UNL     1    -103.808 -28.317 -16.358  1.00  0.00    -0.545 OA
ATOM      7  O   UNL     1    -103.251 -26.150 -16.835  1.00  0.00    -0.545 OA
ENDBRANCH   4   5
ENDBRANCH   2   3
ENDBRANCH   1   2
BRANCH   1   8
ATOM      8  C   UNL     1     -99.078 -29.645 -12.101  1.00  0.00     0.000 C 
BRANCH   8   9
ATOM      9  C   UNL     1     -98.003 -29.405 -13.173  1.00  0.00    -0.000 C 
BRANCH   9  10
ATOM     10  C   UNL     1     -96.625 -29.860 -12.678  1.00  0.00    -0.003 C 
ATOM     11  C   UNL     1     -96.626 -30.080 -11.168  1.00  0.00     0.004 C 
ENDBRANCH   9  10
ENDBRANCH   8   9
ENDBRANCH   1   8
TORSDOF 6
ENDMDL
MODEL 5
REMARK VINA RESULT:    -2.919      1.360      2.373
REMARK INTER + INTRA:          -4.652
REMARK INTER:                  -4.397
REMARK INTRA:                  -0.254
REMARK UNBOUND:                -0.709
REMARK SMILES CCCCCCC=CC(=O)[O-]
REMARK SMILES IDX 5 1 6 2 7 3 8 4 9 5 10 6 11 7 4 8 3 9 2 10 1 11
REMARK H PARENT
REMARK Flexibility Score: inf
ROOT
ATOM      1  C   UNL     1    -100.312 -27.713 -13.422  1.00  0.00     0.004 C 
ENDROOT
BRANCH   1   2
ATOM      2  C   UNL     1     -99.950 -29.106 -12.880  1.00  0.00     0.027 C 
BRANCH   2   3
ATOM      3  C   UNL     1     -98.498 -29.444 -13.074  1.00  0.00    -0.025 C 
ATOM      4  C   UNL     1     -97.715 -29.782 -12.044  1.00  0.00     0.020 C 
BRANCH   4   5
ATOM      5  C   UNL     1     -96.292 -30.110 -12.221  1.00  0.00     0.064 C 
ATOM      6  O   UNL     1     -95.932 -30.797 -13.211  1.00  0.00    -0.545 OA
ATOM      7  O   UNL     1     -95.337 -29.671 -11.311  1.00  0.00    -0.545 OA
ENDBRANCH   4   5
ENDBRANCH   2   3
ENDBRANCH   1   2
BRANCH   1   8
ATOM      8  C   UNL     1    -101.638 -27.663 -14.204  1.00  0.00     0.000 C 
BRANCH   8   9
ATOM      9  C   UNL     1    -101.640 -28.587 -15.432  1.00  0.00    -0.000 C 
BRANCH   9  10
ATOM     10  C   UNL     1    -102.327 -27.911 -16.625  1.00  0.00    -0.003 C 
ATOM     11  C   UNL     1    -103.052 -26.639 -16.195  1.00  0.00     0.004 C 
ENDBRANCH   9  10
ENDBRANCH   8   9
ENDBRANCH   1   8
TORSDOF 6
ENDMDL
MODEL 6
REMARK VINA RESULT:    -2.915      3.597      5.297
REMARK INTER + INTRA:          -4.647
REMARK INTER:                  -3.973
REMARK INTRA:                  -0.674
REMARK UNBOUND:                -0.709
REMARK SMILES CCCCCCC=CC(=O)[O-]
REMARK SMILES IDX 5 1 6 2 7 3 8 4 9 5 10 6 11 7 4 8 3 9 2 10 1 11
REMARK H PARENT
REMARK Flexibility Score: inf
ROOT
ATOM      1  C   UNL     1    -100.750 -30.205 -14.540  1.00  0.00     0.004 C 
ENDROOT
BRANCH   1   2
ATOM      2  C   UNL     1    -100.855 -29.839 -16.030  1.00  0.00     0.027 C 
BRANCH   2   3
ATOM      3  C   UNL     1    -102.127 -29.108 -16.358  1.00  0.00    -0.025 C 
ATOM      4  C   UNL     1    -102.184 -27.772 -16.364  1.00  0.00     0.020 C 
BRANCH   4   5
ATOM      5  C   UNL     1    -103.424 -27.046 -16.679  1.00  0.00     0.064 C 
ATOM      6  O   UNL     1    -103.391 -25.797 -16.829  1.00  0.00    -0.545 OA
ATOM      7  O   UNL     1    -104.634 -27.718 -16.814  1.00  0.00    -0.545 OA
ENDBRANCH   4   5
ENDBRANCH   2   3
ENDBRANCH   1   2
BRANCH   1   8
ATOM      8  C   UNL     1     -99.667 -29.425 -13.772  1.00  0.00     0.000 C 
BRANCH   8   9
ATOM      9  C   UNL     1    -100.160 -28.060 -13.269  1.00  0.00    -0.000 C 
BRANCH   9  10
ATOM     10  C   UNL     1    -101.277 -28.229 -12.232  1.00  0.00    -0.003 C 
ATOM     11  C   UNL     1    -102.557 -27.531 -12.683  1.00  0.00     0.004 C 
ENDBRANCH   9  10
ENDBRANCH   8   9
ENDBRANCH   1   8
TORSDOF 6
ENDMDL
MODEL 7
REMARK VINA RESULT:    -2.881      4.375      5.994
REMARK INTER + INTRA:          -4.601
REMARK INTER:                  -4.286
REMARK INTRA:                  -0.315
REMARK UNBOUND:                -0.709
REMARK SMILES CCCCCCC=CC(=O)[O-]
REMARK SMILES IDX 5 1 6 2 7 3 8 4 9 5 10 6 11 7 4 8 3 9 2 10 1 11
REMARK H PARENT
REMARK Flexibility Score: inf
ROOT
ATOM      1  C   UNL     1    -101.423 -28.778 -15.202  1.00  0.00     0.004 C 
ENDROOT
BRANCH   1   2
ATOM      2  C   UNL     1    -101.982 -28.082 -16.456  1.00  0.00     0.027 C 
BRANCH   2   3
ATOM      3  C   UNL     1    -102.754 -26.834 -16.130  1.00  0.00    -0.025 C 
ATOM      4  C   UNL     1    -103.969 -26.610 -16.642  1.00  0.00     0.020 C 
BRANCH   4   5
ATOM      5  C   UNL     1    -104.733 -25.391 -16.334  1.00  0.00     0.064 C 
ATOM      6  O   UNL     1    -104.202 -24.484 -15.643  1.00  0.00    -0.545 OA
ATOM      7  O   UNL     1    -106.034 -25.225 -16.795  1.00  0.00    -0.545 OA
ENDBRANCH   4   5
ENDBRANCH   2   3
ENDBRANCH   1   2
BRANCH   1   8
ATOM      8  C   UNL     1    -101.361 -27.878 -13.954  1.00  0.00     0.000 C 
BRANCH   8   9
ATOM      9  C   UNL     1    -100.003 -27.943 -13.240  1.00  0.00    -0.000 C 
BRANCH   9  10
ATOM     10  C   UNL     1     -99.548 -29.395 -13.057  1.00  0.00    -0.003 C 
ATOM     11  C   UNL     1     -98.031 -29.516 -13.169  1.00  0.00     0.004 C 
ENDBRANCH   9  10
ENDBRANCH   8   9
ENDBRANCH   1   8
TORSDOF 6
ENDMDL
MODEL 8
REMARK VINA RESULT:    -2.868      5.499      6.950
REMARK INTER + INTRA:          -4.583
REMARK INTER:                  -4.348
REMARK INTRA:                  -0.235
REMARK UNBOUND:                -0.709
REMARK SMILES CCCCCCC=CC(=O)[O-]
REMARK SMILES IDX 5 1 6 2 7 3 8 4 9 5 10 6 11 7 4 8 3 9 2 10 1 11
REMARK H PARENT
REMARK Flexibility Score: inf
ROOT
ATOM      1  C   UNL     1    -102.735 -27.155 -16.385  1.00  0.00     0.004 C 
ENDROOT
BRANCH   1   2
ATOM      2  C   UNL     1    -103.401 -26.272 -15.315  1.00  0.00     0.027 C 
BRANCH   2   3
ATOM      3  C   UNL     1    -104.209 -25.152 -15.908  1.00  0.00    -0.025 C 
ATOM      4  C   UNL     1    -104.598 -24.105 -15.173  1.00  0.00     0.020 C 
BRANCH   4   5
ATOM      5  C   UNL     1    -105.392 -23.005 -15.741  1.00  0.00     0.064 C 
ATOM      6  O   UNL     1    -104.950 -21.828 -15.688  1.00  0.00    -0.545 OA
ATOM      7  O   UNL     1    -106.624 -23.245 -16.339  1.00  0.00    -0.545 OA
ENDBRANCH   4   5
ENDBRANCH   2   3
ENDBRANCH   1   2
BRANCH   1   8
ATOM      8  C   UNL     1    -101.625 -28.075 -15.846  1.00  0.00     0.000 C 
BRANCH   8   9
ATOM      9  C   UNL     1    -101.689 -28.254 -14.321  1.00  0.00    -0.000 C 
BRANCH   9  10
ATOM     10  C   UNL     1    -100.421 -27.712 -13.651  1.00  0.00    -0.003 C 
ATOM     11  C   UNL     1     -99.587 -28.841 -13.054  1.00  0.00     0.004 C 
ENDBRANCH   9  10
ENDBRANCH   8   9
ENDBRANCH   1   8
TORSDOF 6
ENDMDL
MODEL 9
REMARK VINA RESULT:    -2.828      4.458      6.121
REMARK INTER + INTRA:          -4.530
REMARK INTER:                  -3.912
REMARK INTRA:                  -0.618
REMARK UNBOUND:                -0.709
REMARK SMILES CCCCCCC=CC(=O)[O-]
REMARK SMILES IDX 5 1 6 2 7 3 8 4 9 5 10 6 11 7 4 8 3 9 2 10 1 11
REMARK H PARENT
REMARK Flexibility Score: inf
ROOT
ATOM      1  C   UNL     1    -102.319 -29.108 -15.589  1.00  0.00     0.004 C 
ENDROOT
BRANCH   1   2
ATOM      2  C   UNL     1    -101.965 -27.895 -16.466  1.00  0.00     0.027 C 
BRANCH   2   3
ATOM      3  C   UNL     1    -103.126 -26.957 -16.652  1.00  0.00    -0.025 C 
ATOM      4  C   UNL     1    -103.401 -25.999 -15.761  1.00  0.00     0.020 C 
BRANCH   4   5
ATOM      5  C   UNL     1    -104.536 -25.079 -15.930  1.00  0.00     0.064 C 
ATOM      6  O   UNL     1    -105.594 -25.491 -16.471  1.00  0.00    -0.545 OA
ATOM      7  O   UNL     1    -104.458 -23.759 -15.500  1.00  0.00    -0.545 OA
ENDBRANCH   4   5
ENDBRANCH   2   3
ENDBRANCH   1   2
BRANCH   1   8
ATOM      8  C   UNL     1    -101.382 -29.312 -14.384  1.00  0.00     0.000 C 
BRANCH   8   9
ATOM      9  C   UNL     1    -100.878 -27.988 -13.790  1.00  0.00    -0.000 C 
BRANCH   9  10
ATOM     10  C   UNL     1    -101.347 -27.823 -12.340  1.00  0.00    -0.003 C 
ATOM     11  C   UNL     1    -102.821 -27.432 -12.279  1.00  0.00     0.004 C 
ENDBRANCH   9  10
ENDBRANCH   8   9
ENDBRANCH   1   8
TORSDOF 6
ENDMDL
