MODEL 1
REMARK VINA RESULT:    -4.963      0.000      0.000
REMARK INTER + INTRA:          -5.810
REMARK INTER:                  -5.688
REMARK INTRA:                  -0.121
REMARK UNBOUND:                -0.121
REMARK SMILES COc1cc(C(C)=O)ccc1O
REMARK SMILES IDX 5 1 4 2 3 3 11 4 10 5 9 6 6 7 7 8 8 9 2 10 1 11 12 12
REMARK H PARENT 12 13
REMARK Flexibility Score: inf
ROOT
ATOM      1  C   UNL     1       6.870 -10.087  41.933  1.00  0.00     0.021 A 
ATOM      2  C   UNL     1       7.699  -9.014  41.550  1.00  0.00     0.062 A 
ATOM      3  C   UNL     1       8.453  -8.306  42.506  1.00  0.00     0.161 A 
ATOM      4  C   UNL     1       8.376  -8.678  43.854  1.00  0.00     0.157 A 
ATOM      5  C   UNL     1       7.555  -9.742  44.243  1.00  0.00     0.051 A 
ATOM      6  C   UNL     1       6.809 -10.441  43.293  1.00  0.00     0.016 A 
ENDROOT
BRANCH   1   7
ATOM      7  C   UNL     1       6.081 -10.822  40.906  1.00  0.00     0.159 C 
ATOM      8  C   UNL     1       4.878 -11.641  41.268  1.00  0.00     0.093 C 
ATOM      9  O   UNL     1       6.422 -10.764  39.694  1.00  0.00    -0.295 OA
ENDBRANCH   1   7
BRANCH   3  10
ATOM     10  O   UNL     1       9.289  -7.234  42.158  1.00  0.00    -0.493 OA
ATOM     11  C   UNL     1       8.943  -6.209  41.230  1.00  0.00     0.278 C 
ENDBRANCH   3  10
BRANCH   4  12
ATOM     12  O   UNL     1       9.120  -7.981  44.806  1.00  0.00    -0.504 OA
ATOM     13  H   UNL     1       9.272  -8.352  45.736  1.00  0.00     0.293 HD
ENDBRANCH   4  12
TORSDOF 3
ENDMDL
MODEL 2
REMARK VINA RESULT:    -4.737      7.907     10.099
REMARK INTER + INTRA:          -5.550
REMARK INTER:                  -5.448
REMARK INTRA:                  -0.103
REMARK UNBOUND:                -0.121
REMARK SMILES COc1cc(C(C)=O)ccc1O
REMARK SMILES IDX 5 1 4 2 3 3 11 4 10 5 9 6 6 7 7 8 8 9 2 10 1 11 12 12
REMARK H PARENT 12 13
REMARK Flexibility Score: inf
ROOT
ATOM      1  C   UNL     1       6.148  -1.248  35.577  1.00  0.00     0.021 A 
ATOM      2  C   UNL     1       7.114  -2.240  35.314  1.00  0.00     0.062 A 
ATOM      3  C   UNL     1       7.527  -3.132  36.322  1.00  0.00     0.161 A 
ATOM      4  C   UNL     1       6.967  -3.031  37.601  1.00  0.00     0.157 A 
ATOM      5  C   UNL     1       6.006  -2.050  37.871  1.00  0.00     0.051 A 
ATOM      6  C   UNL     1       5.599  -1.166  36.870  1.00  0.00     0.016 A 
ENDROOT
BRANCH   1   7
ATOM      7  C   UNL     1       5.725  -0.314  34.498  1.00  0.00     0.159 C 
ATOM      8  C   UNL     1       6.146   1.125  34.485  1.00  0.00     0.093 C 
ATOM      9  O   UNL     1       4.991  -0.731  33.560  1.00  0.00    -0.295 OA
ENDBRANCH   1   7
BRANCH   3  10
ATOM     10  O   UNL     1       8.487  -4.131  36.092  1.00  0.00    -0.493 OA
ATOM     11  C   UNL     1       8.625  -4.852  34.871  1.00  0.00     0.278 C 
ENDBRANCH   3  10
BRANCH   4  12
ATOM     12  O   UNL     1       7.371  -3.912  38.604  1.00  0.00    -0.504 OA
ATOM     13  H   UNL     1       7.388  -4.914  38.454  1.00  0.00     0.293 HD
ENDBRANCH   4  12
TORSDOF 3
ENDMDL
MODEL 3
REMARK VINA RESULT:    -4.569      1.564      1.982
REMARK INTER + INTRA:          -5.359
REMARK INTER:                  -5.262
REMARK INTRA:                  -0.096
REMARK UNBOUND:                -0.121
REMARK SMILES COc1cc(C(C)=O)ccc1O
REMARK SMILES IDX 5 1 4 2 3 3 11 4 10 5 9 6 6 7 7 8 8 9 2 10 1 11 12 12
REMARK H PARENT 12 13
REMARK Flexibility Score: inf
ROOT
ATOM      1  C   UNL     1       7.493  -9.127  42.601  1.00  0.00     0.021 A 
ATOM      2  C   UNL     1       7.617  -8.137  41.605  1.00  0.00     0.062 A 
ATOM      3  C   UNL     1       8.488  -7.043  41.777  1.00  0.00     0.161 A 
ATOM      4  C   UNL     1       9.240  -6.942  42.954  1.00  0.00     0.157 A 
ATOM      5  C   UNL     1       9.123  -7.920  43.948  1.00  0.00     0.051 A 
ATOM      6  C   UNL     1       8.259  -9.003  43.774  1.00  0.00     0.016 A 
ENDROOT
BRANCH   1   7
ATOM      7  C   UNL     1       6.567 -10.274  42.400  1.00  0.00     0.159 C 
ATOM      8  C   UNL     1       6.226 -11.222  43.511  1.00  0.00     0.093 C 
ATOM      9  O   UNL     1       6.046 -10.468  41.267  1.00  0.00    -0.295 OA
ENDBRANCH   1   7
BRANCH   3  10
ATOM     10  O   UNL     1       8.634  -6.042  40.804  1.00  0.00    -0.493 OA
ATOM     11  C   UNL     1       7.890  -4.827  40.778  1.00  0.00     0.278 C 
ENDBRANCH   3  10
BRANCH   4  12
ATOM     12  O   UNL     1      10.104  -5.862  43.130  1.00  0.00    -0.504 OA
ATOM     13  H   UNL     1      10.069  -5.285  43.961  1.00  0.00     0.293 HD
ENDBRANCH   4  12
TORSDOF 3
ENDMDL
MODEL 4
REMARK VINA RESULT:    -4.473      1.494      4.182
REMARK INTER + INTRA:          -5.248
REMARK INTER:                  -5.137
REMARK INTRA:                  -0.110
REMARK UNBOUND:                -0.121
REMARK SMILES COc1cc(C(C)=O)ccc1O
REMARK SMILES IDX 5 1 4 2 3 3 11 4 10 5 9 6 6 7 7 8 8 9 2 10 1 11 12 12
REMARK H PARENT 12 13
REMARK Flexibility Score: inf
ROOT
ATOM      1  C   UNL     1       8.219  -8.249  42.496  1.00  0.00     0.021 A 
ATOM      2  C   UNL     1       7.468  -8.999  41.568  1.00  0.00     0.062 A 
ATOM      3  C   UNL     1       6.736 -10.131  41.978  1.00  0.00     0.161 A 
ATOM      4  C   UNL     1       6.756 -10.512  43.326  1.00  0.00     0.157 A 
ATOM      5  C   UNL     1       7.499  -9.772  44.253  1.00  0.00     0.051 A 
ATOM      6  C   UNL     1       8.224  -8.651  43.844  1.00  0.00     0.016 A 
ENDROOT
BRANCH   1   7
ATOM      7  C   UNL     1       8.986  -7.057  42.043  1.00  0.00     0.159 C 
ATOM      8  C   UNL     1       8.888  -5.737  42.747  1.00  0.00     0.093 C 
ATOM      9  O   UNL     1       9.745  -7.144  41.039  1.00  0.00    -0.295 OA
ENDBRANCH   1   7
BRANCH   3  10
ATOM     10  O   UNL     1       5.978 -10.899  41.080  1.00  0.00    -0.493 OA
ATOM     11  C   UNL     1       6.346 -11.157  39.728  1.00  0.00     0.278 C 
ENDBRANCH   3  10
BRANCH   4  12
ATOM     12  O   UNL     1       6.033 -11.631  43.738  1.00  0.00    -0.504 OA
ATOM     13  H   UNL     1       6.495 -12.486  44.022  1.00  0.00     0.293 HD
ENDBRANCH   4  12
TORSDOF 3
ENDMDL
MODEL 5
REMARK VINA RESULT:    -4.462      1.595      4.228
REMARK INTER + INTRA:          -5.235
REMARK INTER:                  -5.115
REMARK INTRA:                  -0.120
REMARK UNBOUND:                -0.121
REMARK SMILES COc1cc(C(C)=O)ccc1O
REMARK SMILES IDX 5 1 4 2 3 3 11 4 10 5 9 6 6 7 7 8 8 9 2 10 1 11 12 12
REMARK H PARENT 12 13
REMARK Flexibility Score: inf
ROOT
ATOM      1  C   UNL     1       8.474  -6.924  42.052  1.00  0.00     0.021 A 
ATOM      2  C   UNL     1       8.044  -8.183  41.585  1.00  0.00     0.062 A 
ATOM      3  C   UNL     1       7.691  -9.206  42.487  1.00  0.00     0.161 A 
ATOM      4  C   UNL     1       7.769  -8.965  43.865  1.00  0.00     0.157 A 
ATOM      5  C   UNL     1       8.195  -7.718  44.336  1.00  0.00     0.051 A 
ATOM      6  C   UNL     1       8.544  -6.706  43.440  1.00  0.00     0.016 A 
ENDROOT
BRANCH   1   7
ATOM      7  C   UNL     1       8.843  -5.856  41.082  1.00  0.00     0.159 C 
ATOM      8  C   UNL     1       7.957  -4.672  40.833  1.00  0.00     0.093 C 
ATOM      9  O   UNL     1       9.928  -5.937  40.445  1.00  0.00    -0.295 OA
ENDBRANCH   1   7
BRANCH   3  10
ATOM     10  O   UNL     1       7.259 -10.469  42.055  1.00  0.00    -0.493 OA
ATOM     11  C   UNL     1       5.956 -10.748  41.551  1.00  0.00     0.278 C 
ENDBRANCH   3  10
BRANCH   4  12
ATOM     12  O   UNL     1       7.421  -9.974  44.763  1.00  0.00    -0.504 OA
ATOM     13  H   UNL     1       7.646  -9.908  45.748  1.00  0.00     0.293 HD
ENDBRANCH   4  12
TORSDOF 3
ENDMDL
MODEL 6
REMARK VINA RESULT:    -4.337      7.040      9.644
REMARK INTER + INTRA:          -5.092
REMARK INTER:                  -4.980
REMARK INTRA:                  -0.112
REMARK UNBOUND:                -0.121
REMARK SMILES COc1cc(C(C)=O)ccc1O
REMARK SMILES IDX 5 1 4 2 3 3 11 4 10 5 9 6 6 7 7 8 8 9 2 10 1 11 12 12
REMARK H PARENT 12 13
REMARK Flexibility Score: inf
ROOT
ATOM      1  C   UNL     1       7.255  -2.760  38.051  1.00  0.00     0.021 A 
ATOM      2  C   UNL     1       6.490  -1.608  37.776  1.00  0.00     0.062 A 
ATOM      3  C   UNL     1       6.026  -1.344  36.472  1.00  0.00     0.161 A 
ATOM      4  C   UNL     1       6.330  -2.240  35.439  1.00  0.00     0.157 A 
ATOM      5  C   UNL     1       7.089  -3.385  35.704  1.00  0.00     0.051 A 
ATOM      6  C   UNL     1       7.547  -3.644  36.997  1.00  0.00     0.016 A 
ENDROOT
BRANCH   1   7
ATOM      7  C   UNL     1       7.736  -3.021  39.435  1.00  0.00     0.159 C 
ATOM      8  C   UNL     1       8.092  -1.907  40.374  1.00  0.00     0.093 C 
ATOM      9  O   UNL     1       7.852  -4.208  39.845  1.00  0.00    -0.295 OA
ENDBRANCH   1   7
BRANCH   3  10
ATOM     10  O   UNL     1       5.262  -0.207  36.165  1.00  0.00    -0.493 OA
ATOM     11  C   UNL     1       5.801   1.094  35.950  1.00  0.00     0.278 C 
ENDBRANCH   3  10
BRANCH   4  12
ATOM     12  O   UNL     1       5.873  -1.984  34.146  1.00  0.00    -0.504 OA
ATOM     13  H   UNL     1       6.466  -1.547  33.451  1.00  0.00     0.293 HD
ENDBRANCH   4  12
TORSDOF 3
ENDMDL
MODEL 7
REMARK VINA RESULT:    -4.332      7.477      9.280
REMARK INTER + INTRA:          -5.086
REMARK INTER:                  -4.950
REMARK INTRA:                  -0.136
REMARK UNBOUND:                -0.121
REMARK SMILES COc1cc(C(C)=O)ccc1O
REMARK SMILES IDX 5 1 4 2 3 3 11 4 10 5 9 6 6 7 7 8 8 9 2 10 1 11 12 12
REMARK H PARENT 12 13
REMARK Flexibility Score: inf
ROOT
ATOM      1  C   UNL     1       6.548  -1.830  36.226  1.00  0.00     0.021 A 
ATOM      2  C   UNL     1       6.601  -1.695  37.628  1.00  0.00     0.062 A 
ATOM      3  C   UNL     1       7.402  -2.553  38.407  1.00  0.00     0.161 A 
ATOM      4  C   UNL     1       8.155  -3.551  37.776  1.00  0.00     0.157 A 
ATOM      5  C   UNL     1       8.108  -3.692  36.385  1.00  0.00     0.051 A 
ATOM      6  C   UNL     1       7.313  -2.841  35.615  1.00  0.00     0.016 A 
ENDROOT
BRANCH   1   7
ATOM      7  C   UNL     1       5.695  -0.914  35.421  1.00  0.00     0.159 C 
ATOM      8  C   UNL     1       5.340  -1.210  33.994  1.00  0.00     0.093 C 
ATOM      9  O   UNL     1       5.250   0.146  35.941  1.00  0.00    -0.295 OA
ENDBRANCH   1   7
BRANCH   3  10
ATOM     10  O   UNL     1       7.478  -2.444  39.804  1.00  0.00    -0.493 OA
ATOM     11  C   UNL     1       8.221  -1.446  40.497  1.00  0.00     0.278 C 
ENDBRANCH   3  10
BRANCH   4  12
ATOM     12  O   UNL     1       8.951  -4.403  38.541  1.00  0.00    -0.504 OA
ATOM     13  H   UNL     1       9.875  -4.682  38.236  1.00  0.00     0.293 HD
ENDBRANCH   4  12
TORSDOF 3
ENDMDL
MODEL 8
REMARK VINA RESULT:    -4.311     13.972     15.137
REMARK INTER + INTRA:          -5.063
REMARK INTER:                  -4.931
REMARK INTRA:                  -0.132
REMARK UNBOUND:                -0.121
REMARK SMILES COc1cc(C(C)=O)ccc1O
REMARK SMILES IDX 5 1 4 2 3 3 11 4 10 5 9 6 6 7 7 8 8 9 2 10 1 11 12 12
REMARK H PARENT 12 13
REMARK Flexibility Score: inf
ROOT
ATOM      1  C   UNL     1      20.687 -12.183  45.230  1.00  0.00     0.021 A 
ATOM      2  C   UNL     1      21.103 -13.463  45.646  1.00  0.00     0.062 A 
ATOM      3  C   UNL     1      22.161 -13.617  46.563  1.00  0.00     0.161 A 
ATOM      4  C   UNL     1      22.805 -12.479  47.066  1.00  0.00     0.157 A 
ATOM      5  C   UNL     1      22.397 -11.204  46.659  1.00  0.00     0.051 A 
ATOM      6  C   UNL     1      21.348 -11.055  45.749  1.00  0.00     0.016 A 
ENDROOT
BRANCH   1   7
ATOM      7  C   UNL     1      19.567 -12.042  44.259  1.00  0.00     0.159 C 
ATOM      8  C   UNL     1      18.702 -10.818  44.219  1.00  0.00     0.093 C 
ATOM      9  O   UNL     1      19.327 -12.971  43.440  1.00  0.00    -0.295 OA
ENDBRANCH   1   7
BRANCH   3  10
ATOM     10  O   UNL     1      22.599 -14.877  46.998  1.00  0.00    -0.493 OA
ATOM     11  C   UNL     1      23.491 -15.717  46.270  1.00  0.00     0.278 C 
ENDBRANCH   3  10
BRANCH   4  12
ATOM     12  O   UNL     1      23.853 -12.624  47.975  1.00  0.00    -0.504 OA
ATOM     13  H   UNL     1      24.443 -11.843  48.233  1.00  0.00     0.293 HD
ENDBRANCH   4  12
TORSDOF 3
ENDMDL
MODEL 9
REMARK VINA RESULT:    -4.225      6.781      8.989
REMARK INTER + INTRA:          -4.964
REMARK INTER:                  -4.832
REMARK INTRA:                  -0.131
REMARK UNBOUND:                -0.121
REMARK SMILES COc1cc(C(C)=O)ccc1O
REMARK SMILES IDX 5 1 4 2 3 3 11 4 10 5 9 6 6 7 7 8 8 9 2 10 1 11 12 12
REMARK H PARENT 12 13
REMARK Flexibility Score: inf
ROOT
ATOM      1  C   UNL     1       7.480  -2.816  38.606  1.00  0.00     0.021 A 
ATOM      2  C   UNL     1       7.833  -3.724  37.587  1.00  0.00     0.062 A 
ATOM      3  C   UNL     1       7.472  -3.483  36.247  1.00  0.00     0.161 A 
ATOM      4  C   UNL     1       6.753  -2.324  35.927  1.00  0.00     0.157 A 
ATOM      5  C   UNL     1       6.398  -1.418  36.932  1.00  0.00     0.051 A 
ATOM      6  C   UNL     1       6.757  -1.660  38.260  1.00  0.00     0.016 A 
ENDROOT
BRANCH   1   7
ATOM      7  C   UNL     1       7.871  -3.089  40.016  1.00  0.00     0.159 C 
ATOM      8  C   UNL     1       8.258  -1.989  40.959  1.00  0.00     0.093 C 
ATOM      9  O   UNL     1       7.881  -4.276  40.445  1.00  0.00    -0.295 OA
ENDBRANCH   1   7
BRANCH   3  10
ATOM     10  O   UNL     1       7.809  -4.366  35.210  1.00  0.00    -0.493 OA
ATOM     11  C   UNL     1       9.086  -4.422  34.581  1.00  0.00     0.278 C 
ENDBRANCH   3  10
BRANCH   4  12
ATOM     12  O   UNL     1       6.393  -2.079  34.602  1.00  0.00    -0.504 OA
ATOM     13  H   UNL     1       5.688  -2.635  34.133  1.00  0.00     0.293 HD
ENDBRANCH   4  12
TORSDOF 3
ENDMDL
