MODEL 1
REMARK VINA RESULT:    -4.585      0.000      0.000
REMARK INTER + INTRA:          -7.031
REMARK INTER:                  -6.998
REMARK INTRA:                  -0.033
REMARK UNBOUND:                -0.033
REMARK SMILES CC1=CCC[C@H](C)C(=O)C[C@H](C(C)C)C(=O)C1
REMARK SMILES IDX 8 1 9 2 6 3 7 4 5 5 4 6 3 7 2 8 1 9 10 11 11 12 15 13 16 14
REMARK SMILES IDX 17 15 12 17 13 18 14 19
REMARK H PARENT
REMARK Flexibility Score: 70.00
ROOT
ATOM      1  C   UNL     1      -4.598  13.744 -28.076  1.00  0.00     0.136 C 
ATOM      2  O   UNL     1      -5.386  14.661 -27.894  1.00  0.00    -0.299 OA
ENDROOT
BRANCH   1   3
ATOM      3  C   UNL     1      -3.356  13.613 -27.201  1.00  0.00     0.053 C 
ATOM      4  C   UNL     1      -3.125  12.169 -26.726  1.00  0.00     0.016 C 
BRANCH   3   5
ATOM      5  C   UNL     1      -2.093  14.186 -27.885  1.00  0.00     0.015 C 
BRANCH   5   6
ATOM      6  C   UNL     1      -0.977  13.141 -28.072  1.00  0.00     0.028 C 
BRANCH   6   7
ATOM      7  C   UNL     1      -0.473  13.052 -29.492  1.00  0.00    -0.028 C 
ATOM      8  C   UNL     1      -0.793  12.100 -30.407  1.00  0.00    -0.070 CG0
ATOM      9  C   UNL     1      -0.066  12.147 -31.730  1.00  0.00     0.039 C 
ATOM     10  G   UNL     1      -1.881  11.043 -30.221  1.00  0.00     0.000 G0
ENDBRANCH   6   7
ENDBRANCH   5   6
ENDBRANCH   3   5
ENDBRANCH   1   3
BRANCH   1  11
ATOM     11  C   UNL     1      -4.846  12.769 -29.203  1.00  0.00     0.087 C 
BRANCH  11  12
ATOM     12  C   UNL     1      -3.810  12.843 -30.364  1.00  0.00     0.066 C 
BRANCH  12  13
ATOM     13  C   UNL     1      -3.272  11.456 -30.706  1.00  0.00     0.140 C 
ATOM     14  O   UNL     1      -3.918  10.698 -31.417  1.00  0.00    -0.299 OA
BRANCH  13  15
ATOM     15  C   UNL     1      -1.900  11.038 -30.238  1.00  0.00     0.106 CG0
ATOM     16  G   UNL     1      -0.813  12.100 -30.397  1.00  0.00     0.000 G0
ENDBRANCH  13  15
ENDBRANCH  12  13
BRANCH  12  17
ATOM     17  C   UNL     1      -4.302  13.622 -31.634  1.00  0.00    -0.006 C 
ATOM     18  C   UNL     1      -5.364  14.690 -31.316  1.00  0.00     0.008 C 
ATOM     19  C   UNL     1      -3.120  14.309 -32.346  1.00  0.00     0.008 C 
ENDBRANCH  12  17
ENDBRANCH  11  12
ENDBRANCH   1  11
TORSDOF 1
ENDMDL
MODEL 2
REMARK VINA RESULT:    -4.504      1.795      3.455
REMARK INTER + INTRA:          -6.907
REMARK INTER:                  -7.161
REMARK INTRA:                   0.255
REMARK UNBOUND:                -0.033
REMARK SMILES CC1=CCC[C@H](C)C(=O)C[C@H](C(C)C)C(=O)C1
REMARK SMILES IDX 8 1 9 2 6 3 7 4 5 5 4 6 3 7 2 8 1 9 10 11 11 12 15 13 16 14
REMARK SMILES IDX 17 15 12 17 13 18 14 19
REMARK H PARENT
REMARK Flexibility Score: 70.00
ROOT
ATOM      1  C   UNL     1      -1.272  13.563 -28.405  1.00  0.00     0.136 C 
ATOM      2  O   UNL     1      -1.004  14.745 -28.241  1.00  0.00    -0.299 OA
ENDROOT
BRANCH   1   3
ATOM      3  C   UNL     1      -0.346  12.673 -29.227  1.00  0.00     0.053 C 
ATOM      4  C   UNL     1      -0.875  11.234 -29.347  1.00  0.00     0.016 C 
BRANCH   3   5
ATOM      5  C   UNL     1      -0.038  13.273 -30.619  1.00  0.00     0.015 C 
BRANCH   5   6
ATOM      6  C   UNL     1      -1.025  12.819 -31.709  1.00  0.00     0.028 C 
BRANCH   6   7
ATOM      7  C   UNL     1      -2.234  13.715 -31.833  1.00  0.00    -0.028 C 
ATOM      8  C   UNL     1      -3.528  13.364 -31.612  1.00  0.00    -0.070 CG0
ATOM      9  C   UNL     1      -4.582  14.401 -31.920  1.00  0.00     0.039 C 
ATOM     10  G   UNL     1      -3.980  12.035 -31.008  1.00  0.00     0.000 G0
ENDBRANCH   6   7
ENDBRANCH   5   6
ENDBRANCH   3   5
ENDBRANCH   1   3
BRANCH   1  11
ATOM     11  C   UNL     1      -2.550  13.007 -27.822  1.00  0.00     0.087 C 
BRANCH  11  12
ATOM     12  C   UNL     1      -3.820  13.256 -28.688  1.00  0.00     0.066 C 
BRANCH  12  13
ATOM     13  C   UNL     1      -4.169  12.021 -29.516  1.00  0.00     0.140 C 
ATOM     14  O   UNL     1      -4.654  11.033 -28.982  1.00  0.00    -0.299 OA
BRANCH  13  15
ATOM     15  C   UNL     1      -3.995  12.039 -31.014  1.00  0.00     0.106 CG0
ATOM     16  G   UNL     1      -3.538  13.377 -31.595  1.00  0.00     0.000 G0
ENDBRANCH  13  15
ENDBRANCH  12  13
BRANCH  12  17
ATOM     17  C   UNL     1      -5.056  13.813 -27.896  1.00  0.00    -0.006 C 
ATOM     18  C   UNL     1      -4.664  14.772 -26.758  1.00  0.00     0.008 C 
ATOM     19  C   UNL     1      -6.024  14.550 -28.843  1.00  0.00     0.008 C 
ENDBRANCH  12  17
ENDBRANCH  11  12
ENDBRANCH   1  11
TORSDOF 1
ENDMDL
MODEL 3
REMARK VINA RESULT:    -4.493      2.051      3.995
REMARK INTER + INTRA:          -6.890
REMARK INTER:                  -6.898
REMARK INTRA:                   0.008
REMARK UNBOUND:                -0.033
REMARK SMILES CC1=CCC[C@H](C)C(=O)C[C@H](C(C)C)C(=O)C1
REMARK SMILES IDX 8 1 9 2 6 3 7 4 5 5 4 6 3 7 2 8 1 9 10 11 11 12 15 13 16 14
REMARK SMILES IDX 17 15 12 17 13 18 14 19
REMARK H PARENT
REMARK Flexibility Score: 70.00
ROOT
ATOM      1  C   UNL     1      -3.104  13.091 -27.508  1.00  0.00     0.136 C 
ATOM      2  O   UNL     1      -2.693  11.969 -27.251  1.00  0.00    -0.299 OA
ENDROOT
BRANCH   1   3
ATOM      3  C   UNL     1      -4.373  13.615 -26.844  1.00  0.00     0.053 C 
ATOM      4  C   UNL     1      -4.129  14.074 -25.396  1.00  0.00     0.016 C 
BRANCH   3   5
ATOM      5  C   UNL     1      -5.054  14.727 -27.675  1.00  0.00     0.015 C 
BRANCH   5   6
ATOM      6  C   UNL     1      -6.082  14.185 -28.686  1.00  0.00     0.028 C 
BRANCH   6   7
ATOM      7  C   UNL     1      -5.911  14.751 -30.075  1.00  0.00    -0.028 C 
ATOM      8  C   UNL     1      -5.018  14.339 -31.013  1.00  0.00    -0.070 CG0
ATOM      9  C   UNL     1      -4.947  15.139 -32.291  1.00  0.00     0.039 C 
ATOM     10  G   UNL     1      -4.147  13.089 -30.897  1.00  0.00     0.000 G0
ENDBRANCH   6   7
ENDBRANCH   5   6
ENDBRANCH   3   5
ENDBRANCH   1   3
BRANCH   1  11
ATOM     11  C   UNL     1      -2.366  13.935 -28.521  1.00  0.00     0.087 C 
BRANCH  11  12
ATOM     12  C   UNL     1      -1.788  13.141 -29.729  1.00  0.00     0.066 C 
BRANCH  12  13
ATOM     13  C   UNL     1      -2.653  13.331 -30.973  1.00  0.00     0.140 C 
ATOM     14  O   UNL     1      -2.141  13.623 -32.045  1.00  0.00    -0.299 OA
BRANCH  13  15
ATOM     15  C   UNL     1      -4.139  13.080 -30.910  1.00  0.00     0.106 CG0
ATOM     16  G   UNL     1      -5.009  14.332 -31.008  1.00  0.00     0.000 G0
ENDBRANCH  13  15
ENDBRANCH  12  13
BRANCH  12  17
ATOM     17  C   UNL     1      -0.266  13.395 -30.015  1.00  0.00    -0.006 C 
ATOM     18  C   UNL     1       0.529  13.787 -28.757  1.00  0.00     0.008 C 
ATOM     19  C   UNL     1       0.389  12.146 -30.635  1.00  0.00     0.008 C 
ENDBRANCH  12  17
ENDBRANCH  11  12
ENDBRANCH   1  11
TORSDOF 1
ENDMDL
MODEL 4
REMARK VINA RESULT:    -4.379      2.239      4.147
REMARK INTER + INTRA:          -6.716
REMARK INTER:                  -7.176
REMARK INTRA:                   0.460
REMARK UNBOUND:                -0.033
REMARK SMILES CC1=CCC[C@H](C)C(=O)C[C@H](C(C)C)C(=O)C1
REMARK SMILES IDX 8 1 9 2 6 3 7 4 5 5 4 6 3 7 2 8 1 9 10 11 11 12 15 13 16 14
REMARK SMILES IDX 17 15 12 17 13 18 14 19
REMARK H PARENT
REMARK Flexibility Score: 70.00
ROOT
ATOM      1  C   UNL     1      -0.659  13.359 -29.096  1.00  0.00     0.136 C 
ATOM      2  O   UNL     1       0.262  12.877 -28.452  1.00  0.00    -0.299 OA
ENDROOT
BRANCH   1   3
ATOM      3  C   UNL     1      -0.585  13.417 -30.618  1.00  0.00     0.053 C 
ATOM      4  C   UNL     1       0.606  12.620 -31.176  1.00  0.00     0.016 C 
BRANCH   3   5
ATOM      5  C   UNL     1      -1.911  12.984 -31.287  1.00  0.00     0.015 C 
BRANCH   5   6
ATOM      6  C   UNL     1      -2.072  11.456 -31.380  1.00  0.00     0.028 C 
BRANCH   6   7
ATOM      7  C   UNL     1      -3.421  10.966 -30.911  1.00  0.00    -0.028 C 
ATOM      8  C   UNL     1      -3.709  10.427 -29.697  1.00  0.00    -0.070 CG0
ATOM      9  C   UNL     1      -5.108   9.894 -29.497  1.00  0.00     0.039 C 
ATOM     10  G   UNL     1      -2.750  10.395 -28.508  1.00  0.00     0.000 G0
ENDBRANCH   6   7
ENDBRANCH   5   6
ENDBRANCH   3   5
ENDBRANCH   1   3
BRANCH   1  11
ATOM     11  C   UNL     1      -1.849  13.936 -28.366  1.00  0.00     0.087 C 
BRANCH  11  12
ATOM     12  C   UNL     1      -3.091  12.998 -28.307  1.00  0.00     0.066 C 
BRANCH  12  13
ATOM     13  C   UNL     1      -2.733  11.656 -27.671  1.00  0.00     0.140 C 
ATOM     14  O   UNL     1      -2.482  11.583 -26.476  1.00  0.00    -0.299 OA
BRANCH  13  15
ATOM     15  C   UNL     1      -2.766  10.394 -28.496  1.00  0.00     0.106 CG0
ATOM     16  G   UNL     1      -3.713  10.431 -29.695  1.00  0.00     0.000 G0
ENDBRANCH  13  15
ENDBRANCH  12  13
BRANCH  12  17
ATOM     17  C   UNL     1      -4.370  13.641 -27.663  1.00  0.00    -0.006 C 
ATOM     18  C   UNL     1      -4.051  14.570 -26.478  1.00  0.00     0.008 C 
ATOM     19  C   UNL     1      -5.163  14.445 -28.712  1.00  0.00     0.008 C 
ENDBRANCH  12  17
ENDBRANCH  11  12
ENDBRANCH   1  11
TORSDOF 1
ENDMDL
MODEL 5
REMARK VINA RESULT:    -4.104      1.824      3.519
REMARK INTER + INTRA:          -6.296
REMARK INTER:                  -7.033
REMARK INTRA:                   0.737
REMARK UNBOUND:                -0.033
REMARK SMILES CC1=CCC[C@H](C)C(=O)C[C@H](C(C)C)C(=O)C1
REMARK SMILES IDX 8 1 9 2 6 3 7 4 5 5 4 6 3 7 2 8 1 9 10 11 11 12 15 13 16 14
REMARK SMILES IDX 17 15 12 17 13 18 14 19
REMARK H PARENT
REMARK Flexibility Score: 70.00
ROOT
ATOM      1  C   UNL     1      -3.709  10.753 -29.181  1.00  0.00     0.136 C 
ATOM      2  O   UNL     1      -3.365  10.527 -28.029  1.00  0.00    -0.299 OA
ENDROOT
BRANCH   1   3
ATOM      3  C   UNL     1      -3.134   9.931 -30.330  1.00  0.00     0.053 C 
ATOM      4  C   UNL     1      -3.756  10.307 -31.685  1.00  0.00     0.016 C 
BRANCH   3   5
ATOM      5  C   UNL     1      -1.590   9.998 -30.384  1.00  0.00     0.015 C 
BRANCH   5   6
ATOM      6  C   UNL     1      -1.060  11.323 -30.962  1.00  0.00     0.028 C 
BRANCH   6   7
ATOM      7  C   UNL     1      -0.271  12.138 -29.966  1.00  0.00    -0.028 C 
ATOM      8  C   UNL     1      -0.685  13.269 -29.337  1.00  0.00    -0.070 CG0
ATOM      9  C   UNL     1       0.327  13.983 -28.473  1.00  0.00     0.039 C 
ATOM     10  G   UNL     1      -2.110  13.819 -29.381  1.00  0.00     0.000 G0
ENDBRANCH   6   7
ENDBRANCH   5   6
ENDBRANCH   3   5
ENDBRANCH   1   3
BRANCH   1  11
ATOM     11  C   UNL     1      -4.675  11.881 -29.456  1.00  0.00     0.087 C 
BRANCH  11  12
ATOM     12  C   UNL     1      -4.499  13.124 -28.535  1.00  0.00     0.066 C 
BRANCH  12  13
ATOM     13  C   UNL     1      -3.021  13.401 -28.266  1.00  0.00     0.140 C 
ATOM     14  O   UNL     1      -2.549  13.220 -27.152  1.00  0.00    -0.299 OA
BRANCH  13  15
ATOM     15  C   UNL     1      -2.112  13.823 -29.393  1.00  0.00     0.106 CG0
ATOM     16  G   UNL     1      -0.689  13.269 -29.315  1.00  0.00     0.000 G0
ENDBRANCH  13  15
ENDBRANCH  12  13
BRANCH  12  17
ATOM     17  C   UNL     1      -5.270  14.407 -29.008  1.00  0.00    -0.006 C 
ATOM     18  C   UNL     1      -5.374  14.521 -30.539  1.00  0.00     0.008 C 
ATOM     19  C   UNL     1      -6.695  14.436 -28.420  1.00  0.00     0.008 C 
ENDBRANCH  12  17
ENDBRANCH  11  12
ENDBRANCH   1  11
TORSDOF 1
ENDMDL
MODEL 6
REMARK VINA RESULT:    -4.099      1.744      4.004
REMARK INTER + INTRA:          -6.289
REMARK INTER:                  -6.140
REMARK INTRA:                  -0.150
REMARK UNBOUND:                -0.033
REMARK SMILES CC1=CCC[C@H](C)C(=O)C[C@H](C(C)C)C(=O)C1
REMARK SMILES IDX 8 1 9 2 6 3 7 4 5 5 4 6 3 7 2 8 1 9 10 11 11 12 15 13 16 14
REMARK SMILES IDX 17 15 12 17 13 18 14 19
REMARK H PARENT
REMARK Flexibility Score: 70.00
ROOT
ATOM      1  C   UNL     1      -3.947  12.711 -31.205  1.00  0.00     0.136 C 
ATOM      2  O   UNL     1      -4.430  12.872 -32.316  1.00  0.00    -0.299 OA
ENDROOT
BRANCH   1   3
ATOM      3  C   UNL     1      -3.540  11.318 -30.738  1.00  0.00     0.053 C 
ATOM      4  C   UNL     1      -4.351  10.210 -31.430  1.00  0.00     0.016 C 
BRANCH   3   5
ATOM      5  C   UNL     1      -2.020  11.071 -30.879  1.00  0.00     0.015 C 
BRANCH   5   6
ATOM      6  C   UNL     1      -1.234  11.371 -29.590  1.00  0.00     0.028 C 
BRANCH   6   7
ATOM      7  C   UNL     1      -1.993  11.025 -28.332  1.00  0.00    -0.028 C 
ATOM      8  C   UNL     1      -2.525  11.901 -27.439  1.00  0.00    -0.070 CG0
ATOM      9  C   UNL     1      -3.135  11.319 -26.187  1.00  0.00     0.039 C 
ATOM     10  G   UNL     1      -2.617  13.412 -27.651  1.00  0.00     0.000 G0
ENDBRANCH   6   7
ENDBRANCH   5   6
ENDBRANCH   3   5
ENDBRANCH   1   3
BRANCH   1  11
ATOM     11  C   UNL     1      -3.797  13.900 -30.285  1.00  0.00     0.087 C 
BRANCH  11  12
ATOM     12  C   UNL     1      -4.780  13.914 -29.077  1.00  0.00     0.066 C 
BRANCH  12  13
ATOM     13  C   UNL     1      -4.020  13.968 -27.754  1.00  0.00     0.140 C 
ATOM     14  O   UNL     1      -4.563  14.396 -26.744  1.00  0.00    -0.299 OA
BRANCH  13  15
ATOM     15  C   UNL     1      -2.619  13.416 -27.660  1.00  0.00     0.106 CG0
ATOM     16  G   UNL     1      -2.534  11.907 -27.437  1.00  0.00     0.000 G0
ENDBRANCH  13  15
ENDBRANCH  12  13
BRANCH  12  17
ATOM     17  C   UNL     1      -5.910  15.001 -29.162  1.00  0.00    -0.006 C 
ATOM     18  C   UNL     1      -6.184  15.478 -30.599  1.00  0.00     0.008 C 
ATOM     19  C   UNL     1      -7.227  14.466 -28.567  1.00  0.00     0.008 C 
ENDBRANCH  12  17
ENDBRANCH  11  12
ENDBRANCH   1  11
TORSDOF 1
ENDMDL
MODEL 7
REMARK VINA RESULT:    -4.064      1.756      3.293
REMARK INTER + INTRA:          -6.235
REMARK INTER:                  -7.160
REMARK INTRA:                   0.925
REMARK UNBOUND:                -0.033
REMARK SMILES CC1=CCC[C@H](C)C(=O)C[C@H](C(C)C)C(=O)C1
REMARK SMILES IDX 8 1 9 2 6 3 7 4 5 5 4 6 3 7 2 8 1 9 10 11 11 12 15 13 16 14
REMARK SMILES IDX 17 15 12 17 13 18 14 19
REMARK H PARENT
REMARK Flexibility Score: 70.00
ROOT
ATOM      1  C   UNL     1      -4.354  13.789 -30.915  1.00  0.00     0.136 C 
ATOM      2  O   UNL     1      -5.159  13.705 -31.832  1.00  0.00    -0.299 OA
ENDROOT
BRANCH   1   3
ATOM      3  C   UNL     1      -4.793  14.315 -29.553  1.00  0.00     0.053 C 
ATOM      4  C   UNL     1      -6.160  15.016 -29.610  1.00  0.00     0.016 C 
BRANCH   3   5
ATOM      5  C   UNL     1      -4.772  13.216 -28.465  1.00  0.00     0.015 C 
BRANCH   5   6
ATOM      6  C   UNL     1      -3.826  13.539 -27.294  1.00  0.00     0.028 C 
BRANCH   6   7
ATOM      7  C   UNL     1      -2.512  14.140 -27.734  1.00  0.00    -0.028 C 
ATOM      8  C   UNL     1      -1.439  13.468 -28.225  1.00  0.00    -0.070 CG0
ATOM      9  C   UNL     1      -0.186  14.271 -28.482  1.00  0.00     0.039 C 
ATOM     10  G   UNL     1      -1.436  11.987 -28.603  1.00  0.00     0.000 G0
ENDBRANCH   6   7
ENDBRANCH   5   6
ENDBRANCH   3   5
ENDBRANCH   1   3
BRANCH   1  11
ATOM     11  C   UNL     1      -2.913  13.407 -31.160  1.00  0.00     0.087 C 
BRANCH  11  12
ATOM     12  C   UNL     1      -2.601  11.894 -30.965  1.00  0.00     0.066 C 
BRANCH  12  13
ATOM     13  C   UNL     1      -1.368  11.698 -30.085  1.00  0.00     0.140 C 
ATOM     14  O   UNL     1      -0.298  11.372 -30.580  1.00  0.00    -0.299 OA
BRANCH  13  15
ATOM     15  C   UNL     1      -1.439  11.986 -28.606  1.00  0.00     0.106 CG0
ATOM     16  G   UNL     1      -1.431  13.469 -28.236  1.00  0.00     0.000 G0
ENDBRANCH  13  15
ENDBRANCH  12  13
BRANCH  12  17
ATOM     17  C   UNL     1      -3.819  11.028 -30.486  1.00  0.00    -0.006 C 
ATOM     18  C   UNL     1      -4.449  10.192 -31.614  1.00  0.00     0.008 C 
ATOM     19  C   UNL     1      -3.399  10.075 -29.350  1.00  0.00     0.008 C 
ENDBRANCH  12  17
ENDBRANCH  11  12
ENDBRANCH   1  11
TORSDOF 1
ENDMDL
MODEL 8
REMARK VINA RESULT:    -4.052      1.985      3.898
REMARK INTER + INTRA:          -6.217
REMARK INTER:                  -6.526
REMARK INTRA:                   0.309
REMARK UNBOUND:                -0.033
REMARK SMILES CC1=CCC[C@H](C)C(=O)C[C@H](C(C)C)C(=O)C1
REMARK SMILES IDX 8 1 9 2 6 3 7 4 5 5 4 6 3 7 2 8 1 9 10 11 11 12 15 13 16 14
REMARK SMILES IDX 17 15 12 17 13 18 14 19
REMARK H PARENT
REMARK Flexibility Score: 70.00
ROOT
ATOM      1  C   UNL     1      -1.232  13.105 -30.525  1.00  0.00     0.136 C 
ATOM      2  O   UNL     1      -0.677  13.413 -29.480  1.00  0.00    -0.299 OA
ENDROOT
BRANCH   1   3
ATOM      3  C   UNL     1      -0.720  11.928 -31.349  1.00  0.00     0.053 C 
ATOM      4  C   UNL     1       0.725  12.135 -31.829  1.00  0.00     0.016 C 
BRANCH   3   5
ATOM      5  C   UNL     1      -0.875  10.580 -30.606  1.00  0.00     0.015 C 
BRANCH   5   6
ATOM      6  C   UNL     1      -2.288  10.362 -30.034  1.00  0.00     0.028 C 
BRANCH   6   7
ATOM      7  C   UNL     1      -2.345  10.458 -28.528  1.00  0.00    -0.028 C 
ATOM      8  C   UNL     1      -3.165  11.260 -27.799  1.00  0.00    -0.070 CG0
ATOM      9  C   UNL     1      -2.957  11.277 -26.303  1.00  0.00     0.039 C 
ATOM     10  G   UNL     1      -4.322  12.077 -28.373  1.00  0.00     0.000 G0
ENDBRANCH   6   7
ENDBRANCH   5   6
ENDBRANCH   3   5
ENDBRANCH   1   3
BRANCH   1  11
ATOM     11  C   UNL     1      -2.401  13.929 -31.012  1.00  0.00     0.087 C 
BRANCH  11  12
ATOM     12  C   UNL     1      -3.798  13.388 -30.585  1.00  0.00     0.066 C 
BRANCH  12  13
ATOM     13  C   UNL     1      -3.931  13.355 -29.064  1.00  0.00     0.140 C 
ATOM     14  O   UNL     1      -3.777  14.374 -28.406  1.00  0.00    -0.299 OA
BRANCH  13  15
ATOM     15  C   UNL     1      -4.334  12.080 -28.367  1.00  0.00     0.106 CG0
ATOM     16  G   UNL     1      -3.174  11.258 -27.804  1.00  0.00     0.000 G0
ENDBRANCH  13  15
ENDBRANCH  12  13
BRANCH  12  17
ATOM     17  C   UNL     1      -5.016  14.099 -31.275  1.00  0.00    -0.006 C 
ATOM     18  C   UNL     1      -5.783  15.040 -30.329  1.00  0.00     0.008 C 
ATOM     19  C   UNL     1      -4.552  14.911 -32.500  1.00  0.00     0.008 C 
ENDBRANCH  12  17
ENDBRANCH  11  12
ENDBRANCH   1  11
TORSDOF 1
ENDMDL
MODEL 9
REMARK VINA RESULT:    -3.842      2.000      4.615
REMARK INTER + INTRA:          -5.896
REMARK INTER:                  -5.385
REMARK INTRA:                  -0.511
REMARK UNBOUND:                -0.033
REMARK SMILES CC1=CCC[C@H](C)C(=O)C[C@H](C(C)C)C(=O)C1
REMARK SMILES IDX 8 1 9 2 6 3 7 4 5 5 4 6 3 7 2 8 1 9 10 11 11 12 15 13 16 14
REMARK SMILES IDX 17 15 12 17 13 18 14 19
REMARK H PARENT
REMARK Flexibility Score: 70.00
ROOT
ATOM      1  C   UNL     1      -3.866  12.520 -31.377  1.00  0.00     0.136 C 
ATOM      2  O   UNL     1      -4.647  11.950 -32.126  1.00  0.00    -0.299 OA
ENDROOT
BRANCH   1   3
ATOM      3  C   UNL     1      -3.894  14.039 -31.249  1.00  0.00     0.053 C 
ATOM      4  C   UNL     1      -3.341  14.742 -32.500  1.00  0.00     0.016 C 
BRANCH   3   5
ATOM      5  C   UNL     1      -5.300  14.571 -30.884  1.00  0.00     0.015 C 
BRANCH   5   6
ATOM      6  C   UNL     1      -5.850  13.981 -29.573  1.00  0.00     0.028 C 
BRANCH   6   7
ATOM      7  C   UNL     1      -5.114  14.460 -28.345  1.00  0.00    -0.028 C 
ATOM      8  C   UNL     1      -4.432  13.689 -27.458  1.00  0.00    -0.070 CG0
ATOM      9  C   UNL     1      -3.878  14.378 -26.234  1.00  0.00     0.039 C 
ATOM     10  G   UNL     1      -4.125  12.204 -27.649  1.00  0.00     0.000 G0
ENDBRANCH   6   7
ENDBRANCH   5   6
ENDBRANCH   3   5
ENDBRANCH   1   3
BRANCH   1  11
ATOM     11  C   UNL     1      -2.845  11.707 -30.616  1.00  0.00     0.087 C 
BRANCH  11  12
ATOM     12  C   UNL     1      -2.194  12.448 -29.411  1.00  0.00     0.066 C 
BRANCH  12  13
ATOM     13  C   UNL     1      -2.713  11.897 -28.085  1.00  0.00     0.140 C 
ATOM     14  O   UNL     1      -1.974  11.261 -27.345  1.00  0.00    -0.299 OA
BRANCH  13  15
ATOM     15  C   UNL     1      -4.120  12.204 -27.635  1.00  0.00     0.106 CG0
ATOM     16  G   UNL     1      -4.430  13.690 -27.454  1.00  0.00     0.000 G0
ENDBRANCH  13  15
ENDBRANCH  12  13
BRANCH  12  17
ATOM     17  C   UNL     1      -0.627  12.521 -29.454  1.00  0.00    -0.006 C 
ATOM     18  C   UNL     1      -0.058  12.494 -30.885  1.00  0.00     0.008 C 
ATOM     19  C   UNL     1      -0.120  13.797 -28.754  1.00  0.00     0.008 C 
ENDBRANCH  12  17
ENDBRANCH  11  12
ENDBRANCH   1  11
TORSDOF 1
ENDMDL
