MODEL 1
REMARK VINA RESULT:    -3.136      0.000      0.000
REMARK INTER + INTRA:          -4.895
REMARK INTER:                  -4.236
REMARK INTRA:                  -0.660
REMARK UNBOUND:                -0.660
REMARK SMILES O=C[C@H](O)[C@H](O)[C@H](O)CO
REMARK SMILES IDX 7 1 9 2 10 3 5 5 3 6 2 7 1 8 4 9 6 11 8 13
REMARK H PARENT 10 4 4 10 6 12 8 14
REMARK Flexibility Score: inf
ROOT
ATOM      1  C   UNL     1     169.142 184.083 159.899  1.00  0.00     0.171 C 
ENDROOT
BRANCH   1   2
ATOM      2  C   UNL     1     169.612 185.547 159.983  1.00  0.00     0.190 C 
BRANCH   2   3
ATOM      3  O   UNL     1     168.645 186.382 159.409  1.00  0.00    -0.394 OA
ATOM      4  H   UNL     1     168.634 186.168 158.439  1.00  0.00     0.210 HD
ENDBRANCH   2   3
ENDBRANCH   1   2
BRANCH   1   5
ATOM      5  C   UNL     1     169.582 183.348 158.601  1.00  0.00     0.181 C 
BRANCH   5   6
ATOM      6  C   UNL     1     168.532 183.368 157.463  1.00  0.00     0.209 C 
BRANCH   6   7
ATOM      7  C   UNL     1     169.048 182.640 156.249  1.00  0.00     0.258 C 
ATOM      8  O   UNL     1     168.985 181.423 156.181  1.00  0.00    -0.300 OA
ENDBRANCH   6   7
BRANCH   6   9
ATOM      9  O   UNL     1     168.229 184.690 157.103  1.00  0.00    -0.383 OA
ATOM     10  H   UNL     1     169.091 185.137 156.894  1.00  0.00     0.211 HD
ENDBRANCH   6   9
ENDBRANCH   5   6
BRANCH   5  11
ATOM     11  O   UNL     1     169.879 182.011 158.922  1.00  0.00    -0.387 OA
ATOM     12  H   UNL     1     169.261 181.743 159.652  1.00  0.00     0.211 HD
ENDBRANCH   5  11
ENDBRANCH   1   5
BRANCH   1  13
ATOM     13  O   UNL     1     167.754 183.972 160.107  1.00  0.00    -0.388 OA
ATOM     14  H   UNL     1     167.453 184.766 160.619  1.00  0.00     0.211 HD
ENDBRANCH   1  13
TORSDOF 8
ENDMDL
MODEL 2
REMARK VINA RESULT:    -3.131      1.826      3.820
REMARK INTER + INTRA:          -4.889
REMARK INTER:                  -4.152
REMARK INTRA:                  -0.737
REMARK UNBOUND:                -0.660
REMARK SMILES O=C[C@H](O)[C@H](O)[C@H](O)CO
REMARK SMILES IDX 7 1 9 2 10 3 5 5 3 6 2 7 1 8 4 9 6 11 8 13
REMARK H PARENT 10 4 4 10 6 12 8 14
REMARK Flexibility Score: inf
ROOT
ATOM      1  C   UNL     1     169.308 185.616 158.024  1.00  0.00     0.171 C 
ENDROOT
BRANCH   1   2
ATOM      2  C   UNL     1     168.722 184.932 156.775  1.00  0.00     0.190 C 
BRANCH   2   3
ATOM      3  O   UNL     1     167.872 183.890 157.169  1.00  0.00    -0.394 OA
ATOM      4  H   UNL     1     166.950 184.186 156.947  1.00  0.00     0.210 HD
ENDBRANCH   2   3
ENDBRANCH   1   2
BRANCH   1   5
ATOM      5  C   UNL     1     169.873 184.628 159.084  1.00  0.00     0.181 C 
BRANCH   5   6
ATOM      6  C   UNL     1     169.018 184.508 160.369  1.00  0.00     0.209 C 
BRANCH   6   7
ATOM      7  C   UNL     1     169.743 183.704 161.417  1.00  0.00     0.258 C 
ATOM      8  O   UNL     1     170.513 184.245 162.194  1.00  0.00    -0.300 OA
ENDBRANCH   6   7
BRANCH   6   9
ATOM      9  O   UNL     1     167.795 183.882 160.085  1.00  0.00    -0.383 OA
ATOM     10  H   UNL     1     167.540 183.365 160.894  1.00  0.00     0.211 HD
ENDBRANCH   6   9
ENDBRANCH   5   6
BRANCH   5  11
ATOM     11  O   UNL     1     171.169 185.043 159.437  1.00  0.00    -0.387 OA
ATOM     12  H   UNL     1     171.123 185.379 160.371  1.00  0.00     0.211 HD
ENDBRANCH   5  11
ENDBRANCH   1   5
BRANCH   1  13
ATOM     13  O   UNL     1     168.393 186.519 158.598  1.00  0.00    -0.388 OA
ATOM     14  H   UNL     1     168.635 187.434 158.305  1.00  0.00     0.211 HD
ENDBRANCH   1  13
TORSDOF 8
ENDMDL
MODEL 3
REMARK VINA RESULT:    -3.131      1.585      2.122
REMARK INTER + INTRA:          -4.889
REMARK INTER:                  -4.228
REMARK INTRA:                  -0.661
REMARK UNBOUND:                -0.660
REMARK SMILES O=C[C@H](O)[C@H](O)[C@H](O)CO
REMARK SMILES IDX 7 1 9 2 10 3 5 5 3 6 2 7 1 8 4 9 6 11 8 13
REMARK H PARENT 10 4 4 10 6 12 8 14
REMARK Flexibility Score: inf
ROOT
ATOM      1  C   UNL     1     169.931 185.327 159.591  1.00  0.00     0.171 C 
ENDROOT
BRANCH   1   2
ATOM      2  C   UNL     1     168.982 186.535 159.483  1.00  0.00     0.190 C 
BRANCH   2   3
ATOM      3  O   UNL     1     168.450 186.597 158.188  1.00  0.00    -0.394 OA
ATOM      4  H   UNL     1     169.227 186.603 157.570  1.00  0.00     0.210 HD
ENDBRANCH   2   3
ENDBRANCH   1   2
BRANCH   1   5
ATOM      5  C   UNL     1     169.216 183.948 159.501  1.00  0.00     0.181 C 
BRANCH   5   6
ATOM      6  C   UNL     1     169.149 183.352 158.073  1.00  0.00     0.209 C 
BRANCH   6   7
ATOM      7  C   UNL     1     170.314 183.824 157.244  1.00  0.00     0.258 C 
ATOM      8  O   UNL     1     170.149 184.625 156.338  1.00  0.00    -0.300 OA
ENDBRANCH   6   7
BRANCH   6   9
ATOM      9  O   UNL     1     167.957 183.737 157.440  1.00  0.00    -0.383 OA
ATOM     10  H   UNL     1     167.246 183.729 158.135  1.00  0.00     0.211 HD
ENDBRANCH   6   9
ENDBRANCH   5   6
BRANCH   5  11
ATOM     11  O   UNL     1     167.907 184.088 159.997  1.00  0.00    -0.387 OA
ATOM     12  H   UNL     1     167.717 183.285 160.549  1.00  0.00     0.211 HD
ENDBRANCH   5  11
ENDBRANCH   1   5
BRANCH   1  13
ATOM     13  O   UNL     1     170.747 185.409 160.735  1.00  0.00    -0.388 OA
ATOM     14  H   UNL     1     171.461 186.074 160.558  1.00  0.00     0.211 HD
ENDBRANCH   1  13
TORSDOF 8
ENDMDL
MODEL 4
REMARK VINA RESULT:    -3.097      2.218      4.311
REMARK INTER + INTRA:          -4.844
REMARK INTER:                  -4.216
REMARK INTRA:                  -0.627
REMARK UNBOUND:                -0.660
REMARK SMILES O=C[C@H](O)[C@H](O)[C@H](O)CO
REMARK SMILES IDX 7 1 9 2 10 3 5 5 3 6 2 7 1 8 4 9 6 11 8 13
REMARK H PARENT 10 4 4 10 6 12 8 14
REMARK Flexibility Score: inf
ROOT
ATOM      1  C   UNL     1     169.096 184.109 159.489  1.00  0.00     0.171 C 
ENDROOT
BRANCH   1   2
ATOM      2  C   UNL     1     169.951 182.832 159.391  1.00  0.00     0.190 C 
BRANCH   2   3
ATOM      3  O   UNL     1     169.898 182.140 160.608  1.00  0.00    -0.394 OA
ATOM      4  H   UNL     1     169.915 181.175 160.379  1.00  0.00     0.210 HD
ENDBRANCH   2   3
ENDBRANCH   1   2
BRANCH   1   5
ATOM      5  C   UNL     1     169.806 185.295 160.202  1.00  0.00     0.181 C 
BRANCH   5   6
ATOM      6  C   UNL     1     169.635 186.664 159.498  1.00  0.00     0.209 C 
BRANCH   6   7
ATOM      7  C   UNL     1     169.872 187.794 160.466  1.00  0.00     0.258 C 
ATOM      8  O   UNL     1     170.462 187.599 161.517  1.00  0.00    -0.300 OA
ENDBRANCH   6   7
BRANCH   6   9
ATOM      9  O   UNL     1     168.340 186.782 158.971  1.00  0.00    -0.383 OA
ATOM     10  H   UNL     1     167.877 185.922 159.149  1.00  0.00     0.211 HD
ENDBRANCH   6   9
ENDBRANCH   5   6
BRANCH   5  11
ATOM     11  O   UNL     1     171.179 185.003 160.299  1.00  0.00    -0.387 OA
ATOM     12  H   UNL     1     171.566 185.636 160.960  1.00  0.00     0.211 HD
ENDBRANCH   5  11
ENDBRANCH   1   5
BRANCH   1  13
ATOM     13  O   UNL     1     167.836 183.848 160.057  1.00  0.00    -0.388 OA
ATOM     14  H   UNL     1     167.220 183.569 159.331  1.00  0.00     0.211 HD
ENDBRANCH   1  13
TORSDOF 8
ENDMDL
MODEL 5
REMARK VINA RESULT:    -3.083      1.537      2.287
REMARK INTER + INTRA:          -4.825
REMARK INTER:                  -4.018
REMARK INTRA:                  -0.807
REMARK UNBOUND:                -0.660
REMARK SMILES O=C[C@H](O)[C@H](O)[C@H](O)CO
REMARK SMILES IDX 7 1 9 2 10 3 5 5 3 6 2 7 1 8 4 9 6 11 8 13
REMARK H PARENT 10 4 4 10 6 12 8 14
REMARK Flexibility Score: inf
ROOT
ATOM      1  C   UNL     1     169.111 184.322 159.523  1.00  0.00     0.171 C 
ENDROOT
BRANCH   1   2
ATOM      2  C   UNL     1     169.403 185.834 159.536  1.00  0.00     0.190 C 
BRANCH   2   3
ATOM      3  O   UNL     1     168.390 186.511 158.846  1.00  0.00    -0.394 OA
ATOM      4  H   UNL     1     168.796 186.829 157.997  1.00  0.00     0.210 HD
ENDBRANCH   2   3
ENDBRANCH   1   2
BRANCH   1   5
ATOM      5  C   UNL     1     169.197 183.670 158.113  1.00  0.00     0.181 C 
BRANCH   5   6
ATOM      6  C   UNL     1     170.346 184.209 157.226  1.00  0.00     0.209 C 
BRANCH   6   7
ATOM      7  C   UNL     1     169.799 184.835 155.969  1.00  0.00     0.258 C 
ATOM      8  O   UNL     1     169.334 185.963 155.988  1.00  0.00    -0.300 OA
ENDBRANCH   6   7
BRANCH   6   9
ATOM      9  O   UNL     1     171.216 183.168 156.871  1.00  0.00    -0.383 OA
ATOM     10  H   UNL     1     171.493 182.723 157.715  1.00  0.00     0.211 HD
ENDBRANCH   6   9
ENDBRANCH   5   6
BRANCH   5  11
ATOM     11  O   UNL     1     167.974 183.878 157.449  1.00  0.00    -0.387 OA
ATOM     12  H   UNL     1     167.406 184.428 158.049  1.00  0.00     0.211 HD
ENDBRANCH   5  11
ENDBRANCH   1   5
BRANCH   1  13
ATOM     13  O   UNL     1     167.888 184.025 160.153  1.00  0.00    -0.388 OA
ATOM     14  H   UNL     1     167.367 183.431 159.554  1.00  0.00     0.211 HD
ENDBRANCH   1  13
TORSDOF 8
ENDMDL
MODEL 6
REMARK VINA RESULT:    -3.078      2.252      3.520
REMARK INTER + INTRA:          -4.818
REMARK INTER:                  -4.226
REMARK INTRA:                  -0.592
REMARK UNBOUND:                -0.660
REMARK SMILES O=C[C@H](O)[C@H](O)[C@H](O)CO
REMARK SMILES IDX 7 1 9 2 10 3 5 5 3 6 2 7 1 8 4 9 6 11 8 13
REMARK H PARENT 10 4 4 10 6 12 8 14
REMARK Flexibility Score: inf
ROOT
ATOM      1  C   UNL     1     169.270 183.941 158.117  1.00  0.00     0.171 C 
ENDROOT
BRANCH   1   2
ATOM      2  C   UNL     1     169.236 183.790 159.649  1.00  0.00     0.190 C 
BRANCH   2   3
ATOM      3  O   UNL     1     167.928 183.994 160.109  1.00  0.00    -0.394 OA
ATOM      4  H   UNL     1     167.368 184.130 159.301  1.00  0.00     0.210 HD
ENDBRANCH   2   3
ENDBRANCH   1   2
BRANCH   1   5
ATOM      5  C   UNL     1     169.999 185.223 157.622  1.00  0.00     0.181 C 
BRANCH   5   6
ATOM      6  C   UNL     1     169.068 186.436 157.376  1.00  0.00     0.209 C 
BRANCH   6   7
ATOM      7  C   UNL     1     169.869 187.654 156.997  1.00  0.00     0.258 C 
ATOM      8  O   UNL     1     170.404 187.731 155.903  1.00  0.00    -0.300 OA
ENDBRANCH   6   7
BRANCH   6   9
ATOM      9  O   UNL     1     168.325 186.723 158.531  1.00  0.00    -0.383 OA
ATOM     10  H   UNL     1     168.870 186.422 159.305  1.00  0.00     0.211 HD
ENDBRANCH   6   9
ENDBRANCH   5   6
BRANCH   5  11
ATOM     11  O   UNL     1     170.677 184.920 156.428  1.00  0.00    -0.387 OA
ATOM     12  H   UNL     1     170.138 185.297 155.683  1.00  0.00     0.211 HD
ENDBRANCH   5  11
ENDBRANCH   1   5
BRANCH   1  13
ATOM     13  O   UNL     1     167.985 183.831 157.556  1.00  0.00    -0.388 OA
ATOM     14  H   UNL     1     168.005 184.238 156.652  1.00  0.00     0.211 HD
ENDBRANCH   1  13
TORSDOF 8
ENDMDL
MODEL 7
REMARK VINA RESULT:    -3.066     19.262     20.785
REMARK INTER + INTRA:          -4.801
REMARK INTER:                  -4.050
REMARK INTRA:                  -0.751
REMARK UNBOUND:                -0.660
REMARK SMILES O=C[C@H](O)[C@H](O)[C@H](O)CO
REMARK SMILES IDX 7 1 9 2 10 3 5 5 3 6 2 7 1 8 4 9 6 11 8 13
REMARK H PARENT 10 4 4 10 6 12 8 14
REMARK Flexibility Score: inf
ROOT
ATOM      1  C   UNL     1     185.144 170.559 155.297  1.00  0.00     0.171 C 
ENDROOT
BRANCH   1   2
ATOM      2  C   UNL     1     185.699 171.279 154.054  1.00  0.00     0.190 C 
BRANCH   2   3
ATOM      3  O   UNL     1     186.506 172.351 154.457  1.00  0.00    -0.394 OA
ATOM      4  H   UNL     1     185.913 172.972 154.955  1.00  0.00     0.210 HD
ENDBRANCH   2   3
ENDBRANCH   1   2
BRANCH   1   5
ATOM      5  C   UNL     1     184.609 171.517 156.400  1.00  0.00     0.181 C 
BRANCH   5   6
ATOM      6  C   UNL     1     185.483 171.577 157.677  1.00  0.00     0.209 C 
BRANCH   6   7
ATOM      7  C   UNL     1     184.838 172.451 158.722  1.00  0.00     0.258 C 
ATOM      8  O   UNL     1     184.237 173.463 158.401  1.00  0.00    -0.300 OA
ENDBRANCH   6   7
BRANCH   6   9
ATOM      9  O   UNL     1     186.752 172.094 157.376  1.00  0.00    -0.383 OA
ATOM     10  H   UNL     1     186.656 172.625 156.541  1.00  0.00     0.211 HD
ENDBRANCH   6   9
ENDBRANCH   5   6
BRANCH   5  11
ATOM     11  O   UNL     1     183.311 171.109 156.757  1.00  0.00    -0.387 OA
ATOM     12  H   UNL     1     183.389 170.597 157.604  1.00  0.00     0.211 HD
ENDBRANCH   5  11
ENDBRANCH   1   5
BRANCH   1  13
ATOM     13  O   UNL     1     186.071 169.639 155.821  1.00  0.00    -0.388 OA
ATOM     14  H   UNL     1     185.586 168.805 156.048  1.00  0.00     0.211 HD
ENDBRANCH   1  13
TORSDOF 8
ENDMDL
MODEL 8
REMARK VINA RESULT:    -3.032     19.933     21.139
REMARK INTER + INTRA:          -4.755
REMARK INTER:                  -4.110
REMARK INTRA:                  -0.645
REMARK UNBOUND:                -0.660
REMARK SMILES O=C[C@H](O)[C@H](O)[C@H](O)CO
REMARK SMILES IDX 7 1 9 2 10 3 5 5 3 6 2 7 1 8 4 9 6 11 8 13
REMARK H PARENT 10 4 4 10 6 12 8 14
REMARK Flexibility Score: inf
ROOT
ATOM      1  C   UNL     1     185.142 172.252 155.519  1.00  0.00     0.171 C 
ENDROOT
BRANCH   1   2
ATOM      2  C   UNL     1     185.288 172.339 157.049  1.00  0.00     0.190 C 
BRANCH   2   3
ATOM      3  O   UNL     1     186.601 172.011 157.412  1.00  0.00    -0.394 OA
ATOM      4  H   UNL     1     186.547 171.148 157.899  1.00  0.00     0.210 HD
ENDBRANCH   2   3
ENDBRANCH   1   2
BRANCH   1   5
ATOM      5  C   UNL     1     184.402 170.977 155.023  1.00  0.00     0.181 C 
BRANCH   5   6
ATOM      6  C   UNL     1     185.336 169.824 154.580  1.00  0.00     0.209 C 
BRANCH   6   7
ATOM      7  C   UNL     1     184.532 168.631 154.131  1.00  0.00     0.258 C 
ATOM      8  O   UNL     1     184.028 168.604 153.020  1.00  0.00    -0.300 OA
ENDBRANCH   6   7
BRANCH   6   9
ATOM      9  O   UNL     1     186.167 169.436 155.642  1.00  0.00    -0.383 OA
ATOM     10  H   UNL     1     185.693 169.676 156.481  1.00  0.00     0.211 HD
ENDBRANCH   6   9
ENDBRANCH   5   6
BRANCH   5  11
ATOM     11  O   UNL     1     183.574 171.332 153.941  1.00  0.00    -0.387 OA
ATOM     12  H   UNL     1     182.919 171.997 154.282  1.00  0.00     0.211 HD
ENDBRANCH   5  11
ENDBRANCH   1   5
BRANCH   1  13
ATOM     13  O   UNL     1     186.380 172.414 154.870  1.00  0.00    -0.388 OA
ATOM     14  H   UNL     1     186.546 173.385 154.756  1.00  0.00     0.211 HD
ENDBRANCH   1  13
TORSDOF 8
ENDMDL
MODEL 9
REMARK VINA RESULT:    -2.988      1.578      2.650
REMARK INTER + INTRA:          -4.696
REMARK INTER:                  -3.987
REMARK INTRA:                  -0.709
REMARK UNBOUND:                -0.660
REMARK SMILES O=C[C@H](O)[C@H](O)[C@H](O)CO
REMARK SMILES IDX 7 1 9 2 10 3 5 5 3 6 2 7 1 8 4 9 6 11 8 13
REMARK H PARENT 10 4 4 10 6 12 8 14
REMARK Flexibility Score: inf
ROOT
ATOM      1  C   UNL     1     169.115 186.409 159.600  1.00  0.00     0.171 C 
ENDROOT
BRANCH   1   2
ATOM      2  C   UNL     1     169.885 187.649 160.092  1.00  0.00     0.190 C 
BRANCH   2   3
ATOM      3  O   UNL     1     171.088 187.763 159.384  1.00  0.00    -0.394 OA
ATOM      4  H   UNL     1     171.759 188.104 160.031  1.00  0.00     0.210 HD
ENDBRANCH   2   3
ENDBRANCH   1   2
BRANCH   1   5
ATOM      5  C   UNL     1     169.986 185.126 159.484  1.00  0.00     0.181 C 
BRANCH   5   6
ATOM      6  C   UNL     1     169.180 183.804 159.448  1.00  0.00     0.209 C 
BRANCH   6   7
ATOM      7  C   UNL     1     169.054 183.295 158.036  1.00  0.00     0.258 C 
ATOM      8  O   UNL     1     168.310 183.846 157.241  1.00  0.00    -0.300 OA
ENDBRANCH   6   7
BRANCH   6   9
ATOM      9  O   UNL     1     167.895 184.002 159.974  1.00  0.00    -0.383 OA
ATOM     10  H   UNL     1     167.694 184.971 159.887  1.00  0.00     0.211 HD
ENDBRANCH   6   9
ENDBRANCH   5   6
BRANCH   5  11
ATOM     11  O   UNL     1     170.875 185.087 160.574  1.00  0.00    -0.387 OA
ATOM     12  H   UNL     1     170.371 185.398 161.371  1.00  0.00     0.211 HD
ENDBRANCH   5  11
ENDBRANCH   1   5
BRANCH   1  13
ATOM     13  O   UNL     1     168.422 186.670 158.404  1.00  0.00    -0.388 OA
ATOM     14  H   UNL     1     168.607 187.607 158.136  1.00  0.00     0.211 HD
ENDBRANCH   1  13
TORSDOF 8
ENDMDL
