MODEL 1
REMARK VINA RESULT:    -3.557      0.000      0.000
REMARK INTER + INTRA:          -7.478
REMARK INTER:                  -6.467
REMARK INTRA:                  -1.011
REMARK UNBOUND:                -1.011
REMARK SMILES CCCCCCCCCCCCCCCC(=O)[O-]
REMARK SMILES IDX 9 1 10 2 11 3 12 4 13 5 14 6 15 7 16 8 17 9 18 10 8 11 7 12
REMARK SMILES IDX 6 13 5 14 4 15 3 16 2 17 1 18
REMARK H PARENT
REMARK Flexibility Score: inf
ROOT
ATOM      1  C   UNL     1      11.508  -5.969   2.988  1.00  0.00     0.000 C 
ENDROOT
BRANCH   1   2
ATOM      2  C   UNL     1      11.989  -6.269   4.419  1.00  0.00     0.000 C 
BRANCH   2   3
ATOM      3  C   UNL     1      13.347  -5.619   4.733  1.00  0.00     0.000 C 
BRANCH   3   4
ATOM      4  C   UNL     1      13.881  -4.774   3.564  1.00  0.00     0.000 C 
BRANCH   4   5
ATOM      5  C   UNL     1      15.213  -5.306   3.011  1.00  0.00     0.000 C 
BRANCH   5   6
ATOM      6  C   UNL     1      15.579  -6.689   3.570  1.00  0.00     0.006 C 
BRANCH   6   7
ATOM      7  C   UNL     1      17.040  -6.724   4.028  1.00  0.00     0.053 C 
BRANCH   7   8
ATOM      8  C   UNL     1      17.121  -6.715   5.522  1.00  0.00     0.041 C 
ATOM      9  O   UNL     1      17.603  -7.703   6.136  1.00  0.00    -0.550 OA
ATOM     10  O   UNL     1      16.620  -5.636   6.240  1.00  0.00    -0.550 OA
ENDBRANCH   7   8
ENDBRANCH   6   7
ENDBRANCH   5   6
ENDBRANCH   4   5
ENDBRANCH   3   4
ENDBRANCH   2   3
ENDBRANCH   1   2
BRANCH   1  11
ATOM     11  C   UNL     1      10.268  -5.061   2.961  1.00  0.00     0.000 C 
BRANCH  11  12
ATOM     12  C   UNL     1       9.298  -5.346   4.121  1.00  0.00    -0.000 C 
BRANCH  12  13
ATOM     13  C   UNL     1       7.844  -5.503   3.647  1.00  0.00    -0.000 C 
BRANCH  13  14
ATOM     14  C   UNL     1       7.528  -6.936   3.184  1.00  0.00    -0.000 C 
BRANCH  14  15
ATOM     15  C   UNL     1       6.516  -7.642   4.099  1.00  0.00    -0.000 C 
BRANCH  15  16
ATOM     16  C   UNL     1       6.655  -7.215   5.571  1.00  0.00    -0.000 C 
BRANCH  16  17
ATOM     17  C   UNL     1       5.314  -7.243   6.321  1.00  0.00    -0.003 C 
ATOM     18  C   UNL     1       5.142  -8.500   7.174  1.00  0.00     0.004 C 
ENDBRANCH  16  17
ENDBRANCH  15  16
ENDBRANCH  14  15
ENDBRANCH  13  14
ENDBRANCH  12  13
ENDBRANCH  11  12
ENDBRANCH   1  11
TORSDOF 14
ENDMDL
MODEL 2
REMARK VINA RESULT:    -3.544      1.272      2.240
REMARK INTER + INTRA:          -7.454
REMARK INTER:                  -6.245
REMARK INTRA:                  -1.209
REMARK UNBOUND:                -1.011
REMARK SMILES CCCCCCCCCCCCCCCC(=O)[O-]
REMARK SMILES IDX 9 1 10 2 11 3 12 4 13 5 14 6 15 7 16 8 17 9 18 10 8 11 7 12
REMARK SMILES IDX 6 13 5 14 4 15 3 16 2 17 1 18
REMARK H PARENT
REMARK Flexibility Score: inf
ROOT
ATOM      1  C   UNL     1       9.291  -5.580   4.031  1.00  0.00     0.000 C 
ENDROOT
BRANCH   1   2
ATOM      2  C   UNL     1      10.578  -5.287   3.240  1.00  0.00     0.000 C 
BRANCH   2   3
ATOM      3  C   UNL     1      11.602  -6.430   3.333  1.00  0.00     0.000 C 
BRANCH   3   4
ATOM      4  C   UNL     1      12.402  -6.400   4.647  1.00  0.00     0.000 C 
BRANCH   4   5
ATOM      5  C   UNL     1      13.419  -5.248   4.692  1.00  0.00     0.000 C 
BRANCH   5   6
ATOM      6  C   UNL     1      14.351  -5.229   3.471  1.00  0.00     0.006 C 
BRANCH   6   7
ATOM      7  C   UNL     1      15.393  -6.347   3.562  1.00  0.00     0.053 C 
BRANCH   7   8
ATOM      8  C   UNL     1      16.645  -5.844   4.210  1.00  0.00     0.041 C 
ATOM      9  O   UNL     1      17.588  -5.399   3.504  1.00  0.00    -0.550 OA
ATOM     10  O   UNL     1      16.790  -5.914   5.590  1.00  0.00    -0.550 OA
ENDBRANCH   7   8
ENDBRANCH   6   7
ENDBRANCH   5   6
ENDBRANCH   4   5
ENDBRANCH   3   4
ENDBRANCH   2   3
ENDBRANCH   1   2
BRANCH   1  11
ATOM     11  C   UNL     1       8.022  -5.396   3.182  1.00  0.00     0.000 C 
BRANCH  11  12
ATOM     12  C   UNL     1       7.255  -6.713   2.968  1.00  0.00    -0.000 C 
BRANCH  12  13
ATOM     13  C   UNL     1       5.732  -6.526   3.048  1.00  0.00    -0.000 C 
BRANCH  13  14
ATOM     14  C   UNL     1       5.330  -5.340   3.942  1.00  0.00    -0.000 C 
BRANCH  14  15
ATOM     15  C   UNL     1       4.666  -5.788   5.253  1.00  0.00    -0.000 C 
BRANCH  15  16
ATOM     16  C   UNL     1       5.683  -6.329   6.274  1.00  0.00    -0.000 C 
BRANCH  16  17
ATOM     17  C   UNL     1       5.364  -7.765   6.718  1.00  0.00    -0.003 C 
ATOM     18  C   UNL     1       6.155  -8.813   5.935  1.00  0.00     0.004 C 
ENDBRANCH  16  17
ENDBRANCH  15  16
ENDBRANCH  14  15
ENDBRANCH  13  14
ENDBRANCH  12  13
ENDBRANCH  11  12
ENDBRANCH   1  11
TORSDOF 14
ENDMDL
MODEL 3
REMARK VINA RESULT:    -3.417      2.572      5.236
REMARK INTER + INTRA:          -7.223
REMARK INTER:                  -5.549
REMARK INTRA:                  -1.674
REMARK UNBOUND:                -1.011
REMARK SMILES CCCCCCCCCCCCCCCC(=O)[O-]
REMARK SMILES IDX 9 1 10 2 11 3 12 4 13 5 14 6 15 7 16 8 17 9 18 10 8 11 7 12
REMARK SMILES IDX 6 13 5 14 4 15 3 16 2 17 1 18
REMARK H PARENT
REMARK Flexibility Score: inf
ROOT
ATOM      1  C   UNL     1       6.362  -6.638   5.944  1.00  0.00     0.000 C 
ENDROOT
BRANCH   1   2
ATOM      2  C   UNL     1       7.079  -6.888   4.605  1.00  0.00     0.000 C 
BRANCH   2   3
ATOM      3  C   UNL     1       6.848  -5.755   3.591  1.00  0.00     0.000 C 
BRANCH   3   4
ATOM      4  C   UNL     1       8.147  -5.017   3.224  1.00  0.00     0.000 C 
BRANCH   4   5
ATOM      5  C   UNL     1       9.375  -5.583   3.955  1.00  0.00     0.000 C 
BRANCH   5   6
ATOM      6  C   UNL     1      10.458  -6.093   2.993  1.00  0.00     0.006 C 
BRANCH   6   7
ATOM      7  C   UNL     1      11.791  -5.383   3.245  1.00  0.00     0.053 C 
BRANCH   7   8
ATOM      8  C   UNL     1      12.636  -6.177   4.191  1.00  0.00     0.041 C 
ATOM      9  O   UNL     1      13.280  -5.595   5.104  1.00  0.00    -0.550 OA
ATOM     10  O   UNL     1      12.752  -7.552   4.035  1.00  0.00    -0.550 OA
ENDBRANCH   7   8
ENDBRANCH   6   7
ENDBRANCH   5   6
ENDBRANCH   4   5
ENDBRANCH   3   4
ENDBRANCH   2   3
ENDBRANCH   1   2
BRANCH   1  11
ATOM     11  C   UNL     1       5.522  -7.844   6.396  1.00  0.00     0.000 C 
BRANCH  11  12
ATOM     12  C   UNL     1       5.472  -8.962   5.340  1.00  0.00    -0.000 C 
BRANCH  12  13
ATOM     13  C   UNL     1       4.039  -9.270   4.878  1.00  0.00    -0.000 C 
BRANCH  13  14
ATOM     14  C   UNL     1       3.630  -8.449   3.642  1.00  0.00    -0.000 C 
BRANCH  14  15
ATOM     15  C   UNL     1       2.801  -7.208   4.007  1.00  0.00    -0.000 C 
BRANCH  15  16
ATOM     16  C   UNL     1       3.305  -5.935   3.304  1.00  0.00    -0.000 C 
BRANCH  16  17
ATOM     17  C   UNL     1       2.830  -4.651   4.000  1.00  0.00    -0.003 C 
ATOM     18  C   UNL     1       3.830  -4.135   5.034  1.00  0.00     0.004 C 
ENDBRANCH  16  17
ENDBRANCH  15  16
ENDBRANCH  14  15
ENDBRANCH  13  14
ENDBRANCH  12  13
ENDBRANCH  11  12
ENDBRANCH   1  11
TORSDOF 14
ENDMDL
MODEL 4
REMARK VINA RESULT:    -3.400      4.239      9.148
REMARK INTER + INTRA:          -7.193
REMARK INTER:                  -6.495
REMARK INTRA:                  -0.698
REMARK UNBOUND:                -1.011
REMARK SMILES CCCCCCCCCCCCCCCC(=O)[O-]
REMARK SMILES IDX 9 1 10 2 11 3 12 4 13 5 14 6 15 7 16 8 17 9 18 10 8 11 7 12
REMARK SMILES IDX 6 13 5 14 4 15 3 16 2 17 1 18
REMARK H PARENT
REMARK Flexibility Score: inf
ROOT
ATOM      1  C   UNL     1      11.802  -5.299   3.146  1.00  0.00     0.000 C 
ENDROOT
BRANCH   1   2
ATOM      2  C   UNL     1      10.470  -6.069   3.153  1.00  0.00     0.000 C 
BRANCH   2   3
ATOM      3  C   UNL     1       9.421  -5.424   4.073  1.00  0.00     0.000 C 
BRANCH   3   4
ATOM      4  C   UNL     1       7.988  -5.577   3.534  1.00  0.00     0.000 C 
BRANCH   4   5
ATOM      5  C   UNL     1       7.184  -6.649   4.287  1.00  0.00     0.000 C 
BRANCH   5   6
ATOM      6  C   UNL     1       5.849  -6.118   4.831  1.00  0.00     0.006 C 
BRANCH   6   7
ATOM      7  C   UNL     1       5.623  -6.583   6.272  1.00  0.00     0.053 C 
BRANCH   7   8
ATOM      8  C   UNL     1       5.057  -7.968   6.293  1.00  0.00     0.041 C 
ATOM      9  O   UNL     1       5.480  -8.812   7.127  1.00  0.00    -0.550 OA
ATOM     10  O   UNL     1       4.097  -8.342   5.361  1.00  0.00    -0.550 OA
ENDBRANCH   7   8
ENDBRANCH   6   7
ENDBRANCH   5   6
ENDBRANCH   4   5
ENDBRANCH   3   4
ENDBRANCH   2   3
ENDBRANCH   1   2
BRANCH   1  11
ATOM     11  C   UNL     1      12.861  -5.945   4.055  1.00  0.00     0.000 C 
BRANCH  11  12
ATOM     12  C   UNL     1      14.013  -4.984   4.401  1.00  0.00    -0.000 C 
BRANCH  12  13
ATOM     13  C   UNL     1      14.660  -5.307   5.757  1.00  0.00    -0.000 C 
BRANCH  13  14
ATOM     14  C   UNL     1      16.172  -5.569   5.640  1.00  0.00    -0.000 C 
BRANCH  14  15
ATOM     15  C   UNL     1      16.611  -5.855   4.196  1.00  0.00    -0.000 C 
BRANCH  15  16
ATOM     16  C   UNL     1      17.190  -7.271   4.025  1.00  0.00    -0.000 C 
BRANCH  16  17
ATOM     17  C   UNL     1      17.612  -7.900   5.362  1.00  0.00    -0.003 C 
ATOM     18  C   UNL     1      17.350  -9.405   5.415  1.00  0.00     0.004 C 
ENDBRANCH  16  17
ENDBRANCH  15  16
ENDBRANCH  14  15
ENDBRANCH  13  14
ENDBRANCH  12  13
ENDBRANCH  11  12
ENDBRANCH   1  11
TORSDOF 14
ENDMDL
MODEL 5
REMARK VINA RESULT:    -3.311      4.950      9.579
REMARK INTER + INTRA:          -7.031
REMARK INTER:                  -5.790
REMARK INTRA:                  -1.241
REMARK UNBOUND:                -1.011
REMARK SMILES CCCCCCCCCCCCCCCC(=O)[O-]
REMARK SMILES IDX 9 1 10 2 11 3 12 4 13 5 14 6 15 7 16 8 17 9 18 10 8 11 7 12
REMARK SMILES IDX 6 13 5 14 4 15 3 16 2 17 1 18
REMARK H PARENT
REMARK Flexibility Score: inf
ROOT
ATOM      1  C   UNL     1       6.287  -7.920   5.729  1.00  0.00     0.000 C 
ENDROOT
BRANCH   1   2
ATOM      2  C   UNL     1       6.054  -9.044   4.704  1.00  0.00     0.000 C 
BRANCH   2   3
ATOM      3  C   UNL     1       4.594  -9.526   4.680  1.00  0.00     0.000 C 
BRANCH   3   4
ATOM      4  C   UNL     1       3.597  -8.407   5.025  1.00  0.00     0.000 C 
BRANCH   4   5
ATOM      5  C   UNL     1       2.845  -7.885   3.790  1.00  0.00     0.000 C 
BRANCH   5   6
ATOM      6  C   UNL     1       2.580  -6.373   3.850  1.00  0.00     0.006 C 
BRANCH   6   7
ATOM      7  C   UNL     1       3.843  -5.613   4.266  1.00  0.00     0.053 C 
BRANCH   7   8
ATOM      8  C   UNL     1       3.491  -4.247   4.766  1.00  0.00     0.041 C 
ATOM      9  O   UNL     1       4.000  -3.814   5.833  1.00  0.00    -0.550 OA
ATOM     10  O   UNL     1       2.564  -3.472   4.080  1.00  0.00    -0.550 OA
ENDBRANCH   7   8
ENDBRANCH   6   7
ENDBRANCH   5   6
ENDBRANCH   4   5
ENDBRANCH   3   4
ENDBRANCH   2   3
ENDBRANCH   1   2
BRANCH   1  11
ATOM     11  C   UNL     1       7.129  -6.766   5.158  1.00  0.00     0.000 C 
BRANCH  11  12
ATOM     12  C   UNL     1       7.184  -6.777   3.620  1.00  0.00    -0.000 C 
BRANCH  12  13
ATOM     13  C   UNL     1       8.574  -6.409   3.078  1.00  0.00    -0.000 C 
BRANCH  13  14
ATOM     14  C   UNL     1       9.417  -5.627   4.101  1.00  0.00    -0.000 C 
BRANCH  14  15
ATOM     15  C   UNL     1      10.877  -5.455   3.655  1.00  0.00    -0.000 C 
BRANCH  15  16
ATOM     16  C   UNL     1      11.854  -6.295   4.497  1.00  0.00    -0.000 C 
BRANCH  16  17
ATOM     17  C   UNL     1      13.236  -5.637   4.626  1.00  0.00    -0.003 C 
ATOM     18  C   UNL     1      13.579  -4.747   3.431  1.00  0.00     0.004 C 
ENDBRANCH  16  17
ENDBRANCH  15  16
ENDBRANCH  14  15
ENDBRANCH  13  14
ENDBRANCH  12  13
ENDBRANCH  11  12
ENDBRANCH   1  11
TORSDOF 14
ENDMDL
MODEL 6
REMARK VINA RESULT:    -3.200      1.874      3.052
REMARK INTER + INTRA:          -6.830
REMARK INTER:                  -5.962
REMARK INTRA:                  -0.868
REMARK UNBOUND:                -1.011
REMARK SMILES CCCCCCCCCCCCCCCC(=O)[O-]
REMARK SMILES IDX 9 1 10 2 11 3 12 4 13 5 14 6 15 7 16 8 17 9 18 10 8 11 7 12
REMARK SMILES IDX 6 13 5 14 4 15 3 16 2 17 1 18
REMARK H PARENT
REMARK Flexibility Score: inf
ROOT
ATOM      1  C   UNL     1       9.035  -5.509   4.223  1.00  0.00     0.000 C 
ENDROOT
BRANCH   1   2
ATOM      2  C   UNL     1       9.781  -4.942   3.003  1.00  0.00     0.000 C 
BRANCH   2   3
ATOM      3  C   UNL     1      11.277  -5.298   3.008  1.00  0.00     0.000 C 
BRANCH   3   4
ATOM      4  C   UNL     1      11.680  -6.134   4.236  1.00  0.00     0.000 C 
BRANCH   4   5
ATOM      5  C   UNL     1      12.931  -6.992   3.981  1.00  0.00     0.000 C 
BRANCH   5   6
ATOM      6  C   UNL     1      14.180  -6.147   3.688  1.00  0.00     0.006 C 
BRANCH   6   7
ATOM      7  C   UNL     1      14.604  -5.350   4.924  1.00  0.00     0.053 C 
BRANCH   7   8
ATOM      8  C   UNL     1      16.029  -5.645   5.274  1.00  0.00     0.041 C 
ATOM      9  O   UNL     1      16.482  -5.324   6.405  1.00  0.00    -0.550 OA
ATOM     10  O   UNL     1      16.870  -6.230   4.335  1.00  0.00    -0.550 OA
ENDBRANCH   7   8
ENDBRANCH   6   7
ENDBRANCH   5   6
ENDBRANCH   4   5
ENDBRANCH   3   4
ENDBRANCH   2   3
ENDBRANCH   1   2
BRANCH   1  11
ATOM     11  C   UNL     1       7.682  -6.136   3.848  1.00  0.00     0.000 C 
BRANCH  11  12
ATOM     12  C   UNL     1       7.038  -6.903   5.017  1.00  0.00    -0.000 C 
BRANCH  12  13
ATOM     13  C   UNL     1       6.351  -8.200   4.562  1.00  0.00    -0.000 C 
BRANCH  13  14
ATOM     14  C   UNL     1       4.827  -8.164   4.774  1.00  0.00    -0.000 C 
BRANCH  14  15
ATOM     15  C   UNL     1       4.294  -6.739   4.988  1.00  0.00    -0.000 C 
BRANCH  15  16
ATOM     16  C   UNL     1       3.430  -6.250   3.811  1.00  0.00    -0.000 C 
BRANCH  16  17
ATOM     17  C   UNL     1       3.004  -4.782   3.965  1.00  0.00    -0.003 C 
ATOM     18  C   UNL     1       3.905  -4.003   4.922  1.00  0.00     0.004 C 
ENDBRANCH  16  17
ENDBRANCH  15  16
ENDBRANCH  14  15
ENDBRANCH  13  14
ENDBRANCH  12  13
ENDBRANCH  11  12
ENDBRANCH   1  11
TORSDOF 14
ENDMDL
MODEL 7
REMARK VINA RESULT:    -3.152      1.518      2.419
REMARK INTER + INTRA:          -6.743
REMARK INTER:                  -5.938
REMARK INTRA:                  -0.805
REMARK UNBOUND:                -1.011
REMARK SMILES CCCCCCCCCCCCCCCC(=O)[O-]
REMARK SMILES IDX 9 1 10 2 11 3 12 4 13 5 14 6 15 7 16 8 17 9 18 10 8 11 7 12
REMARK SMILES IDX 6 13 5 14 4 15 3 16 2 17 1 18
REMARK H PARENT
REMARK Flexibility Score: inf
ROOT
ATOM      1  C   UNL     1       8.840  -5.225   3.740  1.00  0.00     0.000 C 
ENDROOT
BRANCH   1   2
ATOM      2  C   UNL     1      10.291  -5.437   3.272  1.00  0.00     0.000 C 
BRANCH   2   3
ATOM      3  C   UNL     1      11.183  -6.039   4.370  1.00  0.00     0.000 C 
BRANCH   3   4
ATOM      4  C   UNL     1      12.494  -6.621   3.812  1.00  0.00     0.000 C 
BRANCH   4   5
ATOM      5  C   UNL     1      13.702  -5.706   4.069  1.00  0.00     0.000 C 
BRANCH   5   6
ATOM      6  C   UNL     1      15.019  -6.299   3.546  1.00  0.00     0.006 C 
BRANCH   6   7
ATOM      7  C   UNL     1      16.216  -5.456   3.997  1.00  0.00     0.053 C 
BRANCH   7   8
ATOM      8  C   UNL     1      16.772  -5.982   5.283  1.00  0.00     0.041 C 
ATOM      9  O   UNL     1      17.198  -7.165   5.351  1.00  0.00    -0.550 OA
ATOM     10  O   UNL     1      16.774  -5.182   6.418  1.00  0.00    -0.550 OA
ENDBRANCH   7   8
ENDBRANCH   6   7
ENDBRANCH   5   6
ENDBRANCH   4   5
ENDBRANCH   3   4
ENDBRANCH   2   3
ENDBRANCH   1   2
BRANCH   1  11
ATOM     11  C   UNL     1       7.964  -6.469   3.525  1.00  0.00     0.000 C 
BRANCH  11  12
ATOM     12  C   UNL     1       6.586  -6.349   4.200  1.00  0.00    -0.000 C 
BRANCH  12  13
ATOM     13  C   UNL     1       6.638  -6.664   5.703  1.00  0.00    -0.000 C 
BRANCH  13  14
ATOM     14  C   UNL     1       5.751  -7.862   6.085  1.00  0.00    -0.000 C 
BRANCH  14  15
ATOM     15  C   UNL     1       5.993  -9.086   5.188  1.00  0.00    -0.000 C 
BRANCH  15  16
ATOM     16  C   UNL     1       4.695  -9.621   4.558  1.00  0.00    -0.000 C 
BRANCH  16  17
ATOM     17  C   UNL     1       3.445  -8.902   5.085  1.00  0.00    -0.003 C 
ATOM     18  C   UNL     1       2.732  -8.090   4.004  1.00  0.00     0.004 C 
ENDBRANCH  16  17
ENDBRANCH  15  16
ENDBRANCH  14  15
ENDBRANCH  13  14
ENDBRANCH  12  13
ENDBRANCH  11  12
ENDBRANCH   1  11
TORSDOF 14
ENDMDL
MODEL 8
REMARK VINA RESULT:    -3.079      2.234      2.997
REMARK INTER + INTRA:          -6.610
REMARK INTER:                  -6.045
REMARK INTRA:                  -0.565
REMARK UNBOUND:                -1.011
REMARK SMILES CCCCCCCCCCCCCCCC(=O)[O-]
REMARK SMILES IDX 9 1 10 2 11 3 12 4 13 5 14 6 15 7 16 8 17 9 18 10 8 11 7 12
REMARK SMILES IDX 6 13 5 14 4 15 3 16 2 17 1 18
REMARK H PARENT
REMARK Flexibility Score: inf
ROOT
ATOM      1  C   UNL     1       9.411  -5.304   3.790  1.00  0.00     0.000 C 
ENDROOT
BRANCH   1   2
ATOM      2  C   UNL     1      10.838  -5.736   3.409  1.00  0.00     0.000 C 
BRANCH   2   3
ATOM      3  C   UNL     1      11.680  -6.134   4.633  1.00  0.00     0.000 C 
BRANCH   3   4
ATOM      4  C   UNL     1      13.139  -6.457   4.266  1.00  0.00     0.000 C 
BRANCH   4   5
ATOM      5  C   UNL     1      14.103  -5.310   4.612  1.00  0.00     0.000 C 
BRANCH   5   6
ATOM      6  C   UNL     1      15.414  -5.376   3.814  1.00  0.00     0.006 C 
BRANCH   6   7
ATOM      7  C   UNL     1      16.522  -6.038   4.638  1.00  0.00     0.053 C 
BRANCH   7   8
ATOM      8  C   UNL     1      17.015  -7.275   3.954  1.00  0.00     0.041 C 
ATOM      9  O   UNL     1      16.308  -8.317   3.944  1.00  0.00    -0.550 OA
ATOM     10  O   UNL     1      18.275  -7.291   3.371  1.00  0.00    -0.550 OA
ENDBRANCH   7   8
ENDBRANCH   6   7
ENDBRANCH   5   6
ENDBRANCH   4   5
ENDBRANCH   3   4
ENDBRANCH   2   3
ENDBRANCH   1   2
BRANCH   1  11
ATOM     11  C   UNL     1       8.338  -6.239   3.208  1.00  0.00     0.000 C 
BRANCH  11  12
ATOM     12  C   UNL     1       6.953  -6.022   3.844  1.00  0.00    -0.000 C 
BRANCH  12  13
ATOM     13  C   UNL     1       6.837  -6.666   5.234  1.00  0.00    -0.000 C 
BRANCH  13  14
ATOM     14  C   UNL     1       5.399  -6.635   5.780  1.00  0.00    -0.000 C 
BRANCH  14  15
ATOM     15  C   UNL     1       4.390  -6.096   4.754  1.00  0.00    -0.000 C 
BRANCH  15  16
ATOM     16  C   UNL     1       4.031  -4.620   5.001  1.00  0.00    -0.000 C 
BRANCH  16  17
ATOM     17  C   UNL     1       3.626  -3.889   3.711  1.00  0.00    -0.003 C 
ATOM     18  C   UNL     1       2.203  -3.332   3.771  1.00  0.00     0.004 C 
ENDBRANCH  16  17
ENDBRANCH  15  16
ENDBRANCH  14  15
ENDBRANCH  13  14
ENDBRANCH  12  13
ENDBRANCH  11  12
ENDBRANCH   1  11
TORSDOF 14
ENDMDL
