MODEL 1
REMARK VINA RESULT:    -4.218      0.000      0.000
REMARK INTER + INTRA:          -7.081
REMARK INTER:                  -6.438
REMARK INTRA:                  -0.644
REMARK UNBOUND:                -0.644
REMARK SMILES CCCCCCCCCCC(=O)[O-]
REMARK SMILES IDX 7 1 8 2 9 3 10 4 11 5 12 6 13 7 6 8 5 9 4 10 3 11 2 12 1 13
REMARK H PARENT
REMARK Flexibility Score: inf
ROOT
ATOM      1  C   UNL     1     172.648 172.268 150.250  1.00  0.00     0.000 C 
ENDROOT
BRANCH   1   2
ATOM      2  C   UNL     1     173.611 173.469 150.155  1.00  0.00     0.000 C 
BRANCH   2   3
ATOM      3  C   UNL     1     173.795 174.264 151.461  1.00  0.00     0.006 C 
BRANCH   3   4
ATOM      4  C   UNL     1     175.236 174.218 151.986  1.00  0.00     0.053 C 
BRANCH   4   5
ATOM      5  C   UNL     1     175.256 173.779 153.415  1.00  0.00     0.041 C 
ATOM      6  O   UNL     1     174.928 174.580 154.329  1.00  0.00    -0.550 OA
ATOM      7  O   UNL     1     175.685 172.499 153.743  1.00  0.00    -0.550 OA
ENDBRANCH   4   5
ENDBRANCH   3   4
ENDBRANCH   2   3
ENDBRANCH   1   2
BRANCH   1   8
ATOM      8  C   UNL     1     173.306 170.887 150.088  1.00  0.00     0.000 C 
BRANCH   8   9
ATOM      9  C   UNL     1     174.789 170.883 150.490  1.00  0.00    -0.000 C 
BRANCH   9  10
ATOM     10  C   UNL     1     175.509 169.656 149.917  1.00  0.00    -0.000 C 
BRANCH  10  11
ATOM     11  C   UNL     1     174.750 168.366 150.251  1.00  0.00    -0.000 C 
BRANCH  11  12
ATOM     12  C   UNL     1     174.572 167.493 149.004  1.00  0.00    -0.003 C 
ATOM     13  C   UNL     1     173.135 167.542 148.496  1.00  0.00     0.004 C 
ENDBRANCH  11  12
ENDBRANCH  10  11
ENDBRANCH   9  10
ENDBRANCH   8   9
ENDBRANCH   1   8
TORSDOF 9
ENDMDL
MODEL 2
REMARK VINA RESULT:    -4.175      2.361      5.159
REMARK INTER + INTRA:          -7.016
REMARK INTER:                  -5.940
REMARK INTRA:                  -1.076
REMARK UNBOUND:                -0.644
REMARK SMILES CCCCCCCCCCC(=O)[O-]
REMARK SMILES IDX 7 1 8 2 9 3 10 4 11 5 12 6 13 7 6 8 5 9 4 10 3 11 2 12 1 13
REMARK H PARENT
REMARK Flexibility Score: inf
ROOT
ATOM      1  C   UNL     1     174.147 171.796 150.460  1.00  0.00     0.000 C 
ENDROOT
BRANCH   1   2
ATOM      2  C   UNL     1     175.367 170.919 150.113  1.00  0.00     0.000 C 
BRANCH   2   3
ATOM      3  C   UNL     1     175.411 169.552 150.819  1.00  0.00     0.006 C 
BRANCH   3   4
ATOM      4  C   UNL     1     174.661 169.549 152.157  1.00  0.00     0.053 C 
BRANCH   4   5
ATOM      5  C   UNL     1     175.384 168.705 153.157  1.00  0.00     0.041 C 
ATOM      6  O   UNL     1     175.427 167.454 153.019  1.00  0.00    -0.550 OA
ATOM      7  O   UNL     1     175.970 169.294 154.271  1.00  0.00    -0.550 OA
ENDBRANCH   4   5
ENDBRANCH   3   4
ENDBRANCH   2   3
ENDBRANCH   1   2
BRANCH   1   8
ATOM      8  C   UNL     1     174.162 173.208 149.851  1.00  0.00     0.000 C 
BRANCH   8   9
ATOM      9  C   UNL     1     174.977 174.208 150.685  1.00  0.00    -0.000 C 
BRANCH   9  10
ATOM     10  C   UNL     1     174.494 174.231 152.140  1.00  0.00    -0.000 C 
BRANCH  10  11
ATOM     11  C   UNL     1     175.655 173.980 153.110  1.00  0.00    -0.000 C 
BRANCH  11  12
ATOM     12  C   UNL     1     175.328 172.834 154.075  1.00  0.00    -0.003 C 
ATOM     13  C   UNL     1     173.825 172.583 154.143  1.00  0.00     0.004 C 
ENDBRANCH  11  12
ENDBRANCH  10  11
ENDBRANCH   9  10
ENDBRANCH   8   9
ENDBRANCH   1   8
TORSDOF 9
ENDMDL
MODEL 3
REMARK VINA RESULT:    -4.143      2.124      4.991
REMARK INTER + INTRA:          -6.966
REMARK INTER:                  -5.902
REMARK INTRA:                  -1.065
REMARK UNBOUND:                -0.644
REMARK SMILES CCCCCCCCCCC(=O)[O-]
REMARK SMILES IDX 7 1 8 2 9 3 10 4 11 5 12 6 13 7 6 8 5 9 4 10 3 11 2 12 1 13
REMARK H PARENT
REMARK Flexibility Score: inf
ROOT
ATOM      1  C   UNL     1     173.306 172.767 150.091  1.00  0.00     0.000 C 
ENDROOT
BRANCH   1   2
ATOM      2  C   UNL     1     173.478 171.238 150.189  1.00  0.00     0.000 C 
BRANCH   2   3
ATOM      3  C   UNL     1     174.924 170.756 150.405  1.00  0.00     0.006 C 
BRANCH   3   4
ATOM      4  C   UNL     1     175.042 169.226 150.429  1.00  0.00     0.053 C 
BRANCH   4   5
ATOM      5  C   UNL     1     175.260 168.743 151.827  1.00  0.00     0.041 C 
ATOM      6  O   UNL     1     175.671 169.536 152.716  1.00  0.00    -0.550 OA
ATOM      7  O   UNL     1     175.056 167.405 152.141  1.00  0.00    -0.550 OA
ENDBRANCH   4   5
ENDBRANCH   3   4
ENDBRANCH   2   3
ENDBRANCH   1   2
BRANCH   1   8
ATOM      8  C   UNL     1     174.567 173.542 149.669  1.00  0.00     0.000 C 
BRANCH   8   9
ATOM      9  C   UNL     1     175.115 174.443 150.786  1.00  0.00    -0.000 C 
BRANCH   9  10
ATOM     10  C   UNL     1     174.467 174.102 152.134  1.00  0.00    -0.000 C 
BRANCH  10  11
ATOM     11  C   UNL     1     175.532 173.794 153.194  1.00  0.00    -0.000 C 
BRANCH  11  12
ATOM     12  C   UNL     1     175.038 172.723 154.173  1.00  0.00    -0.003 C 
ATOM     13  C   UNL     1     173.649 172.223 153.789  1.00  0.00     0.004 C 
ENDBRANCH  11  12
ENDBRANCH  10  11
ENDBRANCH   9  10
ENDBRANCH   8   9
ENDBRANCH   1   8
TORSDOF 9
ENDMDL
MODEL 4
REMARK VINA RESULT:    -4.064      1.916      3.194
REMARK INTER + INTRA:          -6.846
REMARK INTER:                  -5.591
REMARK INTRA:                  -1.255
REMARK UNBOUND:                -0.644
REMARK SMILES CCCCCCCCCCC(=O)[O-]
REMARK SMILES IDX 7 1 8 2 9 3 10 4 11 5 12 6 13 7 6 8 5 9 4 10 3 11 2 12 1 13
REMARK H PARENT
REMARK Flexibility Score: inf
ROOT
ATOM      1  C   UNL     1     173.229 174.218 152.149  1.00  0.00     0.000 C 
ENDROOT
BRANCH   1   2
ATOM      2  C   UNL     1     174.767 174.279 152.239  1.00  0.00     0.000 C 
BRANCH   2   3
ATOM      3  C   UNL     1     175.398 173.342 153.284  1.00  0.00     0.006 C 
BRANCH   3   4
ATOM      4  C   UNL     1     174.406 172.305 153.829  1.00  0.00     0.053 C 
BRANCH   4   5
ATOM      5  C   UNL     1     175.137 171.195 154.513  1.00  0.00     0.041 C 
ATOM      6  O   UNL     1     175.264 170.077 153.948  1.00  0.00    -0.550 OA
ATOM      7  O   UNL     1     175.636 171.378 155.797  1.00  0.00    -0.550 OA
ENDBRANCH   4   5
ENDBRANCH   3   4
ENDBRANCH   2   3
ENDBRANCH   1   2
BRANCH   1   8
ATOM      8  C   UNL     1     172.656 174.213 150.721  1.00  0.00     0.000 C 
BRANCH   8   9
ATOM      9  C   UNL     1     173.334 173.178 149.811  1.00  0.00    -0.000 C 
BRANCH   9  10
ATOM     10  C   UNL     1     172.627 171.820 149.903  1.00  0.00    -0.000 C 
BRANCH  10  11
ATOM     11  C   UNL     1     173.517 170.782 150.598  1.00  0.00    -0.000 C 
BRANCH  11  12
ATOM     12  C   UNL     1     174.998 171.033 150.289  1.00  0.00    -0.003 C 
ATOM     13  C   UNL     1     175.809 169.745 150.397  1.00  0.00     0.004 C 
ENDBRANCH  11  12
ENDBRANCH  10  11
ENDBRANCH   9  10
ENDBRANCH   8   9
ENDBRANCH   1   8
TORSDOF 9
ENDMDL
MODEL 5
REMARK VINA RESULT:    -3.960      2.163      2.599
REMARK INTER + INTRA:          -6.688
REMARK INTER:                  -5.980
REMARK INTRA:                  -0.708
REMARK UNBOUND:                -0.644
REMARK SMILES CCCCCCCCCCC(=O)[O-]
REMARK SMILES IDX 7 1 8 2 9 3 10 4 11 5 12 6 13 7 6 8 5 9 4 10 3 11 2 12 1 13
REMARK H PARENT
REMARK Flexibility Score: inf
ROOT
ATOM      1  C   UNL     1     173.447 171.234 150.180  1.00  0.00     0.000 C 
ENDROOT
BRANCH   1   2
ATOM      2  C   UNL     1     172.750 172.563 149.823  1.00  0.00     0.000 C 
BRANCH   2   3
ATOM      3  C   UNL     1     173.502 173.833 150.260  1.00  0.00     0.006 C 
BRANCH   3   4
ATOM      4  C   UNL     1     173.144 174.274 151.685  1.00  0.00     0.053 C 
BRANCH   4   5
ATOM      5  C   UNL     1     171.683 174.575 151.786  1.00  0.00     0.041 C 
ATOM      6  O   UNL     1     171.197 175.566 151.180  1.00  0.00    -0.550 OA
ATOM      7  O   UNL     1     170.865 173.791 152.589  1.00  0.00    -0.550 OA
ENDBRANCH   4   5
ENDBRANCH   3   4
ENDBRANCH   2   3
ENDBRANCH   1   2
BRANCH   1   8
ATOM      8  C   UNL     1     174.982 171.300 150.252  1.00  0.00     0.000 C 
BRANCH   8   9
ATOM      9  C   UNL     1     175.649 169.936 150.021  1.00  0.00    -0.000 C 
BRANCH   9  10
ATOM     10  C   UNL     1     174.690 168.791 150.371  1.00  0.00    -0.000 C 
BRANCH  10  11
ATOM     11  C   UNL     1     174.617 167.767 149.232  1.00  0.00    -0.000 C 
BRANCH  11  12
ATOM     12  C   UNL     1     173.200 167.198 149.094  1.00  0.00    -0.003 C 
ATOM     13  C   UNL     1     172.241 168.238 148.523  1.00  0.00     0.004 C 
ENDBRANCH  11  12
ENDBRANCH  10  11
ENDBRANCH   9  10
ENDBRANCH   8   9
ENDBRANCH   1   8
TORSDOF 9
ENDMDL
MODEL 6
REMARK VINA RESULT:    -3.946      1.788      2.956
REMARK INTER + INTRA:          -6.666
REMARK INTER:                  -5.650
REMARK INTRA:                  -1.016
REMARK UNBOUND:                -0.644
REMARK SMILES CCCCCCCCCCC(=O)[O-]
REMARK SMILES IDX 7 1 8 2 9 3 10 4 11 5 12 6 13 7 6 8 5 9 4 10 3 11 2 12 1 13
REMARK H PARENT
REMARK Flexibility Score: inf
ROOT
ATOM      1  C   UNL     1     173.275 174.235 151.970  1.00  0.00     0.000 C 
ENDROOT
BRANCH   1   2
ATOM      2  C   UNL     1     174.814 174.209 152.067  1.00  0.00     0.000 C 
BRANCH   2   3
ATOM      3  C   UNL     1     175.376 173.657 153.389  1.00  0.00     0.006 C 
BRANCH   3   4
ATOM      4  C   UNL     1     174.367 172.781 154.144  1.00  0.00     0.053 C 
BRANCH   4   5
ATOM      5  C   UNL     1     174.059 173.376 155.480  1.00  0.00     0.041 C 
ATOM      6  O   UNL     1     173.907 174.620 155.600  1.00  0.00    -0.550 OA
ATOM      7  O   UNL     1     173.987 172.562 156.604  1.00  0.00    -0.550 OA
ENDBRANCH   4   5
ENDBRANCH   3   4
ENDBRANCH   2   3
ENDBRANCH   1   2
BRANCH   1   8
ATOM      8  C   UNL     1     172.709 174.180 150.540  1.00  0.00     0.000 C 
BRANCH   8   9
ATOM      9  C   UNL     1     173.145 172.921 149.775  1.00  0.00    -0.000 C 
BRANCH   9  10
ATOM     10  C   UNL     1     172.694 171.651 150.507  1.00  0.00    -0.000 C 
BRANCH  10  11
ATOM     11  C   UNL     1     173.643 170.482 150.216  1.00  0.00    -0.000 C 
BRANCH  11  12
ATOM     12  C   UNL     1     175.082 170.830 150.614  1.00  0.00    -0.003 C 
ATOM     13  C   UNL     1     176.084 169.919 149.912  1.00  0.00     0.004 C 
ENDBRANCH  11  12
ENDBRANCH  10  11
ENDBRANCH   9  10
ENDBRANCH   8   9
ENDBRANCH   1   8
TORSDOF 9
ENDMDL
MODEL 7
REMARK VINA RESULT:    -3.919      2.401      5.083
REMARK INTER + INTRA:          -6.624
REMARK INTER:                  -5.325
REMARK INTRA:                  -1.299
REMARK UNBOUND:                -0.644
REMARK SMILES CCCCCCCCCCC(=O)[O-]
REMARK SMILES IDX 7 1 8 2 9 3 10 4 11 5 12 6 13 7 6 8 5 9 4 10 3 11 2 12 1 13
REMARK H PARENT
REMARK Flexibility Score: inf
ROOT
ATOM      1  C   UNL     1     172.064 174.044 150.548  1.00  0.00     0.000 C 
ENDROOT
BRANCH   1   2
ATOM      2  C   UNL     1     173.461 173.514 150.166  1.00  0.00     0.000 C 
BRANCH   2   3
ATOM      3  C   UNL     1     173.605 171.981 150.182  1.00  0.00     0.006 C 
BRANCH   3   4
ATOM      4  C   UNL     1     175.069 171.522 150.166  1.00  0.00     0.053 C 
BRANCH   4   5
ATOM      5  C   UNL     1     175.187 170.140 150.724  1.00  0.00     0.041 C 
ATOM      6  O   UNL     1     175.500 169.969 151.932  1.00  0.00    -0.550 OA
ATOM      7  O   UNL     1     175.001 169.038 149.899  1.00  0.00    -0.550 OA
ENDBRANCH   4   5
ENDBRANCH   3   4
ENDBRANCH   2   3
ENDBRANCH   1   2
BRANCH   1   8
ATOM      8  C   UNL     1     171.960 174.660 151.954  1.00  0.00     0.000 C 
BRANCH   8   9
ATOM      9  C   UNL     1     171.880 173.602 153.064  1.00  0.00    -0.000 C 
BRANCH   9  10
ATOM     10  C   UNL     1     173.067 173.725 154.027  1.00  0.00    -0.000 C 
BRANCH  10  11
ATOM     11  C   UNL     1     174.038 172.550 153.857  1.00  0.00    -0.000 C 
BRANCH  11  12
ATOM     12  C   UNL     1     175.489 173.039 153.800  1.00  0.00    -0.003 C 
ATOM     13  C   UNL     1     175.603 174.338 153.009  1.00  0.00     0.004 C 
ENDBRANCH  11  12
ENDBRANCH  10  11
ENDBRANCH   9  10
ENDBRANCH   8   9
ENDBRANCH   1   8
TORSDOF 9
ENDMDL
MODEL 8
REMARK VINA RESULT:    -3.834      3.044      6.386
REMARK INTER + INTRA:          -6.495
REMARK INTER:                  -5.958
REMARK INTRA:                  -0.536
REMARK UNBOUND:                -0.644
REMARK SMILES CCCCCCCCCCC(=O)[O-]
REMARK SMILES IDX 7 1 8 2 9 3 10 4 11 5 12 6 13 7 6 8 5 9 4 10 3 11 2 12 1 13
REMARK H PARENT
REMARK Flexibility Score: inf
ROOT
ATOM      1  C   UNL     1     174.683 169.548 150.481  1.00  0.00     0.000 C 
ENDROOT
BRANCH   1   2
ATOM      2  C   UNL     1     175.066 168.560 149.360  1.00  0.00     0.000 C 
BRANCH   2   3
ATOM      3  C   UNL     1     174.237 167.264 149.321  1.00  0.00     0.006 C 
BRANCH   3   4
ATOM      4  C   UNL     1     173.694 166.864 150.699  1.00  0.00     0.053 C 
BRANCH   4   5
ATOM      5  C   UNL     1     174.696 166.033 151.433  1.00  0.00     0.041 C 
ATOM      6  O   UNL     1     175.194 165.012 150.889  1.00  0.00    -0.550 OA
ATOM      7  O   UNL     1     175.046 166.356 152.738  1.00  0.00    -0.550 OA
ENDBRANCH   4   5
ENDBRANCH   3   4
ENDBRANCH   2   3
ENDBRANCH   1   2
BRANCH   1   8
ATOM      8  C   UNL     1     174.994 171.025 150.185  1.00  0.00     0.000 C 
BRANCH   8   9
ATOM      9  C   UNL     1     173.750 171.922 150.256  1.00  0.00    -0.000 C 
BRANCH   9  10
ATOM     10  C   UNL     1     174.068 173.342 149.770  1.00  0.00    -0.000 C 
BRANCH  10  11
ATOM     11  C   UNL     1     175.042 174.045 150.722  1.00  0.00    -0.000 C 
BRANCH  11  12
ATOM     12  C   UNL     1     174.444 174.171 152.127  1.00  0.00    -0.003 C 
ATOM     13  C   UNL     1     175.433 173.707 153.192  1.00  0.00     0.004 C 
ENDBRANCH  11  12
ENDBRANCH  10  11
ENDBRANCH   9  10
ENDBRANCH   8   9
ENDBRANCH   1   8
TORSDOF 9
ENDMDL
