MODEL 1
REMARK VINA RESULT:    -3.600      0.000      0.000
REMARK INTER + INTRA:          -5.397
REMARK INTER:                  -5.073
REMARK INTRA:                  -0.324
REMARK UNBOUND:                -0.324
REMARK SMILES CCCCCCCCC(=O)[O-]
REMARK SMILES IDX 6 1 7 2 8 3 9 4 10 5 11 6 5 7 4 8 3 9 2 10 1 11
REMARK H PARENT
REMARK Flexibility Score: inf
ROOT
ATOM      1  C   UNL     1       9.937   3.443   2.292  1.00  0.00     0.000 C 
ENDROOT
BRANCH   1   2
ATOM      2  C   UNL     1      10.125   1.921   2.415  1.00  0.00     0.006 C 
BRANCH   2   3
ATOM      3  C   UNL     1       9.884   1.422   3.846  1.00  0.00     0.053 C 
BRANCH   3   4
ATOM      4  C   UNL     1       9.244   0.068   3.863  1.00  0.00     0.041 C 
ATOM      5  O   UNL     1       9.439  -0.737   2.915  1.00  0.00    -0.550 OA
ATOM      6  O   UNL     1       8.402  -0.291   4.908  1.00  0.00    -0.550 OA
ENDBRANCH   3   4
ENDBRANCH   2   3
ENDBRANCH   1   2
BRANCH   1   7
ATOM      7  C   UNL     1      10.125   4.175   3.631  1.00  0.00     0.000 C 
BRANCH   7   8
ATOM      8  C   UNL     1       9.636   5.633   3.578  1.00  0.00    -0.000 C 
BRANCH   8   9
ATOM      9  C   UNL     1       9.160   6.144   4.948  1.00  0.00    -0.000 C 
BRANCH   9  10
ATOM     10  C   UNL     1       7.792   6.838   4.880  1.00  0.00    -0.003 C 
ATOM     11  C   UNL     1       6.958   6.294   3.724  1.00  0.00     0.004 C 
ENDBRANCH   9  10
ENDBRANCH   8   9
ENDBRANCH   7   8
ENDBRANCH   1   7
TORSDOF 7
ENDMDL
MODEL 2
REMARK VINA RESULT:    -3.453      4.697      6.386
REMARK INTER + INTRA:          -5.191
REMARK INTER:                  -4.852
REMARK INTRA:                  -0.339
REMARK UNBOUND:                -0.324
REMARK SMILES CCCCCCCCC(=O)[O-]
REMARK SMILES IDX 6 1 7 2 8 3 9 4 10 5 11 6 5 7 4 8 3 9 2 10 1 11
REMARK H PARENT
REMARK Flexibility Score: inf
ROOT
ATOM      1  C   UNL     1       9.015   6.061   3.834  1.00  0.00     0.000 C 
ENDROOT
BRANCH   1   2
ATOM      2  C   UNL     1       8.747   6.702   5.207  1.00  0.00     0.006 C 
BRANCH   2   3
ATOM      3  C   UNL     1       7.308   7.220   5.333  1.00  0.00     0.053 C 
BRANCH   3   4
ATOM      4  C   UNL     1       7.196   8.655   4.920  1.00  0.00     0.041 C 
ATOM      5  O   UNL     1       6.076   9.230   4.926  1.00  0.00    -0.550 OA
ATOM      6  O   UNL     1       8.323   9.347   4.495  1.00  0.00    -0.550 OA
ENDBRANCH   3   4
ENDBRANCH   2   3
ENDBRANCH   1   2
BRANCH   1   7
ATOM      7  C   UNL     1      10.023   6.860   2.992  1.00  0.00     0.000 C 
BRANCH   7   8
ATOM      8  C   UNL     1      10.025   6.433   1.514  1.00  0.00    -0.000 C 
BRANCH   8   9
ATOM      9  C   UNL     1       8.748   5.676   1.118  1.00  0.00    -0.000 C 
BRANCH   9  10
ATOM     10  C   UNL     1       9.033   4.252   0.616  1.00  0.00    -0.003 C 
ATOM     11  C   UNL     1      10.125   3.586   1.447  1.00  0.00     0.004 C 
ENDBRANCH   9  10
ENDBRANCH   8   9
ENDBRANCH   7   8
ENDBRANCH   1   7
TORSDOF 7
ENDMDL
MODEL 3
REMARK VINA RESULT:    -3.304      2.151      2.945
REMARK INTER + INTRA:          -4.980
REMARK INTER:                  -4.601
REMARK INTRA:                  -0.379
REMARK UNBOUND:                -0.324
REMARK SMILES CCCCCCCCC(=O)[O-]
REMARK SMILES IDX 6 1 7 2 8 3 9 4 10 5 11 6 5 7 4 8 3 9 2 10 1 11
REMARK H PARENT
REMARK Flexibility Score: inf
ROOT
ATOM      1  C   UNL     1       8.719   6.078   1.278  1.00  0.00     0.000 C 
ENDROOT
BRANCH   1   2
ATOM      2  C   UNL     1       8.765   4.579   0.934  1.00  0.00     0.006 C 
BRANCH   2   3
ATOM      3  C   UNL     1      10.124   3.949   1.267  1.00  0.00     0.053 C 
BRANCH   3   4
ATOM      4  C   UNL     1      10.070   3.143   2.528  1.00  0.00     0.041 C 
ATOM      5  O   UNL     1      10.109   3.717   3.648  1.00  0.00    -0.550 OA
ATOM      6  O   UNL     1      10.012   1.757   2.466  1.00  0.00    -0.550 OA
ENDBRANCH   3   4
ENDBRANCH   2   3
ENDBRANCH   1   2
BRANCH   1   7
ATOM      7  C   UNL     1      10.048   6.596   1.854  1.00  0.00     0.000 C 
BRANCH   7   8
ATOM      8  C   UNL     1       9.841   7.636   2.968  1.00  0.00    -0.000 C 
BRANCH   8   9
ATOM      9  C   UNL     1       9.806   7.002   4.368  1.00  0.00    -0.000 C 
BRANCH   9  10
ATOM     10  C   UNL     1       8.473   7.237   5.093  1.00  0.00    -0.003 C 
ATOM     11  C   UNL     1       7.323   6.547   4.365  1.00  0.00     0.004 C 
ENDBRANCH   9  10
ENDBRANCH   8   9
ENDBRANCH   7   8
ENDBRANCH   1   7
TORSDOF 7
ENDMDL
MODEL 4
REMARK VINA RESULT:    -3.283      4.442      6.530
REMARK INTER + INTRA:          -4.951
REMARK INTER:                  -4.507
REMARK INTRA:                  -0.443
REMARK UNBOUND:                -0.324
REMARK SMILES CCCCCCCCC(=O)[O-]
REMARK SMILES IDX 6 1 7 2 8 3 9 4 10 5 11 6 5 7 4 8 3 9 2 10 1 11
REMARK H PARENT
REMARK Flexibility Score: inf
ROOT
ATOM      1  C   UNL     1       9.372   7.616   5.051  1.00  0.00     0.000 C 
ENDROOT
BRANCH   1   2
ATOM      2  C   UNL     1       7.846   7.522   4.883  1.00  0.00     0.006 C 
BRANCH   2   3
ATOM      3  C   UNL     1       7.181   8.904   4.847  1.00  0.00     0.053 C 
BRANCH   3   4
ATOM      4  C   UNL     1       5.728   8.813   4.494  1.00  0.00     0.041 C 
ATOM      5  O   UNL     1       5.278   7.785   3.923  1.00  0.00    -0.550 OA
ATOM      6  O   UNL     1       4.878   9.879   4.763  1.00  0.00    -0.550 OA
ENDBRANCH   3   4
ENDBRANCH   2   3
ENDBRANCH   1   2
BRANCH   1   7
ATOM      7  C   UNL     1      10.083   6.280   4.782  1.00  0.00     0.000 C 
BRANCH   7   8
ATOM      8  C   UNL     1       9.195   5.283   4.017  1.00  0.00    -0.000 C 
BRANCH   8   9
ATOM      9  C   UNL     1       9.993   4.429   3.019  1.00  0.00    -0.000 C 
BRANCH   9  10
ATOM     10  C   UNL     1       9.521   4.613   1.569  1.00  0.00    -0.003 C 
ATOM     11  C   UNL     1       8.614   5.833   1.438  1.00  0.00     0.004 C 
ENDBRANCH   9  10
ENDBRANCH   8   9
ENDBRANCH   7   8
ENDBRANCH   1   7
TORSDOF 7
ENDMDL
MODEL 5
REMARK VINA RESULT:    -3.217      3.621      4.754
REMARK INTER + INTRA:          -4.858
REMARK INTER:                  -4.275
REMARK INTRA:                  -0.584
REMARK UNBOUND:                -0.324
REMARK SMILES CCCCCCCCC(=O)[O-]
REMARK SMILES IDX 6 1 7 2 8 3 9 4 10 5 11 6 5 7 4 8 3 9 2 10 1 11
REMARK H PARENT
REMARK Flexibility Score: inf
ROOT
ATOM      1  C   UNL     1       8.669   5.597   4.050  1.00  0.00     0.000 C 
ENDROOT
BRANCH   1   2
ATOM      2  C   UNL     1      10.007   5.893   3.352  1.00  0.00     0.006 C 
BRANCH   2   3
ATOM      3  C   UNL     1       9.814   6.354   1.901  1.00  0.00     0.053 C 
BRANCH   3   4
ATOM      4  C   UNL     1       8.951   5.406   1.126  1.00  0.00     0.041 C 
ATOM      5  O   UNL     1       7.787   5.743   0.787  1.00  0.00    -0.550 OA
ATOM      6  O   UNL     1       9.421   4.137   0.810  1.00  0.00    -0.550 OA
ENDBRANCH   3   4
ENDBRANCH   2   3
ENDBRANCH   1   2
BRANCH   1   7
ATOM      7  C   UNL     1       8.083   6.829   4.758  1.00  0.00     0.000 C 
BRANCH   7   8
ATOM      8  C   UNL     1       9.150   7.894   5.067  1.00  0.00    -0.000 C 
BRANCH   8   9
ATOM      9  C   UNL     1       8.787   9.275   4.496  1.00  0.00    -0.000 C 
BRANCH   9  10
ATOM     10  C   UNL     1      10.016  10.057   4.009  1.00  0.00    -0.003 C 
ATOM     11  C   UNL     1      10.125  10.017   2.488  1.00  0.00     0.004 C 
ENDBRANCH   9  10
ENDBRANCH   8   9
ENDBRANCH   7   8
ENDBRANCH   1   7
TORSDOF 7
ENDMDL
MODEL 6
REMARK VINA RESULT:    -3.144      4.768      6.421
REMARK INTER + INTRA:          -4.755
REMARK INTER:                  -4.198
REMARK INTRA:                  -0.556
REMARK UNBOUND:                -0.324
REMARK SMILES CCCCCCCCC(=O)[O-]
REMARK SMILES IDX 6 1 7 2 8 3 9 4 10 5 11 6 5 7 4 8 3 9 2 10 1 11
REMARK H PARENT
REMARK Flexibility Score: inf
ROOT
ATOM      1  C   UNL     1       9.912   6.455   4.945  1.00  0.00     0.000 C 
ENDROOT
BRANCH   1   2
ATOM      2  C   UNL     1       8.656   7.202   5.425  1.00  0.00     0.006 C 
BRANCH   2   3
ATOM      3  C   UNL     1       8.312   8.397   4.525  1.00  0.00     0.053 C 
BRANCH   3   4
ATOM      4  C   UNL     1       9.525   9.214   4.200  1.00  0.00     0.041 C 
ATOM      5  O   UNL     1      10.113   9.862   5.105  1.00  0.00    -0.550 OA
ATOM      6  O   UNL     1       9.983   9.288   2.891  1.00  0.00    -0.550 OA
ENDBRANCH   3   4
ENDBRANCH   2   3
ENDBRANCH   1   2
BRANCH   1   7
ATOM      7  C   UNL     1       9.652   4.963   4.683  1.00  0.00     0.000 C 
BRANCH   7   8
ATOM      8  C   UNL     1      10.066   4.533   3.264  1.00  0.00    -0.000 C 
BRANCH   8   9
ATOM      9  C   UNL     1      10.124   5.715   2.284  1.00  0.00    -0.000 C 
BRANCH   9  10
ATOM     10  C   UNL     1       9.019   5.658   1.219  1.00  0.00    -0.003 C 
ATOM     11  C   UNL     1       9.065   4.340   0.450  1.00  0.00     0.004 C 
ENDBRANCH   9  10
ENDBRANCH   8   9
ENDBRANCH   7   8
ENDBRANCH   1   7
TORSDOF 7
ENDMDL
MODEL 7
REMARK VINA RESULT:    -3.136     20.831     22.207
REMARK INTER + INTRA:          -4.744
REMARK INTER:                  -4.150
REMARK INTRA:                  -0.594
REMARK UNBOUND:                -0.324
REMARK SMILES CCCCCCCCC(=O)[O-]
REMARK SMILES IDX 6 1 7 2 8 3 9 4 10 5 11 6 5 7 4 8 3 9 2 10 1 11
REMARK H PARENT
REMARK Flexibility Score: inf
ROOT
ATOM      1  C   UNL     1      -5.602  -5.698  -9.289  1.00  0.00     0.000 C 
ENDROOT
BRANCH   1   2
ATOM      2  C   UNL     1      -6.840  -6.609  -9.221  1.00  0.00     0.006 C 
BRANCH   2   3
ATOM      3  C   UNL     1      -7.343  -6.796  -7.783  1.00  0.00     0.053 C 
BRANCH   3   4
ATOM      4  C   UNL     1      -8.047  -5.574  -7.278  1.00  0.00     0.041 C 
ATOM      5  O   UNL     1      -9.164  -5.244  -7.754  1.00  0.00    -0.550 OA
ATOM      6  O   UNL     1      -7.451  -4.780  -6.306  1.00  0.00    -0.550 OA
ENDBRANCH   3   4
ENDBRANCH   2   3
ENDBRANCH   1   2
BRANCH   1   7
ATOM      7  C   UNL     1      -4.288  -6.489  -9.401  1.00  0.00     0.000 C 
BRANCH   7   8
ATOM      8  C   UNL     1      -4.500  -7.909  -9.953  1.00  0.00    -0.000 C 
BRANCH   8   9
ATOM      9  C   UNL     1      -3.885  -8.990  -9.050  1.00  0.00    -0.000 C 
BRANCH   9  10
ATOM     10  C   UNL     1      -3.910  -8.606  -7.563  1.00  0.00    -0.003 C 
ATOM     11  C   UNL     1      -2.904  -9.432  -6.766  1.00  0.00     0.004 C 
ENDBRANCH   9  10
ENDBRANCH   8   9
ENDBRANCH   7   8
ENDBRANCH   1   7
TORSDOF 7
ENDMDL
MODEL 8
REMARK VINA RESULT:    -3.102     21.315     22.042
REMARK INTER + INTRA:          -4.696
REMARK INTER:                  -4.157
REMARK INTRA:                  -0.540
REMARK UNBOUND:                -0.324
REMARK SMILES CCCCCCCCC(=O)[O-]
REMARK SMILES IDX 6 1 7 2 8 3 9 4 10 5 11 6 5 7 4 8 3 9 2 10 1 11
REMARK H PARENT
REMARK Flexibility Score: inf
ROOT
ATOM      1  C   UNL     1      -5.684  -5.787  -9.043  1.00  0.00     0.000 C 
ENDROOT
BRANCH   1   2
ATOM      2  C   UNL     1      -4.465  -6.377  -9.772  1.00  0.00     0.006 C 
BRANCH   2   3
ATOM      3  C   UNL     1      -4.438  -7.910  -9.707  1.00  0.00     0.053 C 
BRANCH   3   4
ATOM      4  C   UNL     1      -4.530  -8.409  -8.298  1.00  0.00     0.041 C 
ATOM      5  O   UNL     1      -3.551  -8.284  -7.516  1.00  0.00    -0.550 OA
ATOM      6  O   UNL     1      -5.686  -9.043  -7.858  1.00  0.00    -0.550 OA
ENDBRANCH   3   4
ENDBRANCH   2   3
ENDBRANCH   1   2
BRANCH   1   7
ATOM      7  C   UNL     1      -7.013  -6.128  -9.736  1.00  0.00     0.000 C 
BRANCH   7   8
ATOM      8  C   UNL     1      -8.209  -6.093  -8.767  1.00  0.00    -0.000 C 
BRANCH   8   9
ATOM      9  C   UNL     1      -7.780  -6.227  -7.298  1.00  0.00    -0.000 C 
BRANCH   9  10
ATOM     10  C   UNL     1      -8.152  -4.997  -6.456  1.00  0.00    -0.003 C 
ATOM     11  C   UNL     1      -9.517  -4.448  -6.861  1.00  0.00     0.004 C 
ENDBRANCH   9  10
ENDBRANCH   8   9
ENDBRANCH   7   8
ENDBRANCH   1   7
TORSDOF 7
ENDMDL
