MODEL 1
REMARK VINA RESULT:    -7.244      0.000      0.000
REMARK INTER + INTRA:          -9.048
REMARK INTER:                  -8.726
REMARK INTRA:                  -0.322
REMARK UNBOUND:                -0.322
REMARK SMILES O=c1c(O)c(-c2ccc(O)c(O)c2)oc2cc(O)cc(O)c12
REMARK SMILES IDX 5 1 3 2 2 3 1 4 22 5 20 6 19 7 17 8 16 9 15 10 14 11 6 12
REMARK SMILES IDX 7 13 8 14 9 15 13 16 11 17 10 18 12 20 4 22 21 24 18 26
REMARK H PARENT 10 19 12 21 4 23 21 25 18 27
REMARK Flexibility Score: inf
ROOT
ATOM      1  C   UNL     1       6.875  21.351  32.122  1.00  0.00     0.180 A 
ATOM      2  C   UNL     1       6.685  22.390  33.049  1.00  0.00     0.208 A 
ATOM      3  C   UNL     1       6.408  22.066  34.388  1.00  0.00     0.238 A 
ATOM      4  O   UNL     1       6.185  23.000  35.201  1.00  0.00    -0.285 OA
ATOM      5  C   UNL     1       6.342  20.709  34.785  1.00  0.00     0.111 A 
ATOM      6  C   UNL     1       6.109  20.267  36.122  1.00  0.00     0.134 A 
ATOM      7  C   UNL     1       5.933  18.902  36.376  1.00  0.00     0.093 A 
ATOM      8  C   UNL     1       6.047  17.958  35.357  1.00  0.00     0.123 A 
ATOM      9  C   UNL     1       6.334  18.374  34.055  1.00  0.00     0.094 A 
ATOM     10  C   UNL     1       6.478  19.733  33.764  1.00  0.00     0.146 A 
ATOM     11  O   UNL     1       6.740  20.089  32.513  1.00  0.00    -0.452 OA
ENDROOT
BRANCH   1  12
ATOM     12  C   UNL     1       7.193  21.613  30.700  1.00  0.00     0.025 A 
ATOM     13  C   UNL     1       8.535  21.737  30.305  1.00  0.00     0.016 A 
ATOM     14  C   UNL     1       8.858  22.005  28.971  1.00  0.00     0.051 A 
ATOM     15  C   UNL     1       7.845  22.169  28.019  1.00  0.00     0.157 A 
ATOM     16  C   UNL     1       6.178  21.798  29.744  1.00  0.00     0.062 A 
ATOM     17  C   UNL     1       6.502  22.070  28.406  1.00  0.00     0.158 A 
BRANCH  15  18
ATOM     18  O   UNL     1       8.162  22.435  26.688  1.00  0.00    -0.504 OA
ATOM     19  H   UNL     1       7.442  22.561  25.986  1.00  0.00     0.293 HD
ENDBRANCH  15  18
BRANCH  17  20
ATOM     20  O   UNL     1       5.495  22.246  27.459  1.00  0.00    -0.504 OA
ATOM     21  H   UNL     1       5.206  21.492  26.846  1.00  0.00     0.293 HD
ENDBRANCH  17  20
ENDBRANCH   1  12
BRANCH   2  22
ATOM     22  O   UNL     1       6.733  23.723  32.631  1.00  0.00    -0.502 OA
ATOM     23  H   UNL     1       7.459  24.362  32.933  1.00  0.00     0.293 HD
ENDBRANCH   2  22
BRANCH   6  24
ATOM     24  O   UNL     1       6.069  21.119  37.230  1.00  0.00    -0.507 OA
ATOM     25  H   UNL     1       5.227  21.489  37.641  1.00  0.00     0.293 HD
ENDBRANCH   6  24
BRANCH   8  26
ATOM     26  O   UNL     1       5.883  16.606  35.649  1.00  0.00    -0.508 OA
ATOM     27  H   UNL     1       6.623  15.934  35.483  1.00  0.00     0.293 HD
ENDBRANCH   8  26
TORSDOF 6
ENDMDL
MODEL 2
REMARK VINA RESULT:    -6.945      2.687      2.972
REMARK INTER + INTRA:          -8.688
REMARK INTER:                  -8.398
REMARK INTRA:                  -0.290
REMARK UNBOUND:                -0.322
REMARK SMILES O=c1c(O)c(-c2ccc(O)c(O)c2)oc2cc(O)cc(O)c12
REMARK SMILES IDX 5 1 3 2 2 3 1 4 22 5 20 6 19 7 17 8 16 9 15 10 14 11 6 12
REMARK SMILES IDX 7 13 8 14 9 15 13 16 11 17 10 18 12 20 4 22 21 24 18 26
REMARK H PARENT 10 19 12 21 4 23 21 25 18 27
REMARK Flexibility Score: inf
ROOT
ATOM      1  C   UNL     1       5.732  21.711  31.260  1.00  0.00     0.180 A 
ATOM      2  C   UNL     1       5.982  22.607  32.314  1.00  0.00     0.208 A 
ATOM      3  C   UNL     1       5.163  22.563  33.454  1.00  0.00     0.238 A 
ATOM      4  O   UNL     1       5.358  23.404  34.370  1.00  0.00    -0.285 OA
ATOM      5  C   UNL     1       4.116  21.614  33.534  1.00  0.00     0.111 A 
ATOM      6  C   UNL     1       3.252  21.454  34.658  1.00  0.00     0.134 A 
ATOM      7  C   UNL     1       2.168  20.572  34.575  1.00  0.00     0.093 A 
ATOM      8  C   UNL     1       1.954  19.797  33.436  1.00  0.00     0.123 A 
ATOM      9  C   UNL     1       2.829  19.902  32.352  1.00  0.00     0.094 A 
ATOM     10  C   UNL     1       3.898  20.800  32.392  1.00  0.00     0.146 A 
ATOM     11  O   UNL     1       4.701  20.877  31.338  1.00  0.00    -0.452 OA
ENDROOT
BRANCH   1  12
ATOM     12  C   UNL     1       6.566  21.680  30.038  1.00  0.00     0.025 A 
ATOM     13  C   UNL     1       6.337  22.622  29.022  1.00  0.00     0.016 A 
ATOM     14  C   UNL     1       7.098  22.598  27.849  1.00  0.00     0.051 A 
ATOM     15  C   UNL     1       8.088  21.624  27.671  1.00  0.00     0.157 A 
ATOM     16  C   UNL     1       7.546  20.690  29.845  1.00  0.00     0.062 A 
ATOM     17  C   UNL     1       8.310  20.665  28.668  1.00  0.00     0.158 A 
BRANCH  15  18
ATOM     18  O   UNL     1       8.850  21.597  26.505  1.00  0.00    -0.504 OA
ATOM     19  H   UNL     1       8.450  21.321  25.615  1.00  0.00     0.293 HD
ENDBRANCH  15  18
BRANCH  17  20
ATOM     20  O   UNL     1       9.286  19.688  28.481  1.00  0.00    -0.504 OA
ATOM     21  H   UNL     1      10.274  19.912  28.520  1.00  0.00     0.293 HD
ENDBRANCH  17  20
ENDBRANCH   1  12
BRANCH   2  22
ATOM     22  O   UNL     1       7.007  23.550  32.205  1.00  0.00    -0.502 OA
ATOM     23  H   UNL     1       6.862  24.468  31.800  1.00  0.00     0.293 HD
ENDBRANCH   2  22
BRANCH   6  24
ATOM     24  O   UNL     1       3.430  22.111  35.879  1.00  0.00    -0.507 OA
ATOM     25  H   UNL     1       2.946  21.881  36.732  1.00  0.00     0.293 HD
ENDBRANCH   6  24
BRANCH   8  26
ATOM     26  O   UNL     1       0.875  18.917  33.394  1.00  0.00    -0.508 OA
ATOM     27  H   UNL     1       0.334  18.783  32.548  1.00  0.00     0.293 HD
ENDBRANCH   8  26
TORSDOF 6
ENDMDL
MODEL 3
REMARK VINA RESULT:    -6.842     12.939     14.527
REMARK INTER + INTRA:          -8.564
REMARK INTER:                  -8.301
REMARK INTRA:                  -0.263
REMARK UNBOUND:                -0.322
REMARK SMILES O=c1c(O)c(-c2ccc(O)c(O)c2)oc2cc(O)cc(O)c12
REMARK SMILES IDX 5 1 3 2 2 3 1 4 22 5 20 6 19 7 17 8 16 9 15 10 14 11 6 12
REMARK SMILES IDX 7 13 8 14 9 15 13 16 11 17 10 18 12 20 4 22 21 24 18 26
REMARK H PARENT 10 19 12 21 4 23 21 25 18 27
REMARK Flexibility Score: inf
ROOT
ATOM      1  C   UNL     1      15.303  11.657  28.972  1.00  0.00     0.180 A 
ATOM      2  C   UNL     1      15.518  11.462  27.596  1.00  0.00     0.208 A 
ATOM      3  C   UNL     1      16.215  10.320  27.170  1.00  0.00     0.238 A 
ATOM      4  O   UNL     1      16.451  10.179  25.942  1.00  0.00    -0.285 OA
ATOM      5  C   UNL     1      16.675   9.379  28.123  1.00  0.00     0.111 A 
ATOM      6  C   UNL     1      17.356   8.167  27.801  1.00  0.00     0.134 A 
ATOM      7  C   UNL     1      17.880   7.376  28.830  1.00  0.00     0.093 A 
ATOM      8  C   UNL     1      17.692   7.717  30.169  1.00  0.00     0.123 A 
ATOM      9  C   UNL     1      16.975   8.869  30.496  1.00  0.00     0.094 A 
ATOM     10  C   UNL     1      16.472   9.698  29.491  1.00  0.00     0.146 A 
ATOM     11  O   UNL     1      15.805  10.790  29.844  1.00  0.00    -0.452 OA
ENDROOT
BRANCH   1  12
ATOM     12  C   UNL     1      14.557  12.823  29.495  1.00  0.00     0.025 A 
ATOM     13  C   UNL     1      15.189  14.075  29.561  1.00  0.00     0.016 A 
ATOM     14  C   UNL     1      14.510  15.185  30.072  1.00  0.00     0.051 A 
ATOM     15  C   UNL     1      13.195  15.055  30.537  1.00  0.00     0.157 A 
ATOM     16  C   UNL     1      13.244  12.693  29.982  1.00  0.00     0.062 A 
ATOM     17  C   UNL     1      12.562  13.807  30.496  1.00  0.00     0.158 A 
BRANCH  15  18
ATOM     18  O   UNL     1      12.514  16.159  31.045  1.00  0.00    -0.504 OA
ATOM     19  H   UNL     1      12.986  17.039  31.222  1.00  0.00     0.293 HD
ENDBRANCH  15  18
BRANCH  17  20
ATOM     20  O   UNL     1      11.258  13.678  30.972  1.00  0.00    -0.504 OA
ATOM     21  H   UNL     1      10.689  14.489  31.187  1.00  0.00     0.293 HD
ENDBRANCH  17  20
ENDBRANCH   1  12
BRANCH   2  22
ATOM     22  O   UNL     1      15.075  12.415  26.674  1.00  0.00    -0.502 OA
ATOM     23  H   UNL     1      14.602  12.161  25.814  1.00  0.00     0.293 HD
ENDBRANCH   2  22
BRANCH   6  24
ATOM     24  O   UNL     1      17.519   7.686  26.498  1.00  0.00    -0.507 OA
ATOM     25  H   UNL     1      17.057   8.061  25.685  1.00  0.00     0.293 HD
ENDBRANCH   6  24
BRANCH   8  26
ATOM     26  O   UNL     1      18.212   6.897  31.167  1.00  0.00    -0.508 OA
ATOM     27  H   UNL     1      19.052   6.350  31.019  1.00  0.00     0.293 HD
ENDBRANCH   8  26
TORSDOF 6
ENDMDL
MODEL 4
REMARK VINA RESULT:    -6.825     11.609     13.010
REMARK INTER + INTRA:          -8.544
REMARK INTER:                  -8.226
REMARK INTRA:                  -0.317
REMARK UNBOUND:                -0.322
REMARK SMILES O=c1c(O)c(-c2ccc(O)c(O)c2)oc2cc(O)cc(O)c12
REMARK SMILES IDX 5 1 3 2 2 3 1 4 22 5 20 6 19 7 17 8 16 9 15 10 14 11 6 12
REMARK SMILES IDX 7 13 8 14 9 15 13 16 11 17 10 18 12 20 4 22 21 24 18 26
REMARK H PARENT 10 19 12 21 4 23 21 25 18 27
REMARK Flexibility Score: inf
ROOT
ATOM      1  C   UNL     1      15.542  13.446  28.729  1.00  0.00     0.180 A 
ATOM      2  C   UNL     1      14.395  13.447  29.543  1.00  0.00     0.208 A 
ATOM      3  C   UNL     1      13.986  12.246  30.145  1.00  0.00     0.238 A 
ATOM      4  O   UNL     1      12.929  12.242  30.828  1.00  0.00    -0.285 OA
ATOM      5  C   UNL     1      14.736  11.063  29.938  1.00  0.00     0.111 A 
ATOM      6  C   UNL     1      14.435   9.799  30.531  1.00  0.00     0.134 A 
ATOM      7  C   UNL     1      15.168   8.669  30.152  1.00  0.00     0.093 A 
ATOM      8  C   UNL     1      16.231   8.765  29.255  1.00  0.00     0.123 A 
ATOM      9  C   UNL     1      16.572  10.007  28.715  1.00  0.00     0.094 A 
ATOM     10  C   UNL     1      15.836  11.147  29.045  1.00  0.00     0.146 A 
ATOM     11  O   UNL     1      16.185  12.306  28.502  1.00  0.00    -0.452 OA
ENDROOT
BRANCH   1  12
ATOM     12  C   UNL     1      16.049  14.677  28.082  1.00  0.00     0.025 A 
ATOM     13  C   UNL     1      15.545  15.055  26.828  1.00  0.00     0.016 A 
ATOM     14  C   UNL     1      16.025  16.202  26.188  1.00  0.00     0.051 A 
ATOM     15  C   UNL     1      17.026  16.977  26.787  1.00  0.00     0.157 A 
ATOM     16  C   UNL     1      17.069  15.446  28.670  1.00  0.00     0.062 A 
ATOM     17  C   UNL     1      17.553  16.596  28.028  1.00  0.00     0.158 A 
BRANCH  15  18
ATOM     18  O   UNL     1      17.507  18.122  26.154  1.00  0.00    -0.504 OA
ATOM     19  H   UNL     1      17.888  18.899  26.682  1.00  0.00     0.293 HD
ENDBRANCH  15  18
BRANCH  17  20
ATOM     20  O   UNL     1      18.558  17.362  28.615  1.00  0.00    -0.504 OA
ATOM     21  H   UNL     1      18.370  17.970  29.404  1.00  0.00     0.293 HD
ENDBRANCH  17  20
ENDBRANCH   1  12
BRANCH   2  22
ATOM     22  O   UNL     1      13.657  14.621  29.716  1.00  0.00    -0.502 OA
ATOM     23  H   UNL     1      12.679  14.691  29.461  1.00  0.00     0.293 HD
ENDBRANCH   2  22
BRANCH   6  24
ATOM     24  O   UNL     1      13.453   9.610  31.507  1.00  0.00    -0.507 OA
ATOM     25  H   UNL     1      12.647  10.200  31.634  1.00  0.00     0.293 HD
ENDBRANCH   6  24
BRANCH   8  26
ATOM     26  O   UNL     1      16.950   7.622  28.914  1.00  0.00    -0.508 OA
ATOM     27  H   UNL     1      16.967   6.807  29.517  1.00  0.00     0.293 HD
ENDBRANCH   8  26
TORSDOF 6
ENDMDL
MODEL 5
REMARK VINA RESULT:    -6.821     12.617     14.226
REMARK INTER + INTRA:          -8.539
REMARK INTER:                  -8.220
REMARK INTRA:                  -0.319
REMARK UNBOUND:                -0.322
REMARK SMILES O=c1c(O)c(-c2ccc(O)c(O)c2)oc2cc(O)cc(O)c12
REMARK SMILES IDX 5 1 3 2 2 3 1 4 22 5 20 6 19 7 17 8 16 9 15 10 14 11 6 12
REMARK SMILES IDX 7 13 8 14 9 15 13 16 11 17 10 18 12 20 4 22 21 24 18 26
REMARK H PARENT 10 19 12 21 4 23 21 25 18 27
REMARK Flexibility Score: inf
ROOT
ATOM      1  C   UNL     1      16.838  12.886  27.993  1.00  0.00     0.180 A 
ATOM      2  C   UNL     1      17.694  11.897  27.478  1.00  0.00     0.208 A 
ATOM      3  C   UNL     1      17.500  10.560  27.864  1.00  0.00     0.238 A 
ATOM      4  O   UNL     1      18.302   9.687  27.443  1.00  0.00    -0.285 OA
ATOM      5  C   UNL     1      16.443  10.227  28.746  1.00  0.00     0.111 A 
ATOM      6  C   UNL     1      16.129   8.901  29.170  1.00  0.00     0.134 A 
ATOM      7  C   UNL     1      15.145   8.704  30.146  1.00  0.00     0.093 A 
ATOM      8  C   UNL     1      14.418   9.775  30.664  1.00  0.00     0.123 A 
ATOM      9  C   UNL     1      14.676  11.071  30.211  1.00  0.00     0.094 A 
ATOM     10  C   UNL     1      15.677  11.303  29.266  1.00  0.00     0.146 A 
ATOM     11  O   UNL     1      15.898  12.551  28.869  1.00  0.00    -0.452 OA
ENDROOT
BRANCH   1  12
ATOM     12  C   UNL     1      16.965  14.311  27.615  1.00  0.00     0.025 A 
ATOM     13  C   UNL     1      16.346  14.772  26.442  1.00  0.00     0.016 A 
ATOM     14  C   UNL     1      16.470  16.109  26.053  1.00  0.00     0.051 A 
ATOM     15  C   UNL     1      17.227  17.000  26.824  1.00  0.00     0.157 A 
ATOM     16  C   UNL     1      17.742  15.205  28.374  1.00  0.00     0.062 A 
ATOM     17  C   UNL     1      17.868  16.546  27.984  1.00  0.00     0.158 A 
BRANCH  15  18
ATOM     18  O   UNL     1      17.353  18.334  26.442  1.00  0.00    -0.504 OA
ATOM     19  H   UNL     1      17.360  18.608  25.466  1.00  0.00     0.293 HD
ENDBRANCH  15  18
BRANCH  17  20
ATOM     20  O   UNL     1      18.632  17.432  28.742  1.00  0.00    -0.504 OA
ATOM     21  H   UNL     1      18.778  17.291  29.735  1.00  0.00     0.293 HD
ENDBRANCH  17  20
ENDBRANCH   1  12
BRANCH   2  22
ATOM     22  O   UNL     1      18.745  12.250  26.627  1.00  0.00    -0.502 OA
ATOM     23  H   UNL     1      19.484  12.883  26.909  1.00  0.00     0.293 HD
ENDBRANCH   2  22
BRANCH   6  24
ATOM     24  O   UNL     1      16.731   7.752  28.648  1.00  0.00    -0.507 OA
ATOM     25  H   UNL     1      17.112   7.001  29.201  1.00  0.00     0.293 HD
ENDBRANCH   6  24
BRANCH   8  26
ATOM     26  O   UNL     1      13.434   9.540  31.621  1.00  0.00    -0.508 OA
ATOM     27  H   UNL     1      12.486   9.875  31.499  1.00  0.00     0.293 HD
ENDBRANCH   8  26
TORSDOF 6
ENDMDL
MODEL 6
REMARK VINA RESULT:    -6.783      3.158      4.934
REMARK INTER + INTRA:          -8.492
REMARK INTER:                  -8.263
REMARK INTRA:                  -0.229
REMARK UNBOUND:                -0.322
REMARK SMILES O=c1c(O)c(-c2ccc(O)c(O)c2)oc2cc(O)cc(O)c12
REMARK SMILES IDX 5 1 3 2 2 3 1 4 22 5 20 6 19 7 17 8 16 9 15 10 14 11 6 12
REMARK SMILES IDX 7 13 8 14 9 15 13 16 11 17 10 18 12 20 4 22 21 24 18 26
REMARK H PARENT 10 19 12 21 4 23 21 25 18 27
REMARK Flexibility Score: inf
ROOT
ATOM      1  C   UNL     1       8.611  20.403  30.105  1.00  0.00     0.180 A 
ATOM      2  C   UNL     1       7.653  21.026  29.287  1.00  0.00     0.208 A 
ATOM      3  C   UNL     1       6.680  21.846  29.881  1.00  0.00     0.238 A 
ATOM      4  O   UNL     1       5.793  22.358  29.150  1.00  0.00    -0.285 OA
ATOM      5  C   UNL     1       6.687  22.046  31.283  1.00  0.00     0.111 A 
ATOM      6  C   UNL     1       5.773  22.888  31.986  1.00  0.00     0.134 A 
ATOM      7  C   UNL     1       5.791  22.908  33.385  1.00  0.00     0.093 A 
ATOM      8  C   UNL     1       6.728  22.168  34.105  1.00  0.00     0.123 A 
ATOM      9  C   UNL     1       7.665  21.387  33.426  1.00  0.00     0.094 A 
ATOM     10  C   UNL     1       7.649  21.319  32.031  1.00  0.00     0.146 A 
ATOM     11  O   UNL     1       8.550  20.557  31.423  1.00  0.00    -0.452 OA
ENDROOT
BRANCH   1  12
ATOM     12  C   UNL     1       9.681  19.544  29.550  1.00  0.00     0.025 A 
ATOM     13  C   UNL     1      10.997  20.032  29.492  1.00  0.00     0.016 A 
ATOM     14  C   UNL     1      12.020  19.247  28.952  1.00  0.00     0.051 A 
ATOM     15  C   UNL     1      11.739  17.970  28.449  1.00  0.00     0.157 A 
ATOM     16  C   UNL     1       9.400  18.270  29.025  1.00  0.00     0.062 A 
ATOM     17  C   UNL     1      10.427  17.482  28.482  1.00  0.00     0.158 A 
BRANCH  15  18
ATOM     18  O   UNL     1      12.756  17.183  27.912  1.00  0.00    -0.504 OA
ATOM     19  H   UNL     1      12.598  16.215  27.656  1.00  0.00     0.293 HD
ENDBRANCH  15  18
BRANCH  17  20
ATOM     20  O   UNL     1      10.148  16.216  27.969  1.00  0.00    -0.504 OA
ATOM     21  H   UNL     1       9.944  16.075  26.986  1.00  0.00     0.293 HD
ENDBRANCH  17  20
ENDBRANCH   1  12
BRANCH   2  22
ATOM     22  O   UNL     1       7.651  20.798  27.908  1.00  0.00    -0.502 OA
ATOM     23  H   UNL     1       8.276  20.135  27.465  1.00  0.00     0.293 HD
ENDBRANCH   2  22
BRANCH   6  24
ATOM     24  O   UNL     1       4.857  23.738  31.360  1.00  0.00    -0.507 OA
ATOM     25  H   UNL     1       4.797  23.887  30.365  1.00  0.00     0.293 HD
ENDBRANCH   6  24
BRANCH   8  26
ATOM     26  O   UNL     1       6.727  22.225  35.497  1.00  0.00    -0.508 OA
ATOM     27  H   UNL     1       7.568  22.053  36.035  1.00  0.00     0.293 HD
ENDBRANCH   8  26
TORSDOF 6
ENDMDL
MODEL 7
REMARK VINA RESULT:    -6.751     14.823     16.392
REMARK INTER + INTRA:          -8.454
REMARK INTER:                  -8.124
REMARK INTRA:                  -0.330
REMARK UNBOUND:                -0.322
REMARK SMILES O=c1c(O)c(-c2ccc(O)c(O)c2)oc2cc(O)cc(O)c12
REMARK SMILES IDX 5 1 3 2 2 3 1 4 22 5 20 6 19 7 17 8 16 9 15 10 14 11 6 12
REMARK SMILES IDX 7 13 8 14 9 15 13 16 11 17 10 18 12 20 4 22 21 24 18 26
REMARK H PARENT 10 19 12 21 4 23 21 25 18 27
REMARK Flexibility Score: inf
ROOT
ATOM      1  C   UNL     1      16.541  10.364  28.349  1.00  0.00     0.180 A 
ATOM      2  C   UNL     1      16.254   9.777  27.104  1.00  0.00     0.208 A 
ATOM      3  C   UNL     1      16.989   8.652  26.696  1.00  0.00     0.238 A 
ATOM      4  O   UNL     1      16.765   8.164  25.558  1.00  0.00    -0.285 OA
ATOM      5  C   UNL     1      17.991   8.119  27.543  1.00  0.00     0.111 A 
ATOM      6  C   UNL     1      18.768   6.959  27.249  1.00  0.00     0.134 A 
ATOM      7  C   UNL     1      19.820   6.599  28.099  1.00  0.00     0.093 A 
ATOM      8  C   UNL     1      20.081   7.316  29.266  1.00  0.00     0.123 A 
ATOM      9  C   UNL     1      19.288   8.417  29.595  1.00  0.00     0.094 A 
ATOM     10  C   UNL     1      18.255   8.822  28.747  1.00  0.00     0.146 A 
ATOM     11  O   UNL     1      17.531   9.881  29.091  1.00  0.00    -0.452 OA
ENDROOT
BRANCH   1  12
ATOM     12  C   UNL     1      15.793  11.536  28.858  1.00  0.00     0.025 A 
ATOM     13  C   UNL     1      16.274  12.829  28.597  1.00  0.00     0.016 A 
ATOM     14  C   UNL     1      15.596  13.949  29.086  1.00  0.00     0.051 A 
ATOM     15  C   UNL     1      14.436  13.791  29.855  1.00  0.00     0.157 A 
ATOM     16  C   UNL     1      14.640  11.381  29.648  1.00  0.00     0.062 A 
ATOM     17  C   UNL     1      13.959  12.505  30.140  1.00  0.00     0.158 A 
BRANCH  15  18
ATOM     18  O   UNL     1      13.755  14.904  30.343  1.00  0.00    -0.504 OA
ATOM     19  H   UNL     1      12.772  14.861  30.585  1.00  0.00     0.293 HD
ENDBRANCH  15  18
BRANCH  17  20
ATOM     20  O   UNL     1      12.812  12.351  30.917  1.00  0.00    -0.504 OA
ATOM     21  H   UNL     1      12.459  13.103  31.497  1.00  0.00     0.293 HD
ENDBRANCH  17  20
ENDBRANCH   1  12
BRANCH   2  22
ATOM     22  O   UNL     1      15.277  10.332  26.274  1.00  0.00    -0.502 OA
ATOM     23  H   UNL     1      14.736  11.147  26.539  1.00  0.00     0.293 HD
ENDBRANCH   2  22
BRANCH   6  24
ATOM     24  O   UNL     1      18.532   6.118  26.157  1.00  0.00    -0.507 OA
ATOM     25  H   UNL     1      19.212   5.492  25.756  1.00  0.00     0.293 HD
ENDBRANCH   6  24
BRANCH   8  26
ATOM     26  O   UNL     1      21.125   6.920  30.099  1.00  0.00    -0.508 OA
ATOM     27  H   UNL     1      21.430   5.955  30.143  1.00  0.00     0.293 HD
ENDBRANCH   8  26
TORSDOF 6
ENDMDL
MODEL 8
REMARK VINA RESULT:    -6.680      5.124      7.663
REMARK INTER + INTRA:          -8.369
REMARK INTER:                  -8.049
REMARK INTRA:                  -0.320
REMARK UNBOUND:                -0.322
REMARK SMILES O=c1c(O)c(-c2ccc(O)c(O)c2)oc2cc(O)cc(O)c12
REMARK SMILES IDX 5 1 3 2 2 3 1 4 22 5 20 6 19 7 17 8 16 9 15 10 14 11 6 12
REMARK SMILES IDX 7 13 8 14 9 15 13 16 11 17 10 18 12 20 4 22 21 24 18 26
REMARK H PARENT 10 19 12 21 4 23 21 25 18 27
REMARK Flexibility Score: inf
ROOT
ATOM      1  C   UNL     1      10.627  19.455  28.623  1.00  0.00     0.180 A 
ATOM      2  C   UNL     1      11.199  19.361  27.342  1.00  0.00     0.208 A 
ATOM      3  C   UNL     1      12.078  18.300  27.066  1.00  0.00     0.238 A 
ATOM      4  O   UNL     1      12.630  18.252  25.935  1.00  0.00    -0.285 OA
ATOM      5  C   UNL     1      12.361  17.340  28.067  1.00  0.00     0.111 A 
ATOM      6  C   UNL     1      13.204  16.202  27.883  1.00  0.00     0.134 A 
ATOM      7  C   UNL     1      13.516  15.391  28.980  1.00  0.00     0.093 A 
ATOM      8  C   UNL     1      12.965  15.635  30.238  1.00  0.00     0.123 A 
ATOM      9  C   UNL     1      12.091  16.710  30.415  1.00  0.00     0.094 A 
ATOM     10  C   UNL     1      11.790  17.559  29.347  1.00  0.00     0.146 A 
ATOM     11  O   UNL     1      10.963  18.575  29.559  1.00  0.00    -0.452 OA
ENDROOT
BRANCH   1  12
ATOM     12  C   UNL     1       9.673  20.529  28.981  1.00  0.00     0.025 A 
ATOM     13  C   UNL     1      10.126  21.636  29.716  1.00  0.00     0.016 A 
ATOM     14  C   UNL     1       9.238  22.653  30.084  1.00  0.00     0.051 A 
ATOM     15  C   UNL     1       7.884  22.567  29.736  1.00  0.00     0.157 A 
ATOM     16  C   UNL     1       8.309  20.437  28.653  1.00  0.00     0.062 A 
ATOM     17  C   UNL     1       7.418  21.455  29.023  1.00  0.00     0.158 A 
BRANCH  15  18
ATOM     18  O   UNL     1       6.997  23.577  30.100  1.00  0.00    -0.504 OA
ATOM     19  H   UNL     1       7.215  24.234  30.840  1.00  0.00     0.293 HD
ENDBRANCH  15  18
BRANCH  17  20
ATOM     20  O   UNL     1       6.067  21.366  28.690  1.00  0.00    -0.504 OA
ATOM     21  H   UNL     1       5.363  21.142  29.384  1.00  0.00     0.293 HD
ENDBRANCH  17  20
ENDBRANCH   1  12
BRANCH   2  22
ATOM     22  O   UNL     1      10.925  20.332  26.376  1.00  0.00    -0.502 OA
ATOM     23  H   UNL     1      11.314  21.266  26.418  1.00  0.00     0.293 HD
ENDBRANCH   2  22
BRANCH   6  24
ATOM     24  O   UNL     1      13.733  15.815  26.649  1.00  0.00    -0.507 OA
ATOM     25  H   UNL     1      13.908  14.862  26.371  1.00  0.00     0.293 HD
ENDBRANCH   6  24
BRANCH   8  26
ATOM     26  O   UNL     1      13.284  14.797  31.303  1.00  0.00    -0.508 OA
ATOM     27  H   UNL     1      13.426  13.803  31.171  1.00  0.00     0.293 HD
ENDBRANCH   8  26
TORSDOF 6
ENDMDL
MODEL 9
REMARK VINA RESULT:    -6.674      2.928      6.463
REMARK INTER + INTRA:          -8.362
REMARK INTER:                  -8.046
REMARK INTRA:                  -0.315
REMARK UNBOUND:                -0.322
REMARK SMILES O=c1c(O)c(-c2ccc(O)c(O)c2)oc2cc(O)cc(O)c12
REMARK SMILES IDX 5 1 3 2 2 3 1 4 22 5 20 6 19 7 17 8 16 9 15 10 14 11 6 12
REMARK SMILES IDX 7 13 8 14 9 15 13 16 11 17 10 18 12 20 4 22 21 24 18 26
REMARK H PARENT 10 19 12 21 4 23 21 25 18 27
REMARK Flexibility Score: inf
ROOT
ATOM      1  C   UNL     1       7.680  20.644  30.944  1.00  0.00     0.180 A 
ATOM      2  C   UNL     1       7.907  21.363  29.758  1.00  0.00     0.208 A 
ATOM      3  C   UNL     1       8.900  20.917  28.871  1.00  0.00     0.238 A 
ATOM      4  O   UNL     1       9.135  21.595  27.837  1.00  0.00    -0.285 OA
ATOM      5  C   UNL     1       9.642  19.750  29.173  1.00  0.00     0.111 A 
ATOM      6  C   UNL     1      10.644  19.185  28.327  1.00  0.00     0.134 A 
ATOM      7  C   UNL     1      11.405  18.104  28.787  1.00  0.00     0.093 A 
ATOM      8  C   UNL     1      11.159  17.525  30.031  1.00  0.00     0.123 A 
ATOM      9  C   UNL     1      10.141  18.032  30.842  1.00  0.00     0.094 A 
ATOM     10  C   UNL     1       9.389  19.133  30.426  1.00  0.00     0.146 A 
ATOM     11  O   UNL     1       8.438  19.591  31.230  1.00  0.00    -0.452 OA
ENDROOT
BRANCH   1  12
ATOM     12  C   UNL     1       6.635  21.038  31.916  1.00  0.00     0.025 A 
ATOM     13  C   UNL     1       5.309  20.625  31.709  1.00  0.00     0.016 A 
ATOM     14  C   UNL     1       4.301  21.003  32.602  1.00  0.00     0.051 A 
ATOM     15  C   UNL     1       4.604  21.811  33.705  1.00  0.00     0.157 A 
ATOM     16  C   UNL     1       6.929  21.867  33.013  1.00  0.00     0.062 A 
ATOM     17  C   UNL     1       5.919  22.248  33.909  1.00  0.00     0.158 A 
BRANCH  15  18
ATOM     18  O   UNL     1       3.604  22.189  34.598  1.00  0.00    -0.504 OA
ATOM     19  H   UNL     1       3.759  22.911  35.293  1.00  0.00     0.293 HD
ENDBRANCH  15  18
BRANCH  17  20
ATOM     20  O   UNL     1       6.214  23.063  35.000  1.00  0.00    -0.504 OA
ATOM     21  H   UNL     1       6.294  22.687  35.938  1.00  0.00     0.293 HD
ENDBRANCH  17  20
ENDBRANCH   1  12
BRANCH   2  22
ATOM     22  O   UNL     1       7.178  22.525  29.490  1.00  0.00    -0.502 OA
ATOM     23  H   UNL     1       6.231  22.502  29.129  1.00  0.00     0.293 HD
ENDBRANCH   2  22
BRANCH   6  24
ATOM     24  O   UNL     1      10.908  19.628  27.028  1.00  0.00    -0.507 OA
ATOM     25  H   UNL     1      10.520  20.461  26.614  1.00  0.00     0.293 HD
ENDBRANCH   6  24
BRANCH   8  26
ATOM     26  O   UNL     1      11.924  16.439  30.449  1.00  0.00    -0.508 OA
ATOM     27  H   UNL     1      12.778  16.177  29.970  1.00  0.00     0.293 HD
ENDBRANCH   8  26
TORSDOF 6
ENDMDL
