MODEL 1
REMARK VINA RESULT:    -3.794      0.000      0.000
REMARK INTER + INTRA:          -4.590
REMARK INTER:                  -4.459
REMARK INTRA:                  -0.131
REMARK UNBOUND:                -0.131
REMARK SMILES O=C([O-])C=Cc1ccc(O)c(O)c1
REMARK SMILES IDX 6 1 13 2 7 3 11 4 8 5 9 6 5 7 4 8 2 9 1 10 3 11 12 12 10 14
REMARK H PARENT 12 13 10 15
REMARK Flexibility Score: inf
ROOT
ATOM      1  C   UNL     1      27.902  20.838  12.550  1.00  0.00    -0.022 A 
ATOM      2  C   UNL     1      28.608  22.050  12.476  1.00  0.00     0.058 A 
ATOM      3  C   UNL     1      27.970  19.944  11.463  1.00  0.00     0.012 A 
ATOM      4  C   UNL     1      29.349  22.381  11.332  1.00  0.00     0.157 A 
ATOM      5  C   UNL     1      28.708  20.273  10.323  1.00  0.00     0.051 A 
ATOM      6  C   UNL     1      29.396  21.487  10.250  1.00  0.00     0.157 A 
ENDROOT
BRANCH   1   7
ATOM      7  C   UNL     1      27.143  20.533  13.789  1.00  0.00     0.010 C 
ATOM      8  C   UNL     1      27.546  20.892  15.016  1.00  0.00     0.025 C 
BRANCH   8   9
ATOM      9  C   UNL     1      26.773  20.561  16.225  1.00  0.00     0.064 C 
ATOM     10  O   UNL     1      27.300  20.604  17.369  1.00  0.00    -0.545 OA
ATOM     11  O   UNL     1      25.440  20.192  16.103  1.00  0.00    -0.545 OA
ENDBRANCH   8   9
ENDBRANCH   1   7
BRANCH   4  12
ATOM     12  O   UNL     1      30.037  23.591  11.268  1.00  0.00    -0.504 OA
ATOM     13  H   UNL     1      30.121  24.197  12.076  1.00  0.00     0.293 HD
ENDBRANCH   4  12
BRANCH   6  14
ATOM     14  O   UNL     1      30.122  21.787   9.097  1.00  0.00    -0.504 OA
ATOM     15  H   UNL     1      30.738  22.589   9.043  1.00  0.00     0.293 HD
ENDBRANCH   6  14
TORSDOF 4
ENDMDL
MODEL 2
REMARK VINA RESULT:    -3.400      1.110      6.009
REMARK INTER + INTRA:          -4.128
REMARK INTER:                  -4.000
REMARK INTRA:                  -0.128
REMARK UNBOUND:                -0.131
REMARK SMILES O=C([O-])C=Cc1ccc(O)c(O)c1
REMARK SMILES IDX 6 1 13 2 7 3 11 4 8 5 9 6 5 7 4 8 2 9 1 10 3 11 12 12 10 14
REMARK H PARENT 12 13 10 15
REMARK Flexibility Score: inf
ROOT
ATOM      1  C   UNL     1      27.771  20.305  13.788  1.00  0.00    -0.022 A 
ATOM      2  C   UNL     1      26.417  20.052  14.066  1.00  0.00     0.058 A 
ATOM      3  C   UNL     1      28.640  20.603  14.856  1.00  0.00     0.012 A 
ATOM      4  C   UNL     1      25.929  20.119  15.380  1.00  0.00     0.157 A 
ATOM      5  C   UNL     1      28.155  20.669  16.164  1.00  0.00     0.051 A 
ATOM      6  C   UNL     1      26.804  20.432  16.432  1.00  0.00     0.157 A 
ENDROOT
BRANCH   1   7
ATOM      7  C   UNL     1      28.236  20.210  12.382  1.00  0.00     0.010 C 
ATOM      8  C   UNL     1      28.636  21.265  11.657  1.00  0.00     0.025 C 
BRANCH   8   9
ATOM      9  C   UNL     1      29.080  21.135  10.259  1.00  0.00     0.064 C 
ATOM     10  O   UNL     1      30.105  21.738   9.841  1.00  0.00    -0.545 OA
ATOM     11  O   UNL     1      28.355  20.337   9.384  1.00  0.00    -0.545 OA
ENDBRANCH   8   9
ENDBRANCH   1   7
BRANCH   4  12
ATOM     12  O   UNL     1      24.582  19.875  15.640  1.00  0.00    -0.504 OA
ATOM     13  H   UNL     1      24.253  19.650  16.572  1.00  0.00     0.293 HD
ENDBRANCH   4  12
BRANCH   6  14
ATOM     14  O   UNL     1      26.350  20.508  17.749  1.00  0.00    -0.504 OA
ATOM     15  H   UNL     1      25.387  20.726  17.975  1.00  0.00     0.293 HD
ENDBRANCH   6  14
TORSDOF 4
ENDMDL
MODEL 3
REMARK VINA RESULT:    -3.274      2.929      4.383
REMARK INTER + INTRA:          -3.980
REMARK INTER:                  -3.857
REMARK INTRA:                  -0.123
REMARK UNBOUND:                -0.131
REMARK SMILES O=C([O-])C=Cc1ccc(O)c(O)c1
REMARK SMILES IDX 6 1 13 2 7 3 11 4 8 5 9 6 5 7 4 8 2 9 1 10 3 11 12 12 10 14
REMARK H PARENT 12 13 10 15
REMARK Flexibility Score: inf
ROOT
ATOM      1  C   UNL     1      25.993  20.276  13.858  1.00  0.00    -0.022 A 
ATOM      2  C   UNL     1      26.606  20.270  15.122  1.00  0.00     0.058 A 
ATOM      3  C   UNL     1      26.763  20.626  12.731  1.00  0.00     0.012 A 
ATOM      4  C   UNL     1      27.954  20.630  15.268  1.00  0.00     0.157 A 
ATOM      5  C   UNL     1      28.106  20.984  12.876  1.00  0.00     0.051 A 
ATOM      6  C   UNL     1      28.705  20.992  14.138  1.00  0.00     0.157 A 
ENDROOT
BRANCH   1   7
ATOM      7  C   UNL     1      24.568  19.876  13.758  1.00  0.00     0.010 C 
ATOM      8  C   UNL     1      23.544  20.682  14.074  1.00  0.00     0.025 C 
BRANCH   8   9
ATOM      9  C   UNL     1      22.141  20.246  13.975  1.00  0.00     0.064 C 
ATOM     10  O   UNL     1      21.499  19.876  14.995  1.00  0.00    -0.545 OA
ATOM     11  O   UNL     1      21.515  20.239  12.736  1.00  0.00    -0.545 OA
ENDBRANCH   8   9
ENDBRANCH   1   7
BRANCH   4  12
ATOM     12  O   UNL     1      28.546  20.629  16.529  1.00  0.00    -0.504 OA
ATOM     13  H   UNL     1      28.873  19.773  16.962  1.00  0.00     0.293 HD
ENDBRANCH   4  12
BRANCH   6  14
ATOM     14  O   UNL     1      30.047  21.356  14.251  1.00  0.00    -0.504 OA
ATOM     15  H   UNL     1      30.590  21.661  13.452  1.00  0.00     0.293 HD
ENDBRANCH   6  14
TORSDOF 4
ENDMDL
MODEL 4
REMARK VINA RESULT:    -3.270     17.234     19.007
REMARK INTER + INTRA:          -3.975
REMARK INTER:                  -3.840
REMARK INTRA:                  -0.135
REMARK UNBOUND:                -0.131
REMARK SMILES O=C([O-])C=Cc1ccc(O)c(O)c1
REMARK SMILES IDX 6 1 13 2 7 3 11 4 8 5 9 6 5 7 4 8 2 9 1 10 3 11 12 12 10 14
REMARK H PARENT 12 13 10 15
REMARK Flexibility Score: inf
ROOT
ATOM      1  C   UNL     1      11.050  21.541  19.456  1.00  0.00    -0.022 A 
ATOM      2  C   UNL     1      10.653  22.374  20.515  1.00  0.00     0.058 A 
ATOM      3  C   UNL     1      11.756  20.357  19.749  1.00  0.00     0.012 A 
ATOM      4  C   UNL     1      10.975  22.050  21.842  1.00  0.00     0.157 A 
ATOM      5  C   UNL     1      12.076  20.034  21.070  1.00  0.00     0.051 A 
ATOM      6  C   UNL     1      11.692  20.875  22.118  1.00  0.00     0.157 A 
ENDROOT
BRANCH   1   7
ATOM      7  C   UNL     1      10.674  21.925  18.072  1.00  0.00     0.010 C 
ATOM      8  C   UNL     1      11.457  21.719  17.003  1.00  0.00     0.025 C 
BRANCH   8   9
ATOM      9  C   UNL     1      11.056  22.125  15.646  1.00  0.00     0.064 C 
ATOM     10  O   UNL     1       9.875  22.486  15.395  1.00  0.00    -0.545 OA
ATOM     11  O   UNL     1      11.995  22.107  14.623  1.00  0.00    -0.545 OA
ENDBRANCH   8   9
ENDBRANCH   1   7
BRANCH   4  12
ATOM     12  O   UNL     1      10.584  22.890  22.883  1.00  0.00    -0.504 OA
ATOM     13  H   UNL     1       9.892  22.603  23.566  1.00  0.00     0.293 HD
ENDBRANCH   4  12
BRANCH   6  14
ATOM     14  O   UNL     1      12.029  20.525  23.426  1.00  0.00    -0.504 OA
ATOM     15  H   UNL     1      11.354  20.127  24.067  1.00  0.00     0.293 HD
ENDBRANCH   6  14
TORSDOF 4
ENDMDL
MODEL 5
REMARK VINA RESULT:    -3.242      3.035      4.257
REMARK INTER + INTRA:          -3.942
REMARK INTER:                  -3.812
REMARK INTRA:                  -0.131
REMARK UNBOUND:                -0.131
REMARK SMILES O=C([O-])C=Cc1ccc(O)c(O)c1
REMARK SMILES IDX 6 1 13 2 7 3 11 4 8 5 9 6 5 7 4 8 2 9 1 10 3 11 12 12 10 14
REMARK H PARENT 12 13 10 15
REMARK Flexibility Score: inf
ROOT
ATOM      1  C   UNL     1      25.931  20.244  13.977  1.00  0.00    -0.022 A 
ATOM      2  C   UNL     1      26.714  20.626  12.874  1.00  0.00     0.058 A 
ATOM      3  C   UNL     1      26.511  20.262  15.260  1.00  0.00     0.012 A 
ATOM      4  C   UNL     1      28.058  20.994  13.041  1.00  0.00     0.157 A 
ATOM      5  C   UNL     1      27.849  20.628  15.427  1.00  0.00     0.051 A 
ATOM      6  C   UNL     1      28.627  20.992  14.324  1.00  0.00     0.157 A 
ENDROOT
BRANCH   1   7
ATOM      7  C   UNL     1      24.513  19.875  13.745  1.00  0.00     0.010 C 
ATOM      8  C   UNL     1      23.475  20.520  14.300  1.00  0.00     0.025 C 
BRANCH   8   9
ATOM      9  C   UNL     1      22.080  20.117  14.058  1.00  0.00     0.064 C 
ATOM     10  O   UNL     1      21.293  19.883  15.014  1.00  0.00    -0.545 OA
ATOM     11  O   UNL     1      21.623  19.990  12.753  1.00  0.00    -0.545 OA
ENDBRANCH   8   9
ENDBRANCH   1   7
BRANCH   4  12
ATOM     12  O   UNL     1      28.825  21.361  11.937  1.00  0.00    -0.504 OA
ATOM     13  H   UNL     1      28.521  22.082  11.294  1.00  0.00     0.293 HD
ENDBRANCH   4  12
BRANCH   6  14
ATOM     14  O   UNL     1      29.960  21.351  14.523  1.00  0.00    -0.504 OA
ATOM     15  H   UNL     1      30.234  22.044  15.209  1.00  0.00     0.293 HD
ENDBRANCH   6  14
TORSDOF 4
ENDMDL
MODEL 6
REMARK VINA RESULT:    -2.826      3.628      5.994
REMARK INTER + INTRA:          -3.453
REMARK INTER:                  -3.313
REMARK INTRA:                  -0.141
REMARK UNBOUND:                -0.131
REMARK SMILES O=C([O-])C=Cc1ccc(O)c(O)c1
REMARK SMILES IDX 6 1 13 2 7 3 11 4 8 5 9 6 5 7 4 8 2 9 1 10 3 11 12 12 10 14
REMARK H PARENT 12 13 10 15
REMARK Flexibility Score: inf
ROOT
ATOM      1  C   UNL     1      24.847  20.068  14.762  1.00  0.00    -0.022 A 
ATOM      2  C   UNL     1      23.699  20.284  15.543  1.00  0.00     0.058 A 
ATOM      3  C   UNL     1      24.698  19.875  13.374  1.00  0.00     0.012 A 
ATOM      4  C   UNL     1      22.423  20.285  14.959  1.00  0.00     0.157 A 
ATOM      5  C   UNL     1      23.428  19.876  12.793  1.00  0.00     0.051 A 
ATOM      6  C   UNL     1      22.289  20.077  13.577  1.00  0.00     0.157 A 
ENDROOT
BRANCH   1   7
ATOM      7  C   UNL     1      26.172  20.088  15.429  1.00  0.00     0.010 C 
ATOM      8  C   UNL     1      27.326  20.320  14.785  1.00  0.00     0.025 C 
BRANCH   8   9
ATOM      9  C   UNL     1      28.625  20.321  15.477  1.00  0.00     0.064 C 
ATOM     10  O   UNL     1      28.704  20.530  16.718  1.00  0.00    -0.545 OA
ATOM     11  O   UNL     1      29.786  20.090  14.751  1.00  0.00    -0.545 OA
ENDBRANCH   8   9
ENDBRANCH   1   7
BRANCH   4  12
ATOM     12  O   UNL     1      21.292  20.491  15.747  1.00  0.00    -0.504 OA
ATOM     13  H   UNL     1      20.375  20.177  15.452  1.00  0.00     0.293 HD
ENDBRANCH   4  12
BRANCH   6  14
ATOM     14  O   UNL     1      21.035  20.070  12.967  1.00  0.00    -0.504 OA
ATOM     15  H   UNL     1      20.902  20.362  12.006  1.00  0.00     0.293 HD
ENDBRANCH   6  14
TORSDOF 4
ENDMDL
