MODEL 1
REMARK VINA RESULT:    -3.986      0.000      0.000
REMARK INTER + INTRA:          -9.338
REMARK INTER:                  -7.249
REMARK INTRA:                  -2.089
REMARK UNBOUND:                -2.089
REMARK SMILES CCCCCCCCCCCCCCCC(=O)[O-]
REMARK SMILES IDX 9 1 10 2 11 3 12 4 13 5 14 6 15 7 16 8 17 9 18 10 8 11 7 12
REMARK SMILES IDX 6 13 5 14 4 15 3 16 2 17 1 18
REMARK H PARENT
REMARK Flexibility Score: inf
ROOT
ATOM      1  C   UNL     1      -3.800  -2.148   8.612  1.00  0.00     0.000 C 
ENDROOT
BRANCH   1   2
ATOM      2  C   UNL     1      -3.966  -2.402   7.103  1.00  0.00     0.000 C 
BRANCH   2   3
ATOM      3  C   UNL     1      -5.251  -3.181   6.774  1.00  0.00     0.000 C 
BRANCH   3   4
ATOM      4  C   UNL     1      -5.312  -3.620   5.302  1.00  0.00     0.000 C 
BRANCH   4   5
ATOM      5  C   UNL     1      -6.707  -4.119   4.891  1.00  0.00     0.000 C 
BRANCH   5   6
ATOM      6  C   UNL     1      -7.392  -3.194   3.869  1.00  0.00     0.006 C 
BRANCH   6   7
ATOM      7  C   UNL     1      -7.107  -1.712   4.146  1.00  0.00     0.053 C 
BRANCH   7   8
ATOM      8  C   UNL     1      -7.251  -0.878   2.911  1.00  0.00     0.041 C 
ATOM      9  O   UNL     1      -6.786   0.292   2.877  1.00  0.00    -0.550 OA
ATOM     10  O   UNL     1      -7.872  -1.403   1.785  1.00  0.00    -0.550 OA
ENDBRANCH   7   8
ENDBRANCH   6   7
ENDBRANCH   5   6
ENDBRANCH   4   5
ENDBRANCH   3   4
ENDBRANCH   2   3
ENDBRANCH   1   2
BRANCH   1  11
ATOM     11  C   UNL     1      -5.137  -2.165   9.371  1.00  0.00     0.000 C 
BRANCH  11  12
ATOM     12  C   UNL     1      -5.631  -0.763   9.787  1.00  0.00    -0.000 C 
BRANCH  12  13
ATOM     13  C   UNL     1      -6.803  -0.278   8.915  1.00  0.00    -0.000 C 
BRANCH  13  14
ATOM     14  C   UNL     1      -6.483   1.023   8.163  1.00  0.00    -0.000 C 
BRANCH  14  15
ATOM     15  C   UNL     1      -6.078   0.775   6.699  1.00  0.00    -0.000 C 
BRANCH  15  16
ATOM     16  C   UNL     1      -4.605   1.122   6.427  1.00  0.00    -0.000 C 
BRANCH  16  17
ATOM     17  C   UNL     1      -3.916   1.761   7.641  1.00  0.00    -0.003 C 
ATOM     18  C   UNL     1      -2.494   1.233   7.806  1.00  0.00     0.004 C 
ENDBRANCH  16  17
ENDBRANCH  15  16
ENDBRANCH  14  15
ENDBRANCH  13  14
ENDBRANCH  12  13
ENDBRANCH  11  12
ENDBRANCH   1  11
TORSDOF 14
ENDMDL
MODEL 2
REMARK VINA RESULT:    -3.915      2.869      5.826
REMARK INTER + INTRA:          -9.208
REMARK INTER:                  -7.458
REMARK INTRA:                  -1.750
REMARK UNBOUND:                -2.089
REMARK SMILES CCCCCCCCCCCCCCCC(=O)[O-]
REMARK SMILES IDX 9 1 10 2 11 3 12 4 13 5 14 6 15 7 16 8 17 9 18 10 8 11 7 12
REMARK SMILES IDX 6 13 5 14 4 15 3 16 2 17 1 18
REMARK H PARENT
REMARK Flexibility Score: inf
ROOT
ATOM      1  C   UNL     1      -6.967  -1.270   3.577  1.00  0.00     0.000 C 
ENDROOT
BRANCH   1   2
ATOM      2  C   UNL     1      -7.430   0.063   2.963  1.00  0.00     0.000 C 
BRANCH   2   3
ATOM      3  C   UNL     1      -7.239   1.251   3.921  1.00  0.00     0.000 C 
BRANCH   3   4
ATOM      4  C   UNL     1      -6.295   0.919   5.089  1.00  0.00     0.000 C 
BRANCH   4   5
ATOM      5  C   UNL     1      -6.824   1.426   6.440  1.00  0.00     0.000 C 
BRANCH   5   6
ATOM      6  C   UNL     1      -5.699   1.716   7.449  1.00  0.00     0.006 C 
BRANCH   6   7
ATOM      7  C   UNL     1      -4.309   1.630   6.806  1.00  0.00     0.053 C 
BRANCH   7   8
ATOM      8  C   UNL     1      -3.228   2.032   7.763  1.00  0.00     0.041 C 
ATOM      9  O   UNL     1      -2.225   1.291   7.936  1.00  0.00    -0.550 OA
ATOM     10  O   UNL     1      -3.315   3.240   8.442  1.00  0.00    -0.550 OA
ENDBRANCH   7   8
ENDBRANCH   6   7
ENDBRANCH   5   6
ENDBRANCH   4   5
ENDBRANCH   3   4
ENDBRANCH   2   3
ENDBRANCH   1   2
BRANCH   1  11
ATOM     11  C   UNL     1      -7.984  -2.406   3.374  1.00  0.00     0.000 C 
BRANCH  11  12
ATOM     12  C   UNL     1      -7.628  -3.699   4.139  1.00  0.00    -0.000 C 
BRANCH  12  13
ATOM     13  C   UNL     1      -6.129  -3.778   4.480  1.00  0.00    -0.000 C 
BRANCH  13  14
ATOM     14  C   UNL     1      -5.876  -4.112   5.958  1.00  0.00    -0.000 C 
BRANCH  14  15
ATOM     15  C   UNL     1      -6.207  -2.936   6.894  1.00  0.00    -0.000 C 
BRANCH  15  16
ATOM     16  C   UNL     1      -5.088  -1.884   6.939  1.00  0.00    -0.000 C 
BRANCH  16  17
ATOM     17  C   UNL     1      -3.872  -2.351   7.751  1.00  0.00    -0.003 C 
ATOM     18  C   UNL     1      -3.849  -1.696   9.130  1.00  0.00     0.004 C 
ENDBRANCH  16  17
ENDBRANCH  15  16
ENDBRANCH  14  15
ENDBRANCH  13  14
ENDBRANCH  12  13
ENDBRANCH  11  12
ENDBRANCH   1  11
TORSDOF 14
ENDMDL
MODEL 3
REMARK VINA RESULT:    -3.851      2.580      5.293
REMARK INTER + INTRA:          -9.091
REMARK INTER:                  -7.364
REMARK INTRA:                  -1.727
REMARK UNBOUND:                -2.089
REMARK SMILES CCCCCCCCCCCCCCCC(=O)[O-]
REMARK SMILES IDX 9 1 10 2 11 3 12 4 13 5 14 6 15 7 16 8 17 9 18 10 8 11 7 12
REMARK SMILES IDX 6 13 5 14 4 15 3 16 2 17 1 18
REMARK H PARENT
REMARK Flexibility Score: inf
ROOT
ATOM      1  C   UNL     1      -5.440  -3.846   5.049  1.00  0.00     0.000 C 
ENDROOT
BRANCH   1   2
ATOM      2  C   UNL     1      -5.178  -3.610   6.547  1.00  0.00     0.000 C 
BRANCH   2   3
ATOM      3  C   UNL     1      -4.051  -2.593   6.794  1.00  0.00     0.000 C 
BRANCH   3   4
ATOM      4  C   UNL     1      -3.752  -2.397   8.290  1.00  0.00     0.000 C 
BRANCH   4   5
ATOM      5  C   UNL     1      -3.662  -0.915   8.686  1.00  0.00     0.000 C 
BRANCH   5   6
ATOM      6  C   UNL     1      -3.235  -0.011   7.516  1.00  0.00     0.006 C 
BRANCH   6   7
ATOM      7  C   UNL     1      -2.470   1.230   7.992  1.00  0.00     0.053 C 
BRANCH   7   8
ATOM      8  C   UNL     1      -3.292   2.475   7.858  1.00  0.00     0.041 C 
ATOM      9  O   UNL     1      -3.981   2.673   6.822  1.00  0.00    -0.550 OA
ATOM     10  O   UNL     1      -3.322   3.403   8.890  1.00  0.00    -0.550 OA
ENDBRANCH   7   8
ENDBRANCH   6   7
ENDBRANCH   5   6
ENDBRANCH   4   5
ENDBRANCH   3   4
ENDBRANCH   2   3
ENDBRANCH   1   2
BRANCH   1  11
ATOM     11  C   UNL     1      -6.772  -3.240   4.573  1.00  0.00     0.000 C 
BRANCH  11  12
ATOM     12  C   UNL     1      -7.715  -2.836   5.727  1.00  0.00    -0.000 C 
BRANCH  12  13
ATOM     13  C   UNL     1      -8.023  -1.328   5.722  1.00  0.00    -0.000 C 
BRANCH  13  14
ATOM     14  C   UNL     1      -6.891  -0.492   6.337  1.00  0.00    -0.000 C 
BRANCH  14  15
ATOM     15  C   UNL     1      -6.398   0.620   5.393  1.00  0.00    -0.000 C 
BRANCH  15  16
ATOM     16  C   UNL     1      -7.499   1.118   4.443  1.00  0.00    -0.000 C 
BRANCH  16  17
ATOM     17  C   UNL     1      -7.092   1.018   2.966  1.00  0.00    -0.003 C 
ATOM     18  C   UNL     1      -7.461  -0.344   2.386  1.00  0.00     0.004 C 
ENDBRANCH  16  17
ENDBRANCH  15  16
ENDBRANCH  14  15
ENDBRANCH  13  14
ENDBRANCH  12  13
ENDBRANCH  11  12
ENDBRANCH   1  11
TORSDOF 14
ENDMDL
MODEL 4
REMARK VINA RESULT:    -3.763      1.548      2.668
REMARK INTER + INTRA:          -8.932
REMARK INTER:                  -7.375
REMARK INTRA:                  -1.556
REMARK UNBOUND:                -2.089
REMARK SMILES CCCCCCCCCCCCCCCC(=O)[O-]
REMARK SMILES IDX 9 1 10 2 11 3 12 4 13 5 14 6 15 7 16 8 17 9 18 10 8 11 7 12
REMARK SMILES IDX 6 13 5 14 4 15 3 16 2 17 1 18
REMARK H PARENT
REMARK Flexibility Score: inf
ROOT
ATOM      1  C   UNL     1      -4.306  -2.440   6.933  1.00  0.00     0.000 C 
ENDROOT
BRANCH   1   2
ATOM      2  C   UNL     1      -5.485  -3.360   7.299  1.00  0.00     0.000 C 
BRANCH   2   3
ATOM      3  C   UNL     1      -6.048  -4.110   6.081  1.00  0.00     0.000 C 
BRANCH   3   4
ATOM      4  C   UNL     1      -5.825  -3.346   4.764  1.00  0.00     0.000 C 
BRANCH   4   5
ATOM      5  C   UNL     1      -7.105  -3.234   3.921  1.00  0.00     0.000 C 
BRANCH   5   6
ATOM      6  C   UNL     1      -7.582  -1.780   3.754  1.00  0.00     0.006 C 
BRANCH   6   7
ATOM      7  C   UNL     1      -6.924  -0.835   4.768  1.00  0.00     0.053 C 
BRANCH   7   8
ATOM      8  C   UNL     1      -6.895   0.578   4.273  1.00  0.00     0.041 C 
ATOM      9  O   UNL     1      -6.994   1.538   5.083  1.00  0.00    -0.550 OA
ATOM     10  O   UNL     1      -6.727   0.838   2.919  1.00  0.00    -0.550 OA
ENDBRANCH   7   8
ENDBRANCH   6   7
ENDBRANCH   5   6
ENDBRANCH   4   5
ENDBRANCH   3   4
ENDBRANCH   2   3
ENDBRANCH   1   2
BRANCH   1  11
ATOM     11  C   UNL     1      -4.048  -1.352   7.989  1.00  0.00     0.000 C 
BRANCH  11  12
ATOM     12  C   UNL     1      -4.768  -0.019   7.693  1.00  0.00    -0.000 C 
BRANCH  12  13
ATOM     13  C   UNL     1      -3.848   0.992   6.984  1.00  0.00    -0.000 C 
BRANCH  13  14
ATOM     14  C   UNL     1      -2.547   1.251   7.760  1.00  0.00    -0.000 C 
BRANCH  14  15
ATOM     15  C   UNL     1      -2.780   2.057   9.050  1.00  0.00    -0.000 C 
BRANCH  15  16
ATOM     16  C   UNL     1      -3.272   3.487   8.772  1.00  0.00    -0.000 C 
BRANCH  16  17
ATOM     17  C   UNL     1      -4.381   3.926   9.738  1.00  0.00    -0.003 C 
ATOM     18  C   UNL     1      -5.639   3.083   9.549  1.00  0.00     0.004 C 
ENDBRANCH  16  17
ENDBRANCH  15  16
ENDBRANCH  14  15
ENDBRANCH  13  14
ENDBRANCH  12  13
ENDBRANCH  11  12
ENDBRANCH   1  11
TORSDOF 14
ENDMDL
MODEL 5
REMARK VINA RESULT:    -3.763      2.880      4.654
REMARK INTER + INTRA:          -8.931
REMARK INTER:                  -7.225
REMARK INTRA:                  -1.706
REMARK UNBOUND:                -2.089
REMARK SMILES CCCCCCCCCCCCCCCC(=O)[O-]
REMARK SMILES IDX 9 1 10 2 11 3 12 4 13 5 14 6 15 7 16 8 17 9 18 10 8 11 7 12
REMARK SMILES IDX 6 13 5 14 4 15 3 16 2 17 1 18
REMARK H PARENT
REMARK Flexibility Score: inf
ROOT
ATOM      1  C   UNL     1      -6.997  -1.619   3.507  1.00  0.00     0.000 C 
ENDROOT
BRANCH   1   2
ATOM      2  C   UNL     1      -8.044  -2.671   3.914  1.00  0.00     0.000 C 
BRANCH   2   3
ATOM      3  C   UNL     1      -7.404  -3.971   4.431  1.00  0.00     0.000 C 
BRANCH   3   4
ATOM      4  C   UNL     1      -5.872  -3.874   4.529  1.00  0.00     0.000 C 
BRANCH   4   5
ATOM      5  C   UNL     1      -5.369  -3.899   5.982  1.00  0.00     0.000 C 
BRANCH   5   6
ATOM      6  C   UNL     1      -5.037  -2.497   6.521  1.00  0.00     0.006 C 
BRANCH   6   7
ATOM      7  C   UNL     1      -5.461  -2.324   7.985  1.00  0.00     0.053 C 
BRANCH   7   8
ATOM      8  C   UNL     1      -4.280  -2.125   8.885  1.00  0.00     0.041 C 
ATOM      9  O   UNL     1      -3.285  -2.894   8.806  1.00  0.00    -0.550 OA
ATOM     10  O   UNL     1      -4.265  -1.074   9.792  1.00  0.00    -0.550 OA
ENDBRANCH   7   8
ENDBRANCH   6   7
ENDBRANCH   5   6
ENDBRANCH   4   5
ENDBRANCH   3   4
ENDBRANCH   2   3
ENDBRANCH   1   2
BRANCH   1  11
ATOM     11  C   UNL     1      -7.577  -0.197   3.434  1.00  0.00     0.000 C 
BRANCH  11  12
ATOM     12  C   UNL     1      -6.849   0.817   4.342  1.00  0.00    -0.000 C 
BRANCH  12  13
ATOM     13  C   UNL     1      -7.124   0.560   5.834  1.00  0.00    -0.000 C 
BRANCH  13  14
ATOM     14  C   UNL     1      -6.206   1.381   6.754  1.00  0.00    -0.000 C 
BRANCH  14  15
ATOM     15  C   UNL     1      -4.715   1.088   6.514  1.00  0.00    -0.000 C 
BRANCH  15  16
ATOM     16  C   UNL     1      -3.794   2.031   7.306  1.00  0.00    -0.000 C 
BRANCH  16  17
ATOM     17  C   UNL     1      -2.532   1.326   7.822  1.00  0.00    -0.003 C 
ATOM     18  C   UNL     1      -2.246   1.705   9.273  1.00  0.00     0.004 C 
ENDBRANCH  16  17
ENDBRANCH  15  16
ENDBRANCH  14  15
ENDBRANCH  13  14
ENDBRANCH  12  13
ENDBRANCH  11  12
ENDBRANCH   1  11
TORSDOF 14
ENDMDL
MODEL 6
REMARK VINA RESULT:    -3.762      3.058      6.295
REMARK INTER + INTRA:          -8.930
REMARK INTER:                  -7.278
REMARK INTRA:                  -1.652
REMARK UNBOUND:                -2.089
REMARK SMILES CCCCCCCCCCCCCCCC(=O)[O-]
REMARK SMILES IDX 9 1 10 2 11 3 12 4 13 5 14 6 15 7 16 8 17 9 18 10 8 11 7 12
REMARK SMILES IDX 6 13 5 14 4 15 3 16 2 17 1 18
REMARK H PARENT
REMARK Flexibility Score: inf
ROOT
ATOM      1  C   UNL     1      -6.598  -0.057   4.709  1.00  0.00     0.000 C 
ENDROOT
BRANCH   1   2
ATOM      2  C   UNL     1      -7.188   0.628   5.955  1.00  0.00     0.000 C 
BRANCH   2   3
ATOM      3  C   UNL     1      -6.126   0.909   7.031  1.00  0.00     0.000 C 
BRANCH   3   4
ATOM      4  C   UNL     1      -4.755   1.257   6.428  1.00  0.00     0.000 C 
BRANCH   4   5
ATOM      5  C   UNL     1      -3.599   0.518   7.121  1.00  0.00     0.000 C 
BRANCH   5   6
ATOM      6  C   UNL     1      -2.522   1.475   7.663  1.00  0.00     0.006 C 
BRANCH   6   7
ATOM      7  C   UNL     1      -2.753   1.833   9.136  1.00  0.00     0.053 C 
BRANCH   7   8
ATOM      8  C   UNL     1      -3.527   3.106   9.283  1.00  0.00     0.041 C 
ATOM      9  O   UNL     1      -4.768   3.074   9.500  1.00  0.00    -0.550 OA
ATOM     10  O   UNL     1      -2.874   4.330   9.211  1.00  0.00    -0.550 OA
ENDBRANCH   7   8
ENDBRANCH   6   7
ENDBRANCH   5   6
ENDBRANCH   4   5
ENDBRANCH   3   4
ENDBRANCH   2   3
ENDBRANCH   1   2
BRANCH   1  11
ATOM     11  C   UNL     1      -7.679  -0.562   3.738  1.00  0.00     0.000 C 
BRANCH  11  12
ATOM     12  C   UNL     1      -7.434  -2.001   3.234  1.00  0.00    -0.000 C 
BRANCH  12  13
ATOM     13  C   UNL     1      -7.508  -3.034   4.372  1.00  0.00    -0.000 C 
BRANCH  13  14
ATOM     14  C   UNL     1      -6.202  -3.827   4.536  1.00  0.00    -0.000 C 
BRANCH  14  15
ATOM     15  C   UNL     1      -5.792  -3.993   6.010  1.00  0.00    -0.000 C 
BRANCH  15  16
ATOM     16  C   UNL     1      -4.940  -2.820   6.522  1.00  0.00    -0.000 C 
BRANCH  16  17
ATOM     17  C   UNL     1      -5.050  -2.630   8.041  1.00  0.00    -0.003 C 
ATOM     18  C   UNL     1      -3.670  -2.619   8.694  1.00  0.00     0.004 C 
ENDBRANCH  16  17
ENDBRANCH  15  16
ENDBRANCH  14  15
ENDBRANCH  13  14
ENDBRANCH  12  13
ENDBRANCH  11  12
ENDBRANCH   1  11
TORSDOF 14
ENDMDL
MODEL 7
REMARK VINA RESULT:    -3.729      3.040      5.856
REMARK INTER + INTRA:          -8.870
REMARK INTER:                  -7.284
REMARK INTRA:                  -1.586
REMARK UNBOUND:                -2.089
REMARK SMILES CCCCCCCCCCCCCCCC(=O)[O-]
REMARK SMILES IDX 9 1 10 2 11 3 12 4 13 5 14 6 15 7 16 8 17 9 18 10 8 11 7 12
REMARK SMILES IDX 6 13 5 14 4 15 3 16 2 17 1 18
REMARK H PARENT
REMARK Flexibility Score: inf
ROOT
ATOM      1  C   UNL     1      -4.974  -2.968   6.431  1.00  0.00     0.000 C 
ENDROOT
BRANCH   1   2
ATOM      2  C   UNL     1      -4.988  -2.718   7.949  1.00  0.00     0.000 C 
BRANCH   2   3
ATOM      3  C   UNL     1      -3.685  -2.073   8.453  1.00  0.00     0.000 C 
BRANCH   3   4
ATOM      4  C   UNL     1      -3.807  -0.549   8.615  1.00  0.00     0.000 C 
BRANCH   4   5
ATOM      5  C   UNL     1      -3.259   0.221   7.402  1.00  0.00     0.000 C 
BRANCH   5   6
ATOM      6  C   UNL     1      -2.335   1.383   7.804  1.00  0.00     0.006 C 
BRANCH   6   7
ATOM      7  C   UNL     1      -2.529   1.798   9.268  1.00  0.00     0.053 C 
BRANCH   7   8
ATOM      8  C   UNL     1      -3.267   3.096   9.385  1.00  0.00     0.041 C 
ATOM      9  O   UNL     1      -4.481   3.168   9.055  1.00  0.00    -0.550 OA
ATOM     10  O   UNL     1      -2.624   4.219   9.887  1.00  0.00    -0.550 OA
ENDBRANCH   7   8
ENDBRANCH   6   7
ENDBRANCH   5   6
ENDBRANCH   4   5
ENDBRANCH   3   4
ENDBRANCH   2   3
ENDBRANCH   1   2
BRANCH   1  11
ATOM     11  C   UNL     1      -6.127  -3.872   5.964  1.00  0.00     0.000 C 
BRANCH  11  12
ATOM     12  C   UNL     1      -6.308  -3.903   4.431  1.00  0.00    -0.000 C 
BRANCH  12  13
ATOM     13  C   UNL     1      -7.524  -3.077   3.975  1.00  0.00    -0.000 C 
BRANCH  13  14
ATOM     14  C   UNL     1      -7.123  -1.735   3.342  1.00  0.00    -0.000 C 
BRANCH  14  15
ATOM     15  C   UNL     1      -7.809  -0.535   4.017  1.00  0.00    -0.000 C 
BRANCH  15  16
ATOM     16  C   UNL     1      -7.348  -0.331   5.469  1.00  0.00    -0.000 C 
BRANCH  16  17
ATOM     17  C   UNL     1      -6.419   0.881   5.628  1.00  0.00    -0.003 C 
ATOM     18  C   UNL     1      -6.706   1.626   6.929  1.00  0.00     0.004 C 
ENDBRANCH  16  17
ENDBRANCH  15  16
ENDBRANCH  14  15
ENDBRANCH  13  14
ENDBRANCH  12  13
ENDBRANCH  11  12
ENDBRANCH   1  11
TORSDOF 14
ENDMDL
MODEL 8
REMARK VINA RESULT:    -3.694      1.740      3.494
REMARK INTER + INTRA:          -8.806
REMARK INTER:                  -6.454
REMARK INTRA:                  -2.353
REMARK UNBOUND:                -2.089
REMARK SMILES CCCCCCCCCCCCCCCC(=O)[O-]
REMARK SMILES IDX 9 1 10 2 11 3 12 4 13 5 14 6 15 7 16 8 17 9 18 10 8 11 7 12
REMARK SMILES IDX 6 13 5 14 4 15 3 16 2 17 1 18
REMARK H PARENT
REMARK Flexibility Score: inf
ROOT
ATOM      1  C   UNL     1      -2.834   1.370   7.504  1.00  0.00     0.000 C 
ENDROOT
BRANCH   1   2
ATOM      2  C   UNL     1      -3.450   0.040   7.035  1.00  0.00     0.000 C 
BRANCH   2   3
ATOM      3  C   UNL     1      -3.612  -0.971   8.182  1.00  0.00     0.000 C 
BRANCH   3   4
ATOM      4  C   UNL     1      -3.976  -2.379   7.679  1.00  0.00     0.000 C 
BRANCH   4   5
ATOM      5  C   UNL     1      -5.340  -2.858   8.201  1.00  0.00     0.000 C 
BRANCH   5   6
ATOM      6  C   UNL     1      -6.206  -3.498   7.101  1.00  0.00     0.006 C 
BRANCH   6   7
ATOM      7  C   UNL     1      -5.617  -3.281   5.701  1.00  0.00     0.053 C 
BRANCH   7   8
ATOM      8  C   UNL     1      -6.636  -3.512   4.628  1.00  0.00     0.041 C 
ATOM      9  O   UNL     1      -7.241  -4.614   4.552  1.00  0.00    -0.550 OA
ATOM     10  O   UNL     1      -6.940  -2.499   3.728  1.00  0.00    -0.550 OA
ENDBRANCH   7   8
ENDBRANCH   6   7
ENDBRANCH   5   6
ENDBRANCH   4   5
ENDBRANCH   3   4
ENDBRANCH   2   3
ENDBRANCH   1   2
BRANCH   1  11
ATOM     11  C   UNL     1      -2.570   1.405   9.018  1.00  0.00     0.000 C 
BRANCH  11  12
ATOM     12  C   UNL     1      -3.187   2.630   9.727  1.00  0.00    -0.000 C 
BRANCH  12  13
ATOM     13  C   UNL     1      -4.689   2.780   9.423  1.00  0.00    -0.000 C 
BRANCH  13  14
ATOM     14  C   UNL     1      -5.526   1.628   9.999  1.00  0.00    -0.000 C 
BRANCH  14  15
ATOM     15  C   UNL     1      -6.549   1.078   8.989  1.00  0.00    -0.000 C 
BRANCH  15  16
ATOM     16  C   UNL     1      -6.870   2.082   7.870  1.00  0.00    -0.000 C 
BRANCH  16  17
ATOM     17  C   UNL     1      -6.697   1.478   6.469  1.00  0.00    -0.003 C 
ATOM     18  C   UNL     1      -7.173   0.029   6.433  1.00  0.00     0.004 C 
ENDBRANCH  16  17
ENDBRANCH  15  16
ENDBRANCH  14  15
ENDBRANCH  13  14
ENDBRANCH  12  13
ENDBRANCH  11  12
ENDBRANCH   1  11
TORSDOF 14
ENDMDL
