MODEL 1
REMARK VINA RESULT:    -3.095      0.000      0.000
REMARK INTER + INTRA:          -3.494
REMARK INTER:                  -3.457
REMARK INTRA:                  -0.037
REMARK UNBOUND:                -0.037
REMARK SMILES CCCC(=O)[O-]
REMARK SMILES IDX 3 1 4 2 5 3 6 4 2 5 1 6
REMARK H PARENT
REMARK Flexibility Score: inf
ROOT
ATOM      1  C   UNL     1      -9.289   2.169 -20.247  1.00  0.00     0.052 C 
ENDROOT
BRANCH   1   2
ATOM      2  C   UNL     1      -9.977   1.962 -21.561  1.00  0.00     0.041 C 
ATOM      3  O   UNL     1     -11.209   2.197 -21.675  1.00  0.00    -0.550 OA
ATOM      4  O   UNL     1      -9.266   1.477 -22.651  1.00  0.00    -0.550 OA
ENDBRANCH   1   2
BRANCH   1   5
ATOM      5  C   UNL     1      -8.276   1.054 -19.954  1.00  0.00     0.003 C 
ATOM      6  C   UNL     1      -6.844   1.581 -19.857  1.00  0.00     0.004 C 
ENDBRANCH   1   5
TORSDOF 2
ENDMDL
MODEL 2
REMARK VINA RESULT:    -3.073      0.098      1.325
REMARK INTER + INTRA:          -3.469
REMARK INTER:                  -3.431
REMARK INTRA:                  -0.038
REMARK UNBOUND:                -0.037
REMARK SMILES CCCC(=O)[O-]
REMARK SMILES IDX 3 1 4 2 5 3 6 4 2 5 1 6
REMARK H PARENT
REMARK Flexibility Score: inf
ROOT
ATOM      1  C   UNL     1      -9.330   2.173 -20.266  1.00  0.00     0.052 C 
ENDROOT
BRANCH   1   2
ATOM      2  C   UNL     1     -10.021   1.925 -21.571  1.00  0.00     0.041 C 
ATOM      3  O   UNL     1      -9.369   1.504 -22.563  1.00  0.00    -0.550 OA
ATOM      4  O   UNL     1     -11.378   2.191 -21.703  1.00  0.00    -0.550 OA
ENDBRANCH   1   2
BRANCH   1   5
ATOM      5  C   UNL     1      -8.319   1.066 -19.938  1.00  0.00     0.003 C 
ATOM      6  C   UNL     1      -6.885   1.592 -19.864  1.00  0.00     0.004 C 
ENDBRANCH   1   5
TORSDOF 2
ENDMDL
MODEL 3
REMARK VINA RESULT:    -2.968     12.800     13.385
REMARK INTER + INTRA:          -3.353
REMARK INTER:                  -3.327
REMARK INTRA:                  -0.026
REMARK UNBOUND:                -0.037
REMARK SMILES CCCC(=O)[O-]
REMARK SMILES IDX 3 1 4 2 5 3 6 4 2 5 1 6
REMARK H PARENT
REMARK Flexibility Score: inf
ROOT
ATOM      1  C   UNL     1      -8.272   5.366 -34.113  1.00  0.00     0.052 C 
ENDROOT
BRANCH   1   2
ATOM      2  C   UNL     1      -8.307   3.904 -34.437  1.00  0.00     0.041 C 
ATOM      3  O   UNL     1      -7.323   3.169 -34.159  1.00  0.00    -0.550 OA
ATOM      4  O   UNL     1      -9.412   3.359 -35.078  1.00  0.00    -0.550 OA
ENDBRANCH   1   2
BRANCH   1   5
ATOM      5  C   UNL     1      -7.863   5.615 -32.655  1.00  0.00     0.003 C 
ATOM      6  C   UNL     1      -6.810   6.716 -32.527  1.00  0.00     0.004 C 
ENDBRANCH   1   5
TORSDOF 2
ENDMDL
MODEL 4
REMARK VINA RESULT:    -2.960      5.910      7.519
REMARK INTER + INTRA:          -3.343
REMARK INTER:                  -3.308
REMARK INTRA:                  -0.036
REMARK UNBOUND:                -0.037
REMARK SMILES CCCC(=O)[O-]
REMARK SMILES IDX 3 1 4 2 5 3 6 4 2 5 1 6
REMARK H PARENT
REMARK Flexibility Score: inf
ROOT
ATOM      1  C   UNL     1     -13.959   5.449 -23.599  1.00  0.00     0.052 C 
ENDROOT
BRANCH   1   2
ATOM      2  C   UNL     1     -14.222   4.296 -22.680  1.00  0.00     0.041 C 
ATOM      3  O   UNL     1     -13.281   3.533 -22.335  1.00  0.00    -0.550 OA
ATOM      4  O   UNL     1     -15.512   4.042 -22.232  1.00  0.00    -0.550 OA
ENDBRANCH   1   2
BRANCH   1   5
ATOM      5  C   UNL     1     -14.948   5.479 -24.772  1.00  0.00     0.003 C 
ATOM      6  C   UNL     1     -15.784   6.759 -24.795  1.00  0.00     0.004 C 
ENDBRANCH   1   5
TORSDOF 2
ENDMDL
MODEL 5
REMARK VINA RESULT:    -2.921      7.229      8.454
REMARK INTER + INTRA:          -3.300
REMARK INTER:                  -3.229
REMARK INTRA:                  -0.071
REMARK UNBOUND:                -0.037
REMARK SMILES CCCC(=O)[O-]
REMARK SMILES IDX 3 1 4 2 5 3 6 4 2 5 1 6
REMARK H PARENT
REMARK Flexibility Score: inf
ROOT
ATOM      1  C   UNL     1     -15.634   5.866 -24.965  1.00  0.00     0.052 C 
ENDROOT
BRANCH   1   2
ATOM      2  C   UNL     1     -14.609   5.161 -24.131  1.00  0.00     0.041 C 
ATOM      3  O   UNL     1     -13.578   5.773 -23.744  1.00  0.00    -0.550 OA
ATOM      4  O   UNL     1     -14.774   3.820 -23.809  1.00  0.00    -0.550 OA
ENDBRANCH   1   2
BRANCH   1   5
ATOM      5  C   UNL     1     -16.262   7.049 -24.217  1.00  0.00     0.003 C 
ATOM      6  C   UNL     1     -16.938   6.620 -22.914  1.00  0.00     0.004 C 
ENDBRANCH   1   5
TORSDOF 2
ENDMDL
MODEL 6
REMARK VINA RESULT:    -2.857     12.632     13.389
REMARK INTER + INTRA:          -3.229
REMARK INTER:                  -3.194
REMARK INTRA:                  -0.034
REMARK UNBOUND:                -0.037
REMARK SMILES CCCC(=O)[O-]
REMARK SMILES IDX 3 1 4 2 5 3 6 4 2 5 1 6
REMARK H PARENT
REMARK Flexibility Score: inf
ROOT
ATOM      1  C   UNL     1      -7.913   5.305 -32.936  1.00  0.00     0.052 C 
ENDROOT
BRANCH   1   2
ATOM      2  C   UNL     1      -6.928   6.429 -32.830  1.00  0.00     0.041 C 
ATOM      3  O   UNL     1      -6.898   7.150 -31.798  1.00  0.00    -0.550 OA
ATOM      4  O   UNL     1      -6.066   6.702 -33.884  1.00  0.00    -0.550 OA
ENDBRANCH   1   2
BRANCH   1   5
ATOM      5  C   UNL     1      -7.987   4.747 -34.364  1.00  0.00     0.003 C 
ATOM      6  C   UNL     1      -7.565   3.279 -34.436  1.00  0.00     0.004 C 
ENDBRANCH   1   5
TORSDOF 2
ENDMDL
MODEL 7
REMARK VINA RESULT:    -2.802      2.134      3.351
REMARK INTER + INTRA:          -3.167
REMARK INTER:                  -3.131
REMARK INTRA:                  -0.037
REMARK UNBOUND:                -0.037
REMARK SMILES CCCC(=O)[O-]
REMARK SMILES IDX 3 1 4 2 5 3 6 4 2 5 1 6
REMARK H PARENT
REMARK Flexibility Score: inf
ROOT
ATOM      1  C   UNL     1      -9.150   2.245 -20.101  1.00  0.00     0.052 C 
ENDROOT
BRANCH   1   2
ATOM      2  C   UNL     1      -8.054   1.226 -20.039  1.00  0.00     0.041 C 
ATOM      3  O   UNL     1      -6.855   1.592 -19.915  1.00  0.00    -0.550 OA
ATOM      4  O   UNL     1      -8.352  -0.126 -20.153  1.00  0.00    -0.550 OA
ENDBRANCH   1   2
BRANCH   1   5
ATOM      5  C   UNL     1      -9.985   2.105 -21.381  1.00  0.00     0.003 C 
ATOM      6  C   UNL     1     -11.439   1.734 -21.089  1.00  0.00     0.004 C 
ENDBRANCH   1   5
TORSDOF 2
ENDMDL
MODEL 8
REMARK VINA RESULT:    -2.738      7.331      8.065
REMARK INTER + INTRA:          -3.096
REMARK INTER:                  -3.068
REMARK INTRA:                  -0.028
REMARK UNBOUND:                -0.037
REMARK SMILES CCCC(=O)[O-]
REMARK SMILES IDX 3 1 4 2 5 3 6 4 2 5 1 6
REMARK H PARENT
REMARK Flexibility Score: inf
ROOT
ATOM      1  C   UNL     1     -14.863   5.109 -24.422  1.00  0.00     0.052 C 
ENDROOT
BRANCH   1   2
ATOM      2  C   UNL     1     -15.867   6.213 -24.295  1.00  0.00     0.041 C 
ATOM      3  O   UNL     1     -15.843   7.188 -25.092  1.00  0.00    -0.550 OA
ATOM      4  O   UNL     1     -16.809   6.184 -23.274  1.00  0.00    -0.550 OA
ENDBRANCH   1   2
BRANCH   1   5
ATOM      5  C   UNL     1     -14.590   4.430 -23.074  1.00  0.00     0.003 C 
ATOM      6  C   UNL     1     -14.697   2.907 -23.159  1.00  0.00     0.004 C 
ENDBRANCH   1   5
TORSDOF 2
ENDMDL
MODEL 9
REMARK VINA RESULT:    -2.716     13.778     14.610
REMARK INTER + INTRA:          -3.070
REMARK INTER:                  -3.031
REMARK INTRA:                  -0.039
REMARK UNBOUND:                -0.037
REMARK SMILES CCCC(=O)[O-]
REMARK SMILES IDX 3 1 4 2 5 3 6 4 2 5 1 6
REMARK H PARENT
REMARK Flexibility Score: inf
ROOT
ATOM      1  C   UNL     1      -6.974   5.361 -34.442  1.00  0.00     0.052 C 
ENDROOT
BRANCH   1   2
ATOM      2  C   UNL     1      -7.031   6.372 -35.545  1.00  0.00     0.041 C 
ATOM      3  O   UNL     1      -6.108   7.220 -35.675  1.00  0.00    -0.550 OA
ATOM      4  O   UNL     1      -8.118   6.401 -36.408  1.00  0.00    -0.550 OA
ENDBRANCH   1   2
BRANCH   1   5
ATOM      5  C   UNL     1      -7.742   5.830 -33.199  1.00  0.00     0.003 C 
ATOM      6  C   UNL     1      -6.868   6.652 -32.251  1.00  0.00     0.004 C 
ENDBRANCH   1   5
TORSDOF 2
ENDMDL
