MODEL 1
REMARK VINA RESULT:     7.353      0.000      0.000
REMARK INTER + INTRA:          17.375
REMARK INTER:                   9.932
REMARK INTRA:                   7.443
REMARK UNBOUND:                 7.443
REMARK SMILES CC[C@@H](CC[C@H](C)[C@H]1CC[C@H]2[C@@H]3CC(=O)C4=CC(=O)CC[C@@]4(C)[C@H]3CC[C@]12C)C(C)C
REMARK SMILES IDX 4 1 3 2 2 3 1 4 29 5 30 6 31 7 5 8 6 9 7 10 8 11 9 12 27 13
REMARK SMILES IDX 10 14 11 15 26 16 28 17 12 18 25 19 24 20 13 21 22 22 14 23
REMARK SMILES IDX 16 24 21 25 23 26 15 27 17 28 20 29 18 30 19 31
REMARK H PARENT
REMARK Flexibility Score: inf
ROOT
ATOM      1  C   UNL     1      -8.318  28.923  27.337  1.00  0.00     0.004 C 
ENDROOT
BRANCH   1   2
ATOM      2  C   UNL     1      -8.744  29.164  25.860  1.00  0.00    -0.009 C 
BRANCH   2   3
ATOM      3  C   UNL     1     -10.057  28.378  25.535  1.00  0.00     0.000 C 
ATOM      4  C   UNL     1     -10.116  27.930  24.075  1.00  0.00     0.004 C 
ENDBRANCH   2   3
BRANCH   2   5
ATOM      5  C   UNL     1      -7.617  28.797  24.832  1.00  0.00    -0.014 C 
ATOM      6  C   UNL     1      -8.190  28.690  23.405  1.00  0.00     0.007 C 
ATOM      7  C   UNL     1      -6.452  29.804  24.809  1.00  0.00     0.007 C 
ENDBRANCH   2   5
ENDBRANCH   1   2
BRANCH   1   8
ATOM      8  C   UNL     1      -7.750  30.189  28.015  1.00  0.00     0.004 C 
BRANCH   8   9
ATOM      9  C   UNL     1      -8.844  31.106  28.623  1.00  0.00    -0.011 C 
ATOM     10  C   UNL     1     -10.119  30.289  28.928  1.00  0.00     0.008 C 
BRANCH   9  11
ATOM     11  C   UNL     1      -9.072  32.362  27.702  1.00  0.00    -0.002 C 
ATOM     12  C   UNL     1      -8.492  33.715  28.187  1.00  0.00     0.005 C 
ATOM     13  C   UNL     1      -8.607  32.252  26.226  1.00  0.00    -0.026 C 
ATOM     14  C   UNL     1      -8.217  34.545  26.917  1.00  0.00     0.005 C 
ATOM     15  C   UNL     1      -8.794  33.707  25.779  1.00  0.00    -0.001 C 
ATOM     16  C   UNL     1      -9.516  31.378  25.332  1.00  0.00     0.007 C 
ATOM     17  C   UNL     1      -7.124  31.774  26.139  1.00  0.00     0.012 C 
ATOM     18  C   UNL     1      -8.317  33.973  24.334  1.00  0.00     0.004 C 
ATOM     19  C   UNL     1      -9.152  31.546  23.839  1.00  0.00     0.005 C 
ATOM     20  C   UNL     1      -9.102  33.036  23.357  1.00  0.00     0.003 C 
ATOM     21  C   UNL     1      -8.599  35.443  23.963  1.00  0.00     0.085 C 
ATOM     22  C   UNL     1      -8.656  33.214  21.837  1.00  0.00    -0.000 C 
ATOM     23  C   UNL     1      -8.316  35.716  22.521  1.00  0.00     0.159 C 
ATOM     24  C   UNL     1      -8.048  34.605  21.584  1.00  0.00     0.005 C 
ATOM     25  C   UNL     1      -7.611  32.138  21.400  1.00  0.00     0.020 C 
ATOM     26  C   UNL     1      -9.921  33.088  20.950  1.00  0.00     0.017 C 
ATOM     27  O   UNL     1      -8.298  36.911  22.119  1.00  0.00    -0.295 OA
ATOM     28  C   UNL     1      -7.254  34.834  20.521  1.00  0.00     0.055 C 
ATOM     29  C   UNL     1      -7.112  32.317  19.956  1.00  0.00     0.081 C 
ATOM     30  C   UNL     1      -6.792  33.747  19.647  1.00  0.00     0.156 C 
ATOM     31  O   UNL     1      -6.125  34.023  18.616  1.00  0.00    -0.295 OA
ENDBRANCH   9  11
ENDBRANCH   8   9
ENDBRANCH   1   8
TORSDOF 6
ENDMDL
MODEL 2
REMARK VINA RESULT:     9.848     16.610     19.255
REMARK INTER + INTRA:          20.746
REMARK INTER:                  20.660
REMARK INTRA:                   0.086
REMARK UNBOUND:                 7.443
REMARK SMILES CC[C@@H](CC[C@H](C)[C@H]1CC[C@H]2[C@@H]3CC(=O)C4=CC(=O)CC[C@@]4(C)[C@H]3CC[C@]12C)C(C)C
REMARK SMILES IDX 4 1 3 2 2 3 1 4 29 5 30 6 31 7 5 8 6 9 7 10 8 11 9 12 27 13
REMARK SMILES IDX 10 14 11 15 26 16 28 17 12 18 25 19 24 20 13 21 22 22 14 23
REMARK SMILES IDX 16 24 21 25 23 26 15 27 17 28 20 29 18 30 19 31
REMARK H PARENT
REMARK Flexibility Score: inf
ROOT
ATOM      1  C   UNL     1      -2.323  47.535  15.334  1.00  0.00     0.004 C 
ENDROOT
BRANCH   1   2
ATOM      2  C   UNL     1      -2.719  47.983  13.897  1.00  0.00    -0.009 C 
BRANCH   2   3
ATOM      3  C   UNL     1      -3.802  47.021  13.305  1.00  0.00     0.000 C 
ATOM      4  C   UNL     1      -4.820  47.761  12.438  1.00  0.00     0.004 C 
ENDBRANCH   2   3
BRANCH   2   5
ATOM      5  C   UNL     1      -1.490  48.085  12.930  1.00  0.00    -0.014 C 
ATOM      6  C   UNL     1      -0.229  47.479  13.579  1.00  0.00     0.007 C 
ATOM      7  C   UNL     1      -1.713  47.390  11.573  1.00  0.00     0.007 C 
ENDBRANCH   2   5
ENDBRANCH   1   2
BRANCH   1   8
ATOM      8  C   UNL     1      -3.244  48.124  16.425  1.00  0.00     0.004 C 
BRANCH   8   9
ATOM      9  C   UNL     1      -3.534  47.135  17.586  1.00  0.00    -0.011 C 
ATOM     10  C   UNL     1      -4.974  47.330  18.108  1.00  0.00     0.008 C 
BRANCH   9  11
ATOM     11  C   UNL     1      -2.414  47.249  18.685  1.00  0.00    -0.002 C 
ATOM     12  C   UNL     1      -2.666  46.529  20.035  1.00  0.00     0.005 C 
ATOM     13  C   UNL     1      -0.979  46.818  18.283  1.00  0.00    -0.026 C 
ATOM     14  C   UNL     1      -1.275  46.191  20.608  1.00  0.00     0.005 C 
ATOM     15  C   UNL     1      -0.293  46.864  19.653  1.00  0.00    -0.001 C 
ATOM     16  C   UNL     1      -0.242  47.822  17.367  1.00  0.00     0.007 C 
ATOM     17  C   UNL     1      -0.978  45.391  17.650  1.00  0.00     0.012 C 
ATOM     18  C   UNL     1       1.175  46.383  19.623  1.00  0.00     0.004 C 
ATOM     19  C   UNL     1       1.257  47.464  17.245  1.00  0.00     0.005 C 
ATOM     20  C   UNL     1       1.983  47.271  18.620  1.00  0.00     0.003 C 
ATOM     21  C   UNL     1       1.790  46.522  21.030  1.00  0.00     0.085 C 
ATOM     22  C   UNL     1       3.509  46.831  18.494  1.00  0.00    -0.000 C 
ATOM     23  C   UNL     1       3.256  46.233  21.028  1.00  0.00     0.159 C 
ATOM     24  C   UNL     1       3.991  46.090  19.753  1.00  0.00     0.005 C 
ATOM     25  C   UNL     1       3.756  45.906  17.260  1.00  0.00     0.020 C 
ATOM     26  C   UNL     1       4.366  48.115  18.349  1.00  0.00     0.017 C 
ATOM     27  O   UNL     1       3.854  46.101  22.130  1.00  0.00    -0.295 OA
ATOM     28  C   UNL     1       5.075  45.292  19.720  1.00  0.00     0.055 C 
ATOM     29  C   UNL     1       5.207  45.411  17.142  1.00  0.00     0.081 C 
ATOM     30  C   UNL     1       5.752  44.954  18.460  1.00  0.00     0.156 C 
ATOM     31  O   UNL     1       6.813  44.277  18.490  1.00  0.00    -0.295 OA
ENDBRANCH   9  11
ENDBRANCH   8   9
ENDBRANCH   1   8
TORSDOF 6
ENDMDL
MODEL 3
REMARK VINA RESULT:     9.930     17.384     19.466
REMARK INTER + INTRA:          20.856
REMARK INTER:                  18.571
REMARK INTRA:                   2.285
REMARK UNBOUND:                 7.443
REMARK SMILES CC[C@@H](CC[C@H](C)[C@H]1CC[C@H]2[C@@H]3CC(=O)C4=CC(=O)CC[C@@]4(C)[C@H]3CC[C@]12C)C(C)C
REMARK SMILES IDX 4 1 3 2 2 3 1 4 29 5 30 6 31 7 5 8 6 9 7 10 8 11 9 12 27 13
REMARK SMILES IDX 10 14 11 15 26 16 28 17 12 18 25 19 24 20 13 21 22 22 14 23
REMARK SMILES IDX 16 24 21 25 23 26 15 27 17 28 20 29 18 30 19 31
REMARK H PARENT
REMARK Flexibility Score: inf
ROOT
ATOM      1  C   UNL     1      -3.326  46.373  13.409  1.00  0.00     0.004 C 
ENDROOT
BRANCH   1   2
ATOM      2  C   UNL     1      -3.936  47.431  12.445  1.00  0.00    -0.009 C 
BRANCH   2   3
ATOM      3  C   UNL     1      -5.056  46.786  11.565  1.00  0.00     0.000 C 
ATOM      4  C   UNL     1      -6.132  47.796  11.167  1.00  0.00     0.004 C 
ENDBRANCH   2   3
BRANCH   2   5
ATOM      5  C   UNL     1      -2.859  48.124  11.540  1.00  0.00    -0.014 C 
ATOM      6  C   UNL     1      -1.478  47.463  11.726  1.00  0.00     0.007 C 
ATOM      7  C   UNL     1      -3.206  48.099  10.039  1.00  0.00     0.007 C 
ENDBRANCH   2   5
ENDBRANCH   1   2
BRANCH   1   8
ATOM      8  C   UNL     1      -3.264  46.856  14.874  1.00  0.00     0.004 C 
BRANCH   8   9
ATOM      9  C   UNL     1      -2.290  48.045  15.092  1.00  0.00    -0.011 C 
ATOM     10  C   UNL     1      -1.119  47.967  14.088  1.00  0.00     0.008 C 
BRANCH   9  11
ATOM     11  C   UNL     1      -1.859  48.121  16.603  1.00  0.00    -0.002 C 
ATOM     12  C   UNL     1      -2.933  47.781  17.668  1.00  0.00     0.005 C 
ATOM     13  C   UNL     1      -0.620  47.292  17.030  1.00  0.00    -0.026 C 
ATOM     14  C   UNL     1      -2.166  47.255  18.898  1.00  0.00     0.005 C 
ATOM     15  C   UNL     1      -0.695  47.463  18.551  1.00  0.00    -0.001 C 
ATOM     16  C   UNL     1       0.734  47.879  16.569  1.00  0.00     0.007 C 
ATOM     17  C   UNL     1      -0.757  45.804  16.577  1.00  0.00     0.012 C 
ATOM     18  C   UNL     1       0.379  46.657  19.316  1.00  0.00     0.004 C 
ATOM     19  C   UNL     1       1.915  47.163  17.263  1.00  0.00     0.005 C 
ATOM     20  C   UNL     1       1.796  47.099  18.824  1.00  0.00     0.003 C 
ATOM     21  C   UNL     1       0.255  46.940  20.826  1.00  0.00     0.085 C 
ATOM     22  C   UNL     1       2.976  46.298  19.535  1.00  0.00    -0.000 C 
ATOM     23  C   UNL     1       1.373  46.322  21.601  1.00  0.00     0.159 C 
ATOM     24  C   UNL     1       2.542  45.747  20.904  1.00  0.00     0.005 C 
ATOM     25  C   UNL     1       3.482  45.102  18.666  1.00  0.00     0.020 C 
ATOM     26  C   UNL     1       4.147  47.285  19.776  1.00  0.00     0.017 C 
ATOM     27  O   UNL     1       1.298  46.289  22.860  1.00  0.00    -0.295 OA
ATOM     28  C   UNL     1       3.203  44.729  21.486  1.00  0.00     0.055 C 
ATOM     29  C   UNL     1       4.580  44.268  19.348  1.00  0.00     0.081 C 
ATOM     30  C   UNL     1       4.257  43.984  20.783  1.00  0.00     0.156 C 
ATOM     31  O   UNL     1       4.907  43.099  21.400  1.00  0.00    -0.295 OA
ENDBRANCH   9  11
ENDBRANCH   8   9
ENDBRANCH   1   8
TORSDOF 6
ENDMDL
