MODEL 1
REMARK VINA RESULT:    -4.764      0.000      0.000
REMARK INTER + INTRA:          -5.505
REMARK INTER:                  -5.460
REMARK INTRA:                  -0.045
REMARK UNBOUND:                -0.045
REMARK SMILES O=C([O-])c1cc(O)c(O)c(O)c1
REMARK SMILES IDX 4 1 5 2 12 3 6 4 10 5 8 6 2 7 1 8 3 9 7 10 11 12 9 14
REMARK H PARENT 7 11 11 13 9 15
REMARK Flexibility Score: inf
ROOT
ATOM      1  C   UNL     1       6.858   9.766  40.247  1.00  0.00     0.005 A 
ATOM      2  C   UNL     1       7.634  10.633  41.034  1.00  0.00     0.060 A 
ATOM      3  C   UNL     1       5.463   9.927  40.227  1.00  0.00     0.060 A 
ATOM      4  C   UNL     1       7.028  11.645  41.791  1.00  0.00     0.162 A 
ATOM      5  C   UNL     1       4.850  10.935  40.979  1.00  0.00     0.162 A 
ATOM      6  C   UNL     1       5.631  11.799  41.765  1.00  0.00     0.200 A 
ENDROOT
BRANCH   1   7
ATOM      7  C   UNL     1       7.497   8.697  39.447  1.00  0.00     0.072 C 
ATOM      8  O   UNL     1       8.087   8.971  38.367  1.00  0.00    -0.545 OA
ATOM      9  O   UNL     1       7.456   7.375  39.875  1.00  0.00    -0.545 OA
ENDBRANCH   1   7
BRANCH   4  10
ATOM     10  O   UNL     1       7.808  12.499  42.569  1.00  0.00    -0.504 OA
ATOM     11  H   UNL     1       8.488  12.142  43.231  1.00  0.00     0.293 HD
ENDBRANCH   4  10
BRANCH   5  12
ATOM     12  O   UNL     1       3.462  11.061  40.932  1.00  0.00    -0.504 OA
ATOM     13  H   UNL     1       2.930  11.447  41.703  1.00  0.00     0.293 HD
ENDBRANCH   5  12
BRANCH   6  14
ATOM     14  O   UNL     1       5.011  12.801  42.512  1.00  0.00    -0.502 OA
ATOM     15  H   UNL     1       4.044  13.061  42.368  1.00  0.00     0.293 HD
ENDBRANCH   6  14
TORSDOF 4
ENDMDL
MODEL 2
REMARK VINA RESULT:    -4.756      0.042      2.430
REMARK INTER + INTRA:          -5.496
REMARK INTER:                  -5.451
REMARK INTRA:                  -0.045
REMARK UNBOUND:                -0.045
REMARK SMILES O=C([O-])c1cc(O)c(O)c(O)c1
REMARK SMILES IDX 4 1 5 2 12 3 6 4 10 5 8 6 2 7 1 8 3 9 7 10 11 12 9 14
REMARK H PARENT 7 11 11 13 9 15
REMARK Flexibility Score: inf
ROOT
ATOM      1  C   UNL     1       6.886   9.758  40.265  1.00  0.00     0.005 A 
ATOM      2  C   UNL     1       5.490   9.914  40.226  1.00  0.00     0.060 A 
ATOM      3  C   UNL     1       7.648  10.631  41.058  1.00  0.00     0.060 A 
ATOM      4  C   UNL     1       4.864  10.926  40.967  1.00  0.00     0.162 A 
ATOM      5  C   UNL     1       7.031  11.644  41.800  1.00  0.00     0.162 A 
ATOM      6  C   UNL     1       5.635  11.795  41.757  1.00  0.00     0.200 A 
ENDROOT
BRANCH   1   7
ATOM      7  C   UNL     1       7.548   8.689  39.484  1.00  0.00     0.072 C 
ATOM      8  O   UNL     1       8.165   8.962  38.419  1.00  0.00    -0.545 OA
ATOM      9  O   UNL     1       7.498   7.368  39.913  1.00  0.00    -0.545 OA
ENDBRANCH   1   7
BRANCH   4  10
ATOM     10  O   UNL     1       3.478  11.071  40.920  1.00  0.00    -0.504 OA
ATOM     11  H   UNL     1       2.931  10.706  40.149  1.00  0.00     0.293 HD
ENDBRANCH   4  10
BRANCH   5  12
ATOM     12  O   UNL     1       7.824  12.490  42.574  1.00  0.00    -0.504 OA
ATOM     13  H   UNL     1       7.463  13.346  42.979  1.00  0.00     0.293 HD
ENDBRANCH   5  12
BRANCH   6  14
ATOM     14  O   UNL     1       5.028  12.808  42.501  1.00  0.00    -0.502 OA
ATOM     15  H   UNL     1       5.158  12.895  43.501  1.00  0.00     0.293 HD
ENDBRANCH   6  14
TORSDOF 4
ENDMDL
MODEL 3
REMARK VINA RESULT:    -4.500      1.542      3.069
REMARK INTER + INTRA:          -5.203
REMARK INTER:                  -5.157
REMARK INTRA:                  -0.046
REMARK UNBOUND:                -0.045
REMARK SMILES O=C([O-])c1cc(O)c(O)c(O)c1
REMARK SMILES IDX 4 1 5 2 12 3 6 4 10 5 8 6 2 7 1 8 3 9 7 10 11 12 9 14
REMARK H PARENT 7 11 11 13 9 15
REMARK Flexibility Score: inf
ROOT
ATOM      1  C   UNL     1       5.471   9.920  40.240  1.00  0.00     0.005 A 
ATOM      2  C   UNL     1       4.850  10.912  41.017  1.00  0.00     0.060 A 
ATOM      3  C   UNL     1       6.873   9.840  40.228  1.00  0.00     0.060 A 
ATOM      4  C   UNL     1       5.617  11.813  41.770  1.00  0.00     0.162 A 
ATOM      5  C   UNL     1       7.646  10.735  40.976  1.00  0.00     0.162 A 
ATOM      6  C   UNL     1       7.020  11.726  41.751  1.00  0.00     0.200 A 
ENDROOT
BRANCH   1   7
ATOM      7  C   UNL     1       4.663   8.968  39.445  1.00  0.00     0.072 C 
ATOM      8  O   UNL     1       4.650   7.742  39.733  1.00  0.00    -0.545 OA
ATOM      9  O   UNL     1       3.905   9.415  38.368  1.00  0.00    -0.545 OA
ENDBRANCH   1   7
BRANCH   4  10
ATOM     10  O   UNL     1       4.990  12.794  42.537  1.00  0.00    -0.504 OA
ATOM     11  H   UNL     1       4.284  12.559  43.225  1.00  0.00     0.293 HD
ENDBRANCH   4  10
BRANCH   5  12
ATOM     12  O   UNL     1       9.035  10.623  40.936  1.00  0.00    -0.504 OA
ATOM     13  H   UNL     1       9.501   9.731  40.822  1.00  0.00     0.293 HD
ENDBRANCH   5  12
BRANCH   6  14
ATOM     14  O   UNL     1       7.798  12.614  42.494  1.00  0.00    -0.502 OA
ATOM     15  H   UNL     1       7.518  13.573  42.654  1.00  0.00     0.293 HD
ENDBRANCH   6  14
TORSDOF 4
ENDMDL
MODEL 4
REMARK VINA RESULT:    -4.494      1.521      2.546
REMARK INTER + INTRA:          -5.196
REMARK INTER:                  -5.149
REMARK INTRA:                  -0.047
REMARK UNBOUND:                -0.045
REMARK SMILES O=C([O-])c1cc(O)c(O)c(O)c1
REMARK SMILES IDX 4 1 5 2 12 3 6 4 10 5 8 6 2 7 1 8 3 9 7 10 11 12 9 14
REMARK H PARENT 7 11 11 13 9 15
REMARK Flexibility Score: inf
ROOT
ATOM      1  C   UNL     1       5.463   9.914  40.244  1.00  0.00     0.005 A 
ATOM      2  C   UNL     1       6.864   9.808  40.237  1.00  0.00     0.060 A 
ATOM      3  C   UNL     1       4.859  10.921  41.015  1.00  0.00     0.060 A 
ATOM      4  C   UNL     1       7.651  10.692  40.989  1.00  0.00     0.162 A 
ATOM      5  C   UNL     1       5.637  11.807  41.769  1.00  0.00     0.162 A 
ATOM      6  C   UNL     1       7.038  11.696  41.758  1.00  0.00     0.200 A 
ENDROOT
BRANCH   1   7
ATOM      7  C   UNL     1       4.632   8.982  39.451  1.00  0.00     0.072 C 
ATOM      8  O   UNL     1       4.792   7.736  39.551  1.00  0.00    -0.545 OA
ATOM      9  O   UNL     1       3.662   9.468  38.581  1.00  0.00    -0.545 OA
ENDBRANCH   1   7
BRANCH   4  10
ATOM     10  O   UNL     1       9.040  10.577  40.975  1.00  0.00    -0.504 OA
ATOM     11  H   UNL     1       9.636  11.278  41.400  1.00  0.00     0.293 HD
ENDBRANCH   4  10
BRANCH   5  12
ATOM     12  O   UNL     1       4.998  12.791  42.521  1.00  0.00    -0.504 OA
ATOM     13  H   UNL     1       4.439  12.569  43.336  1.00  0.00     0.293 HD
ENDBRANCH   5  12
BRANCH   6  14
ATOM     14  O   UNL     1       7.805  12.584  42.512  1.00  0.00    -0.502 OA
ATOM     15  H   UNL     1       8.021  12.418  43.487  1.00  0.00     0.293 HD
ENDBRANCH   6  14
TORSDOF 4
ENDMDL
MODEL 5
REMARK VINA RESULT:    -4.403      5.071      6.882
REMARK INTER + INTRA:          -5.091
REMARK INTER:                  -5.039
REMARK INTRA:                  -0.053
REMARK UNBOUND:                -0.045
REMARK SMILES O=C([O-])c1cc(O)c(O)c(O)c1
REMARK SMILES IDX 4 1 5 2 12 3 6 4 10 5 8 6 2 7 1 8 3 9 7 10 11 12 9 14
REMARK H PARENT 7 11 11 13 9 15
REMARK Flexibility Score: inf
ROOT
ATOM      1  C   UNL     1      -0.094   8.767  40.582  1.00  0.00     0.005 A 
ATOM      2  C   UNL     1       1.114   9.423  40.874  1.00  0.00     0.060 A 
ATOM      3  C   UNL     1      -0.868   9.213  39.499  1.00  0.00     0.060 A 
ATOM      4  C   UNL     1       1.543  10.508  40.096  1.00  0.00     0.162 A 
ATOM      5  C   UNL     1      -0.448  10.295  38.718  1.00  0.00     0.162 A 
ATOM      6  C   UNL     1       0.761  10.947  39.014  1.00  0.00     0.200 A 
ENDROOT
BRANCH   1   7
ATOM      7  C   UNL     1      -0.547   7.621  41.402  1.00  0.00     0.072 C 
ATOM      8  O   UNL     1      -1.493   6.887  41.010  1.00  0.00    -0.545 OA
ATOM      9  O   UNL     1       0.065   7.339  42.618  1.00  0.00    -0.545 OA
ENDBRANCH   1   7
BRANCH   4  10
ATOM     10  O   UNL     1       2.743  11.151  40.395  1.00  0.00    -0.504 OA
ATOM     11  H   UNL     1       3.452  11.308  39.687  1.00  0.00     0.293 HD
ENDBRANCH   4  10
BRANCH   5  12
ATOM     12  O   UNL     1      -1.246  10.707  37.651  1.00  0.00    -0.504 OA
ATOM     13  H   UNL     1      -1.678  10.048  37.016  1.00  0.00     0.293 HD
ENDBRANCH   5  12
BRANCH   6  14
ATOM     14  O   UNL     1       1.173  12.025  38.230  1.00  0.00    -0.502 OA
ATOM     15  H   UNL     1       1.280  12.958  38.608  1.00  0.00     0.293 HD
ENDBRANCH   6  14
TORSDOF 4
ENDMDL
MODEL 6
REMARK VINA RESULT:    -4.317      1.636      2.647
REMARK INTER + INTRA:          -4.993
REMARK INTER:                  -4.946
REMARK INTRA:                  -0.047
REMARK UNBOUND:                -0.045
REMARK SMILES O=C([O-])c1cc(O)c(O)c(O)c1
REMARK SMILES IDX 4 1 5 2 12 3 6 4 10 5 8 6 2 7 1 8 3 9 7 10 11 12 9 14
REMARK H PARENT 7 11 11 13 9 15
REMARK Flexibility Score: inf
ROOT
ATOM      1  C   UNL     1       7.796  10.735  40.989  1.00  0.00     0.005 A 
ATOM      2  C   UNL     1       7.137  11.723  41.740  1.00  0.00     0.060 A 
ATOM      3  C   UNL     1       7.032   9.840  40.222  1.00  0.00     0.060 A 
ATOM      4  C   UNL     1       5.738  11.816  41.727  1.00  0.00     0.162 A 
ATOM      5  C   UNL     1       5.636   9.925  40.203  1.00  0.00     0.162 A 
ATOM      6  C   UNL     1       4.983  10.915  40.957  1.00  0.00     0.200 A 
ENDROOT
BRANCH   1   7
ATOM      7  C   UNL     1       9.272  10.636  41.001  1.00  0.00     0.072 C 
ATOM      8  O   UNL     1       9.839   9.539  41.253  1.00  0.00    -0.545 OA
ATOM      9  O   UNL     1      10.056  11.753  40.735  1.00  0.00    -0.545 OA
ENDBRANCH   1   7
BRANCH   4  10
ATOM     10  O   UNL     1       5.096  12.800  42.477  1.00  0.00    -0.504 OA
ATOM     11  H   UNL     1       5.179  13.784  42.245  1.00  0.00     0.293 HD
ENDBRANCH   4  10
BRANCH   5  12
ATOM     12  O   UNL     1       4.915   9.017  39.429  1.00  0.00    -0.504 OA
ATOM     13  H   UNL     1       5.135   8.845  38.456  1.00  0.00     0.293 HD
ENDBRANCH   5  12
BRANCH   6  14
ATOM     14  O   UNL     1       3.590  10.994  40.933  1.00  0.00    -0.502 OA
ATOM     15  H   UNL     1       3.100  11.879  40.925  1.00  0.00     0.293 HD
ENDBRANCH   6  14
TORSDOF 4
ENDMDL
MODEL 7
REMARK VINA RESULT:    -4.307      1.592      3.095
REMARK INTER + INTRA:          -4.981
REMARK INTER:                  -4.936
REMARK INTRA:                  -0.045
REMARK UNBOUND:                -0.045
REMARK SMILES O=C([O-])c1cc(O)c(O)c(O)c1
REMARK SMILES IDX 4 1 5 2 12 3 6 4 10 5 8 6 2 7 1 8 3 9 7 10 11 12 9 14
REMARK H PARENT 7 11 11 13 9 15
REMARK Flexibility Score: inf
ROOT
ATOM      1  C   UNL     1       7.707  10.592  41.029  1.00  0.00     0.005 A 
ATOM      2  C   UNL     1       6.918   9.727  40.253  1.00  0.00     0.060 A 
ATOM      3  C   UNL     1       7.081  11.612  41.764  1.00  0.00     0.060 A 
ATOM      4  C   UNL     1       5.524   9.877  40.211  1.00  0.00     0.162 A 
ATOM      5  C   UNL     1       5.691  11.769  41.728  1.00  0.00     0.162 A 
ATOM      6  C   UNL     1       4.907  10.901  40.950  1.00  0.00     0.200 A 
ENDROOT
BRANCH   1   7
ATOM      7  C   UNL     1       9.178  10.434  41.075  1.00  0.00     0.072 C 
ATOM      8  O   UNL     1       9.741   9.965  42.100  1.00  0.00    -0.545 OA
ATOM      9  O   UNL     1       9.961  10.802  39.986  1.00  0.00    -0.545 OA
ENDBRANCH   1   7
BRANCH   4  10
ATOM     10  O   UNL     1       4.751   9.013  39.437  1.00  0.00    -0.504 OA
ATOM     11  H   UNL     1       3.797   8.783  39.690  1.00  0.00     0.293 HD
ENDBRANCH   4  10
BRANCH   5  12
ATOM     12  O   UNL     1       5.109  12.794  42.472  1.00  0.00    -0.504 OA
ATOM     13  H   UNL     1       5.657  13.538  42.885  1.00  0.00     0.293 HD
ENDBRANCH   5  12
BRANCH   6  14
ATOM     14  O   UNL     1       3.521  11.064  40.919  1.00  0.00    -0.502 OA
ATOM     15  H   UNL     1       2.987  10.986  40.063  1.00  0.00     0.293 HD
ENDBRANCH   6  14
TORSDOF 4
ENDMDL
MODEL 8
REMARK VINA RESULT:    -4.206      2.287      4.072
REMARK INTER + INTRA:          -4.866
REMARK INTER:                  -4.821
REMARK INTRA:                  -0.045
REMARK UNBOUND:                -0.045
REMARK SMILES O=C([O-])c1cc(O)c(O)c(O)c1
REMARK SMILES IDX 4 1 5 2 12 3 6 4 10 5 8 6 2 7 1 8 3 9 7 10 11 12 9 14
REMARK H PARENT 7 11 11 13 9 15
REMARK Flexibility Score: inf
ROOT
ATOM      1  C   UNL     1       8.727  12.618  40.664  1.00  0.00     0.005 A 
ATOM      2  C   UNL     1       7.664  12.995  41.501  1.00  0.00     0.060 A 
ATOM      3  C   UNL     1       8.653  11.395  39.977  1.00  0.00     0.060 A 
ATOM      4  C   UNL     1       6.544  12.165  41.652  1.00  0.00     0.162 A 
ATOM      5  C   UNL     1       7.540  10.560  40.122  1.00  0.00     0.162 A 
ATOM      6  C   UNL     1       6.480  10.943  40.961  1.00  0.00     0.200 A 
ENDROOT
BRANCH   1   7
ATOM      7  C   UNL     1       9.909  13.494  40.503  1.00  0.00     0.072 C 
ATOM      8  O   UNL     1      10.767  13.587  41.421  1.00  0.00    -0.545 OA
ATOM      9  O   UNL     1      10.090  14.227  39.335  1.00  0.00    -0.545 OA
ENDBRANCH   1   7
BRANCH   4  10
ATOM     10  O   UNL     1       5.496  12.550  42.487  1.00  0.00    -0.504 OA
ATOM     11  H   UNL     1       5.288  12.049  43.343  1.00  0.00     0.293 HD
ENDBRANCH   4  10
BRANCH   5  12
ATOM     12  O   UNL     1       7.506   9.354  39.423  1.00  0.00    -0.504 OA
ATOM     13  H   UNL     1       8.306   9.007  38.908  1.00  0.00     0.293 HD
ENDBRANCH   5  12
BRANCH   6  14
ATOM     14  O   UNL     1       5.373  10.104  41.100  1.00  0.00    -0.502 OA
ATOM     15  H   UNL     1       5.423   9.110  40.918  1.00  0.00     0.293 HD
ENDBRANCH   6  14
TORSDOF 4
ENDMDL
MODEL 9
REMARK VINA RESULT:    -4.203      2.973      4.332
REMARK INTER + INTRA:          -4.862
REMARK INTER:                  -4.817
REMARK INTRA:                  -0.045
REMARK UNBOUND:                -0.045
REMARK SMILES O=C([O-])c1cc(O)c(O)c(O)c1
REMARK SMILES IDX 4 1 5 2 12 3 6 4 10 5 8 6 2 7 1 8 3 9 7 10 11 12 9 14
REMARK H PARENT 7 11 11 13 9 15
REMARK Flexibility Score: inf
ROOT
ATOM      1  C   UNL     1       4.308   9.418  39.675  1.00  0.00     0.005 A 
ATOM      2  C   UNL     1       3.164   9.738  40.426  1.00  0.00     0.060 A 
ATOM      3  C   UNL     1       4.438   9.937  38.376  1.00  0.00     0.060 A 
ATOM      4  C   UNL     1       2.165  10.563  39.890  1.00  0.00     0.162 A 
ATOM      5  C   UNL     1       3.446  10.761  37.833  1.00  0.00     0.162 A 
ATOM      6  C   UNL     1       2.304  11.077  38.589  1.00  0.00     0.200 A 
ENDROOT
BRANCH   1   7
ATOM      7  C   UNL     1       5.363   8.549  40.240  1.00  0.00     0.072 C 
ATOM      8  O   UNL     1       5.203   7.300  40.298  1.00  0.00    -0.545 OA
ATOM      9  O   UNL     1       6.549   9.098  40.717  1.00  0.00    -0.545 OA
ENDBRANCH   1   7
BRANCH   4  10
ATOM     10  O   UNL     1       1.035  10.873  40.644  1.00  0.00    -0.504 OA
ATOM     11  H   UNL     1       1.103  11.123  41.624  1.00  0.00     0.293 HD
ENDBRANCH   4  10
BRANCH   5  12
ATOM     12  O   UNL     1       3.613  11.255  36.540  1.00  0.00    -0.504 OA
ATOM     13  H   UNL     1       3.883  10.660  35.767  1.00  0.00     0.293 HD
ENDBRANCH   5  12
BRANCH   6  14
ATOM     14  O   UNL     1       1.319  11.899  38.040  1.00  0.00    -0.502 OA
ATOM     15  H   UNL     1       0.344  11.822  38.301  1.00  0.00     0.293 HD
ENDBRANCH   6  14
TORSDOF 4
ENDMDL
