MODEL 1
REMARK VINA RESULT:    -4.977      0.000      0.000
REMARK INTER + INTRA:          -5.443
REMARK INTER:                  -5.414
REMARK INTRA:                  -0.030
REMARK UNBOUND:                -0.030
REMARK SMILES O=C([O-])c1ccc(O)cc1
REMARK SMILES IDX 7 1 6 2 9 3 5 4 10 5 4 6 8 7 2 9 1 10 3 11
REMARK H PARENT 8 8
REMARK Flexibility Score: inf
ROOT
ATOM      1  C   UNL     1      46.614  46.333  34.620  1.00  0.00     0.115 A 
ATOM      2  C   UNL     1      47.726  46.723  33.866  1.00  0.00     0.047 A 
ATOM      3  C   UNL     1      45.912  47.289  35.367  1.00  0.00     0.047 A 
ATOM      4  C   UNL     1      48.137  48.059  33.857  1.00  0.00     0.014 A 
ATOM      5  C   UNL     1      46.321  48.626  35.360  1.00  0.00     0.014 A 
ATOM      6  C   UNL     1      47.439  49.025  34.605  1.00  0.00    -0.003 A 
ENDROOT
BRANCH   1   7
ATOM      7  O   UNL     1      46.215  44.999  34.619  1.00  0.00    -0.508 OA
ATOM      8  H   UNL     1      46.462  44.373  35.376  1.00  0.00     0.293 HD
ENDBRANCH   1   7
BRANCH   6   9
ATOM      9  C   UNL     1      47.869  50.441  34.599  1.00  0.00     0.071 C 
ATOM     10  O   UNL     1      47.062  51.355  34.281  1.00  0.00    -0.545 OA
ATOM     11  O   UNL     1      49.172  50.783  34.945  1.00  0.00    -0.545 OA
ENDBRANCH   6   9
TORSDOF 2
ENDMDL
MODEL 2
REMARK VINA RESULT:    -4.971      0.018      1.532
REMARK INTER + INTRA:          -5.437
REMARK INTER:                  -5.407
REMARK INTRA:                  -0.030
REMARK UNBOUND:                -0.030
REMARK SMILES O=C([O-])c1ccc(O)cc1
REMARK SMILES IDX 7 1 6 2 9 3 5 4 10 5 4 6 8 7 2 9 1 10 3 11
REMARK H PARENT 8 8
REMARK Flexibility Score: inf
ROOT
ATOM      1  C   UNL     1      46.609  46.334  34.603  1.00  0.00     0.115 A 
ATOM      2  C   UNL     1      45.906  47.286  35.349  1.00  0.00     0.047 A 
ATOM      3  C   UNL     1      47.729  46.726  33.858  1.00  0.00     0.047 A 
ATOM      4  C   UNL     1      46.317  48.622  35.352  1.00  0.00     0.014 A 
ATOM      5  C   UNL     1      48.143  48.062  33.859  1.00  0.00     0.014 A 
ATOM      6  C   UNL     1      47.440  49.024  34.607  1.00  0.00    -0.003 A 
ENDROOT
BRANCH   1   7
ATOM      7  O   UNL     1      46.188  45.007  34.609  1.00  0.00    -0.508 OA
ATOM      8  H   UNL     1      45.622  44.627  33.859  1.00  0.00     0.293 HD
ENDBRANCH   1   7
BRANCH   6   9
ATOM      9  C   UNL     1      47.880  50.437  34.607  1.00  0.00     0.071 C 
ATOM     10  O   UNL     1      47.075  51.359  34.304  1.00  0.00    -0.545 OA
ATOM     11  O   UNL     1      49.188  50.768  34.942  1.00  0.00    -0.545 OA
ENDBRANCH   6   9
TORSDOF 2
ENDMDL
MODEL 3
REMARK VINA RESULT:    -4.935      2.029      4.081
REMARK INTER + INTRA:          -5.398
REMARK INTER:                  -5.368
REMARK INTRA:                  -0.030
REMARK UNBOUND:                -0.030
REMARK SMILES O=C([O-])c1ccc(O)cc1
REMARK SMILES IDX 7 1 6 2 9 3 5 4 10 5 4 6 8 7 2 9 1 10 3 11
REMARK H PARENT 8 8
REMARK Flexibility Score: inf
ROOT
ATOM      1  C   UNL     1      49.625  49.597  35.642  1.00  0.00     0.115 A 
ATOM      2  C   UNL     1      48.639  50.190  34.847  1.00  0.00     0.047 A 
ATOM      3  C   UNL     1      49.316  48.456  36.395  1.00  0.00     0.047 A 
ATOM      4  C   UNL     1      47.351  49.649  34.802  1.00  0.00     0.014 A 
ATOM      5  C   UNL     1      48.029  47.912  36.352  1.00  0.00     0.014 A 
ATOM      6  C   UNL     1      47.032  48.504  35.555  1.00  0.00    -0.003 A 
ENDROOT
BRANCH   1   7
ATOM      7  O   UNL     1      50.904  50.146  35.676  1.00  0.00    -0.508 OA
ATOM      8  H   UNL     1      51.614  49.877  35.005  1.00  0.00     0.293 HD
ENDBRANCH   1   7
BRANCH   6   9
ATOM      9  C   UNL     1      45.670  47.926  35.512  1.00  0.00     0.071 C 
ATOM     10  O   UNL     1      44.663  48.642  35.760  1.00  0.00    -0.545 OA
ATOM     11  O   UNL     1      45.483  46.585  35.198  1.00  0.00    -0.545 OA
ENDBRANCH   6   9
TORSDOF 2
ENDMDL
MODEL 4
REMARK VINA RESULT:    -4.661      1.023      4.185
REMARK INTER + INTRA:          -5.099
REMARK INTER:                  -5.063
REMARK INTRA:                  -0.036
REMARK UNBOUND:                -0.030
REMARK SMILES O=C([O-])c1ccc(O)cc1
REMARK SMILES IDX 7 1 6 2 9 3 5 4 10 5 4 6 8 7 2 9 1 10 3 11
REMARK H PARENT 8 8
REMARK Flexibility Score: inf
ROOT
ATOM      1  C   UNL     1      48.126  49.934  34.414  1.00  0.00     0.115 A 
ATOM      2  C   UNL     1      48.904  49.083  33.623  1.00  0.00     0.047 A 
ATOM      3  C   UNL     1      46.994  49.430  35.069  1.00  0.00     0.047 A 
ATOM      4  C   UNL     1      48.556  47.736  33.484  1.00  0.00     0.014 A 
ATOM      5  C   UNL     1      46.643  48.084  34.933  1.00  0.00     0.014 A 
ATOM      6  C   UNL     1      47.421  47.222  34.138  1.00  0.00    -0.003 A 
ENDROOT
BRANCH   1   7
ATOM      7  O   UNL     1      48.485  51.273  34.544  1.00  0.00    -0.508 OA
ATOM      8  H   UNL     1      48.096  51.986  33.939  1.00  0.00     0.293 HD
ENDBRANCH   1   7
BRANCH   6   9
ATOM      9  C   UNL     1      47.048  45.798  33.995  1.00  0.00     0.071 C 
ATOM     10  O   UNL     1      45.915  45.391  34.370  1.00  0.00    -0.545 OA
ATOM     11  O   UNL     1      47.942  44.886  33.444  1.00  0.00    -0.545 OA
ENDBRANCH   6   9
TORSDOF 2
ENDMDL
MODEL 5
REMARK VINA RESULT:    -4.603      2.076      2.609
REMARK INTER + INTRA:          -5.036
REMARK INTER:                  -5.007
REMARK INTRA:                  -0.029
REMARK UNBOUND:                -0.030
REMARK SMILES O=C([O-])c1ccc(O)cc1
REMARK SMILES IDX 7 1 6 2 9 3 5 4 10 5 4 6 8 7 2 9 1 10 3 11
REMARK H PARENT 8 8
REMARK Flexibility Score: inf
ROOT
ATOM      1  C   UNL     1      46.362  47.915  35.772  1.00  0.00     0.115 A 
ATOM      2  C   UNL     1      47.408  47.339  36.500  1.00  0.00     0.047 A 
ATOM      3  C   UNL     1      46.598  49.069  35.013  1.00  0.00     0.047 A 
ATOM      4  C   UNL     1      48.683  47.911  36.473  1.00  0.00     0.014 A 
ATOM      5  C   UNL     1      47.872  49.644  34.984  1.00  0.00     0.014 A 
ATOM      6  C   UNL     1      48.929  49.070  35.714  1.00  0.00    -0.003 A 
ENDROOT
BRANCH   1   7
ATOM      7  O   UNL     1      45.097  47.334  35.807  1.00  0.00    -0.508 OA
ATOM      8  H   UNL     1      44.894  46.543  36.407  1.00  0.00     0.293 HD
ENDBRANCH   1   7
BRANCH   6   9
ATOM      9  C   UNL     1      50.277  49.680  35.682  1.00  0.00     0.071 C 
ATOM     10  O   UNL     1      50.449  50.874  36.048  1.00  0.00    -0.545 OA
ATOM     11  O   UNL     1      51.373  48.944  35.247  1.00  0.00    -0.545 OA
ENDBRANCH   6   9
TORSDOF 2
ENDMDL
MODEL 6
REMARK VINA RESULT:    -4.568      2.328      4.318
REMARK INTER + INTRA:          -4.998
REMARK INTER:                  -4.969
REMARK INTRA:                  -0.029
REMARK UNBOUND:                -0.030
REMARK SMILES O=C([O-])c1ccc(O)cc1
REMARK SMILES IDX 7 1 6 2 9 3 5 4 10 5 4 6 8 7 2 9 1 10 3 11
REMARK H PARENT 8 8
REMARK Flexibility Score: inf
ROOT
ATOM      1  C   UNL     1      47.744  49.862  34.838  1.00  0.00     0.115 A 
ATOM      2  C   UNL     1      48.937  49.520  35.482  1.00  0.00     0.047 A 
ATOM      3  C   UNL     1      46.597  49.083  35.041  1.00  0.00     0.047 A 
ATOM      4  C   UNL     1      48.987  48.406  36.325  1.00  0.00     0.014 A 
ATOM      5  C   UNL     1      46.644  47.969  35.883  1.00  0.00     0.014 A 
ATOM      6  C   UNL     1      47.841  47.618  36.534  1.00  0.00    -0.003 A 
ENDROOT
BRANCH   1   7
ATOM      7  O   UNL     1      47.708  50.975  34.002  1.00  0.00    -0.508 OA
ATOM      8  H   UNL     1      47.331  51.861  34.316  1.00  0.00     0.293 HD
ENDBRANCH   1   7
BRANCH   6   9
ATOM      9  C   UNL     1      47.888  46.437  37.425  1.00  0.00     0.071 C 
ATOM     10  O   UNL     1      48.154  46.569  38.650  1.00  0.00    -0.545 OA
ATOM     11  O   UNL     1      47.639  45.165  36.923  1.00  0.00    -0.545 OA
ENDBRANCH   6   9
TORSDOF 2
ENDMDL
MODEL 7
REMARK VINA RESULT:    -4.562      2.237      2.870
REMARK INTER + INTRA:          -4.991
REMARK INTER:                  -4.963
REMARK INTRA:                  -0.028
REMARK UNBOUND:                -0.030
REMARK SMILES O=C([O-])c1ccc(O)cc1
REMARK SMILES IDX 7 1 6 2 9 3 5 4 10 5 4 6 8 7 2 9 1 10 3 11
REMARK H PARENT 8 8
REMARK Flexibility Score: inf
ROOT
ATOM      1  C   UNL     1      46.200  48.178  35.246  1.00  0.00     0.115 A 
ATOM      2  C   UNL     1      46.671  46.983  34.694  1.00  0.00     0.047 A 
ATOM      3  C   UNL     1      46.893  49.373  35.008  1.00  0.00     0.047 A 
ATOM      4  C   UNL     1      47.827  46.977  33.908  1.00  0.00     0.014 A 
ATOM      5  C   UNL     1      48.050  49.371  34.223  1.00  0.00     0.014 A 
ATOM      6  C   UNL     1      48.530  48.172  33.665  1.00  0.00    -0.003 A 
ENDROOT
BRANCH   1   7
ATOM      7  O   UNL     1      45.047  48.169  36.026  1.00  0.00    -0.508 OA
ATOM      8  H   UNL     1      44.740  48.995  36.527  1.00  0.00     0.293 HD
ENDBRANCH   1   7
BRANCH   6   9
ATOM      9  C   UNL     1      49.754  48.172  32.834  1.00  0.00     0.071 C 
ATOM     10  O   UNL     1      49.688  47.951  31.595  1.00  0.00    -0.545 OA
ATOM     11  O   UNL     1      50.996  48.417  33.409  1.00  0.00    -0.545 OA
ENDBRANCH   6   9
TORSDOF 2
ENDMDL
MODEL 8
REMARK VINA RESULT:    -4.502      9.753     10.551
REMARK INTER + INTRA:          -4.926
REMARK INTER:                  -4.894
REMARK INTRA:                  -0.032
REMARK UNBOUND:                -0.030
REMARK SMILES O=C([O-])c1ccc(O)cc1
REMARK SMILES IDX 7 1 6 2 9 3 5 4 10 5 4 6 8 7 2 9 1 10 3 11
REMARK H PARENT 8 8
REMARK Flexibility Score: inf
ROOT
ATOM      1  C   UNL     1      37.445  49.810  28.415  1.00  0.00     0.115 A 
ATOM      2  C   UNL     1      37.128  48.632  29.099  1.00  0.00     0.047 A 
ATOM      3  C   UNL     1      38.290  50.754  29.013  1.00  0.00     0.047 A 
ATOM      4  C   UNL     1      37.650  48.396  30.374  1.00  0.00     0.014 A 
ATOM      5  C   UNL     1      38.815  50.521  30.288  1.00  0.00     0.014 A 
ATOM      6  C   UNL     1      38.499  49.339  30.983  1.00  0.00    -0.003 A 
ENDROOT
BRANCH   1   7
ATOM      7  O   UNL     1      36.918  50.031  27.145  1.00  0.00    -0.508 OA
ATOM      8  H   UNL     1      37.415  49.746  26.309  1.00  0.00     0.293 HD
ENDBRANCH   1   7
BRANCH   6   9
ATOM      9  C   UNL     1      39.055  49.095  32.332  1.00  0.00     0.071 C 
ATOM     10  O   UNL     1      39.490  47.955  32.649  1.00  0.00    -0.545 OA
ATOM     11  O   UNL     1      39.106  50.120  33.270  1.00  0.00    -0.545 OA
ENDBRANCH   6   9
TORSDOF 2
ENDMDL
MODEL 9
REMARK VINA RESULT:    -4.407      1.631      2.318
REMARK INTER + INTRA:          -4.823
REMARK INTER:                  -4.788
REMARK INTRA:                  -0.035
REMARK UNBOUND:                -0.030
REMARK SMILES O=C([O-])c1ccc(O)cc1
REMARK SMILES IDX 7 1 6 2 9 3 5 4 10 5 4 6 8 7 2 9 1 10 3 11
REMARK H PARENT 8 8
REMARK Flexibility Score: inf
ROOT
ATOM      1  C   UNL     1      47.016  46.858  36.828  1.00  0.00     0.115 A 
ATOM      2  C   UNL     1      46.067  47.501  36.028  1.00  0.00     0.047 A 
ATOM      3  C   UNL     1      48.315  47.376  36.916  1.00  0.00     0.047 A 
ATOM      4  C   UNL     1      46.410  48.656  35.318  1.00  0.00     0.014 A 
ATOM      5  C   UNL     1      48.662  48.531  36.208  1.00  0.00     0.014 A 
ATOM      6  C   UNL     1      47.712  49.183  35.400  1.00  0.00    -0.003 A 
ENDROOT
BRANCH   1   7
ATOM      7  O   UNL     1      46.660  45.710  37.530  1.00  0.00    -0.508 OA
ATOM      8  H   UNL     1      46.366  45.752  38.499  1.00  0.00     0.293 HD
ENDBRANCH   1   7
BRANCH   6   9
ATOM      9  C   UNL     1      48.081  50.404  34.651  1.00  0.00     0.071 C 
ATOM     10  O   UNL     1      49.291  50.674  34.423  1.00  0.00    -0.545 OA
ATOM     11  O   UNL     1      47.098  51.271  34.188  1.00  0.00    -0.545 OA
ENDBRANCH   6   9
TORSDOF 2
ENDMDL
