MODEL 1
REMARK VINA RESULT:    -5.240      0.000      0.000
REMARK INTER + INTRA:          -6.456
REMARK INTER:                  -6.159
REMARK INTRA:                  -0.297
REMARK UNBOUND:                -0.297
REMARK SMILES O=c1c(O)c(-c2ccc(O)cc2)oc2cc(O)cc(O)c12
REMARK SMILES IDX 5 1 3 2 2 3 1 4 21 5 19 6 18 7 16 8 15 9 14 10 13 11 6 12
REMARK SMILES IDX 7 13 8 14 9 15 12 16 11 17 10 18 4 20 20 22 17 24
REMARK H PARENT 10 19 4 21 20 23 17 25
REMARK Flexibility Score: inf
ROOT
ATOM      1  C   UNL     1      16.859  -6.405  27.191  1.00  0.00     0.180 A 
ATOM      2  C   UNL     1      15.820  -5.793  27.913  1.00  0.00     0.208 A 
ATOM      3  C   UNL     1      16.102  -4.646  28.673  1.00  0.00     0.238 A 
ATOM      4  O   UNL     1      15.180  -4.134  29.359  1.00  0.00    -0.285 OA
ATOM      5  C   UNL     1      17.414  -4.117  28.688  1.00  0.00     0.111 A 
ATOM      6  C   UNL     1      17.805  -2.936  29.389  1.00  0.00     0.134 A 
ATOM      7  C   UNL     1      19.157  -2.578  29.441  1.00  0.00     0.093 A 
ATOM      8  C   UNL     1      20.124  -3.319  28.763  1.00  0.00     0.123 A 
ATOM      9  C   UNL     1      19.747  -4.441  28.024  1.00  0.00     0.094 A 
ATOM     10  C   UNL     1      18.410  -4.844  27.985  1.00  0.00     0.146 A 
ATOM     11  O   UNL     1      18.093  -5.923  27.278  1.00  0.00    -0.452 OA
ENDROOT
BRANCH   1  12
ATOM     12  C   UNL     1      16.634  -7.601  26.349  1.00  0.00     0.021 A 
ATOM     13  C   UNL     1      16.833  -8.880  26.895  1.00  0.00     0.016 A 
ATOM     14  C   UNL     1      16.648 -10.023  26.112  1.00  0.00     0.047 A 
ATOM     15  C   UNL     1      16.278  -9.901  24.766  1.00  0.00     0.115 A 
ATOM     16  C   UNL     1      16.281  -7.487  24.991  1.00  0.00     0.016 A 
ATOM     17  C   UNL     1      16.098  -8.630  24.209  1.00  0.00     0.047 A 
BRANCH  15  18
ATOM     18  O   UNL     1      16.090 -11.032  23.975  1.00  0.00    -0.508 OA
ATOM     19  H   UNL     1      16.405 -11.064  23.014  1.00  0.00     0.293 HD
ENDBRANCH  15  18
ENDBRANCH   1  12
BRANCH   2  20
ATOM     20  O   UNL     1      14.536  -6.344  27.902  1.00  0.00    -0.502 OA
ATOM     21  H   UNL     1      14.092  -6.708  28.736  1.00  0.00     0.293 HD
ENDBRANCH   2  20
BRANCH   6  22
ATOM     22  O   UNL     1      16.906  -2.072  30.025  1.00  0.00    -0.507 OA
ATOM     23  H   UNL     1      16.309  -2.331  30.796  1.00  0.00     0.293 HD
ENDBRANCH   6  22
BRANCH   8  24
ATOM     24  O   UNL     1      21.459  -2.924  28.823  1.00  0.00    -0.508 OA
ATOM     25  H   UNL     1      21.720  -1.949  28.914  1.00  0.00     0.293 HD
ENDBRANCH   8  24
TORSDOF 5
ENDMDL
MODEL 2
REMARK VINA RESULT:    -5.012      9.331     12.457
REMARK INTER + INTRA:          -6.188
REMARK INTER:                  -6.030
REMARK INTRA:                  -0.158
REMARK UNBOUND:                -0.297
REMARK SMILES O=c1c(O)c(-c2ccc(O)cc2)oc2cc(O)cc(O)c12
REMARK SMILES IDX 5 1 3 2 2 3 1 4 21 5 19 6 18 7 16 8 15 9 14 10 13 11 6 12
REMARK SMILES IDX 7 13 8 14 9 15 12 16 11 17 10 18 4 20 20 22 17 24
REMARK H PARENT 10 19 4 21 20 23 17 25
REMARK Flexibility Score: inf
ROOT
ATOM      1  C   UNL     1      23.611   4.026  25.727  1.00  0.00     0.180 A 
ATOM      2  C   UNL     1      22.408   4.585  26.193  1.00  0.00     0.208 A 
ATOM      3  C   UNL     1      21.740   3.968  27.263  1.00  0.00     0.238 A 
ATOM      4  O   UNL     1      20.637   4.441  27.641  1.00  0.00    -0.285 OA
ATOM      5  C   UNL     1      22.291   2.810  27.863  1.00  0.00     0.111 A 
ATOM      6  C   UNL     1      21.721   2.125  28.979  1.00  0.00     0.134 A 
ATOM      7  C   UNL     1      22.281   0.916  29.407  1.00  0.00     0.093 A 
ATOM      8  C   UNL     1      23.427   0.400  28.804  1.00  0.00     0.123 A 
ATOM      9  C   UNL     1      24.028   1.091  27.751  1.00  0.00     0.094 A 
ATOM     10  C   UNL     1      23.471   2.281  27.278  1.00  0.00     0.146 A 
ATOM     11  O   UNL     1      24.068   2.903  26.268  1.00  0.00    -0.452 OA
ENDROOT
BRANCH   1  12
ATOM     12  C   UNL     1      24.385   4.634  24.621  1.00  0.00     0.021 A 
ATOM     13  C   UNL     1      24.598   3.901  23.442  1.00  0.00     0.016 A 
ATOM     14  C   UNL     1      25.345   4.447  22.393  1.00  0.00     0.047 A 
ATOM     15  C   UNL     1      25.901   5.726  22.517  1.00  0.00     0.115 A 
ATOM     16  C   UNL     1      24.963   5.911  24.745  1.00  0.00     0.016 A 
ATOM     17  C   UNL     1      25.710   6.454  23.696  1.00  0.00     0.047 A 
BRANCH  15  18
ATOM     18  O   UNL     1      26.646   6.281  21.479  1.00  0.00    -0.508 OA
ATOM     19  H   UNL     1      26.651   5.871  20.553  1.00  0.00     0.293 HD
ENDBRANCH  15  18
ENDBRANCH   1  12
BRANCH   2  20
ATOM     20  O   UNL     1      21.871   5.716  25.573  1.00  0.00    -0.502 OA
ATOM     21  H   UNL     1      20.962   6.091  25.817  1.00  0.00     0.293 HD
ENDBRANCH   2  20
BRANCH   6  22
ATOM     22  O   UNL     1      20.630   2.602  29.713  1.00  0.00    -0.507 OA
ATOM     23  H   UNL     1      20.696   3.048  30.616  1.00  0.00     0.293 HD
ENDBRANCH   6  22
BRANCH   8  24
ATOM     24  O   UNL     1      23.967  -0.799  29.267  1.00  0.00    -0.508 OA
ATOM     25  H   UNL     1      23.677  -1.692  28.885  1.00  0.00     0.293 HD
ENDBRANCH   8  24
TORSDOF 5
ENDMDL
MODEL 3
REMARK VINA RESULT:    -4.807      7.670     10.190
REMARK INTER + INTRA:          -5.947
REMARK INTER:                  -5.700
REMARK INTRA:                  -0.247
REMARK UNBOUND:                -0.297
REMARK SMILES O=c1c(O)c(-c2ccc(O)cc2)oc2cc(O)cc(O)c12
REMARK SMILES IDX 5 1 3 2 2 3 1 4 21 5 19 6 18 7 16 8 15 9 14 10 13 11 6 12
REMARK SMILES IDX 7 13 8 14 9 15 12 16 11 17 10 18 4 20 20 22 17 24
REMARK H PARENT 10 19 4 21 20 23 17 25
REMARK Flexibility Score: inf
ROOT
ATOM      1  C   UNL     1      22.192   1.539  28.566  1.00  0.00     0.180 A 
ATOM      2  C   UNL     1      21.353   2.589  28.979  1.00  0.00     0.208 A 
ATOM      3  C   UNL     1      21.190   3.702  28.138  1.00  0.00     0.238 A 
ATOM      4  O   UNL     1      20.481   4.662  28.536  1.00  0.00    -0.285 OA
ATOM      5  C   UNL     1      21.855   3.744  26.889  1.00  0.00     0.111 A 
ATOM      6  C   UNL     1      21.731   4.802  25.939  1.00  0.00     0.134 A 
ATOM      7  C   UNL     1      22.536   4.801  24.794  1.00  0.00     0.093 A 
ATOM      8  C   UNL     1      23.412   3.749  24.531  1.00  0.00     0.123 A 
ATOM      9  C   UNL     1      23.498   2.678  25.422  1.00  0.00     0.094 A 
ATOM     10  C   UNL     1      22.735   2.670  26.592  1.00  0.00     0.146 A 
ATOM     11  O   UNL     1      22.853   1.638  27.419  1.00  0.00    -0.452 OA
ENDROOT
BRANCH   1  12
ATOM     12  C   UNL     1      22.394   0.324  29.386  1.00  0.00     0.021 A 
ATOM     13  C   UNL     1      21.685  -0.848  29.073  1.00  0.00     0.016 A 
ATOM     14  C   UNL     1      21.843  -2.001  29.848  1.00  0.00     0.047 A 
ATOM     15  C   UNL     1      22.701  -1.992  30.955  1.00  0.00     0.115 A 
ATOM     16  C   UNL     1      23.239   0.330  30.512  1.00  0.00     0.016 A 
ATOM     17  C   UNL     1      23.394  -0.824  31.285  1.00  0.00     0.047 A 
BRANCH  15  18
ATOM     18  O   UNL     1      22.867  -3.135  31.734  1.00  0.00    -0.508 OA
ATOM     19  H   UNL     1      22.390  -4.001  31.512  1.00  0.00     0.293 HD
ENDBRANCH  15  18
ENDBRANCH   1  12
BRANCH   2  20
ATOM     20  O   UNL     1      20.723   2.538  30.225  1.00  0.00    -0.502 OA
ATOM     21  H   UNL     1      19.803   2.928  30.386  1.00  0.00     0.293 HD
ENDBRANCH   2  20
BRANCH   6  22
ATOM     22  O   UNL     1      20.819   5.856  26.059  1.00  0.00    -0.507 OA
ATOM     23  H   UNL     1      20.915   6.753  25.606  1.00  0.00     0.293 HD
ENDBRANCH   6  22
BRANCH   8  24
ATOM     24  O   UNL     1      24.187   3.773  23.372  1.00  0.00    -0.508 OA
ATOM     25  H   UNL     1      24.258   4.606  22.800  1.00  0.00     0.293 HD
ENDBRANCH   8  24
TORSDOF 5
ENDMDL
MODEL 4
REMARK VINA RESULT:    -4.782      1.700      6.921
REMARK INTER + INTRA:          -5.918
REMARK INTER:                  -5.639
REMARK INTRA:                  -0.279
REMARK UNBOUND:                -0.297
REMARK SMILES O=c1c(O)c(-c2ccc(O)cc2)oc2cc(O)cc(O)c12
REMARK SMILES IDX 5 1 3 2 2 3 1 4 21 5 19 6 18 7 16 8 15 9 14 10 13 11 6 12
REMARK SMILES IDX 7 13 8 14 9 15 12 16 11 17 10 18 4 20 20 22 17 24
REMARK H PARENT 10 19 4 21 20 23 17 25
REMARK Flexibility Score: inf
ROOT
ATOM      1  C   UNL     1      17.674  -6.626  27.669  1.00  0.00     0.180 A 
ATOM      2  C   UNL     1      17.812  -7.778  28.464  1.00  0.00     0.208 A 
ATOM      3  C   UNL     1      17.351  -9.008  27.967  1.00  0.00     0.238 A 
ATOM      4  O   UNL     1      17.428 -10.025  28.704  1.00  0.00    -0.285 OA
ATOM      5  C   UNL     1      16.772  -9.073  26.677  1.00  0.00     0.111 A 
ATOM      6  C   UNL     1      16.308 -10.273  26.056  1.00  0.00     0.134 A 
ATOM      7  C   UNL     1      15.634 -10.200  24.831  1.00  0.00     0.093 A 
ATOM      8  C   UNL     1      15.466  -8.983  24.172  1.00  0.00     0.123 A 
ATOM      9  C   UNL     1      15.969  -7.812  24.740  1.00  0.00     0.094 A 
ATOM     10  C   UNL     1      16.613  -7.847  25.980  1.00  0.00     0.146 A 
ATOM     11  O   UNL     1      17.068  -6.710  26.490  1.00  0.00    -0.452 OA
ENDROOT
BRANCH   1  12
ATOM     12  C   UNL     1      18.159  -5.300  28.113  1.00  0.00     0.021 A 
ATOM     13  C   UNL     1      19.513  -4.967  27.946  1.00  0.00     0.016 A 
ATOM     14  C   UNL     1      19.997  -3.729  28.379  1.00  0.00     0.047 A 
ATOM     15  C   UNL     1      19.136  -2.814  28.999  1.00  0.00     0.115 A 
ATOM     16  C   UNL     1      17.304  -4.384  28.754  1.00  0.00     0.016 A 
ATOM     17  C   UNL     1      17.790  -3.147  29.187  1.00  0.00     0.047 A 
BRANCH  15  18
ATOM     18  O   UNL     1      19.606  -1.577  29.434  1.00  0.00    -0.508 OA
ATOM     19  H   UNL     1      20.595  -1.403  29.563  1.00  0.00     0.293 HD
ENDBRANCH  15  18
ENDBRANCH   1  12
BRANCH   2  20
ATOM     20  O   UNL     1      18.366  -7.687  29.743  1.00  0.00    -0.502 OA
ATOM     21  H   UNL     1      17.853  -7.944  30.578  1.00  0.00     0.293 HD
ENDBRANCH   2  20
BRANCH   6  22
ATOM     22  O   UNL     1      16.505 -11.552  26.585  1.00  0.00    -0.507 OA
ATOM     23  H   UNL     1      15.772 -12.228  26.741  1.00  0.00     0.293 HD
ENDBRANCH   6  22
BRANCH   8  24
ATOM     24  O   UNL     1      14.805  -8.951  22.946  1.00  0.00    -0.508 OA
ATOM     25  H   UNL     1      14.831  -9.739  22.309  1.00  0.00     0.293 HD
ENDBRANCH   8  24
TORSDOF 5
ENDMDL
MODEL 5
REMARK VINA RESULT:    -4.747     10.480     13.453
REMARK INTER + INTRA:          -5.876
REMARK INTER:                  -5.663
REMARK INTRA:                  -0.214
REMARK UNBOUND:                -0.297
REMARK SMILES O=c1c(O)c(-c2ccc(O)cc2)oc2cc(O)cc(O)c12
REMARK SMILES IDX 5 1 3 2 2 3 1 4 21 5 19 6 18 7 16 8 15 9 14 10 13 11 6 12
REMARK SMILES IDX 7 13 8 14 9 15 12 16 11 17 10 18 4 20 20 22 17 24
REMARK H PARENT 10 19 4 21 20 23 17 25
REMARK Flexibility Score: inf
ROOT
ATOM      1  C   UNL     1      24.220   4.583  25.615  1.00  0.00     0.180 A 
ATOM      2  C   UNL     1      24.742   3.454  26.271  1.00  0.00     0.208 A 
ATOM      3  C   UNL     1      24.016   2.885  27.330  1.00  0.00     0.238 A 
ATOM      4  O   UNL     1      24.513   1.908  27.947  1.00  0.00    -0.285 OA
ATOM      5  C   UNL     1      22.771   3.442  27.710  1.00  0.00     0.111 A 
ATOM      6  C   UNL     1      21.931   2.923  28.741  1.00  0.00     0.134 A 
ATOM      7  C   UNL     1      20.785   3.631  29.120  1.00  0.00     0.093 A 
ATOM      8  C   UNL     1      20.411   4.801  28.461  1.00  0.00     0.123 A 
ATOM      9  C   UNL     1      21.191   5.286  27.411  1.00  0.00     0.094 A 
ATOM     10  C   UNL     1      22.362   4.622  27.035  1.00  0.00     0.146 A 
ATOM     11  O   UNL     1      23.082   5.121  26.038  1.00  0.00    -0.452 OA
ENDROOT
BRANCH   1  12
ATOM     12  C   UNL     1      24.914   5.223  24.475  1.00  0.00     0.021 A 
ATOM     13  C   UNL     1      24.941   4.575  23.229  1.00  0.00     0.016 A 
ATOM     14  C   UNL     1      25.609   5.150  22.145  1.00  0.00     0.047 A 
ATOM     15  C   UNL     1      26.274   6.373  22.297  1.00  0.00     0.115 A 
ATOM     16  C   UNL     1      25.600   6.442  24.625  1.00  0.00     0.016 A 
ATOM     17  C   UNL     1      26.269   7.015  23.540  1.00  0.00     0.047 A 
BRANCH  15  18
ATOM     18  O   UNL     1      26.943   6.957  21.223  1.00  0.00    -0.508 OA
ATOM     19  H   UNL     1      27.014   7.962  21.128  1.00  0.00     0.293 HD
ENDBRANCH  15  18
ENDBRANCH   1  12
BRANCH   2  20
ATOM     20  O   UNL     1      25.983   2.934  25.895  1.00  0.00    -0.502 OA
ATOM     21  H   UNL     1      26.754   2.842  26.544  1.00  0.00     0.293 HD
ENDBRANCH   2  20
BRANCH   6  22
ATOM     22  O   UNL     1      22.164   1.713  29.401  1.00  0.00    -0.507 OA
ATOM     23  H   UNL     1      21.896   1.518  30.355  1.00  0.00     0.293 HD
ENDBRANCH   6  22
BRANCH   8  24
ATOM     24  O   UNL     1      19.253   5.471  28.854  1.00  0.00    -0.508 OA
ATOM     25  H   UNL     1      18.842   6.198  28.280  1.00  0.00     0.293 HD
ENDBRANCH   8  24
TORSDOF 5
ENDMDL
MODEL 6
REMARK VINA RESULT:    -4.733      8.009     11.729
REMARK INTER + INTRA:          -5.860
REMARK INTER:                  -5.629
REMARK INTRA:                  -0.231
REMARK UNBOUND:                -0.297
REMARK SMILES O=c1c(O)c(-c2ccc(O)cc2)oc2cc(O)cc(O)c12
REMARK SMILES IDX 5 1 3 2 2 3 1 4 21 5 19 6 18 7 16 8 15 9 14 10 13 11 6 12
REMARK SMILES IDX 7 13 8 14 9 15 12 16 11 17 10 18 4 20 20 22 17 24
REMARK H PARENT 10 19 4 21 20 23 17 25
REMARK Flexibility Score: inf
ROOT
ATOM      1  C   UNL     1      23.845   2.417  27.551  1.00  0.00     0.180 A 
ATOM      2  C   UNL     1      24.121   3.601  28.257  1.00  0.00     0.208 A 
ATOM      3  C   UNL     1      24.501   4.748  27.542  1.00  0.00     0.238 A 
ATOM      4  O   UNL     1      24.799   5.789  28.183  1.00  0.00    -0.285 OA
ATOM      5  C   UNL     1      24.584   4.702  26.130  1.00  0.00     0.111 A 
ATOM      6  C   UNL     1      24.919   5.815  25.300  1.00  0.00     0.134 A 
ATOM      7  C   UNL     1      25.100   5.622  23.926  1.00  0.00     0.093 A 
ATOM      8  C   UNL     1      24.893   4.374  23.340  1.00  0.00     0.123 A 
ATOM      9  C   UNL     1      24.506   3.292  24.132  1.00  0.00     0.094 A 
ATOM     10  C   UNL     1      24.355   3.445  25.512  1.00  0.00     0.146 A 
ATOM     11  O   UNL     1      23.995   2.388  26.231  1.00  0.00    -0.452 OA
ENDROOT
BRANCH   1  12
ATOM     12  C   UNL     1      23.415   1.175  28.232  1.00  0.00     0.021 A 
ATOM     13  C   UNL     1      24.291   0.079  28.291  1.00  0.00     0.016 A 
ATOM     14  C   UNL     1      23.898  -1.111  28.910  1.00  0.00     0.047 A 
ATOM     15  C   UNL     1      22.616  -1.225  29.464  1.00  0.00     0.115 A 
ATOM     16  C   UNL     1      22.122   1.046  28.774  1.00  0.00     0.016 A 
ATOM     17  C   UNL     1      21.731  -0.145  29.391  1.00  0.00     0.047 A 
BRANCH  15  18
ATOM     18  O   UNL     1      22.213  -2.406  30.084  1.00  0.00    -0.508 OA
ATOM     19  H   UNL     1      22.356  -2.559  31.075  1.00  0.00     0.293 HD
ENDBRANCH  15  18
ENDBRANCH   1  12
BRANCH   2  20
ATOM     20  O   UNL     1      24.054   3.618  29.653  1.00  0.00    -0.502 OA
ATOM     21  H   UNL     1      23.928   2.777  30.203  1.00  0.00     0.293 HD
ENDBRANCH   2  20
BRANCH   6  22
ATOM     22  O   UNL     1      25.059   7.124  25.770  1.00  0.00    -0.507 OA
ATOM     23  H   UNL     1      25.942   7.580  25.949  1.00  0.00     0.293 HD
ENDBRANCH   6  22
BRANCH   8  24
ATOM     24  O   UNL     1      25.066   4.222  21.966  1.00  0.00    -0.508 OA
ATOM     25  H   UNL     1      25.947   3.912  21.574  1.00  0.00     0.293 HD
ENDBRANCH   8  24
TORSDOF 5
ENDMDL
MODEL 7
REMARK VINA RESULT:    -4.714      1.861      7.020
REMARK INTER + INTRA:          -5.838
REMARK INTER:                  -5.651
REMARK INTRA:                  -0.186
REMARK UNBOUND:                -0.297
REMARK SMILES O=c1c(O)c(-c2ccc(O)cc2)oc2cc(O)cc(O)c12
REMARK SMILES IDX 5 1 3 2 2 3 1 4 21 5 19 6 18 7 16 8 15 9 14 10 13 11 6 12
REMARK SMILES IDX 7 13 8 14 9 15 12 16 11 17 10 18 4 20 20 22 17 24
REMARK H PARENT 10 19 4 21 20 23 17 25
REMARK Flexibility Score: inf
ROOT
ATOM      1  C   UNL     1      16.750  -7.542  26.677  1.00  0.00     0.180 A 
ATOM      2  C   UNL     1      16.161  -7.686  25.408  1.00  0.00     0.208 A 
ATOM      3  C   UNL     1      16.155  -8.952  24.800  1.00  0.00     0.238 A 
ATOM      4  O   UNL     1      15.674  -9.064  23.643  1.00  0.00    -0.285 OA
ATOM      5  C   UNL     1      16.723 -10.059  25.474  1.00  0.00     0.111 A 
ATOM      6  C   UNL     1      16.736 -11.396  24.971  1.00  0.00     0.134 A 
ATOM      7  C   UNL     1      17.441 -12.388  25.662  1.00  0.00     0.093 A 
ATOM      8  C   UNL     1      18.076 -12.109  26.872  1.00  0.00     0.123 A 
ATOM      9  C   UNL     1      18.019 -10.820  27.404  1.00  0.00     0.094 A 
ATOM     10  C   UNL     1      17.355  -9.801  26.718  1.00  0.00     0.146 A 
ATOM     11  O   UNL     1      17.333  -8.586  27.254  1.00  0.00    -0.452 OA
ENDROOT
BRANCH   1  12
ATOM     12  C   UNL     1      16.773  -6.246  27.391  1.00  0.00     0.021 A 
ATOM     13  C   UNL     1      18.003  -5.622  27.654  1.00  0.00     0.016 A 
ATOM     14  C   UNL     1      18.050  -4.409  28.347  1.00  0.00     0.047 A 
ATOM     15  C   UNL     1      16.867  -3.812  28.800  1.00  0.00     0.115 A 
ATOM     16  C   UNL     1      15.590  -5.649  27.866  1.00  0.00     0.016 A 
ATOM     17  C   UNL     1      15.639  -4.437  28.560  1.00  0.00     0.047 A 
BRANCH  15  18
ATOM     18  O   UNL     1      16.900  -2.602  29.491  1.00  0.00    -0.508 OA
ATOM     19  H   UNL     1      16.351  -1.806  29.191  1.00  0.00     0.293 HD
ENDBRANCH  15  18
ENDBRANCH   1  12
BRANCH   2  20
ATOM     20  O   UNL     1      15.625  -6.575  24.751  1.00  0.00    -0.502 OA
ATOM     21  H   UNL     1      15.319  -6.609  23.786  1.00  0.00     0.293 HD
ENDBRANCH   2  20
BRANCH   6  22
ATOM     22  O   UNL     1      16.056 -11.802  23.818  1.00  0.00    -0.507 OA
ATOM     23  H   UNL     1      16.046 -11.293  22.947  1.00  0.00     0.293 HD
ENDBRANCH   6  22
BRANCH   8  24
ATOM     24  O   UNL     1      18.755 -13.125  27.542  1.00  0.00    -0.508 OA
ATOM     25  H   UNL     1      18.646 -14.098  27.278  1.00  0.00     0.293 HD
ENDBRANCH   8  24
TORSDOF 5
ENDMDL
MODEL 8
REMARK VINA RESULT:    -4.663      8.995     11.604
REMARK INTER + INTRA:          -5.777
REMARK INTER:                  -5.616
REMARK INTRA:                  -0.161
REMARK UNBOUND:                -0.297
REMARK SMILES O=c1c(O)c(-c2ccc(O)cc2)oc2cc(O)cc(O)c12
REMARK SMILES IDX 5 1 3 2 2 3 1 4 21 5 19 6 18 7 16 8 15 9 14 10 13 11 6 12
REMARK SMILES IDX 7 13 8 14 9 15 12 16 11 17 10 18 4 20 20 22 17 24
REMARK H PARENT 10 19 4 21 20 23 17 25
REMARK Flexibility Score: inf
ROOT
ATOM      1  C   UNL     1      23.476   2.301  27.723  1.00  0.00     0.180 A 
ATOM      2  C   UNL     1      24.656   2.848  27.189  1.00  0.00     0.208 A 
ATOM      3  C   UNL     1      24.562   3.928  26.296  1.00  0.00     0.238 A 
ATOM      4  O   UNL     1      25.618   4.379  25.780  1.00  0.00    -0.285 OA
ATOM      5  C   UNL     1      23.293   4.456  25.961  1.00  0.00     0.111 A 
ATOM      6  C   UNL     1      23.082   5.575  25.098  1.00  0.00     0.134 A 
ATOM      7  C   UNL     1      21.778   5.930  24.733  1.00  0.00     0.093 A 
ATOM      8  C   UNL     1      20.676   5.250  25.250  1.00  0.00     0.123 A 
ATOM      9  C   UNL     1      20.867   4.194  26.142  1.00  0.00     0.094 A 
ATOM     10  C   UNL     1      22.158   3.793  26.495  1.00  0.00     0.146 A 
ATOM     11  O   UNL     1      22.297   2.777  27.338  1.00  0.00    -0.452 OA
ENDROOT
BRANCH   1  12
ATOM     12  C   UNL     1      23.495   1.179  28.689  1.00  0.00     0.021 A 
ATOM     13  C   UNL     1      23.873  -0.102  28.254  1.00  0.00     0.016 A 
ATOM     14  C   UNL     1      23.877  -1.180  29.144  1.00  0.00     0.047 A 
ATOM     15  C   UNL     1      23.487  -0.994  30.476  1.00  0.00     0.115 A 
ATOM     16  C   UNL     1      23.086   1.354  30.024  1.00  0.00     0.016 A 
ATOM     17  C   UNL     1      23.090   0.274  30.911  1.00  0.00     0.047 A 
BRANCH  15  18
ATOM     18  O   UNL     1      23.487  -2.061  31.372  1.00  0.00    -0.508 OA
ATOM     19  H   UNL     1      23.503  -1.910  32.374  1.00  0.00     0.293 HD
ENDBRANCH  15  18
ENDBRANCH   1  12
BRANCH   2  20
ATOM     20  O   UNL     1      25.898   2.297  27.516  1.00  0.00    -0.502 OA
ATOM     21  H   UNL     1      26.440   1.750  26.859  1.00  0.00     0.293 HD
ENDBRANCH   2  20
BRANCH   6  22
ATOM     22  O   UNL     1      24.111   6.380  24.599  1.00  0.00    -0.507 OA
ATOM     23  H   UNL     1      25.085   6.285  24.844  1.00  0.00     0.293 HD
ENDBRANCH   6  22
BRANCH   8  24
ATOM     24  O   UNL     1      19.391   5.641  24.878  1.00  0.00    -0.508 OA
ATOM     25  H   UNL     1      18.790   5.035  24.332  1.00  0.00     0.293 HD
ENDBRANCH   8  24
TORSDOF 5
ENDMDL
MODEL 9
REMARK VINA RESULT:    -4.477      8.217     10.974
REMARK INTER + INTRA:          -5.559
REMARK INTER:                  -5.270
REMARK INTRA:                  -0.289
REMARK UNBOUND:                -0.297
REMARK SMILES O=c1c(O)c(-c2ccc(O)cc2)oc2cc(O)cc(O)c12
REMARK SMILES IDX 5 1 3 2 2 3 1 4 21 5 19 6 18 7 16 8 15 9 14 10 13 11 6 12
REMARK SMILES IDX 7 13 8 14 9 15 12 16 11 17 10 18 4 20 20 22 17 24
REMARK H PARENT 10 19 4 21 20 23 17 25
REMARK Flexibility Score: inf
ROOT
ATOM      1  C   UNL     1      23.310   1.741  28.045  1.00  0.00     0.180 A 
ATOM      2  C   UNL     1      23.868   0.466  28.248  1.00  0.00     0.208 A 
ATOM      3  C   UNL     1      23.303  -0.377  29.219  1.00  0.00     0.238 A 
ATOM      4  O   UNL     1      23.839  -1.495  29.433  1.00  0.00    -0.285 OA
ATOM      5  C   UNL     1      22.181   0.059  29.963  1.00  0.00     0.111 A 
ATOM      6  C   UNL     1      21.502  -0.728  30.943  1.00  0.00     0.134 A 
ATOM      7  C   UNL     1      20.485  -0.149  31.710  1.00  0.00     0.093 A 
ATOM      8  C   UNL     1      20.076   1.166  31.489  1.00  0.00     0.123 A 
ATOM      9  C   UNL     1      20.690   1.925  30.492  1.00  0.00     0.094 A 
ATOM     10  C   UNL     1      21.734   1.386  29.735  1.00  0.00     0.146 A 
ATOM     11  O   UNL     1      22.299   2.145  28.804  1.00  0.00    -0.452 OA
ENDROOT
BRANCH   1  12
ATOM     12  C   UNL     1      23.834   2.675  27.023  1.00  0.00     0.021 A 
ATOM     13  C   UNL     1      23.336   2.616  25.711  1.00  0.00     0.016 A 
ATOM     14  C   UNL     1      23.832   3.474  24.725  1.00  0.00     0.047 A 
ATOM     15  C   UNL     1      24.844   4.392  25.035  1.00  0.00     0.115 A 
ATOM     16  C   UNL     1      24.864   3.587  27.321  1.00  0.00     0.016 A 
ATOM     17  C   UNL     1      25.359   4.442  26.334  1.00  0.00     0.047 A 
BRANCH  15  18
ATOM     18  O   UNL     1      25.346   5.252  24.061  1.00  0.00    -0.508 OA
ATOM     19  H   UNL     1      26.008   4.934  23.364  1.00  0.00     0.293 HD
ENDBRANCH  15  18
ENDBRANCH   1  12
BRANCH   2  20
ATOM     20  O   UNL     1      24.990   0.064  27.518  1.00  0.00    -0.502 OA
ATOM     21  H   UNL     1      25.032  -0.821  27.029  1.00  0.00     0.293 HD
ENDBRANCH   2  20
BRANCH   6  22
ATOM     22  O   UNL     1      21.771  -2.080  31.181  1.00  0.00    -0.507 OA
ATOM     23  H   UNL     1      21.662  -2.815  30.498  1.00  0.00     0.293 HD
ENDBRANCH   6  22
BRANCH   8  24
ATOM     24  O   UNL     1      19.048   1.705  32.260  1.00  0.00    -0.508 OA
ATOM     25  H   UNL     1      18.099   1.355  32.197  1.00  0.00     0.293 HD
ENDBRANCH   8  24
TORSDOF 5
ENDMDL
