MODEL 1
REMARK VINA RESULT:    -5.276      0.000      0.000
REMARK INTER + INTRA:          -8.758
REMARK INTER:                  -8.052
REMARK INTRA:                  -0.706
REMARK UNBOUND:                -0.706
REMARK SMILES O=C([O-])CCCCCCCCC(=O)[O-]
REMARK SMILES IDX 7 1 6 2 5 3 4 4 2 5 1 6 3 7 8 8 9 9 10 10 11 11 12 12 13 13
REMARK SMILES IDX 14 14
REMARK H PARENT
REMARK Flexibility Score: inf
ROOT
ATOM      1  C   UNL     1      50.029  52.111  21.700  1.00  0.00     0.000 C 
ENDROOT
BRANCH   1   2
ATOM      2  C   UNL     1      49.325  51.307  22.808  1.00  0.00     0.000 C 
BRANCH   2   3
ATOM      3  C   UNL     1      50.000  49.951  23.071  1.00  0.00     0.006 C 
BRANCH   3   4
ATOM      4  C   UNL     1      49.075  48.963  23.794  1.00  0.00     0.053 C 
BRANCH   4   5
ATOM      5  C   UNL     1      49.835  47.743  24.208  1.00  0.00     0.041 C 
ATOM      6  O   UNL     1      49.325  46.923  25.016  1.00  0.00    -0.550 OA
ATOM      7  O   UNL     1      51.128  47.537  23.741  1.00  0.00    -0.550 OA
ENDBRANCH   4   5
ENDBRANCH   3   4
ENDBRANCH   2   3
ENDBRANCH   1   2
BRANCH   1   8
ATOM      8  C   UNL     1      51.316  51.432  21.201  1.00  0.00     0.000 C 
BRANCH   8   9
ATOM      9  C   UNL     1      52.520  52.389  21.188  1.00  0.00     0.000 C 
BRANCH   9  10
ATOM     10  C   UNL     1      52.135  53.828  21.570  1.00  0.00     0.006 C 
BRANCH  10  11
ATOM     11  C   UNL     1      52.957  54.367  22.748  1.00  0.00     0.053 C 
BRANCH  11  12
ATOM     12  C   UNL     1      52.594  53.649  24.009  1.00  0.00     0.041 C 
ATOM     13  O   UNL     1      53.456  52.962  24.618  1.00  0.00    -0.550 OA
ATOM     14  O   UNL     1      51.318  53.778  24.540  1.00  0.00    -0.550 OA
ENDBRANCH  11  12
ENDBRANCH  10  11
ENDBRANCH   9  10
ENDBRANCH   8   9
ENDBRANCH   1   8
TORSDOF 9
ENDMDL
MODEL 2
REMARK VINA RESULT:    -5.252      0.732      5.401
REMARK INTER + INTRA:          -8.721
REMARK INTER:                  -8.335
REMARK INTRA:                  -0.386
REMARK UNBOUND:                -0.706
REMARK SMILES O=C([O-])CCCCCCCCC(=O)[O-]
REMARK SMILES IDX 7 1 6 2 5 3 4 4 2 5 1 6 3 7 8 8 9 9 10 10 11 11 12 12 13 13
REMARK SMILES IDX 14 14
REMARK H PARENT
REMARK Flexibility Score: inf
ROOT
ATOM      1  C   UNL     1      52.131  51.667  21.268  1.00  0.00     0.000 C 
ENDROOT
BRANCH   1   2
ATOM      2  C   UNL     1      52.290  53.084  20.688  1.00  0.00     0.000 C 
BRANCH   2   3
ATOM      3  C   UNL     1      51.944  54.181  21.708  1.00  0.00     0.006 C 
BRANCH   3   4
ATOM      4  C   UNL     1      53.021  54.344  22.788  1.00  0.00     0.053 C 
BRANCH   4   5
ATOM      5  C   UNL     1      52.619  53.629  24.039  1.00  0.00     0.041 C 
ATOM      6  O   UNL     1      53.467  52.960  24.686  1.00  0.00    -0.550 OA
ATOM      7  O   UNL     1      51.297  53.660  24.462  1.00  0.00    -0.550 OA
ENDBRANCH   4   5
ENDBRANCH   3   4
ENDBRANCH   2   3
ENDBRANCH   1   2
BRANCH   1   8
ATOM      8  C   UNL     1      50.784  51.024  20.900  1.00  0.00     0.000 C 
BRANCH   8   9
ATOM      9  C   UNL     1      49.699  51.279  21.960  1.00  0.00     0.000 C 
BRANCH   9  10
ATOM     10  C   UNL     1      49.597  50.139  22.986  1.00  0.00     0.006 C 
BRANCH  10  11
ATOM     11  C   UNL     1      50.447  48.920  22.602  1.00  0.00     0.053 C 
BRANCH  11  12
ATOM     12  C   UNL     1      50.433  47.907  23.703  1.00  0.00     0.041 C 
ATOM     13  O   UNL     1      51.475  47.259  23.982  1.00  0.00    -0.550 OA
ATOM     14  O   UNL     1      49.281  47.714  24.455  1.00  0.00    -0.550 OA
ENDBRANCH  11  12
ENDBRANCH  10  11
ENDBRANCH   9  10
ENDBRANCH   8   9
ENDBRANCH   1   8
TORSDOF 9
ENDMDL
MODEL 3
REMARK VINA RESULT:    -5.151      0.844      1.667
REMARK INTER + INTRA:          -8.566
REMARK INTER:                  -7.986
REMARK INTRA:                  -0.580
REMARK UNBOUND:                -0.706
REMARK SMILES O=C([O-])CCCCCCCCC(=O)[O-]
REMARK SMILES IDX 7 1 6 2 5 3 4 4 2 5 1 6 3 7 8 8 9 9 10 10 11 11 12 12 13 13
REMARK SMILES IDX 14 14
REMARK H PARENT
REMARK Flexibility Score: inf
ROOT
ATOM      1  C   UNL     1      49.387  52.079  23.220  1.00  0.00     0.000 C 
ENDROOT
BRANCH   1   2
ATOM      2  C   UNL     1      48.342  50.959  23.067  1.00  0.00     0.000 C 
BRANCH   2   3
ATOM      3  C   UNL     1      48.742  49.674  23.810  1.00  0.00     0.006 C 
BRANCH   3   4
ATOM      4  C   UNL     1      49.900  48.935  23.129  1.00  0.00     0.053 C 
BRANCH   4   5
ATOM      5  C   UNL     1      50.319  47.754  23.945  1.00  0.00     0.041 C 
ATOM      6  O   UNL     1      51.463  47.251  23.791  1.00  0.00    -0.550 OA
ATOM      7  O   UNL     1      49.427  47.177  24.841  1.00  0.00    -0.550 OA
ENDBRANCH   4   5
ENDBRANCH   3   4
ENDBRANCH   2   3
ENDBRANCH   1   2
BRANCH   1   8
ATOM      8  C   UNL     1      49.944  52.557  21.869  1.00  0.00     0.000 C 
BRANCH   8   9
ATOM      9  C   UNL     1      51.303  51.919  21.533  1.00  0.00     0.000 C 
BRANCH   9  10
ATOM     10  C   UNL     1      52.368  52.962  21.157  1.00  0.00     0.006 C 
BRANCH  10  11
ATOM     11  C   UNL     1      52.285  54.228  22.019  1.00  0.00     0.053 C 
BRANCH  11  12
ATOM     12  C   UNL     1      52.979  54.015  23.328  1.00  0.00     0.041 C 
ATOM     13  O   UNL     1      52.506  54.508  24.385  1.00  0.00    -0.550 OA
ATOM     14  O   UNL     1      54.123  53.229  23.387  1.00  0.00    -0.550 OA
ENDBRANCH  11  12
ENDBRANCH  10  11
ENDBRANCH   9  10
ENDBRANCH   8   9
ENDBRANCH   1   8
TORSDOF 9
ENDMDL
MODEL 4
REMARK VINA RESULT:    -5.099      1.027      5.608
REMARK INTER + INTRA:          -8.487
REMARK INTER:                  -7.937
REMARK INTRA:                  -0.550
REMARK UNBOUND:                -0.706
REMARK SMILES O=C([O-])CCCCCCCCC(=O)[O-]
REMARK SMILES IDX 7 1 6 2 5 3 4 4 2 5 1 6 3 7 8 8 9 9 10 10 11 11 12 12 13 13
REMARK SMILES IDX 14 14
REMARK H PARENT
REMARK Flexibility Score: inf
ROOT
ATOM      1  C   UNL     1      49.830  52.911  22.244  1.00  0.00     0.000 C 
ENDROOT
BRANCH   1   2
ATOM      2  C   UNL     1      50.857  52.120  21.414  1.00  0.00     0.000 C 
BRANCH   2   3
ATOM      3  C   UNL     1      52.111  52.946  21.086  1.00  0.00     0.006 C 
BRANCH   3   4
ATOM      4  C   UNL     1      53.292  52.616  22.007  1.00  0.00     0.053 C 
BRANCH   4   5
ATOM      5  C   UNL     1      53.274  53.497  23.216  1.00  0.00     0.041 C 
ATOM      6  O   UNL     1      52.965  54.713  23.108  1.00  0.00    -0.550 OA
ATOM      7  O   UNL     1      53.648  52.988  24.453  1.00  0.00    -0.550 OA
ENDBRANCH   4   5
ENDBRANCH   3   4
ENDBRANCH   2   3
ENDBRANCH   1   2
BRANCH   1   8
ATOM      8  C   UNL     1      49.119  52.041  23.294  1.00  0.00     0.000 C 
BRANCH   8   9
ATOM      9  C   UNL     1      48.514  50.763  22.688  1.00  0.00     0.000 C 
BRANCH   9  10
ATOM     10  C   UNL     1      48.883  49.501  23.485  1.00  0.00     0.006 C 
BRANCH  10  11
ATOM     11  C   UNL     1      50.324  49.039  23.227  1.00  0.00     0.053 C 
BRANCH  11  12
ATOM     12  C   UNL     1      50.577  47.725  23.896  1.00  0.00     0.041 C 
ATOM     13  O   UNL     1      51.645  47.096  23.674  1.00  0.00    -0.550 OA
ATOM     14  O   UNL     1      49.657  47.218  24.804  1.00  0.00    -0.550 OA
ENDBRANCH  11  12
ENDBRANCH  10  11
ENDBRANCH   9  10
ENDBRANCH   8   9
ENDBRANCH   1   8
TORSDOF 9
ENDMDL
MODEL 5
REMARK VINA RESULT:    -5.080      2.216      2.666
REMARK INTER + INTRA:          -8.458
REMARK INTER:                  -7.876
REMARK INTRA:                  -0.582
REMARK UNBOUND:                -0.706
REMARK SMILES O=C([O-])CCCCCCCCC(=O)[O-]
REMARK SMILES IDX 7 1 6 2 5 3 4 4 2 5 1 6 3 7 8 8 9 9 10 10 11 11 12 12 13 13
REMARK SMILES IDX 14 14
REMARK H PARENT
REMARK Flexibility Score: inf
ROOT
ATOM      1  C   UNL     1      50.595  51.005  22.356  1.00  0.00     0.000 C 
ENDROOT
BRANCH   1   2
ATOM      2  C   UNL     1      49.794  49.696  22.464  1.00  0.00     0.000 C 
BRANCH   2   3
ATOM      3  C   UNL     1      48.950  49.625  23.747  1.00  0.00     0.006 C 
BRANCH   3   4
ATOM      4  C   UNL     1      47.683  50.486  23.668  1.00  0.00     0.053 C 
BRANCH   4   5
ATOM      5  C   UNL     1      47.602  51.405  24.845  1.00  0.00     0.041 C 
ATOM      6  O   UNL     1      46.603  51.367  25.610  1.00  0.00    -0.550 OA
ATOM      7  O   UNL     1      48.605  52.340  25.067  1.00  0.00    -0.550 OA
ENDBRANCH   4   5
ENDBRANCH   3   4
ENDBRANCH   2   3
ENDBRANCH   1   2
BRANCH   1   8
ATOM      8  C   UNL     1      51.510  51.040  21.121  1.00  0.00     0.000 C 
BRANCH   8   9
ATOM      9  C   UNL     1      52.611  52.108  21.233  1.00  0.00     0.000 C 
BRANCH   9  10
ATOM     10  C   UNL     1      52.043  53.521  21.445  1.00  0.00     0.006 C 
BRANCH  10  11
ATOM     11  C   UNL     1      52.840  54.330  22.477  1.00  0.00     0.053 C 
BRANCH  11  12
ATOM     12  C   UNL     1      52.614  53.787  23.853  1.00  0.00     0.041 C 
ATOM     13  O   UNL     1      51.510  53.966  24.431  1.00  0.00    -0.550 OA
ATOM     14  O   UNL     1      53.605  53.040  24.476  1.00  0.00    -0.550 OA
ENDBRANCH  11  12
ENDBRANCH  10  11
ENDBRANCH   9  10
ENDBRANCH   8   9
ENDBRANCH   1   8
TORSDOF 9
ENDMDL
MODEL 6
REMARK VINA RESULT:    -5.075      2.248      5.310
REMARK INTER + INTRA:          -8.451
REMARK INTER:                  -7.792
REMARK INTRA:                  -0.659
REMARK UNBOUND:                -0.706
REMARK SMILES O=C([O-])CCCCCCCCC(=O)[O-]
REMARK SMILES IDX 7 1 6 2 5 3 4 4 2 5 1 6 3 7 8 8 9 9 10 10 11 11 12 12 13 13
REMARK SMILES IDX 14 14
REMARK H PARENT
REMARK Flexibility Score: inf
ROOT
ATOM      1  C   UNL     1      51.411  51.005  21.419  1.00  0.00     0.000 C 
ENDROOT
BRANCH   1   2
ATOM      2  C   UNL     1      51.096  52.506  21.552  1.00  0.00     0.000 C 
BRANCH   2   3
ATOM      3  C   UNL     1      52.260  53.396  21.088  1.00  0.00     0.006 C 
BRANCH   3   4
ATOM      4  C   UNL     1      52.500  54.588  22.023  1.00  0.00     0.053 C 
BRANCH   4   5
ATOM      5  C   UNL     1      52.935  54.114  23.373  1.00  0.00     0.041 C 
ATOM      6  O   UNL     1      52.279  54.436  24.399  1.00  0.00    -0.550 OA
ATOM      7  O   UNL     1      54.093  53.359  23.505  1.00  0.00    -0.550 OA
ENDBRANCH   4   5
ENDBRANCH   3   4
ENDBRANCH   2   3
ENDBRANCH   1   2
BRANCH   1   8
ATOM      8  C   UNL     1      50.183  50.117  21.676  1.00  0.00     0.000 C 
BRANCH   8   9
ATOM      9  C   UNL     1      50.275  49.355  23.009  1.00  0.00     0.000 C 
BRANCH   9  10
ATOM     10  C   UNL     1      48.951  49.372  23.790  1.00  0.00     0.006 C 
BRANCH  10  11
ATOM     11  C   UNL     1      48.071  50.578  23.437  1.00  0.00     0.053 C 
BRANCH  11  12
ATOM     12  C   UNL     1      48.189  51.635  24.489  1.00  0.00     0.041 C 
ATOM     13  O   UNL     1      49.141  52.457  24.458  1.00  0.00    -0.550 OA
ATOM     14  O   UNL     1      47.219  51.743  25.478  1.00  0.00    -0.550 OA
ENDBRANCH  11  12
ENDBRANCH  10  11
ENDBRANCH   9  10
ENDBRANCH   8   9
ENDBRANCH   1   8
TORSDOF 9
ENDMDL
MODEL 7
REMARK VINA RESULT:    -5.052      1.430      1.977
REMARK INTER + INTRA:          -8.415
REMARK INTER:                  -7.905
REMARK INTRA:                  -0.510
REMARK UNBOUND:                -0.706
REMARK SMILES O=C([O-])CCCCCCCCC(=O)[O-]
REMARK SMILES IDX 7 1 6 2 5 3 4 4 2 5 1 6 3 7 8 8 9 9 10 10 11 11 12 12 13 13
REMARK SMILES IDX 14 14
REMARK H PARENT
REMARK Flexibility Score: inf
ROOT
ATOM      1  C   UNL     1      51.896  50.991  21.128  1.00  0.00     0.000 C 
ENDROOT
BRANCH   1   2
ATOM      2  C   UNL     1      50.365  50.908  20.999  1.00  0.00     0.000 C 
BRANCH   2   3
ATOM      3  C   UNL     1      49.726  50.051  22.104  1.00  0.00     0.006 C 
BRANCH   3   4
ATOM      4  C   UNL     1      50.706  49.037  22.705  1.00  0.00     0.053 C 
BRANCH   4   5
ATOM      5  C   UNL     1      50.038  48.236  23.777  1.00  0.00     0.041 C 
ATOM      6  O   UNL     1      50.647  47.280  24.326  1.00  0.00    -0.550 OA
ATOM      7  O   UNL     1      48.725  48.513  24.135  1.00  0.00    -0.550 OA
ENDBRANCH   4   5
ENDBRANCH   3   4
ENDBRANCH   2   3
ENDBRANCH   1   2
BRANCH   1   8
ATOM      8  C   UNL     1      52.428  52.425  20.966  1.00  0.00     0.000 C 
BRANCH   8   9
ATOM      9  C   UNL     1      53.310  52.864  22.147  1.00  0.00     0.000 C 
BRANCH   9  10
ATOM     10  C   UNL     1      52.746  54.090  22.882  1.00  0.00     0.006 C 
BRANCH  10  11
ATOM     11  C   UNL     1      52.133  53.734  24.243  1.00  0.00     0.053 C 
BRANCH  11  12
ATOM     12  C   UNL     1      50.651  53.569  24.120  1.00  0.00     0.041 C 
ATOM     13  O   UNL     1      49.942  53.417  25.150  1.00  0.00    -0.550 OA
ATOM     14  O   UNL     1      50.045  53.634  22.872  1.00  0.00    -0.550 OA
ENDBRANCH  11  12
ENDBRANCH  10  11
ENDBRANCH   9  10
ENDBRANCH   8   9
ENDBRANCH   1   8
TORSDOF 9
ENDMDL
MODEL 8
REMARK VINA RESULT:    -4.971      2.471      5.267
REMARK INTER + INTRA:          -8.292
REMARK INTER:                  -7.731
REMARK INTRA:                  -0.561
REMARK UNBOUND:                -0.706
REMARK SMILES O=C([O-])CCCCCCCCC(=O)[O-]
REMARK SMILES IDX 7 1 6 2 5 3 4 4 2 5 1 6 3 7 8 8 9 9 10 10 11 11 12 12 13 13
REMARK SMILES IDX 14 14
REMARK H PARENT
REMARK Flexibility Score: inf
ROOT
ATOM      1  C   UNL     1      50.624  50.944  22.227  1.00  0.00     0.000 C 
ENDROOT
BRANCH   1   2
ATOM      2  C   UNL     1      51.673  50.990  21.102  1.00  0.00     0.000 C 
BRANCH   2   3
ATOM      3  C   UNL     1      52.681  52.137  21.281  1.00  0.00     0.006 C 
BRANCH   3   4
ATOM      4  C   UNL     1      52.108  53.303  22.096  1.00  0.00     0.053 C 
BRANCH   4   5
ATOM      5  C   UNL     1      52.982  53.596  23.274  1.00  0.00     0.041 C 
ATOM      6  O   UNL     1      54.115  53.056  23.372  1.00  0.00    -0.550 OA
ATOM      7  O   UNL     1      52.524  54.425  24.290  1.00  0.00    -0.550 OA
ENDBRANCH   4   5
ENDBRANCH   3   4
ENDBRANCH   2   3
ENDBRANCH   1   2
BRANCH   1   8
ATOM      8  C   UNL     1      50.040  49.537  22.436  1.00  0.00     0.000 C 
BRANCH   8   9
ATOM      9  C   UNL     1      48.937  49.510  23.508  1.00  0.00     0.000 C 
BRANCH   9  10
ATOM     10  C   UNL     1      48.051  50.766  23.474  1.00  0.00     0.006 C 
BRANCH  10  11
ATOM     11  C   UNL     1      47.545  51.171  24.865  1.00  0.00     0.053 C 
BRANCH  11  12
ATOM     12  C   UNL     1      48.066  52.524  25.236  1.00  0.00     0.041 C 
ATOM     13  O   UNL     1      47.383  53.286  25.970  1.00  0.00    -0.550 OA
ATOM     14  O   UNL     1      49.326  52.924  24.812  1.00  0.00    -0.550 OA
ENDBRANCH  11  12
ENDBRANCH  10  11
ENDBRANCH   9  10
ENDBRANCH   8   9
ENDBRANCH   1   8
TORSDOF 9
ENDMDL
MODEL 9
REMARK VINA RESULT:    -4.680      2.333      3.047
REMARK INTER + INTRA:          -7.848
REMARK INTER:                  -7.244
REMARK INTRA:                  -0.604
REMARK UNBOUND:                -0.706
REMARK SMILES O=C([O-])CCCCCCCCC(=O)[O-]
REMARK SMILES IDX 7 1 6 2 5 3 4 4 2 5 1 6 3 7 8 8 9 9 10 10 11 11 12 12 13 13
REMARK SMILES IDX 14 14
REMARK H PARENT
REMARK Flexibility Score: inf
ROOT
ATOM      1  C   UNL     1      49.577  52.360  22.899  1.00  0.00     0.000 C 
ENDROOT
BRANCH   1   2
ATOM      2  C   UNL     1      49.689  52.970  24.307  1.00  0.00     0.000 C 
BRANCH   2   3
ATOM      3  C   UNL     1      48.441  52.705  25.166  1.00  0.00     0.006 C 
BRANCH   3   4
ATOM      4  C   UNL     1      47.284  52.106  24.356  1.00  0.00     0.053 C 
BRANCH   4   5
ATOM      5  C   UNL     1      46.937  50.745  24.869  1.00  0.00     0.041 C 
ATOM      6  O   UNL     1      47.551  49.732  24.442  1.00  0.00    -0.550 OA
ATOM      7  O   UNL     1      45.900  50.589  25.781  1.00  0.00    -0.550 OA
ENDBRANCH   4   5
ENDBRANCH   3   4
ENDBRANCH   2   3
ENDBRANCH   1   2
BRANCH   1   8
ATOM      8  C   UNL     1      50.687  51.338  22.605  1.00  0.00     0.000 C 
BRANCH   8   9
ATOM      9  C   UNL     1      51.315  51.532  21.215  1.00  0.00     0.000 C 
BRANCH   9  10
ATOM     10  C   UNL     1      52.693  52.211  21.279  1.00  0.00     0.006 C 
BRANCH  10  11
ATOM     11  C   UNL     1      52.605  53.691  21.676  1.00  0.00     0.053 C 
BRANCH  11  12
ATOM     12  C   UNL     1      53.216  53.905  23.026  1.00  0.00     0.041 C 
ATOM     13  O   UNL     1      52.814  54.843  23.762  1.00  0.00    -0.550 OA
ATOM     14  O   UNL     1      54.197  53.037  23.490  1.00  0.00    -0.550 OA
ENDBRANCH  11  12
ENDBRANCH  10  11
ENDBRANCH   9  10
ENDBRANCH   8   9
ENDBRANCH   1   8
TORSDOF 9
ENDMDL
