MODEL 1
REMARK VINA RESULT:    -5.729      0.000      0.000
REMARK INTER + INTRA:         -11.988
REMARK INTER:                 -10.753
REMARK INTRA:                  -1.235
REMARK UNBOUND:                -1.235
REMARK SMILES O=C([O-])CCCCCCCCCCCCCCC(=O)[O-]
REMARK SMILES IDX 10 1 9 2 8 3 7 4 6 5 5 6 4 7 2 8 1 9 3 10 11 11 12 12 13 13
REMARK SMILES IDX 14 14 15 15 16 16 17 17 18 18 19 19 20 20
REMARK H PARENT
REMARK Flexibility Score: inf
ROOT
ATOM      1  C   UNL     1      42.615  54.631  60.323  1.00  0.00     0.000 C 
ENDROOT
BRANCH   1   2
ATOM      2  C   UNL     1      42.741  56.162  60.408  1.00  0.00     0.000 C 
BRANCH   2   3
ATOM      3  C   UNL     1      43.870  56.718  59.528  1.00  0.00     0.000 C 
BRANCH   3   4
ATOM      4  C   UNL     1      43.376  57.897  58.681  1.00  0.00     0.000 C 
BRANCH   4   5
ATOM      5  C   UNL     1      42.072  57.541  57.952  1.00  0.00     0.000 C 
BRANCH   5   6
ATOM      6  C   UNL     1      41.020  58.664  58.028  1.00  0.00     0.006 C 
BRANCH   6   7
ATOM      7  C   UNL     1      41.525  60.037  57.557  1.00  0.00     0.053 C 
BRANCH   7   8
ATOM      8  C   UNL     1      40.444  60.838  56.899  1.00  0.00     0.041 C 
ATOM      9  O   UNL     1      39.405  60.270  56.470  1.00  0.00    -0.550 OA
ATOM     10  O   UNL     1      40.567  62.218  56.791  1.00  0.00    -0.550 OA
ENDBRANCH   7   8
ENDBRANCH   6   7
ENDBRANCH   5   6
ENDBRANCH   4   5
ENDBRANCH   3   4
ENDBRANCH   2   3
ENDBRANCH   1   2
BRANCH   1  11
ATOM     11  C   UNL     1      41.212  54.113  59.946  1.00  0.00     0.000 C 
BRANCH  11  12
ATOM     12  C   UNL     1      40.211  54.023  61.116  1.00  0.00     0.000 C 
BRANCH  12  13
ATOM     13  C   UNL     1      38.892  54.789  60.908  1.00  0.00     0.000 C 
BRANCH  13  14
ATOM     14  C   UNL     1      39.109  56.212  60.367  1.00  0.00     0.000 C 
BRANCH  14  15
ATOM     15  C   UNL     1      37.920  56.729  59.539  1.00  0.00     0.000 C 
BRANCH  15  16
ATOM     16  C   UNL     1      36.553  56.105  59.884  1.00  0.00     0.006 C 
BRANCH  16  17
ATOM     17  C   UNL     1      35.844  55.442  58.687  1.00  0.00     0.053 C 
BRANCH  17  18
ATOM     18  C   UNL     1      35.736  53.954  58.831  1.00  0.00     0.041 C 
ATOM     19  O   UNL     1      36.575  53.320  59.524  1.00  0.00    -0.550 OA
ATOM     20  O   UNL     1      34.682  53.271  58.236  1.00  0.00    -0.550 OA
ENDBRANCH  17  18
ENDBRANCH  16  17
ENDBRANCH  15  16
ENDBRANCH  14  15
ENDBRANCH  13  14
ENDBRANCH  12  13
ENDBRANCH  11  12
ENDBRANCH   1  11
TORSDOF 15
ENDMDL
MODEL 2
REMARK VINA RESULT:    -5.561      1.731      7.563
REMARK INTER + INTRA:         -11.672
REMARK INTER:                 -10.648
REMARK INTRA:                  -1.024
REMARK UNBOUND:                -1.235
REMARK SMILES O=C([O-])CCCCCCCCCCCCCCC(=O)[O-]
REMARK SMILES IDX 10 1 9 2 8 3 7 4 6 5 5 6 4 7 2 8 1 9 3 10 11 11 12 12 13 13
REMARK SMILES IDX 14 14 15 15 16 16 17 17 18 18 19 19 20 20
REMARK H PARENT
REMARK Flexibility Score: inf
ROOT
ATOM      1  C   UNL     1      39.557  55.574  60.614  1.00  0.00     0.000 C 
ENDROOT
BRANCH   1   2
ATOM      2  C   UNL     1      38.021  55.487  60.656  1.00  0.00     0.000 C 
BRANCH   2   3
ATOM      3  C   UNL     1      37.341  56.446  59.669  1.00  0.00     0.000 C 
BRANCH   3   4
ATOM      4  C   UNL     1      36.162  55.763  58.963  1.00  0.00     0.000 C 
BRANCH   4   5
ATOM      5  C   UNL     1      36.184  54.246  59.202  1.00  0.00     0.000 C 
BRANCH   5   6
ATOM      6  C   UNL     1      35.147  53.493  58.348  1.00  0.00     0.006 C 
BRANCH   6   7
ATOM      7  C   UNL     1      35.528  52.039  58.026  1.00  0.00     0.053 C 
BRANCH   7   8
ATOM      8  C   UNL     1      34.334  51.135  58.012  1.00  0.00     0.041 C 
ATOM      9  O   UNL     1      33.205  51.569  58.363  1.00  0.00    -0.550 OA
ATOM     10  O   UNL     1      34.461  49.821  57.579  1.00  0.00    -0.550 OA
ENDBRANCH   7   8
ENDBRANCH   6   7
ENDBRANCH   5   6
ENDBRANCH   4   5
ENDBRANCH   3   4
ENDBRANCH   2   3
ENDBRANCH   1   2
BRANCH   1  11
ATOM     11  C   UNL     1      40.286  54.216  60.657  1.00  0.00     0.000 C 
BRANCH  11  12
ATOM     12  C   UNL     1      41.571  54.135  59.807  1.00  0.00     0.000 C 
BRANCH  12  13
ATOM     13  C   UNL     1      42.788  54.875  60.390  1.00  0.00     0.000 C 
BRANCH  13  14
ATOM     14  C   UNL     1      43.418  55.864  59.394  1.00  0.00     0.000 C 
BRANCH  14  15
ATOM     15  C   UNL     1      44.108  57.054  60.082  1.00  0.00     0.000 C 
BRANCH  15  16
ATOM     16  C   UNL     1      43.472  58.432  59.817  1.00  0.00     0.006 C 
BRANCH  16  17
ATOM     17  C   UNL     1      41.934  58.409  59.728  1.00  0.00     0.053 C 
BRANCH  17  18
ATOM     18  C   UNL     1      41.431  58.715  58.349  1.00  0.00     0.041 C 
ATOM     19  O   UNL     1      42.145  59.367  57.542  1.00  0.00    -0.550 OA
ATOM     20  O   UNL     1      40.191  58.241  57.939  1.00  0.00    -0.550 OA
ENDBRANCH  17  18
ENDBRANCH  16  17
ENDBRANCH  15  16
ENDBRANCH  14  15
ENDBRANCH  13  14
ENDBRANCH  12  13
ENDBRANCH  11  12
ENDBRANCH   1  11
TORSDOF 15
ENDMDL
MODEL 3
REMARK VINA RESULT:    -5.535      1.791      7.619
REMARK INTER + INTRA:         -11.624
REMARK INTER:                 -10.450
REMARK INTRA:                  -1.174
REMARK UNBOUND:                -1.235
REMARK SMILES O=C([O-])CCCCCCCCCCCCCCC(=O)[O-]
REMARK SMILES IDX 10 1 9 2 8 3 7 4 6 5 5 6 4 7 2 8 1 9 3 10 11 11 12 12 13 13
REMARK SMILES IDX 14 14 15 15 16 16 17 17 18 18 19 19 20 20
REMARK H PARENT
REMARK Flexibility Score: inf
ROOT
ATOM      1  C   UNL     1      38.973  54.376  60.834  1.00  0.00     0.000 C 
ENDROOT
BRANCH   1   2
ATOM      2  C   UNL     1      38.933  55.885  60.534  1.00  0.00     0.000 C 
BRANCH   2   3
ATOM      3  C   UNL     1      37.530  56.381  60.157  1.00  0.00     0.000 C 
BRANCH   3   4
ATOM      4  C   UNL     1      36.582  55.203  59.898  1.00  0.00     0.000 C 
BRANCH   4   5
ATOM      5  C   UNL     1      35.873  55.356  58.544  1.00  0.00     0.000 C 
BRANCH   5   6
ATOM      6  C   UNL     1      35.115  54.084  58.120  1.00  0.00     0.006 C 
BRANCH   6   7
ATOM      7  C   UNL     1      35.806  52.772  58.521  1.00  0.00     0.053 C 
BRANCH   7   8
ATOM      8  C   UNL     1      35.028  51.569  58.082  1.00  0.00     0.041 C 
ATOM      9  O   UNL     1      35.615  50.603  57.528  1.00  0.00    -0.550 OA
ATOM     10  O   UNL     1      33.661  51.500  58.317  1.00  0.00    -0.550 OA
ENDBRANCH   7   8
ENDBRANCH   6   7
ENDBRANCH   5   6
ENDBRANCH   4   5
ENDBRANCH   3   4
ENDBRANCH   2   3
ENDBRANCH   1   2
BRANCH   1  11
ATOM     11  C   UNL     1      40.385  53.754  60.853  1.00  0.00     0.000 C 
BRANCH  11  12
ATOM     12  C   UNL     1      41.420  54.452  59.948  1.00  0.00     0.000 C 
BRANCH  12  13
ATOM     13  C   UNL     1      42.715  54.892  60.656  1.00  0.00     0.000 C 
BRANCH  13  14
ATOM     14  C   UNL     1      43.369  56.117  59.995  1.00  0.00     0.000 C 
BRANCH  14  15
ATOM     15  C   UNL     1      42.563  56.659  58.802  1.00  0.00     0.000 C 
BRANCH  15  16
ATOM     16  C   UNL     1      41.720  57.917  59.089  1.00  0.00     0.006 C 
BRANCH  16  17
ATOM     17  C   UNL     1      41.887  59.038  58.045  1.00  0.00     0.053 C 
BRANCH  17  18
ATOM     18  C   UNL     1      42.953  60.022  58.421  1.00  0.00     0.041 C 
ATOM     19  O   UNL     1      42.658  61.063  59.066  1.00  0.00    -0.550 OA
ATOM     20  O   UNL     1      44.280  59.769  58.097  1.00  0.00    -0.550 OA
ENDBRANCH  17  18
ENDBRANCH  16  17
ENDBRANCH  15  16
ENDBRANCH  14  15
ENDBRANCH  13  14
ENDBRANCH  12  13
ENDBRANCH  11  12
ENDBRANCH   1  11
TORSDOF 15
ENDMDL
MODEL 4
REMARK VINA RESULT:    -5.529      1.410      7.602
REMARK INTER + INTRA:         -11.612
REMARK INTER:                 -10.556
REMARK INTRA:                  -1.057
REMARK UNBOUND:                -1.235
REMARK SMILES O=C([O-])CCCCCCCCCCCCCCC(=O)[O-]
REMARK SMILES IDX 10 1 9 2 8 3 7 4 6 5 5 6 4 7 2 8 1 9 3 10 11 11 12 12 13 13
REMARK SMILES IDX 14 14 15 15 16 16 17 17 18 18 19 19 20 20
REMARK H PARENT
REMARK Flexibility Score: inf
ROOT
ATOM      1  C   UNL     1      39.841  54.519  60.430  1.00  0.00     0.000 C 
ENDROOT
BRANCH   1   2
ATOM      2  C   UNL     1      39.340  55.967  60.573  1.00  0.00     0.000 C 
BRANCH   2   3
ATOM      3  C   UNL     1      37.853  56.121  60.221  1.00  0.00     0.000 C 
BRANCH   3   4
ATOM      4  C   UNL     1      37.131  54.769  60.287  1.00  0.00     0.000 C 
BRANCH   4   5
ATOM      5  C   UNL     1      36.175  54.599  59.096  1.00  0.00     0.000 C 
BRANCH   5   6
ATOM      6  C   UNL     1      35.886  53.122  58.769  1.00  0.00     0.006 C 
BRANCH   6   7
ATOM      7  C   UNL     1      34.553  52.884  58.041  1.00  0.00     0.053 C 
BRANCH   7   8
ATOM      8  C   UNL     1      34.154  51.441  58.056  1.00  0.00     0.041 C 
ATOM      9  O   UNL     1      34.991  50.548  57.759  1.00  0.00    -0.550 OA
ATOM     10  O   UNL     1      32.867  51.078  58.432  1.00  0.00    -0.550 OA
ENDBRANCH   7   8
ENDBRANCH   6   7
ENDBRANCH   5   6
ENDBRANCH   4   5
ENDBRANCH   3   4
ENDBRANCH   2   3
ENDBRANCH   1   2
BRANCH   1  11
ATOM     11  C   UNL     1      41.361  54.336  60.615  1.00  0.00     0.000 C 
BRANCH  11  12
ATOM     12  C   UNL     1      42.230  54.853  59.450  1.00  0.00     0.000 C 
BRANCH  12  13
ATOM     13  C   UNL     1      43.292  55.896  59.840  1.00  0.00     0.000 C 
BRANCH  13  14
ATOM     14  C   UNL     1      43.535  56.940  58.737  1.00  0.00     0.000 C 
BRANCH  14  15
ATOM     15  C   UNL     1      42.256  57.308  57.966  1.00  0.00     0.000 C 
BRANCH  15  16
ATOM     16  C   UNL     1      41.458  58.498  58.535  1.00  0.00     0.006 C 
BRANCH  16  17
ATOM     17  C   UNL     1      41.925  59.873  58.020  1.00  0.00     0.053 C 
BRANCH  17  18
ATOM     18  C   UNL     1      40.928  60.514  57.101  1.00  0.00     0.041 C 
ATOM     19  O   UNL     1      39.763  60.047  57.001  1.00  0.00    -0.550 OA
ATOM     20  O   UNL     1      41.273  61.655  56.387  1.00  0.00    -0.550 OA
ENDBRANCH  17  18
ENDBRANCH  16  17
ENDBRANCH  15  16
ENDBRANCH  14  15
ENDBRANCH  13  14
ENDBRANCH  12  13
ENDBRANCH  11  12
ENDBRANCH   1  11
TORSDOF 15
ENDMDL
MODEL 5
REMARK VINA RESULT:    -5.498      1.213      1.990
REMARK INTER + INTRA:         -11.553
REMARK INTER:                 -10.432
REMARK INTRA:                  -1.121
REMARK UNBOUND:                -1.235
REMARK SMILES O=C([O-])CCCCCCCCCCCCCCC(=O)[O-]
REMARK SMILES IDX 10 1 9 2 8 3 7 4 6 5 5 6 4 7 2 8 1 9 3 10 11 11 12 12 13 13
REMARK SMILES IDX 14 14 15 15 16 16 17 17 18 18 19 19 20 20
REMARK H PARENT
REMARK Flexibility Score: inf
ROOT
ATOM      1  C   UNL     1      40.957  54.101  60.239  1.00  0.00     0.000 C 
ENDROOT
BRANCH   1   2
ATOM      2  C   UNL     1      42.084  55.132  60.423  1.00  0.00     0.000 C 
BRANCH   2   3
ATOM      3  C   UNL     1      42.846  55.421  59.121  1.00  0.00     0.000 C 
BRANCH   3   4
ATOM      4  C   UNL     1      43.188  56.912  59.004  1.00  0.00     0.000 C 
BRANCH   4   5
ATOM      5  C   UNL     1      41.977  57.784  59.367  1.00  0.00     0.000 C 
BRANCH   5   6
ATOM      6  C   UNL     1      41.304  58.413  58.132  1.00  0.00     0.006 C 
BRANCH   6   7
ATOM      7  C   UNL     1      41.719  59.867  57.858  1.00  0.00     0.053 C 
BRANCH   7   8
ATOM      8  C   UNL     1      40.621  60.653  57.211  1.00  0.00     0.041 C 
ATOM      9  O   UNL     1      39.586  60.070  56.792  1.00  0.00    -0.550 OA
ATOM     10  O   UNL     1      40.723  62.034  57.101  1.00  0.00    -0.550 OA
ENDBRANCH   7   8
ENDBRANCH   6   7
ENDBRANCH   5   6
ENDBRANCH   4   5
ENDBRANCH   3   4
ENDBRANCH   2   3
ENDBRANCH   1   2
BRANCH   1  11
ATOM     11  C   UNL     1      39.578  54.543  60.772  1.00  0.00     0.000 C 
BRANCH  11  12
ATOM     12  C   UNL     1      39.271  56.047  60.625  1.00  0.00     0.000 C 
BRANCH  12  13
ATOM     13  C   UNL     1      38.052  56.383  59.747  1.00  0.00     0.000 C 
BRANCH  13  14
ATOM     14  C   UNL     1      36.960  55.301  59.806  1.00  0.00     0.000 C 
BRANCH  14  15
ATOM     15  C   UNL     1      35.956  55.396  58.644  1.00  0.00     0.000 C 
BRANCH  15  16
ATOM     16  C   UNL     1      35.146  54.115  58.363  1.00  0.00     0.006 C 
BRANCH  16  17
ATOM     17  C   UNL     1      35.903  52.810  58.674  1.00  0.00     0.053 C 
BRANCH  17  18
ATOM     18  C   UNL     1      35.241  51.603  58.079  1.00  0.00     0.041 C 
ATOM     19  O   UNL     1      34.025  51.369  58.304  1.00  0.00    -0.550 OA
ATOM     20  O   UNL     1      35.958  50.759  57.239  1.00  0.00    -0.550 OA
ENDBRANCH  17  18
ENDBRANCH  16  17
ENDBRANCH  15  16
ENDBRANCH  14  15
ENDBRANCH  13  14
ENDBRANCH  12  13
ENDBRANCH  11  12
ENDBRANCH   1  11
TORSDOF 15
ENDMDL
MODEL 6
REMARK VINA RESULT:    -5.473      2.777      7.148
REMARK INTER + INTRA:         -11.507
REMARK INTER:                 -10.161
REMARK INTRA:                  -1.347
REMARK UNBOUND:                -1.235
REMARK SMILES O=C([O-])CCCCCCCCCCCCCCC(=O)[O-]
REMARK SMILES IDX 10 1 9 2 8 3 7 4 6 5 5 6 4 7 2 8 1 9 3 10 11 11 12 12 13 13
REMARK SMILES IDX 14 14 15 15 16 16 17 17 18 18 19 19 20 20
REMARK H PARENT
REMARK Flexibility Score: inf
ROOT
ATOM      1  C   UNL     1      40.121  57.389  60.114  1.00  0.00     0.000 C 
ENDROOT
BRANCH   1   2
ATOM      2  C   UNL     1      38.911  56.728  60.799  1.00  0.00     0.000 C 
BRANCH   2   3
ATOM      3  C   UNL     1      38.132  55.794  59.862  1.00  0.00     0.000 C 
BRANCH   3   4
ATOM      4  C   UNL     1      36.649  56.181  59.810  1.00  0.00     0.000 C 
BRANCH   4   5
ATOM      5  C   UNL     1      35.927  55.439  58.675  1.00  0.00     0.000 C 
BRANCH   5   6
ATOM      6  C   UNL     1      35.815  53.924  58.928  1.00  0.00     0.006 C 
BRANCH   6   7
ATOM      7  C   UNL     1      34.660  53.240  58.180  1.00  0.00     0.053 C 
BRANCH   7   8
ATOM      8  C   UNL     1      34.946  51.797  57.902  1.00  0.00     0.041 C 
ATOM      9  O   UNL     1      36.092  51.439  57.523  1.00  0.00    -0.550 OA
ATOM     10  O   UNL     1      33.957  50.841  58.095  1.00  0.00    -0.550 OA
ENDBRANCH   7   8
ENDBRANCH   6   7
ENDBRANCH   5   6
ENDBRANCH   4   5
ENDBRANCH   3   4
ENDBRANCH   2   3
ENDBRANCH   1   2
BRANCH   1  11
ATOM     11  C   UNL     1      39.861  57.888  58.678  1.00  0.00     0.000 C 
BRANCH  11  12
ATOM     12  C   UNL     1      41.092  58.472  57.955  1.00  0.00     0.000 C 
BRANCH  12  13
ATOM     13  C   UNL     1      42.390  57.660  58.115  1.00  0.00     0.000 C 
BRANCH  13  14
ATOM     14  C   UNL     1      43.346  58.264  59.157  1.00  0.00     0.000 C 
BRANCH  14  15
ATOM     15  C   UNL     1      43.859  57.230  60.173  1.00  0.00     0.000 C 
BRANCH  15  16
ATOM     16  C   UNL     1      43.628  55.754  59.792  1.00  0.00     0.006 C 
BRANCH  16  17
ATOM     17  C   UNL     1      42.792  54.963  60.816  1.00  0.00     0.053 C 
BRANCH  17  18
ATOM     18  C   UNL     1      41.668  54.201  60.179  1.00  0.00     0.041 C 
ATOM     19  O   UNL     1      40.750  53.712  60.889  1.00  0.00    -0.550 OA
ATOM     20  O   UNL     1      41.611  54.069  58.797  1.00  0.00    -0.550 OA
ENDBRANCH  17  18
ENDBRANCH  16  17
ENDBRANCH  15  16
ENDBRANCH  14  15
ENDBRANCH  13  14
ENDBRANCH  12  13
ENDBRANCH  11  12
ENDBRANCH   1  11
TORSDOF 15
ENDMDL
MODEL 7
REMARK VINA RESULT:    -5.426      2.914      3.932
REMARK INTER + INTRA:         -11.419
REMARK INTER:                 -10.612
REMARK INTRA:                  -0.807
REMARK UNBOUND:                -1.235
REMARK SMILES O=C([O-])CCCCCCCCCCCCCCC(=O)[O-]
REMARK SMILES IDX 10 1 9 2 8 3 7 4 6 5 5 6 4 7 2 8 1 9 3 10 11 11 12 12 13 13
REMARK SMILES IDX 14 14 15 15 16 16 17 17 18 18 19 19 20 20
REMARK H PARENT
REMARK Flexibility Score: inf
ROOT
ATOM      1  C   UNL     1      39.680  54.771  60.620  1.00  0.00     0.000 C 
ENDROOT
BRANCH   1   2
ATOM      2  C   UNL     1      41.065  54.104  60.529  1.00  0.00     0.000 C 
BRANCH   2   3
ATOM      3  C   UNL     1      42.062  54.914  59.687  1.00  0.00     0.000 C 
BRANCH   3   4
ATOM      4  C   UNL     1      43.307  55.275  60.508  1.00  0.00     0.000 C 
BRANCH   4   5
ATOM      5  C   UNL     1      43.724  56.732  60.260  1.00  0.00     0.000 C 
BRANCH   5   6
ATOM      6  C   UNL     1      43.899  57.057  58.764  1.00  0.00     0.006 C 
BRANCH   6   7
ATOM      7  C   UNL     1      44.309  58.509  58.476  1.00  0.00     0.053 C 
BRANCH   7   8
ATOM      8  C   UNL     1      45.796  58.666  58.385  1.00  0.00     0.041 C 
ATOM      9  O   UNL     1      46.542  58.158  59.263  1.00  0.00    -0.550 OA
ATOM     10  O   UNL     1      46.361  59.344  57.312  1.00  0.00    -0.550 OA
ENDBRANCH   7   8
ENDBRANCH   6   7
ENDBRANCH   5   6
ENDBRANCH   4   5
ENDBRANCH   3   4
ENDBRANCH   2   3
ENDBRANCH   1   2
BRANCH   1  11
ATOM     11  C   UNL     1      39.680  56.299  60.414  1.00  0.00     0.000 C 
BRANCH  11  12
ATOM     12  C   UNL     1      38.486  56.852  59.609  1.00  0.00     0.000 C 
BRANCH  12  13
ATOM     13  C   UNL     1      37.099  56.421  60.118  1.00  0.00     0.000 C 
BRANCH  13  14
ATOM     14  C   UNL     1      36.263  55.710  59.041  1.00  0.00     0.000 C 
BRANCH  14  15
ATOM     15  C   UNL     1      35.931  54.253  59.402  1.00  0.00     0.000 C 
BRANCH  15  16
ATOM     16  C   UNL     1      35.112  53.480  58.349  1.00  0.00     0.006 C 
BRANCH  16  17
ATOM     17  C   UNL     1      35.758  52.157  57.896  1.00  0.00     0.053 C 
BRANCH  17  18
ATOM     18  C   UNL     1      34.775  51.026  57.834  1.00  0.00     0.041 C 
ATOM     19  O   UNL     1      35.119  49.910  57.361  1.00  0.00    -0.550 OA
ATOM     20  O   UNL     1      33.491  51.190  58.339  1.00  0.00    -0.550 OA
ENDBRANCH  17  18
ENDBRANCH  16  17
ENDBRANCH  15  16
ENDBRANCH  14  15
ENDBRANCH  13  14
ENDBRANCH  12  13
ENDBRANCH  11  12
ENDBRANCH   1  11
TORSDOF 15
ENDMDL
MODEL 8
REMARK VINA RESULT:    -5.321      2.809      4.265
REMARK INTER + INTRA:         -11.221
REMARK INTER:                  -9.928
REMARK INTRA:                  -1.293
REMARK UNBOUND:                -1.235
REMARK SMILES O=C([O-])CCCCCCCCCCCCCCC(=O)[O-]
REMARK SMILES IDX 10 1 9 2 8 3 7 4 6 5 5 6 4 7 2 8 1 9 3 10 11 11 12 12 13 13
REMARK SMILES IDX 14 14 15 15 16 16 17 17 18 18 19 19 20 20
REMARK H PARENT
REMARK Flexibility Score: inf
ROOT
ATOM      1  C   UNL     1      41.234  57.782  57.992  1.00  0.00     0.000 C 
ENDROOT
BRANCH   1   2
ATOM      2  C   UNL     1      42.079  59.068  57.996  1.00  0.00     0.000 C 
BRANCH   2   3
ATOM      3  C   UNL     1      42.829  59.285  59.319  1.00  0.00     0.000 C 
BRANCH   3   4
ATOM      4  C   UNL     1      44.094  58.420  59.381  1.00  0.00     0.000 C 
BRANCH   4   5
ATOM      5  C   UNL     1      43.935  57.285  60.404  1.00  0.00     0.000 C 
BRANCH   5   6
ATOM      6  C   UNL     1      43.514  55.953  59.757  1.00  0.00     0.006 C 
BRANCH   6   7
ATOM      7  C   UNL     1      42.945  54.922  60.744  1.00  0.00     0.053 C 
BRANCH   7   8
ATOM      8  C   UNL     1      41.698  54.274  60.225  1.00  0.00     0.041 C 
ATOM      9  O   UNL     1      41.571  54.039  58.994  1.00  0.00    -0.550 OA
ATOM     10  O   UNL     1      40.690  53.899  61.104  1.00  0.00    -0.550 OA
ENDBRANCH   7   8
ENDBRANCH   6   7
ENDBRANCH   5   6
ENDBRANCH   4   5
ENDBRANCH   3   4
ENDBRANCH   2   3
ENDBRANCH   1   2
BRANCH   1  11
ATOM     11  C   UNL     1      39.931  57.857  58.813  1.00  0.00     0.000 C 
BRANCH  11  12
ATOM     12  C   UNL     1      40.043  57.354  60.267  1.00  0.00     0.000 C 
BRANCH  12  13
ATOM     13  C   UNL     1      38.730  56.837  60.882  1.00  0.00     0.000 C 
BRANCH  13  14
ATOM     14  C   UNL     1      37.753  56.289  59.828  1.00  0.00     0.000 C 
BRANCH  14  15
ATOM     15  C   UNL     1      37.518  54.774  59.956  1.00  0.00     0.000 C 
BRANCH  15  16
ATOM     16  C   UNL     1      36.212  54.251  59.327  1.00  0.00     0.006 C 
BRANCH  16  17
ATOM     17  C   UNL     1      36.125  52.715  59.241  1.00  0.00     0.053 C 
BRANCH  17  18
ATOM     18  C   UNL     1      35.310  52.247  58.072  1.00  0.00     0.041 C 
ATOM     19  O   UNL     1      35.785  51.409  57.261  1.00  0.00    -0.550 OA
ATOM     20  O   UNL     1      34.008  52.704  57.904  1.00  0.00    -0.550 OA
ENDBRANCH  17  18
ENDBRANCH  16  17
ENDBRANCH  15  16
ENDBRANCH  14  15
ENDBRANCH  13  14
ENDBRANCH  12  13
ENDBRANCH  11  12
ENDBRANCH   1  11
TORSDOF 15
ENDMDL
MODEL 9
REMARK VINA RESULT:    -5.314      1.000      6.765
REMARK INTER + INTRA:         -11.209
REMARK INTER:                 -10.157
REMARK INTRA:                  -1.053
REMARK UNBOUND:                -1.235
REMARK SMILES O=C([O-])CCCCCCCCCCCCCCC(=O)[O-]
REMARK SMILES IDX 10 1 9 2 8 3 7 4 6 5 5 6 4 7 2 8 1 9 3 10 11 11 12 12 13 13
REMARK SMILES IDX 14 14 15 15 16 16 17 17 18 18 19 19 20 20
REMARK H PARENT
REMARK Flexibility Score: inf
ROOT
ATOM      1  C   UNL     1      42.157  54.489  60.578  1.00  0.00     0.000 C 
ENDROOT
BRANCH   1   2
ATOM      2  C   UNL     1      40.741  54.341  59.994  1.00  0.00     0.000 C 
BRANCH   2   3
ATOM      3  C   UNL     1      39.707  55.227  60.704  1.00  0.00     0.000 C 
BRANCH   3   4
ATOM      4  C   UNL     1      39.723  56.652  60.136  1.00  0.00     0.000 C 
BRANCH   4   5
ATOM      5  C   UNL     1      38.370  57.003  59.498  1.00  0.00     0.000 C 
BRANCH   5   6
ATOM      6  C   UNL     1      37.199  56.210  60.107  1.00  0.00     0.006 C 
BRANCH   6   7
ATOM      7  C   UNL     1      36.213  55.643  59.073  1.00  0.00     0.053 C 
BRANCH   7   8
ATOM      8  C   UNL     1      36.091  54.154  59.169  1.00  0.00     0.041 C 
ATOM      9  O   UNL     1      36.844  53.505  59.942  1.00  0.00    -0.550 OA
ATOM     10  O   UNL     1      35.123  53.485  58.430  1.00  0.00    -0.550 OA
ENDBRANCH   7   8
ENDBRANCH   6   7
ENDBRANCH   5   6
ENDBRANCH   4   5
ENDBRANCH   3   4
ENDBRANCH   2   3
ENDBRANCH   1   2
BRANCH   1  11
ATOM     11  C   UNL     1      43.076  55.464  59.815  1.00  0.00     0.000 C 
BRANCH  11  12
ATOM     12  C   UNL     1      43.374  56.790  60.544  1.00  0.00     0.000 C 
BRANCH  12  13
ATOM     13  C   UNL     1      44.612  57.551  60.037  1.00  0.00     0.000 C 
BRANCH  13  14
ATOM     14  C   UNL     1      44.521  57.908  58.543  1.00  0.00     0.000 C 
BRANCH  14  15
ATOM     15  C   UNL     1      44.061  59.355  58.297  1.00  0.00     0.000 C 
BRANCH  15  16
ATOM     16  C   UNL     1      42.535  59.565  58.241  1.00  0.00     0.006 C 
BRANCH  16  17
ATOM     17  C   UNL     1      42.110  61.009  57.915  1.00  0.00     0.053 C 
BRANCH  17  18
ATOM     18  C   UNL     1      40.970  61.069  56.942  1.00  0.00     0.041 C 
ATOM     19  O   UNL     1      39.990  60.288  57.062  1.00  0.00    -0.550 OA
ATOM     20  O   UNL     1      40.970  62.020  55.928  1.00  0.00    -0.550 OA
ENDBRANCH  17  18
ENDBRANCH  16  17
ENDBRANCH  15  16
ENDBRANCH  14  15
ENDBRANCH  13  14
ENDBRANCH  12  13
ENDBRANCH  11  12
ENDBRANCH   1  11
TORSDOF 15
ENDMDL
