MODEL 1
REMARK VINA RESULT:    -5.670      0.000      0.000
REMARK INTER + INTRA:          -8.767
REMARK INTER:                  -7.824
REMARK INTRA:                  -0.943
REMARK UNBOUND:                -0.943
REMARK SMILES CCCCc1cccc(O)c1CCCC
REMARK SMILES IDX 5 1 11 2 9 3 8 4 7 5 6 6 4 7 3 8 2 9 1 10 12 11 13 12 14 13
REMARK SMILES IDX 15 14 10 15
REMARK H PARENT 10 16
REMARK Flexibility Score: inf
ROOT
ATOM      1  C   UNL     1      20.102  28.451 -14.251  1.00  0.00    -0.041 A 
ATOM      2  C   UNL     1      21.209  28.815 -13.426  1.00  0.00    -0.003 A 
ATOM      3  C   UNL     1      22.526  28.556 -13.899  1.00  0.00     0.119 A 
ATOM      4  C   UNL     1      22.720  27.963 -15.149  1.00  0.00     0.046 A 
ATOM      5  C   UNL     1      21.635  27.605 -15.940  1.00  0.00     0.004 A 
ATOM      6  C   UNL     1      20.339  27.839 -15.494  1.00  0.00     0.004 A 
ENDROOT
BRANCH   1   7
ATOM      7  C   UNL     1      18.658  28.621 -13.827  1.00  0.00     0.036 C 
BRANCH   7   8
ATOM      8  C   UNL     1      17.747  27.665 -14.606  1.00  0.00     0.004 C 
BRANCH   8   9
ATOM      9  C   UNL     1      17.253  26.524 -13.711  1.00  0.00    -0.003 C 
ATOM     10  C   UNL     1      17.474  26.845 -12.234  1.00  0.00     0.004 C 
ENDBRANCH   8   9
ENDBRANCH   7   8
ENDBRANCH   1   7
BRANCH   2  11
ATOM     11  C   UNL     1      21.011  29.486 -12.074  1.00  0.00     0.040 C 
BRANCH  11  12
ATOM     12  C   UNL     1      21.147  28.496 -10.903  1.00  0.00     0.005 C 
BRANCH  12  13
ATOM     13  C   UNL     1      19.944  28.539  -9.953  1.00  0.00    -0.003 C 
ATOM     14  C   UNL     1      20.245  27.804  -8.651  1.00  0.00     0.004 C 
ENDBRANCH  12  13
ENDBRANCH  11  12
ENDBRANCH   2  11
BRANCH   3  15
ATOM     15  O   UNL     1      23.672  28.868 -13.158  1.00  0.00    -0.508 OA
ATOM     16  H   UNL     1      23.749  28.758 -12.158  1.00  0.00     0.293 HD
ENDBRANCH   3  15
TORSDOF 7
ENDMDL
MODEL 2
REMARK VINA RESULT:    -5.622      1.557      3.718
REMARK INTER + INTRA:          -8.701
REMARK INTER:                  -7.631
REMARK INTRA:                  -1.070
REMARK UNBOUND:                -0.943
REMARK SMILES CCCCc1cccc(O)c1CCCC
REMARK SMILES IDX 5 1 11 2 9 3 8 4 7 5 6 6 4 7 3 8 2 9 1 10 12 11 13 12 14 13
REMARK SMILES IDX 15 14 10 15
REMARK H PARENT 10 16
REMARK Flexibility Score: inf
ROOT
ATOM      1  C   UNL     1      20.726  28.806 -13.661  1.00  0.00    -0.041 A 
ATOM      2  C   UNL     1      20.090  28.369 -14.863  1.00  0.00    -0.003 A 
ATOM      3  C   UNL     1      20.893  27.797 -15.889  1.00  0.00     0.119 A 
ATOM      4  C   UNL     1      22.273  27.665 -15.712  1.00  0.00     0.046 A 
ATOM      5  C   UNL     1      22.882  28.101 -14.541  1.00  0.00     0.004 A 
ATOM      6  C   UNL     1      22.120  28.674 -13.529  1.00  0.00     0.004 A 
ENDROOT
BRANCH   1   7
ATOM      7  C   UNL     1      19.985  29.486 -12.528  1.00  0.00     0.036 C 
BRANCH   7   8
ATOM      8  C   UNL     1      20.686  29.229 -11.189  1.00  0.00     0.004 C 
BRANCH   8   9
ATOM      9  C   UNL     1      19.677  28.830 -10.107  1.00  0.00    -0.003 C 
ATOM     10  C   UNL     1      20.318  27.919  -9.063  1.00  0.00     0.004 C 
ENDBRANCH   8   9
ENDBRANCH   7   8
ENDBRANCH   1   7
BRANCH   2  11
ATOM     11  C   UNL     1      18.585  28.484 -15.056  1.00  0.00     0.040 C 
BRANCH  11  12
ATOM     12  C   UNL     1      17.843  27.196 -14.653  1.00  0.00     0.005 C 
BRANCH  12  13
ATOM     13  C   UNL     1      17.038  27.362 -13.358  1.00  0.00    -0.003 C 
ATOM     14  C   UNL     1      17.690  26.606 -12.204  1.00  0.00     0.004 C 
ENDBRANCH  12  13
ENDBRANCH  11  12
ENDBRANCH   2  11
BRANCH   3  15
ATOM     15  O   UNL     1      20.363  27.349 -17.104  1.00  0.00    -0.508 OA
ATOM     16  H   UNL     1      19.730  26.568 -17.194  1.00  0.00     0.293 HD
ENDBRANCH   3  15
TORSDOF 7
ENDMDL
MODEL 3
REMARK VINA RESULT:    -5.580      1.553      4.266
REMARK INTER + INTRA:          -8.643
REMARK INTER:                  -7.636
REMARK INTRA:                  -1.006
REMARK UNBOUND:                -0.943
REMARK SMILES CCCCc1cccc(O)c1CCCC
REMARK SMILES IDX 5 1 11 2 9 3 8 4 7 5 6 6 4 7 3 8 2 9 1 10 12 11 13 12 14 13
REMARK SMILES IDX 15 14 10 15
REMARK H PARENT 10 16
REMARK Flexibility Score: inf
ROOT
ATOM      1  C   UNL     1      19.726  28.592 -13.917  1.00  0.00    -0.041 A 
ATOM      2  C   UNL     1      20.877  28.249 -14.691  1.00  0.00    -0.003 A 
ATOM      3  C   UNL     1      22.166  28.470 -14.129  1.00  0.00     0.119 A 
ATOM      4  C   UNL     1      22.291  29.006 -12.845  1.00  0.00     0.046 A 
ATOM      5  C   UNL     1      21.164  29.343 -12.104  1.00  0.00     0.004 A 
ATOM      6  C   UNL     1      19.895  29.147 -12.636  1.00  0.00     0.004 A 
ENDROOT
BRANCH   1   7
ATOM      7  C   UNL     1      18.308  28.460 -14.433  1.00  0.00     0.036 C 
BRANCH   7   8
ATOM      8  C   UNL     1      17.404  27.811 -13.378  1.00  0.00     0.004 C 
BRANCH   8   9
ATOM      9  C   UNL     1      17.261  26.306 -13.626  1.00  0.00    -0.003 C 
ATOM     10  C   UNL     1      17.491  25.965 -15.096  1.00  0.00     0.004 C 
ENDBRANCH   8   9
ENDBRANCH   7   8
ENDBRANCH   1   7
BRANCH   2  11
ATOM     11  C   UNL     1      20.752  27.641 -16.080  1.00  0.00     0.040 C 
BRANCH  11  12
ATOM     12  C   UNL     1      20.625  28.711 -17.179  1.00  0.00     0.005 C 
BRANCH  12  13
ATOM     13  C   UNL     1      21.896  28.837 -18.028  1.00  0.00    -0.003 C 
ATOM     14  C   UNL     1      22.652  30.120 -17.701  1.00  0.00     0.004 C 
ENDBRANCH  12  13
ENDBRANCH  11  12
ENDBRANCH   2  11
BRANCH   3  15
ATOM     15  O   UNL     1      23.350  28.175 -14.813  1.00  0.00    -0.508 OA
ATOM     16  H   UNL     1      23.478  28.299 -15.807  1.00  0.00     0.293 HD
ENDBRANCH   3  15
TORSDOF 7
ENDMDL
MODEL 4
REMARK VINA RESULT:    -5.439      2.389      5.614
REMARK INTER + INTRA:          -8.449
REMARK INTER:                  -7.550
REMARK INTRA:                  -0.899
REMARK UNBOUND:                -0.943
REMARK SMILES CCCCc1cccc(O)c1CCCC
REMARK SMILES IDX 5 1 11 2 9 3 8 4 7 5 6 6 4 7 3 8 2 9 1 10 12 11 13 12 14 13
REMARK SMILES IDX 15 14 10 15
REMARK H PARENT 10 16
REMARK Flexibility Score: inf
ROOT
ATOM      1  C   UNL     1      21.181  28.721 -13.751  1.00  0.00    -0.041 A 
ATOM      2  C   UNL     1      21.481  28.376 -15.104  1.00  0.00    -0.003 A 
ATOM      3  C   UNL     1      20.439  27.857 -15.922  1.00  0.00     0.119 A 
ATOM      4  C   UNL     1      19.152  27.697 -15.404  1.00  0.00     0.046 A 
ATOM      5  C   UNL     1      18.872  28.028 -14.083  1.00  0.00     0.004 A 
ATOM      6  C   UNL     1      19.877  28.527 -13.261  1.00  0.00     0.004 A 
ENDROOT
BRANCH   1   7
ATOM      7  C   UNL     1      22.221  29.223 -12.771  1.00  0.00     0.036 C 
BRANCH   7   8
ATOM      8  C   UNL     1      21.666  30.385 -11.938  1.00  0.00     0.004 C 
BRANCH   8   9
ATOM      9  C   UNL     1      22.585  31.609 -12.021  1.00  0.00    -0.003 C 
ATOM     10  C   UNL     1      23.655  31.425 -13.094  1.00  0.00     0.004 C 
ENDBRANCH   8   9
ENDBRANCH   7   8
ENDBRANCH   1   7
BRANCH   2  11
ATOM     11  C   UNL     1      22.873  28.571 -15.687  1.00  0.00     0.040 C 
BRANCH  11  12
ATOM     12  C   UNL     1      23.053  29.963 -16.320  1.00  0.00     0.005 C 
BRANCH  12  13
ATOM     13  C   UNL     1      23.429  29.889 -17.805  1.00  0.00    -0.003 C 
ATOM     14  C   UNL     1      24.922  29.636 -17.984  1.00  0.00     0.004 C 
ENDBRANCH  12  13
ENDBRANCH  11  12
ENDBRANCH   2  11
BRANCH   3  15
ATOM     15  O   UNL     1      20.639  27.483 -17.255  1.00  0.00    -0.508 OA
ATOM     16  H   UNL     1      20.161  26.718 -17.708  1.00  0.00     0.293 HD
ENDBRANCH   3  15
TORSDOF 7
ENDMDL
MODEL 5
REMARK VINA RESULT:    -5.429      2.446      4.494
REMARK INTER + INTRA:          -8.436
REMARK INTER:                  -7.688
REMARK INTRA:                  -0.747
REMARK UNBOUND:                -0.943
REMARK SMILES CCCCc1cccc(O)c1CCCC
REMARK SMILES IDX 5 1 11 2 9 3 8 4 7 5 6 6 4 7 3 8 2 9 1 10 12 11 13 12 14 13
REMARK SMILES IDX 15 14 10 15
REMARK H PARENT 10 16
REMARK Flexibility Score: inf
ROOT
ATOM      1  C   UNL     1      19.854  28.395 -12.914  1.00  0.00    -0.041 A 
ATOM      2  C   UNL     1      19.069  27.580 -12.043  1.00  0.00    -0.003 A 
ATOM      3  C   UNL     1      17.753  27.220 -12.448  1.00  0.00     0.119 A 
ATOM      4  C   UNL     1      17.252  27.656 -13.677  1.00  0.00     0.046 A 
ATOM      5  C   UNL     1      18.022  28.456 -14.514  1.00  0.00     0.004 A 
ATOM      6  C   UNL     1      19.306  28.830 -14.134  1.00  0.00     0.004 A 
ENDROOT
BRANCH   1   7
ATOM      7  C   UNL     1      21.241  28.891 -12.562  1.00  0.00     0.036 C 
BRANCH   7   8
ATOM      8  C   UNL     1      21.187  30.332 -12.041  1.00  0.00     0.004 C 
BRANCH   8   9
ATOM      9  C   UNL     1      22.584  30.832 -11.657  1.00  0.00    -0.003 C 
ATOM     10  C   UNL     1      23.317  31.405 -12.867  1.00  0.00     0.004 C 
ENDBRANCH   8   9
ENDBRANCH   7   8
ENDBRANCH   1   7
BRANCH   2  11
ATOM     11  C   UNL     1      19.614  27.077 -10.714  1.00  0.00     0.040 C 
BRANCH  11  12
ATOM     12  C   UNL     1      19.762  28.205  -9.677  1.00  0.00     0.005 C 
BRANCH  12  13
ATOM     13  C   UNL     1      20.752  27.853  -8.561  1.00  0.00    -0.003 C 
ATOM     14  C   UNL     1      22.164  28.313  -8.912  1.00  0.00     0.004 C 
ENDBRANCH  12  13
ENDBRANCH  11  12
ENDBRANCH   2  11
BRANCH   3  15
ATOM     15  O   UNL     1      16.907  26.433 -11.660  1.00  0.00    -0.508 OA
ATOM     16  H   UNL     1      16.430  26.764 -10.834  1.00  0.00     0.293 HD
ENDBRANCH   3  15
TORSDOF 7
ENDMDL
MODEL 6
REMARK VINA RESULT:    -5.412      1.481      1.941
REMARK INTER + INTRA:          -8.412
REMARK INTER:                  -7.408
REMARK INTRA:                  -1.003
REMARK UNBOUND:                -0.943
REMARK SMILES CCCCc1cccc(O)c1CCCC
REMARK SMILES IDX 5 1 11 2 9 3 8 4 7 5 6 6 4 7 3 8 2 9 1 10 12 11 13 12 14 13
REMARK SMILES IDX 15 14 10 15
REMARK H PARENT 10 16
REMARK Flexibility Score: inf
ROOT
ATOM      1  C   UNL     1      19.707  28.505 -14.906  1.00  0.00    -0.041 A 
ATOM      2  C   UNL     1      20.891  28.489 -14.108  1.00  0.00    -0.003 A 
ATOM      3  C   UNL     1      22.155  28.510 -14.763  1.00  0.00     0.119 A 
ATOM      4  C   UNL     1      22.223  28.550 -16.158  1.00  0.00     0.046 A 
ATOM      5  C   UNL     1      21.064  28.558 -16.925  1.00  0.00     0.004 A 
ATOM      6  C   UNL     1      19.818  28.527 -16.307  1.00  0.00     0.004 A 
ENDROOT
BRANCH   1   7
ATOM      7  C   UNL     1      18.311  28.424 -14.324  1.00  0.00     0.036 C 
BRANCH   7   8
ATOM      8  C   UNL     1      17.592  27.161 -14.811  1.00  0.00     0.004 C 
BRANCH   8   9
ATOM      9  C   UNL     1      17.184  26.270 -13.633  1.00  0.00    -0.003 C 
ATOM     10  C   UNL     1      17.350  27.003 -12.303  1.00  0.00     0.004 C 
ENDBRANCH   8   9
ENDBRANCH   7   8
ENDBRANCH   1   7
BRANCH   2  11
ATOM     11  C   UNL     1      20.829  28.472 -12.588  1.00  0.00     0.040 C 
BRANCH  11  12
ATOM     12  C   UNL     1      20.794  29.889 -11.986  1.00  0.00     0.005 C 
BRANCH  12  13
ATOM     13  C   UNL     1      22.155  30.328 -11.435  1.00  0.00    -0.003 C 
ATOM     14  C   UNL     1      22.669  31.568 -12.159  1.00  0.00     0.004 C 
ENDBRANCH  12  13
ENDBRANCH  11  12
ENDBRANCH   2  11
BRANCH   3  15
ATOM     15  O   UNL     1      23.368  28.486 -14.067  1.00  0.00    -0.508 OA
ATOM     16  H   UNL     1      24.198  28.010 -14.389  1.00  0.00     0.293 HD
ENDBRANCH   3  15
TORSDOF 7
ENDMDL
MODEL 7
REMARK VINA RESULT:    -5.354      1.653      3.773
REMARK INTER + INTRA:          -8.331
REMARK INTER:                  -7.203
REMARK INTRA:                  -1.128
REMARK UNBOUND:                -0.943
REMARK SMILES CCCCc1cccc(O)c1CCCC
REMARK SMILES IDX 5 1 11 2 9 3 8 4 7 5 6 6 4 7 3 8 2 9 1 10 12 11 13 12 14 13
REMARK SMILES IDX 15 14 10 15
REMARK H PARENT 10 16
REMARK Flexibility Score: inf
ROOT
ATOM      1  C   UNL     1      20.051  28.862 -13.132  1.00  0.00    -0.041 A 
ATOM      2  C   UNL     1      21.151  28.485 -13.960  1.00  0.00    -0.003 A 
ATOM      3  C   UNL     1      20.881  27.932 -15.244  1.00  0.00     0.119 A 
ATOM      4  C   UNL     1      19.562  27.772 -15.676  1.00  0.00     0.046 A 
ATOM      5  C   UNL     1      18.498  28.136 -14.859  1.00  0.00     0.004 A 
ATOM      6  C   UNL     1      18.738  28.667 -13.597  1.00  0.00     0.004 A 
ENDROOT
BRANCH   1   7
ATOM      7  C   UNL     1      20.215  29.402 -11.727  1.00  0.00     0.036 C 
BRANCH   7   8
ATOM      8  C   UNL     1      19.565  28.461 -10.704  1.00  0.00     0.004 C 
BRANCH   8   9
ATOM      9  C   UNL     1      20.486  28.237  -9.500  1.00  0.00    -0.003 C 
ATOM     10  C   UNL     1      21.916  28.673  -9.810  1.00  0.00     0.004 C 
ENDBRANCH   8   9
ENDBRANCH   7   8
ENDBRANCH   1   7
BRANCH   2  11
ATOM     11  C   UNL     1      22.592  28.679 -13.510  1.00  0.00     0.040 C 
BRANCH  11  12
ATOM     12  C   UNL     1      23.089  30.117 -13.741  1.00  0.00     0.005 C 
BRANCH  12  13
ATOM     13  C   UNL     1      23.650  30.758 -12.466  1.00  0.00    -0.003 C 
ATOM     14  C   UNL     1      22.720  31.849 -11.943  1.00  0.00     0.004 C 
ENDBRANCH  12  13
ENDBRANCH  11  12
ENDBRANCH   2  11
BRANCH   3  15
ATOM     15  O   UNL     1      21.891  27.524 -16.121  1.00  0.00    -0.508 OA
ATOM     16  H   UNL     1      21.747  27.321 -17.099  1.00  0.00     0.293 HD
ENDBRANCH   3  15
TORSDOF 7
ENDMDL
MODEL 8
REMARK VINA RESULT:    -5.257      1.927      2.936
REMARK INTER + INTRA:          -8.197
REMARK INTER:                  -7.112
REMARK INTRA:                  -1.085
REMARK UNBOUND:                -0.943
REMARK SMILES CCCCc1cccc(O)c1CCCC
REMARK SMILES IDX 5 1 11 2 9 3 8 4 7 5 6 6 4 7 3 8 2 9 1 10 12 11 13 12 14 13
REMARK SMILES IDX 15 14 10 15
REMARK H PARENT 10 16
REMARK Flexibility Score: inf
ROOT
ATOM      1  C   UNL     1      21.094  28.344 -16.502  1.00  0.00    -0.041 A 
ATOM      2  C   UNL     1      22.369  28.766 -16.015  1.00  0.00    -0.003 A 
ATOM      3  C   UNL     1      23.228  29.487 -16.892  1.00  0.00     0.119 A 
ATOM      4  C   UNL     1      22.820  29.775 -18.197  1.00  0.00     0.046 A 
ATOM      5  C   UNL     1      21.580  29.352 -18.662  1.00  0.00     0.004 A 
ATOM      6  C   UNL     1      20.728  28.637 -17.827  1.00  0.00     0.004 A 
ENDROOT
BRANCH   1   7
ATOM      7  C   UNL     1      20.124  27.519 -15.682  1.00  0.00     0.036 C 
BRANCH   7   8
ATOM      8  C   UNL     1      18.796  28.264 -15.500  1.00  0.00     0.004 C 
BRANCH   8   9
ATOM      9  C   UNL     1      18.566  28.627 -14.029  1.00  0.00    -0.003 C 
ATOM     10  C   UNL     1      17.936  27.465 -13.265  1.00  0.00     0.004 C 
ENDBRANCH   8   9
ENDBRANCH   7   8
ENDBRANCH   1   7
BRANCH   2  11
ATOM     11  C   UNL     1      22.813  28.481 -14.588  1.00  0.00     0.040 C 
BRANCH  11  12
ATOM     12  C   UNL     1      22.446  29.622 -13.622  1.00  0.00     0.005 C 
BRANCH  12  13
ATOM     13  C   UNL     1      21.851  29.109 -12.304  1.00  0.00    -0.003 C 
ATOM     14  C   UNL     1      20.868  30.116 -11.716  1.00  0.00     0.004 C 
ENDBRANCH  12  13
ENDBRANCH  11  12
ENDBRANCH   2  11
BRANCH   3  15
ATOM     15  O   UNL     1      24.498  29.933 -16.510  1.00  0.00    -0.508 OA
ATOM     16  H   UNL     1      24.674  30.539 -15.722  1.00  0.00     0.293 HD
ENDBRANCH   3  15
TORSDOF 7
ENDMDL
MODEL 9
REMARK VINA RESULT:    -5.202      2.045      4.170
REMARK INTER + INTRA:          -8.121
REMARK INTER:                  -7.036
REMARK INTRA:                  -1.085
REMARK UNBOUND:                -0.943
REMARK SMILES CCCCc1cccc(O)c1CCCC
REMARK SMILES IDX 5 1 11 2 9 3 8 4 7 5 6 6 4 7 3 8 2 9 1 10 12 11 13 12 14 13
REMARK SMILES IDX 15 14 10 15
REMARK H PARENT 10 16
REMARK Flexibility Score: inf
ROOT
ATOM      1  C   UNL     1      18.834  28.236 -14.332  1.00  0.00    -0.041 A 
ATOM      2  C   UNL     1      19.425  28.077 -13.042  1.00  0.00    -0.003 A 
ATOM      3  C   UNL     1      18.733  27.306 -12.066  1.00  0.00     0.119 A 
ATOM      4  C   UNL     1      17.504  26.719 -12.377  1.00  0.00     0.046 A 
ATOM      5  C   UNL     1      16.934  26.887 -13.634  1.00  0.00     0.004 A 
ATOM      6  C   UNL     1      17.587  27.644 -14.600  1.00  0.00     0.004 A 
ENDROOT
BRANCH   1   7
ATOM      7  C   UNL     1      19.448  29.083 -15.428  1.00  0.00     0.036 C 
BRANCH   7   8
ATOM      8  C   UNL     1      20.258  28.214 -16.397  1.00  0.00     0.004 C 
BRANCH   8   9
ATOM      9  C   UNL     1      21.718  28.674 -16.460  1.00  0.00    -0.003 C 
ATOM     10  C   UNL     1      22.638  27.691 -15.739  1.00  0.00     0.004 C 
ENDBRANCH   8   9
ENDBRANCH   7   8
ENDBRANCH   1   7
BRANCH   2  11
ATOM     11  C   UNL     1      20.775  28.690 -12.701  1.00  0.00     0.040 C 
BRANCH  11  12
ATOM     12  C   UNL     1      20.638  30.015 -11.928  1.00  0.00     0.005 C 
BRANCH  12  13
ATOM     13  C   UNL     1      21.914  30.864 -11.984  1.00  0.00    -0.003 C 
ATOM     14  C   UNL     1      22.942  30.251 -12.929  1.00  0.00     0.004 C 
ENDBRANCH  12  13
ENDBRANCH  11  12
ENDBRANCH   2  11
BRANCH   3  15
ATOM     15  O   UNL     1      19.226  27.102 -10.773  1.00  0.00    -0.508 OA
ATOM     16  H   UNL     1      18.874  26.404 -10.134  1.00  0.00     0.293 HD
ENDBRANCH   3  15
TORSDOF 7
ENDMDL
