MODEL 1
REMARK VINA RESULT:    -7.930      0.000      0.000
REMARK INTER + INTRA:          -9.616
REMARK INTER:                  -9.321
REMARK INTRA:                  -0.295
REMARK UNBOUND:                -0.295
REMARK SMILES O=c1cc(-c2ccc(O)c(O)c2)oc2cc(O)cc(O)c12
REMARK SMILES IDX 4 1 3 2 2 3 1 4 21 5 19 6 18 7 16 8 15 9 14 10 13 11 5 12
REMARK SMILES IDX 6 13 7 14 8 15 12 16 10 17 9 18 11 20 20 22 17 24
REMARK H PARENT 9 19 11 21 20 23 17 25
REMARK Flexibility Score: inf
ROOT
ATOM      1  C   UNL     1      -1.613  -1.609   4.538  1.00  0.00     0.138 A 
ATOM      2  C   UNL     1      -2.047  -2.355   3.433  1.00  0.00     0.100 A 
ATOM      3  C   UNL     1      -2.200  -3.736   3.551  1.00  0.00     0.197 A 
ATOM      4  O   UNL     1      -2.531  -4.387   2.525  1.00  0.00    -0.289 OA
ATOM      5  C   UNL     1      -1.948  -4.370   4.791  1.00  0.00     0.107 A 
ATOM      6  C   UNL     1      -2.111  -5.766   5.039  1.00  0.00     0.134 A 
ATOM      7  C   UNL     1      -1.720  -6.297   6.273  1.00  0.00     0.093 A 
ATOM      8  C   UNL     1      -1.229  -5.477   7.289  1.00  0.00     0.123 A 
ATOM      9  C   UNL     1      -1.115  -4.102   7.076  1.00  0.00     0.094 A 
ATOM     10  C   UNL     1      -1.465  -3.547   5.843  1.00  0.00     0.146 A 
ATOM     11  O   UNL     1      -1.330  -2.235   5.675  1.00  0.00    -0.456 OA
ENDROOT
BRANCH   1  12
ATOM     12  C   UNL     1      -1.433  -0.137   4.468  1.00  0.00     0.021 A 
ATOM     13  C   UNL     1      -1.249   0.595   5.654  1.00  0.00     0.016 A 
ATOM     14  C   UNL     1      -1.085   1.982   5.616  1.00  0.00     0.051 A 
ATOM     15  C   UNL     1      -1.113   2.662   4.392  1.00  0.00     0.157 A 
ATOM     16  C   UNL     1      -1.473   0.557   3.242  1.00  0.00     0.062 A 
ATOM     17  C   UNL     1      -1.311   1.949   3.204  1.00  0.00     0.158 A 
BRANCH  15  18
ATOM     18  O   UNL     1      -0.949   4.046   4.350  1.00  0.00    -0.504 OA
ATOM     19  H   UNL     1      -0.117   4.470   3.959  1.00  0.00     0.293 HD
ENDBRANCH  15  18
BRANCH  17  20
ATOM     20  O   UNL     1      -1.350   2.631   1.989  1.00  0.00    -0.504 OA
ATOM     21  H   UNL     1      -1.771   2.221   1.164  1.00  0.00     0.293 HD
ENDBRANCH  17  20
ENDBRANCH   1  12
BRANCH   6  22
ATOM     22  O   UNL     1      -2.671  -6.661   4.124  1.00  0.00    -0.507 OA
ATOM     23  H   UNL     1      -2.407  -7.630   4.028  1.00  0.00     0.293 HD
ENDBRANCH   6  22
BRANCH   8  24
ATOM     24  O   UNL     1      -0.863  -6.038   8.510  1.00  0.00    -0.508 OA
ATOM     25  H   UNL     1      -1.196  -6.951   8.795  1.00  0.00     0.293 HD
ENDBRANCH   8  24
TORSDOF 5
ENDMDL
MODEL 2
REMARK VINA RESULT:    -7.729      1.919      2.793
REMARK INTER + INTRA:          -9.379
REMARK INTER:                  -9.082
REMARK INTRA:                  -0.297
REMARK UNBOUND:                -0.295
REMARK SMILES O=c1cc(-c2ccc(O)c(O)c2)oc2cc(O)cc(O)c12
REMARK SMILES IDX 4 1 3 2 2 3 1 4 21 5 19 6 18 7 16 8 15 9 14 10 13 11 5 12
REMARK SMILES IDX 6 13 7 14 8 15 12 16 10 17 9 18 11 20 20 22 17 24
REMARK H PARENT 9 19 11 21 20 23 17 25
REMARK Flexibility Score: inf
ROOT
ATOM      1  C   UNL     1      -2.579  -0.541   5.051  1.00  0.00     0.138 A 
ATOM      2  C   UNL     1      -3.509  -0.632   6.095  1.00  0.00     0.100 A 
ATOM      3  C   UNL     1      -4.031  -1.877   6.449  1.00  0.00     0.197 A 
ATOM      4  O   UNL     1      -4.910  -1.919   7.349  1.00  0.00    -0.289 OA
ATOM      5  C   UNL     1      -3.593  -3.041   5.773  1.00  0.00     0.107 A 
ATOM      6  C   UNL     1      -4.025  -4.367   6.076  1.00  0.00     0.134 A 
ATOM      7  C   UNL     1      -3.612  -5.429   5.264  1.00  0.00     0.093 A 
ATOM      8  C   UNL     1      -2.737  -5.224   4.198  1.00  0.00     0.123 A 
ATOM      9  C   UNL     1      -2.266  -3.938   3.924  1.00  0.00     0.094 A 
ATOM     10  C   UNL     1      -2.687  -2.853   4.696  1.00  0.00     0.146 A 
ATOM     11  O   UNL     1      -2.226  -1.642   4.396  1.00  0.00    -0.456 OA
ENDROOT
BRANCH   1  12
ATOM     12  C   UNL     1      -1.993   0.758   4.633  1.00  0.00     0.021 A 
ATOM     13  C   UNL     1      -1.638   1.703   5.612  1.00  0.00     0.016 A 
ATOM     14  C   UNL     1      -1.092   2.935   5.245  1.00  0.00     0.051 A 
ATOM     15  C   UNL     1      -0.903   3.249   3.893  1.00  0.00     0.157 A 
ATOM     16  C   UNL     1      -1.812   1.086   3.275  1.00  0.00     0.062 A 
ATOM     17  C   UNL     1      -1.267   2.325   2.907  1.00  0.00     0.158 A 
BRANCH  15  18
ATOM     18  O   UNL     1      -0.359   4.478   3.524  1.00  0.00    -0.504 OA
ATOM     19  H   UNL     1      -0.269   5.239   4.186  1.00  0.00     0.293 HD
ENDBRANCH  15  18
BRANCH  17  20
ATOM     20  O   UNL     1      -1.089   2.645   1.563  1.00  0.00    -0.504 OA
ATOM     21  H   UNL     1      -0.174   2.613   1.126  1.00  0.00     0.293 HD
ENDBRANCH  17  20
ENDBRANCH   1  12
BRANCH   6  22
ATOM     22  O   UNL     1      -4.831  -4.695   7.169  1.00  0.00    -0.507 OA
ATOM     23  H   UNL     1      -5.718  -4.264   7.383  1.00  0.00     0.293 HD
ENDBRANCH   6  22
BRANCH   8  24
ATOM     24  O   UNL     1      -2.335  -6.307   3.418  1.00  0.00    -0.508 OA
ATOM     25  H   UNL     1      -1.559  -6.897   3.692  1.00  0.00     0.293 HD
ENDBRANCH   8  24
TORSDOF 5
ENDMDL
MODEL 3
REMARK VINA RESULT:    -7.657      1.515      6.817
REMARK INTER + INTRA:          -9.295
REMARK INTER:                  -8.999
REMARK INTRA:                  -0.296
REMARK UNBOUND:                -0.295
REMARK SMILES O=c1cc(-c2ccc(O)c(O)c2)oc2cc(O)cc(O)c12
REMARK SMILES IDX 4 1 3 2 2 3 1 4 21 5 19 6 18 7 16 8 15 9 14 10 13 11 5 12
REMARK SMILES IDX 6 13 7 14 8 15 12 16 10 17 9 18 11 20 20 22 17 24
REMARK H PARENT 9 19 11 21 20 23 17 25
REMARK Flexibility Score: inf
ROOT
ATOM      1  C   UNL     1      -1.573  -0.894   4.357  1.00  0.00     0.138 A 
ATOM      2  C   UNL     1      -1.641  -0.052   3.239  1.00  0.00     0.100 A 
ATOM      3  C   UNL     1      -1.411   1.316   3.391  1.00  0.00     0.197 A 
ATOM      4  O   UNL     1      -1.540   2.057   2.381  1.00  0.00    -0.289 OA
ATOM      5  C   UNL     1      -1.082   1.837   4.665  1.00  0.00     0.107 A 
ATOM      6  C   UNL     1      -0.787   3.208   4.932  1.00  0.00     0.134 A 
ATOM      7  C   UNL     1      -0.587   3.626   6.252  1.00  0.00     0.093 A 
ATOM      8  C   UNL     1      -0.612   2.717   7.309  1.00  0.00     0.123 A 
ATOM      9  C   UNL     1      -0.847   1.364   7.054  1.00  0.00     0.094 A 
ATOM     10  C   UNL     1      -1.083   0.921   5.751  1.00  0.00     0.146 A 
ATOM     11  O   UNL     1      -1.316  -0.373   5.551  1.00  0.00    -0.456 OA
ENDROOT
BRANCH   1  12
ATOM     12  C   UNL     1      -1.809  -2.357   4.251  1.00  0.00     0.021 A 
ATOM     13  C   UNL     1      -1.634  -3.170   5.385  1.00  0.00     0.016 A 
ATOM     14  C   UNL     1      -1.842  -4.549   5.310  1.00  0.00     0.051 A 
ATOM     15  C   UNL     1      -2.217  -5.141   4.098  1.00  0.00     0.157 A 
ATOM     16  C   UNL     1      -2.174  -2.962   3.032  1.00  0.00     0.062 A 
ATOM     17  C   UNL     1      -2.380  -4.347   2.957  1.00  0.00     0.158 A 
BRANCH  15  18
ATOM     18  O   UNL     1      -2.426  -6.517   4.020  1.00  0.00    -0.504 OA
ATOM     19  H   UNL     1      -2.871  -6.941   3.215  1.00  0.00     0.293 HD
ENDBRANCH  15  18
BRANCH  17  20
ATOM     20  O   UNL     1      -2.742  -4.942   1.749  1.00  0.00    -0.504 OA
ATOM     21  H   UNL     1      -3.696  -5.230   1.565  1.00  0.00     0.293 HD
ENDBRANCH  17  20
ENDBRANCH   1  12
BRANCH   6  22
ATOM     22  O   UNL     1      -0.654   4.185   3.941  1.00  0.00    -0.507 OA
ATOM     23  H   UNL     1      -0.060   4.997   4.007  1.00  0.00     0.293 HD
ENDBRANCH   6  22
BRANCH   8  24
ATOM     24  O   UNL     1      -0.395   3.166   8.610  1.00  0.00    -0.508 OA
ATOM     25  H   UNL     1      -0.484   2.547   9.406  1.00  0.00     0.293 HD
ENDBRANCH   8  24
TORSDOF 5
ENDMDL
MODEL 4
REMARK VINA RESULT:    -7.651      1.364      2.909
REMARK INTER + INTRA:          -9.287
REMARK INTER:                  -8.970
REMARK INTRA:                  -0.318
REMARK UNBOUND:                -0.295
REMARK SMILES O=c1cc(-c2ccc(O)c(O)c2)oc2cc(O)cc(O)c12
REMARK SMILES IDX 4 1 3 2 2 3 1 4 21 5 19 6 18 7 16 8 15 9 14 10 13 11 5 12
REMARK SMILES IDX 6 13 7 14 8 15 12 16 10 17 9 18 11 20 20 22 17 24
REMARK H PARENT 9 19 11 21 20 23 17 25
REMARK Flexibility Score: inf
ROOT
ATOM      1  C   UNL     1      -1.296  -0.781   5.455  1.00  0.00     0.138 A 
ATOM      2  C   UNL     1      -1.109  -1.514   6.635  1.00  0.00     0.100 A 
ATOM      3  C   UNL     1      -1.294  -2.896   6.626  1.00  0.00     0.197 A 
ATOM      4  O   UNL     1      -1.180  -3.519   7.714  1.00  0.00    -0.289 OA
ATOM      5  C   UNL     1      -1.639  -3.552   5.420  1.00  0.00     0.107 A 
ATOM      6  C   UNL     1      -1.814  -4.962   5.283  1.00  0.00     0.134 A 
ATOM      7  C   UNL     1      -2.269  -5.485   4.067  1.00  0.00     0.093 A 
ATOM      8  C   UNL     1      -2.497  -4.660   2.967  1.00  0.00     0.123 A 
ATOM      9  C   UNL     1      -2.278  -3.285   3.074  1.00  0.00     0.094 A 
ATOM     10  C   UNL     1      -1.858  -2.729   4.284  1.00  0.00     0.146 A 
ATOM     11  O   UNL     1      -1.673  -1.414   4.349  1.00  0.00    -0.456 OA
ENDROOT
BRANCH   1  12
ATOM     12  C   UNL     1      -1.112   0.691   5.409  1.00  0.00     0.021 A 
ATOM     13  C   UNL     1      -0.780   1.385   6.586  1.00  0.00     0.016 A 
ATOM     14  C   UNL     1      -0.609   2.771   6.571  1.00  0.00     0.051 A 
ATOM     15  C   UNL     1      -0.778   3.490   5.381  1.00  0.00     0.157 A 
ATOM     16  C   UNL     1      -1.293   1.423   4.218  1.00  0.00     0.062 A 
ATOM     17  C   UNL     1      -1.124   2.815   4.204  1.00  0.00     0.158 A 
BRANCH  15  18
ATOM     18  O   UNL     1      -0.607   4.873   5.363  1.00  0.00    -0.504 OA
ATOM     19  H   UNL     1      -0.510   5.384   4.493  1.00  0.00     0.293 HD
ENDBRANCH  15  18
BRANCH  17  20
ATOM     20  O   UNL     1      -1.302   3.536   3.024  1.00  0.00    -0.504 OA
ATOM     21  H   UNL     1      -1.569   3.080   2.159  1.00  0.00     0.293 HD
ENDBRANCH  17  20
ENDBRANCH   1  12
BRANCH   6  22
ATOM     22  O   UNL     1      -1.533  -5.886   6.293  1.00  0.00    -0.507 OA
ATOM     23  H   UNL     1      -1.400  -6.875   6.150  1.00  0.00     0.293 HD
ENDBRANCH   6  22
BRANCH   8  24
ATOM     24  O   UNL     1      -2.935  -5.217   1.767  1.00  0.00    -0.508 OA
ATOM     25  H   UNL     1      -3.641  -4.765   1.199  1.00  0.00     0.293 HD
ENDBRANCH   8  24
TORSDOF 5
ENDMDL
MODEL 5
REMARK VINA RESULT:    -7.629     12.223     13.356
REMARK INTER + INTRA:          -9.262
REMARK INTER:                  -8.960
REMARK INTRA:                  -0.303
REMARK UNBOUND:                -0.295
REMARK SMILES O=c1cc(-c2ccc(O)c(O)c2)oc2cc(O)cc(O)c12
REMARK SMILES IDX 4 1 3 2 2 3 1 4 21 5 19 6 18 7 16 8 15 9 14 10 13 11 5 12
REMARK SMILES IDX 6 13 7 14 8 15 12 16 10 17 9 18 11 20 20 22 17 24
REMARK H PARENT 9 19 11 21 20 23 17 25
REMARK Flexibility Score: inf
ROOT
ATOM      1  C   UNL     1      -3.301   1.293  -8.049  1.00  0.00     0.138 A 
ATOM      2  C   UNL     1      -3.056   0.285  -8.992  1.00  0.00     0.100 A 
ATOM      3  C   UNL     1      -3.865  -0.851  -9.014  1.00  0.00     0.197 A 
ATOM      4  O   UNL     1      -3.583  -1.766  -9.831  1.00  0.00    -0.289 OA
ATOM      5  C   UNL     1      -4.945  -0.964  -8.106  1.00  0.00     0.107 A 
ATOM      6  C   UNL     1      -5.861  -2.058  -8.064  1.00  0.00     0.134 A 
ATOM      7  C   UNL     1      -6.820  -2.115  -7.046  1.00  0.00     0.093 A 
ATOM      8  C   UNL     1      -6.937  -1.091  -6.107  1.00  0.00     0.123 A 
ATOM      9  C   UNL     1      -6.081   0.010  -6.170  1.00  0.00     0.094 A 
ATOM     10  C   UNL     1      -5.091   0.079  -7.153  1.00  0.00     0.146 A 
ATOM     11  O   UNL     1      -4.287   1.138  -7.172  1.00  0.00    -0.456 OA
ENDROOT
BRANCH   1  12
ATOM     12  C   UNL     1      -2.471   2.522  -7.982  1.00  0.00     0.021 A 
ATOM     13  C   UNL     1      -1.934   3.060  -9.164  1.00  0.00     0.016 A 
ATOM     14  C   UNL     1      -1.143   4.211  -9.127  1.00  0.00     0.051 A 
ATOM     15  C   UNL     1      -0.866   4.837  -7.906  1.00  0.00     0.157 A 
ATOM     16  C   UNL     1      -2.177   3.151  -6.755  1.00  0.00     0.062 A 
ATOM     17  C   UNL     1      -1.380   4.304  -6.718  1.00  0.00     0.158 A 
BRANCH  15  18
ATOM     18  O   UNL     1      -0.077   5.986  -7.865  1.00  0.00    -0.504 OA
ATOM     19  H   UNL     1      -0.280   6.746  -7.227  1.00  0.00     0.293 HD
ENDBRANCH  15  18
BRANCH  17  20
ATOM     20  O   UNL     1      -1.093   4.924  -5.503  1.00  0.00    -0.504 OA
ATOM     21  H   UNL     1      -1.783   4.991  -4.765  1.00  0.00     0.293 HD
ENDBRANCH  17  20
ENDBRANCH   1  12
BRANCH   6  22
ATOM     22  O   UNL     1      -5.888  -3.091  -9.005  1.00  0.00    -0.507 OA
ATOM     23  H   UNL     1      -6.716  -3.423  -9.474  1.00  0.00     0.293 HD
ENDBRANCH   6  22
BRANCH   8  24
ATOM     24  O   UNL     1      -7.914  -1.174  -5.116  1.00  0.00    -0.508 OA
ATOM     25  H   UNL     1      -8.886  -0.968  -5.311  1.00  0.00     0.293 HD
ENDBRANCH   8  24
TORSDOF 5
ENDMDL
MODEL 6
REMARK VINA RESULT:    -7.585     13.143     14.732
REMARK INTER + INTRA:          -9.211
REMARK INTER:                  -8.948
REMARK INTRA:                  -0.263
REMARK UNBOUND:                -0.295
REMARK SMILES O=c1cc(-c2ccc(O)c(O)c2)oc2cc(O)cc(O)c12
REMARK SMILES IDX 4 1 3 2 2 3 1 4 21 5 19 6 18 7 16 8 15 9 14 10 13 11 5 12
REMARK SMILES IDX 6 13 7 14 8 15 12 16 10 17 9 18 11 20 20 22 17 24
REMARK H PARENT 9 19 11 21 20 23 17 25
REMARK Flexibility Score: inf
ROOT
ATOM      1  C   UNL     1       1.795   6.641  -6.323  1.00  0.00     0.138 A 
ATOM      2  C   UNL     1       2.097   6.640  -7.692  1.00  0.00     0.100 A 
ATOM      3  C   UNL     1       1.295   5.916  -8.575  1.00  0.00     0.197 A 
ATOM      4  O   UNL     1       1.627   5.883  -9.789  1.00  0.00    -0.289 OA
ATOM      5  C   UNL     1       0.166   5.216  -8.088  1.00  0.00     0.107 A 
ATOM      6  C   UNL     1      -0.747   4.478  -8.900  1.00  0.00     0.134 A 
ATOM      7  C   UNL     1      -1.762   3.730  -8.293  1.00  0.00     0.093 A 
ATOM      8  C   UNL     1      -1.935   3.740  -6.909  1.00  0.00     0.123 A 
ATOM      9  C   UNL     1      -1.081   4.500  -6.108  1.00  0.00     0.094 A 
ATOM     10  C   UNL     1      -0.038   5.230  -6.682  1.00  0.00     0.146 A 
ATOM     11  O   UNL     1       0.761   5.931  -5.884  1.00  0.00    -0.456 OA
ENDROOT
BRANCH   1  12
ATOM     12  C   UNL     1       2.615   7.393  -5.341  1.00  0.00     0.021 A 
ATOM     13  C   UNL     1       2.141   8.617  -4.836  1.00  0.00     0.016 A 
ATOM     14  C   UNL     1       2.896   9.348  -3.916  1.00  0.00     0.051 A 
ATOM     15  C   UNL     1       4.145   8.874  -3.494  1.00  0.00     0.157 A 
ATOM     16  C   UNL     1       3.878   6.930  -4.921  1.00  0.00     0.062 A 
ATOM     17  C   UNL     1       4.638   7.666  -4.000  1.00  0.00     0.158 A 
BRANCH  15  18
ATOM     18  O   UNL     1       4.902   9.601  -2.576  1.00  0.00    -0.504 OA
ATOM     19  H   UNL     1       4.895  10.614  -2.567  1.00  0.00     0.293 HD
ENDBRANCH  15  18
BRANCH  17  20
ATOM     20  O   UNL     1       5.886   7.204  -3.586  1.00  0.00    -0.504 OA
ATOM     21  H   UNL     1       6.375   7.624  -2.804  1.00  0.00     0.293 HD
ENDBRANCH  17  20
ENDBRANCH   1  12
BRANCH   6  22
ATOM     22  O   UNL     1      -0.716   4.468 -10.297  1.00  0.00    -0.507 OA
ATOM     23  H   UNL     1      -0.113   5.044 -10.865  1.00  0.00     0.293 HD
ENDBRANCH   6  22
BRANCH   8  24
ATOM     24  O   UNL     1      -2.966   2.995  -6.340  1.00  0.00    -0.508 OA
ATOM     25  H   UNL     1      -3.676   2.550  -6.909  1.00  0.00     0.293 HD
ENDBRANCH   8  24
TORSDOF 5
ENDMDL
MODEL 7
REMARK VINA RESULT:    -7.576     12.351     14.850
REMARK INTER + INTRA:          -9.200
REMARK INTER:                  -8.906
REMARK INTRA:                  -0.294
REMARK UNBOUND:                -0.295
REMARK SMILES O=c1cc(-c2ccc(O)c(O)c2)oc2cc(O)cc(O)c12
REMARK SMILES IDX 4 1 3 2 2 3 1 4 21 5 19 6 18 7 16 8 15 9 14 10 13 11 5 12
REMARK SMILES IDX 6 13 7 14 8 15 12 16 10 17 9 18 11 20 20 22 17 24
REMARK H PARENT 9 19 11 21 20 23 17 25
REMARK Flexibility Score: inf
ROOT
ATOM      1  C   UNL     1      -3.678   1.322  -8.138  1.00  0.00     0.138 A 
ATOM      2  C   UNL     1      -3.384   1.594  -9.481  1.00  0.00     0.100 A 
ATOM      3  C   UNL     1      -2.482   2.610  -9.798  1.00  0.00     0.197 A 
ATOM      4  O   UNL     1      -2.284   2.873 -11.013  1.00  0.00    -0.289 OA
ATOM      5  C   UNL     1      -1.849   3.338  -8.762  1.00  0.00     0.107 A 
ATOM      6  C   UNL     1      -0.883   4.369  -8.965  1.00  0.00     0.134 A 
ATOM      7  C   UNL     1      -0.411   5.097  -7.867  1.00  0.00     0.093 A 
ATOM      8  C   UNL     1      -0.824   4.796  -6.570  1.00  0.00     0.123 A 
ATOM      9  C   UNL     1      -1.729   3.755  -6.354  1.00  0.00     0.094 A 
ATOM     10  C   UNL     1      -2.243   3.031  -7.432  1.00  0.00     0.146 A 
ATOM     11  O   UNL     1      -3.113   2.056  -7.186  1.00  0.00    -0.456 OA
ENDROOT
BRANCH   1  12
ATOM     12  C   UNL     1      -4.630   0.252  -7.746  1.00  0.00     0.021 A 
ATOM     13  C   UNL     1      -4.574  -0.995  -8.392  1.00  0.00     0.016 A 
ATOM     14  C   UNL     1      -5.462  -2.016  -8.047  1.00  0.00     0.051 A 
ATOM     15  C   UNL     1      -6.431  -1.804  -7.058  1.00  0.00     0.157 A 
ATOM     16  C   UNL     1      -5.616   0.462  -6.761  1.00  0.00     0.062 A 
ATOM     17  C   UNL     1      -6.509  -0.562  -6.416  1.00  0.00     0.158 A 
BRANCH  15  18
ATOM     18  O   UNL     1      -7.319  -2.821  -6.710  1.00  0.00    -0.504 OA
ATOM     19  H   UNL     1      -8.319  -2.714  -6.828  1.00  0.00     0.293 HD
ENDBRANCH  15  18
BRANCH  17  20
ATOM     20  O   UNL     1      -7.482  -0.351  -5.441  1.00  0.00    -0.504 OA
ATOM     21  H   UNL     1      -7.919  -1.124  -4.951  1.00  0.00     0.293 HD
ENDBRANCH  17  20
ENDBRANCH   1  12
BRANCH   6  22
ATOM     22  O   UNL     1      -0.339   4.695 -10.210  1.00  0.00    -0.507 OA
ATOM     23  H   UNL     1      -0.838   5.159 -10.954  1.00  0.00     0.293 HD
ENDBRANCH   6  22
BRANCH   8  24
ATOM     24  O   UNL     1      -0.322   5.533  -5.499  1.00  0.00    -0.508 OA
ATOM     25  H   UNL     1      -0.558   5.304  -4.541  1.00  0.00     0.293 HD
ENDBRANCH   8  24
TORSDOF 5
ENDMDL
MODEL 8
REMARK VINA RESULT:    -7.494     10.547     13.512
REMARK INTER + INTRA:          -9.104
REMARK INTER:                  -8.835
REMARK INTRA:                  -0.269
REMARK UNBOUND:                -0.295
REMARK SMILES O=c1cc(-c2ccc(O)c(O)c2)oc2cc(O)cc(O)c12
REMARK SMILES IDX 4 1 3 2 2 3 1 4 21 5 19 6 18 7 16 8 15 9 14 10 13 11 5 12
REMARK SMILES IDX 6 13 7 14 8 15 12 16 10 17 9 18 11 20 20 22 17 24
REMARK H PARENT 9 19 11 21 20 23 17 25
REMARK Flexibility Score: inf
ROOT
ATOM      1  C   UNL     1      -8.380  -3.663  -4.867  1.00  0.00     0.138 A 
ATOM      2  C   UNL     1      -9.325  -3.412  -5.871  1.00  0.00     0.100 A 
ATOM      3  C   UNL     1      -9.030  -2.497  -6.883  1.00  0.00     0.197 A 
ATOM      4  O   UNL     1      -9.922  -2.246  -7.735  1.00  0.00    -0.289 OA
ATOM      5  C   UNL     1      -7.769  -1.854  -6.906  1.00  0.00     0.107 A 
ATOM      6  C   UNL     1      -7.343  -0.935  -7.911  1.00  0.00     0.134 A 
ATOM      7  C   UNL     1      -6.119  -0.274  -7.766  1.00  0.00     0.093 A 
ATOM      8  C   UNL     1      -5.277  -0.542  -6.686  1.00  0.00     0.123 A 
ATOM      9  C   UNL     1      -5.660  -1.479  -5.725  1.00  0.00     0.094 A 
ATOM     10  C   UNL     1      -6.891  -2.130  -5.824  1.00  0.00     0.146 A 
ATOM     11  O   UNL     1      -7.225  -3.006  -4.881  1.00  0.00    -0.456 OA
ENDROOT
BRANCH   1  12
ATOM     12  C   UNL     1      -8.642  -4.626  -3.768  1.00  0.00     0.021 A 
ATOM     13  C   UNL     1      -8.695  -6.002  -4.051  1.00  0.00     0.016 A 
ATOM     14  C   UNL     1      -8.948  -6.928  -3.037  1.00  0.00     0.051 A 
ATOM     15  C   UNL     1      -9.163  -6.494  -1.723  1.00  0.00     0.157 A 
ATOM     16  C   UNL     1      -8.872  -4.196  -2.446  1.00  0.00     0.062 A 
ATOM     17  C   UNL     1      -9.128  -5.126  -1.428  1.00  0.00     0.158 A 
BRANCH  15  18
ATOM     18  O   UNL     1      -9.415  -7.415  -0.707  1.00  0.00    -0.504 OA
ATOM     19  H   UNL     1      -9.720  -7.121   0.212  1.00  0.00     0.293 HD
ENDBRANCH  15  18
BRANCH  17  20
ATOM     20  O   UNL     1      -9.354  -4.697  -0.121  1.00  0.00    -0.504 OA
ATOM     21  H   UNL     1     -10.256  -4.811   0.326  1.00  0.00     0.293 HD
ENDBRANCH  17  20
ENDBRANCH   1  12
BRANCH   6  22
ATOM     22  O   UNL     1      -8.068  -0.657  -9.073  1.00  0.00    -0.507 OA
ATOM     23  H   UNL     1      -7.895  -1.074  -9.974  1.00  0.00     0.293 HD
ENDBRANCH   6  22
BRANCH   8  24
ATOM     24  O   UNL     1      -4.058   0.125  -6.582  1.00  0.00    -0.508 OA
ATOM     25  H   UNL     1      -3.960   0.966  -6.027  1.00  0.00     0.293 HD
ENDBRANCH   8  24
TORSDOF 5
ENDMDL
MODEL 9
REMARK VINA RESULT:    -7.438      1.986      7.255
REMARK INTER + INTRA:          -9.038
REMARK INTER:                  -8.745
REMARK INTRA:                  -0.293
REMARK UNBOUND:                -0.295
REMARK SMILES O=c1cc(-c2ccc(O)c(O)c2)oc2cc(O)cc(O)c12
REMARK SMILES IDX 4 1 3 2 2 3 1 4 21 5 19 6 18 7 16 8 15 9 14 10 13 11 5 12
REMARK SMILES IDX 6 13 7 14 8 15 12 16 10 17 9 18 11 20 20 22 17 24
REMARK H PARENT 9 19 11 21 20 23 17 25
REMARK Flexibility Score: inf
ROOT
ATOM      1  C   UNL     1      -2.907  -1.251   4.911  1.00  0.00     0.138 A 
ATOM      2  C   UNL     1      -3.795  -0.708   5.851  1.00  0.00     0.100 A 
ATOM      3  C   UNL     1      -3.863   0.675   6.016  1.00  0.00     0.197 A 
ATOM      4  O   UNL     1      -4.624   1.130   6.910  1.00  0.00    -0.289 OA
ATOM      5  C   UNL     1      -3.061   1.521   5.213  1.00  0.00     0.107 A 
ATOM      6  C   UNL     1      -3.077   2.947   5.266  1.00  0.00     0.134 A 
ATOM      7  C   UNL     1      -2.155   3.675   4.505  1.00  0.00     0.093 A 
ATOM      8  C   UNL     1      -1.259   3.035   3.650  1.00  0.00     0.123 A 
ATOM      9  C   UNL     1      -1.270   1.642   3.551  1.00  0.00     0.094 A 
ATOM     10  C   UNL     1      -2.155   0.886   4.322  1.00  0.00     0.146 A 
ATOM     11  O   UNL     1      -2.125  -0.438   4.209  1.00  0.00    -0.456 OA
ENDROOT
BRANCH   1  12
ATOM     12  C   UNL     1      -2.794  -2.716   4.695  1.00  0.00     0.021 A 
ATOM     13  C   UNL     1      -2.745  -3.577   5.805  1.00  0.00     0.016 A 
ATOM     14  C   UNL     1      -2.631  -4.958   5.630  1.00  0.00     0.051 A 
ATOM     15  C   UNL     1      -2.551  -5.501   4.341  1.00  0.00     0.157 A 
ATOM     16  C   UNL     1      -2.699  -3.269   3.403  1.00  0.00     0.062 A 
ATOM     17  C   UNL     1      -2.582  -4.655   3.227  1.00  0.00     0.158 A 
BRANCH  15  18
ATOM     18  O   UNL     1      -2.437  -6.879   4.162  1.00  0.00    -0.504 OA
ATOM     19  H   UNL     1      -1.829  -7.441   4.745  1.00  0.00     0.293 HD
ENDBRANCH  15  18
BRANCH  17  20
ATOM     20  O   UNL     1      -2.490  -5.198   1.946  1.00  0.00    -0.504 OA
ATOM     21  H   UNL     1      -2.917  -6.088   1.716  1.00  0.00     0.293 HD
ENDBRANCH  17  20
ENDBRANCH   1  12
BRANCH   6  22
ATOM     22  O   UNL     1      -3.988   3.690   6.022  1.00  0.00    -0.507 OA
ATOM     23  H   UNL     1      -3.762   4.194   6.865  1.00  0.00     0.293 HD
ENDBRANCH   6  22
BRANCH   8  24
ATOM     24  O   UNL     1      -0.365   3.793   2.897  1.00  0.00    -0.508 OA
ATOM     25  H   UNL     1      -0.265   3.656   1.898  1.00  0.00     0.293 HD
ENDBRANCH   8  24
TORSDOF 5
ENDMDL
