MODEL 1
REMARK VINA RESULT:    -3.954      0.000      0.000
REMARK INTER + INTRA:          -5.479
REMARK INTER:                  -5.341
REMARK INTRA:                  -0.138
REMARK UNBOUND:                -0.138
REMARK SMILES CCCCCCCC(=O)[O-]
REMARK SMILES IDX 5 1 6 2 7 3 8 4 9 5 10 6 4 7 3 8 2 9 1 10
REMARK H PARENT
REMARK Flexibility Score: inf
ROOT
ATOM      1  C   UNL     1      -3.953  -1.303   7.878  1.00  0.00     0.000 C 
ENDROOT
BRANCH   1   2
ATOM      2  C   UNL     1      -3.407  -0.103   7.095  1.00  0.00     0.006 C 
BRANCH   2   3
ATOM      3  C   UNL     1      -2.775   0.925   8.038  1.00  0.00     0.053 C 
BRANCH   3   4
ATOM      4  C   UNL     1      -3.353   2.283   7.796  1.00  0.00     0.041 C 
ATOM      5  O   UNL     1      -3.999   2.519   6.741  1.00  0.00    -0.550 OA
ATOM      6  O   UNL     1      -3.137   3.305   8.712  1.00  0.00    -0.550 OA
ENDBRANCH   3   4
ENDBRANCH   2   3
ENDBRANCH   1   2
BRANCH   1   7
ATOM      7  C   UNL     1      -3.953  -2.570   7.014  1.00  0.00     0.000 C 
BRANCH   7   8
ATOM      8  C   UNL     1      -5.349  -2.839   6.431  1.00  0.00    -0.000 C 
BRANCH   8   9
ATOM      9  C   UNL     1      -5.317  -3.828   5.257  1.00  0.00    -0.003 C 
ATOM     10  C   UNL     1      -6.689  -4.023   4.610  1.00  0.00     0.004 C 
ENDBRANCH   8   9
ENDBRANCH   7   8
ENDBRANCH   1   7
TORSDOF 6
ENDMDL
MODEL 2
REMARK VINA RESULT:    -3.884     13.406     14.818
REMARK INTER + INTRA:          -5.385
REMARK INTER:                  -5.140
REMARK INTRA:                  -0.244
REMARK UNBOUND:                -0.138
REMARK SMILES CCCCCCCC(=O)[O-]
REMARK SMILES IDX 5 1 6 2 7 3 8 4 9 5 10 6 4 7 3 8 2 9 1 10
REMARK H PARENT
REMARK Flexibility Score: inf
ROOT
ATOM      1  C   UNL     1      -3.582  -1.681  -7.096  1.00  0.00     0.000 C 
ENDROOT
BRANCH   1   2
ATOM      2  C   UNL     1      -3.253  -0.320  -7.723  1.00  0.00     0.006 C 
BRANCH   2   3
ATOM      3  C   UNL     1      -1.739  -0.127  -7.853  1.00  0.00     0.053 C 
BRANCH   3   4
ATOM      4  C   UNL     1      -1.300  -0.362  -9.263  1.00  0.00     0.041 C 
ATOM      5  O   UNL     1      -0.972   0.609  -9.996  1.00  0.00    -0.550 OA
ATOM      6  O   UNL     1      -1.300  -1.648  -9.787  1.00  0.00    -0.550 OA
ENDBRANCH   3   4
ENDBRANCH   2   3
ENDBRANCH   1   2
BRANCH   1   7
ATOM      7  C   UNL     1      -4.513  -1.520  -5.889  1.00  0.00     0.000 C 
BRANCH   7   8
ATOM      8  C   UNL     1      -4.931  -0.052  -5.708  1.00  0.00    -0.000 C 
BRANCH   8   9
ATOM      9  C   UNL     1      -5.270   0.289  -4.250  1.00  0.00    -0.003 C 
ATOM     10  C   UNL     1      -6.621   0.989  -4.104  1.00  0.00     0.004 C 
ENDBRANCH   8   9
ENDBRANCH   7   8
ENDBRANCH   1   7
TORSDOF 6
ENDMDL
MODEL 3
REMARK VINA RESULT:    -3.852     12.660     14.218
REMARK INTER + INTRA:          -5.341
REMARK INTER:                  -5.040
REMARK INTRA:                  -0.301
REMARK UNBOUND:                -0.138
REMARK SMILES CCCCCCCC(=O)[O-]
REMARK SMILES IDX 5 1 6 2 7 3 8 4 9 5 10 6 4 7 3 8 2 9 1 10
REMARK H PARENT
REMARK Flexibility Score: inf
ROOT
ATOM      1  C   UNL     1      -4.550  -1.599  -5.909  1.00  0.00     0.000 C 
ENDROOT
BRANCH   1   2
ATOM      2  C   UNL     1      -3.843  -1.855  -7.246  1.00  0.00     0.006 C 
BRANCH   2   3
ATOM      3  C   UNL     1      -3.440  -0.538  -7.915  1.00  0.00     0.053 C 
BRANCH   3   4
ATOM      4  C   UNL     1      -1.980  -0.540  -8.238  1.00  0.00     0.041 C 
ATOM      5  O   UNL     1      -1.200   0.262  -7.658  1.00  0.00    -0.550 OA
ATOM      6  O   UNL     1      -1.486  -1.393  -9.217  1.00  0.00    -0.550 OA
ENDBRANCH   3   4
ENDBRANCH   2   3
ENDBRANCH   1   2
BRANCH   1   7
ATOM      7  C   UNL     1      -4.758  -0.098  -5.675  1.00  0.00     0.000 C 
BRANCH   7   8
ATOM      8  C   UNL     1      -5.193   0.177  -4.227  1.00  0.00    -0.000 C 
BRANCH   8   9
ATOM      9  C   UNL     1      -6.530   0.929  -4.147  1.00  0.00    -0.003 C 
ATOM     10  C   UNL     1      -7.214   1.068  -5.507  1.00  0.00     0.004 C 
ENDBRANCH   8   9
ENDBRANCH   7   8
ENDBRANCH   1   7
TORSDOF 6
ENDMDL
MODEL 4
REMARK VINA RESULT:    -3.799      3.201      5.727
REMARK INTER + INTRA:          -5.269
REMARK INTER:                  -5.030
REMARK INTRA:                  -0.239
REMARK UNBOUND:                -0.138
REMARK SMILES CCCCCCCC(=O)[O-]
REMARK SMILES IDX 5 1 6 2 7 3 8 4 9 5 10 6 4 7 3 8 2 9 1 10
REMARK H PARENT
REMARK Flexibility Score: inf
ROOT
ATOM      1  C   UNL     1      -3.932  -2.496   6.967  1.00  0.00     0.000 C 
ENDROOT
BRANCH   1   2
ATOM      2  C   UNL     1      -5.343  -3.053   6.741  1.00  0.00     0.006 C 
BRANCH   2   3
ATOM      3  C   UNL     1      -5.401  -3.899   5.465  1.00  0.00     0.053 C 
BRANCH   3   4
ATOM      4  C   UNL     1      -6.528  -3.449   4.590  1.00  0.00     0.041 C 
ATOM      5  O   UNL     1      -7.403  -4.272   4.211  1.00  0.00    -0.550 OA
ATOM      6  O   UNL     1      -6.585  -2.133   4.151  1.00  0.00    -0.550 OA
ENDBRANCH   3   4
ENDBRANCH   2   3
ENDBRANCH   1   2
BRANCH   1   7
ATOM      7  C   UNL     1      -3.702  -2.164   8.446  1.00  0.00     0.000 C 
BRANCH   7   8
ATOM      8  C   UNL     1      -3.790  -0.650   8.691  1.00  0.00    -0.000 C 
BRANCH   8   9
ATOM      9  C   UNL     1      -3.341   0.171   7.474  1.00  0.00    -0.003 C 
ATOM     10  C   UNL     1      -2.403   1.319   7.847  1.00  0.00     0.004 C 
ENDBRANCH   8   9
ENDBRANCH   7   8
ENDBRANCH   1   7
TORSDOF 6
ENDMDL
MODEL 5
REMARK VINA RESULT:    -3.715      2.790      5.597
REMARK INTER + INTRA:          -5.156
REMARK INTER:                  -4.957
REMARK INTRA:                  -0.198
REMARK UNBOUND:                -0.138
REMARK SMILES CCCCCCCC(=O)[O-]
REMARK SMILES IDX 5 1 6 2 7 3 8 4 9 5 10 6 4 7 3 8 2 9 1 10
REMARK H PARENT
REMARK Flexibility Score: inf
ROOT
ATOM      1  C   UNL     1      -3.839  -2.359   7.264  1.00  0.00     0.000 C 
ENDROOT
BRANCH   1   2
ATOM      2  C   UNL     1      -5.310  -2.764   7.105  1.00  0.00     0.006 C 
BRANCH   2   3
ATOM      3  C   UNL     1      -5.540  -3.484   5.773  1.00  0.00     0.053 C 
BRANCH   3   4
ATOM      4  C   UNL     1      -6.320  -2.616   4.837  1.00  0.00     0.041 C 
ATOM      5  O   UNL     1      -6.339  -1.366   4.998  1.00  0.00    -0.550 OA
ATOM      6  O   UNL     1      -7.066  -3.189   3.816  1.00  0.00    -0.550 OA
ENDBRANCH   3   4
ENDBRANCH   2   3
ENDBRANCH   1   2
BRANCH   1   7
ATOM      7  C   UNL     1      -3.709  -1.062   8.071  1.00  0.00     0.000 C 
BRANCH   7   8
ATOM      8  C   UNL     1      -3.395   0.128   7.152  1.00  0.00    -0.000 C 
BRANCH   8   9
ATOM      9  C   UNL     1      -2.565   1.213   7.854  1.00  0.00    -0.003 C 
ATOM     10  C   UNL     1      -3.342   2.514   8.058  1.00  0.00     0.004 C 
ENDBRANCH   8   9
ENDBRANCH   7   8
ENDBRANCH   1   7
TORSDOF 6
ENDMDL
MODEL 6
REMARK VINA RESULT:    -3.678      1.682      2.106
REMARK INTER + INTRA:          -5.106
REMARK INTER:                  -4.660
REMARK INTRA:                  -0.446
REMARK UNBOUND:                -0.138
REMARK SMILES CCCCCCCC(=O)[O-]
REMARK SMILES IDX 5 1 6 2 7 3 8 4 9 5 10 6 4 7 3 8 2 9 1 10
REMARK H PARENT
REMARK Flexibility Score: inf
ROOT
ATOM      1  C   UNL     1      -3.676  -0.453   8.555  1.00  0.00     0.000 C 
ENDROOT
BRANCH   1   2
ATOM      2  C   UNL     1      -3.288   0.189   7.217  1.00  0.00     0.006 C 
BRANCH   2   3
ATOM      3  C   UNL     1      -4.025   1.516   7.012  1.00  0.00     0.053 C 
BRANCH   3   4
ATOM      4  C   UNL     1      -5.452   1.271   6.639  1.00  0.00     0.041 C 
ATOM      5  O   UNL     1      -5.735   0.479   5.701  1.00  0.00    -0.550 OA
ATOM      6  O   UNL     1      -6.469   1.953   7.294  1.00  0.00    -0.550 OA
ENDBRANCH   3   4
ENDBRANCH   2   3
ENDBRANCH   1   2
BRANCH   1   7
ATOM      7  C   UNL     1      -3.774  -1.977   8.425  1.00  0.00     0.000 C 
BRANCH   7   8
ATOM      8  C   UNL     1      -3.925  -2.396   6.955  1.00  0.00    -0.000 C 
BRANCH   8   9
ATOM      9  C   UNL     1      -5.317  -2.966   6.643  1.00  0.00    -0.003 C 
ATOM     10  C   UNL     1      -5.332  -3.839   5.389  1.00  0.00     0.004 C 
ENDBRANCH   8   9
ENDBRANCH   7   8
ENDBRANCH   1   7
TORSDOF 6
ENDMDL
MODEL 7
REMARK VINA RESULT:    -3.658      1.636      2.633
REMARK INTER + INTRA:          -5.078
REMARK INTER:                  -4.687
REMARK INTRA:                  -0.392
REMARK UNBOUND:                -0.138
REMARK SMILES CCCCCCCC(=O)[O-]
REMARK SMILES IDX 5 1 6 2 7 3 8 4 9 5 10 6 4 7 3 8 2 9 1 10
REMARK H PARENT
REMARK Flexibility Score: inf
ROOT
ATOM      1  C   UNL     1      -5.317  -3.125   6.642  1.00  0.00     0.000 C 
ENDROOT
BRANCH   1   2
ATOM      2  C   UNL     1      -3.952  -2.511   6.976  1.00  0.00     0.006 C 
BRANCH   2   3
ATOM      3  C   UNL     1      -4.104  -1.319   7.925  1.00  0.00     0.053 C 
BRANCH   3   4
ATOM      4  C   UNL     1      -3.898  -0.034   7.189  1.00  0.00     0.041 C 
ATOM      5  O   UNL     1      -4.773   0.383   6.383  1.00  0.00    -0.550 OA
ATOM      6  O   UNL     1      -2.719   0.681   7.353  1.00  0.00    -0.550 OA
ENDBRANCH   3   4
ENDBRANCH   2   3
ENDBRANCH   1   2
BRANCH   1   7
ATOM      7  C   UNL     1      -5.316  -3.737   5.236  1.00  0.00     0.000 C 
BRANCH   7   8
ATOM      8  C   UNL     1      -6.578  -3.332   4.458  1.00  0.00    -0.000 C 
BRANCH   8   9
ATOM      9  C   UNL     1      -7.044  -1.907   4.793  1.00  0.00    -0.003 C 
ATOM     10  C   UNL     1      -6.907  -0.947   3.611  1.00  0.00     0.004 C 
ENDBRANCH   8   9
ENDBRANCH   7   8
ENDBRANCH   1   7
TORSDOF 6
ENDMDL
MODEL 8
REMARK VINA RESULT:    -3.635      2.924      5.714
REMARK INTER + INTRA:          -5.048
REMARK INTER:                  -4.801
REMARK INTRA:                  -0.247
REMARK UNBOUND:                -0.138
REMARK SMILES CCCCCCCC(=O)[O-]
REMARK SMILES IDX 5 1 6 2 7 3 8 4 9 5 10 6 4 7 3 8 2 9 1 10
REMARK H PARENT
REMARK Flexibility Score: inf
ROOT
ATOM      1  C   UNL     1      -3.841  -0.723   8.558  1.00  0.00     0.000 C 
ENDROOT
BRANCH   1   2
ATOM      2  C   UNL     1      -3.867  -2.235   8.308  1.00  0.00     0.006 C 
BRANCH   2   3
ATOM      3  C   UNL     1      -3.948  -2.542   6.809  1.00  0.00     0.053 C 
BRANCH   3   4
ATOM      4  C   UNL     1      -5.322  -3.007   6.443  1.00  0.00     0.041 C 
ATOM      5  O   UNL     1      -6.335  -2.399   6.881  1.00  0.00    -0.550 OA
ATOM      6  O   UNL     1      -5.486  -4.142   5.660  1.00  0.00    -0.550 OA
ENDBRANCH   3   4
ENDBRANCH   2   3
ENDBRANCH   1   2
BRANCH   1   7
ATOM      7  C   UNL     1      -3.254   0.025   7.355  1.00  0.00     0.000 C 
BRANCH   7   8
ATOM      8  C   UNL     1      -2.609   1.349   7.792  1.00  0.00    -0.000 C 
BRANCH   8   9
ATOM      9  C   UNL     1      -3.601   2.522   7.773  1.00  0.00    -0.003 C 
ATOM     10  C   UNL     1      -3.303   3.567   8.849  1.00  0.00     0.004 C 
ENDBRANCH   8   9
ENDBRANCH   7   8
ENDBRANCH   1   7
TORSDOF 6
ENDMDL
MODEL 9
REMARK VINA RESULT:    -3.584     12.612     13.894
REMARK INTER + INTRA:          -4.979
REMARK INTER:                  -4.562
REMARK INTRA:                  -0.417
REMARK UNBOUND:                -0.138
REMARK SMILES CCCCCCCC(=O)[O-]
REMARK SMILES IDX 5 1 6 2 7 3 8 4 9 5 10 6 4 7 3 8 2 9 1 10
REMARK H PARENT
REMARK Flexibility Score: inf
ROOT
ATOM      1  C   UNL     1      -4.874  -0.638  -4.534  1.00  0.00     0.000 C 
ENDROOT
BRANCH   1   2
ATOM      2  C   UNL     1      -5.088  -0.997  -6.009  1.00  0.00     0.006 C 
BRANCH   2   3
ATOM      3  C   UNL     1      -3.950  -0.453  -6.878  1.00  0.00     0.053 C 
BRANCH   3   4
ATOM      4  C   UNL     1      -3.262  -1.569  -7.598  1.00  0.00     0.041 C 
ATOM      5  O   UNL     1      -3.714  -2.743  -7.527  1.00  0.00    -0.550 OA
ATOM      6  O   UNL     1      -2.094  -1.323  -8.308  1.00  0.00    -0.550 OA
ENDBRANCH   3   4
ENDBRANCH   2   3
ENDBRANCH   1   2
BRANCH   1   7
ATOM      7  C   UNL     1      -5.638   0.637  -4.160  1.00  0.00     0.000 C 
BRANCH   7   8
ATOM      8  C   UNL     1      -7.133   0.499  -4.490  1.00  0.00    -0.000 C 
BRANCH   8   9
ATOM      9  C   UNL     1      -7.705   1.752  -5.169  1.00  0.00    -0.003 C 
ATOM     10  C   UNL     1      -7.451   1.777  -6.676  1.00  0.00     0.004 C 
ENDBRANCH   8   9
ENDBRANCH   7   8
ENDBRANCH   1   7
TORSDOF 6
ENDMDL
