MODEL 1
REMARK VINA RESULT:    -4.081      0.000      0.000
REMARK INTER + INTRA:          -4.728
REMARK INTER:                  -4.438
REMARK INTRA:                  -0.289
REMARK UNBOUND:                -0.289
REMARK SMILES CC(=O)c1cc(C)ccc1O
REMARK SMILES IDX 7 1 6 2 5 3 4 4 10 5 9 6 8 7 2 8 3 9 1 10 11 11
REMARK H PARENT 11 12
REMARK Flexibility Score: inf
ROOT
ATOM      1  C   UNL     1     -24.308  -7.720  -6.739  1.00  0.00     0.044 C 
ATOM      2  C   UNL     1     -23.852  -9.149  -6.781  1.00  0.00    -0.050 A 
ATOM      3  C   UNL     1     -22.820  -9.535  -7.649  1.00  0.00     0.019 A 
ATOM      4  C   UNL     1     -22.350 -10.862  -7.667  1.00  0.00     0.059 A 
ATOM      5  C   UNL     1     -22.946 -11.813  -6.802  1.00  0.00     0.126 A 
ATOM      6  C   UNL     1     -23.949 -11.410  -5.914  1.00  0.00     0.047 A 
ATOM      7  C   UNL     1     -24.396 -10.088  -5.898  1.00  0.00     0.007 A 
ENDROOT
BRANCH   4   8
ATOM      8  C   UNL     1     -21.221 -11.214  -8.560  1.00  0.00     0.163 C 
ATOM      9  O   UNL     1     -20.173 -11.723  -8.078  1.00  0.00    -0.294 OA
ATOM     10  C   UNL     1     -21.259 -10.888 -10.022  1.00  0.00     0.093 C 
ENDBRANCH   4   8
BRANCH   5  11
ATOM     11  O   UNL     1     -22.589 -13.164  -6.813  1.00  0.00    -0.507 OA
ATOM     12  H   UNL     1     -22.337 -13.679  -5.981  1.00  0.00     0.293 HD
ENDBRANCH   5  11
TORSDOF 2
ENDMDL
MODEL 2
REMARK VINA RESULT:    -4.077      2.551      4.538
REMARK INTER + INTRA:          -4.723
REMARK INTER:                  -4.417
REMARK INTRA:                  -0.306
REMARK UNBOUND:                -0.289
REMARK SMILES CC(=O)c1cc(C)ccc1O
REMARK SMILES IDX 7 1 6 2 5 3 4 4 10 5 9 6 8 7 2 8 3 9 1 10 11 11
REMARK H PARENT 11 12
REMARK Flexibility Score: inf
ROOT
ATOM      1  C   UNL     1     -20.171 -12.002  -7.887  1.00  0.00     0.044 C 
ATOM      2  C   UNL     1     -21.258 -11.076  -8.346  1.00  0.00    -0.050 A 
ATOM      3  C   UNL     1     -22.107 -10.466  -7.411  1.00  0.00     0.019 A 
ATOM      4  C   UNL     1     -23.102  -9.559  -7.822  1.00  0.00     0.059 A 
ATOM      5  C   UNL     1     -23.246  -9.277  -9.203  1.00  0.00     0.126 A 
ATOM      6  C   UNL     1     -22.371  -9.863 -10.125  1.00  0.00     0.047 A 
ATOM      7  C   UNL     1     -21.381 -10.750  -9.701  1.00  0.00     0.007 A 
ENDROOT
BRANCH   4   8
ATOM      8  C   UNL     1     -23.940  -8.895  -6.795  1.00  0.00     0.163 C 
ATOM      9  O   UNL     1     -24.131  -7.650  -6.848  1.00  0.00    -0.294 OA
ATOM     10  C   UNL     1     -24.491  -9.661  -5.632  1.00  0.00     0.093 C 
ENDBRANCH   4   8
BRANCH   5  11
ATOM     11  O   UNL     1     -24.256  -8.449  -9.698  1.00  0.00    -0.507 OA
ATOM     12  H   UNL     1     -24.260  -8.079 -10.639  1.00  0.00     0.293 HD
ENDBRANCH   5  11
TORSDOF 2
ENDMDL
MODEL 3
REMARK VINA RESULT:    -3.953     12.627     13.994
REMARK INTER + INTRA:          -4.589
REMARK INTER:                  -4.301
REMARK INTRA:                  -0.287
REMARK UNBOUND:                -0.289
REMARK SMILES CC(=O)c1cc(C)ccc1O
REMARK SMILES IDX 7 1 6 2 5 3 4 4 10 5 9 6 8 7 2 8 3 9 1 10 11 11
REMARK H PARENT 11 12
REMARK Flexibility Score: inf
ROOT
ATOM      1  C   UNL     1      -7.721 -14.544  -2.699  1.00  0.00     0.044 C 
ATOM      2  C   UNL     1      -8.479 -13.577  -3.559  1.00  0.00    -0.050 A 
ATOM      3  C   UNL     1      -8.848 -13.932  -4.865  1.00  0.00     0.019 A 
ATOM      4  C   UNL     1      -9.599 -13.053  -5.668  1.00  0.00     0.059 A 
ATOM      5  C   UNL     1      -9.971 -11.791  -5.142  1.00  0.00     0.126 A 
ATOM      6  C   UNL     1      -9.631 -11.461  -3.826  1.00  0.00     0.047 A 
ATOM      7  C   UNL     1      -8.896 -12.347  -3.037  1.00  0.00     0.007 A 
ENDROOT
BRANCH   4   8
ATOM      8  C   UNL     1     -10.013 -13.491  -7.022  1.00  0.00     0.163 C 
ATOM      9  O   UNL     1      -9.612 -12.860  -8.037  1.00  0.00    -0.294 OA
ATOM     10  C   UNL     1     -10.983 -14.617  -7.209  1.00  0.00     0.093 C 
ENDBRANCH   4   8
BRANCH   5  11
ATOM     11  O   UNL     1     -10.650 -10.834  -5.900  1.00  0.00    -0.507 OA
ATOM     12  H   UNL     1     -11.590 -10.524  -5.691  1.00  0.00     0.293 HD
ENDBRANCH   5  11
TORSDOF 2
ENDMDL
MODEL 4
REMARK VINA RESULT:    -3.921      2.370      3.613
REMARK INTER + INTRA:          -4.554
REMARK INTER:                  -4.261
REMARK INTRA:                  -0.294
REMARK UNBOUND:                -0.289
REMARK SMILES CC(=O)c1cc(C)ccc1O
REMARK SMILES IDX 7 1 6 2 5 3 4 4 10 5 9 6 8 7 2 8 3 9 1 10 11 11
REMARK H PARENT 11 12
REMARK Flexibility Score: inf
ROOT
ATOM      1  C   UNL     1     -20.092 -12.000  -8.258  1.00  0.00     0.044 C 
ATOM      2  C   UNL     1     -21.385 -11.507  -7.681  1.00  0.00    -0.050 A 
ATOM      3  C   UNL     1     -21.922 -10.280  -8.096  1.00  0.00     0.019 A 
ATOM      4  C   UNL     1     -23.158  -9.826  -7.598  1.00  0.00     0.059 A 
ATOM      5  C   UNL     1     -23.852 -10.623  -6.654  1.00  0.00     0.126 A 
ATOM      6  C   UNL     1     -23.326 -11.863  -6.273  1.00  0.00     0.047 A 
ATOM      7  C   UNL     1     -22.106 -12.306  -6.785  1.00  0.00     0.007 A 
ENDROOT
BRANCH   4   8
ATOM      8  C   UNL     1     -23.714  -8.550  -8.105  1.00  0.00     0.163 C 
ATOM      9  O   UNL     1     -24.407  -7.820  -7.346  1.00  0.00    -0.294 OA
ATOM     10  C   UNL     1     -23.551  -8.150  -9.540  1.00  0.00     0.093 C 
ENDBRANCH   4   8
BRANCH   5  11
ATOM     11  O   UNL     1     -25.044 -10.209  -6.055  1.00  0.00    -0.507 OA
ATOM     12  H   UNL     1     -25.513 -10.733  -5.329  1.00  0.00     0.293 HD
ENDBRANCH   5  11
TORSDOF 2
ENDMDL
MODEL 5
REMARK VINA RESULT:    -3.709      2.319      4.347
REMARK INTER + INTRA:          -4.324
REMARK INTER:                  -4.038
REMARK INTRA:                  -0.286
REMARK UNBOUND:                -0.289
REMARK SMILES CC(=O)c1cc(C)ccc1O
REMARK SMILES IDX 7 1 6 2 5 3 4 4 10 5 9 6 8 7 2 8 3 9 1 10 11 11
REMARK H PARENT 11 12
REMARK Flexibility Score: inf
ROOT
ATOM      1  C   UNL     1     -20.246 -12.057  -7.984  1.00  0.00     0.044 C 
ATOM      2  C   UNL     1     -21.571 -11.382  -7.784  1.00  0.00    -0.050 A 
ATOM      3  C   UNL     1     -22.447 -11.829  -6.785  1.00  0.00     0.019 A 
ATOM      4  C   UNL     1     -23.674 -11.178  -6.556  1.00  0.00     0.059 A 
ATOM      5  C   UNL     1     -24.021 -10.064  -7.361  1.00  0.00     0.126 A 
ATOM      6  C   UNL     1     -23.123  -9.603  -8.330  1.00  0.00     0.047 A 
ATOM      7  C   UNL     1     -21.905 -10.251  -8.538  1.00  0.00     0.007 A 
ENDROOT
BRANCH   4   8
ATOM      8  C   UNL     1     -24.545 -11.649  -5.454  1.00  0.00     0.163 C 
ATOM      9  O   UNL     1     -25.695 -12.099  -5.709  1.00  0.00    -0.294 OA
ATOM     10  C   UNL     1     -24.125 -11.514  -4.022  1.00  0.00     0.093 C 
ENDBRANCH   4   8
BRANCH   5  11
ATOM     11  O   UNL     1     -25.251  -9.411  -7.247  1.00  0.00    -0.507 OA
ATOM     12  H   UNL     1     -26.111  -9.775  -7.634  1.00  0.00     0.293 HD
ENDBRANCH   5  11
TORSDOF 2
ENDMDL
MODEL 6
REMARK VINA RESULT:    -3.648     14.303     15.487
REMARK INTER + INTRA:          -4.257
REMARK INTER:                  -3.945
REMARK INTRA:                  -0.312
REMARK UNBOUND:                -0.289
REMARK SMILES CC(=O)c1cc(C)ccc1O
REMARK SMILES IDX 7 1 6 2 5 3 4 4 10 5 9 6 8 7 2 8 3 9 1 10 11 11
REMARK H PARENT 11 12
REMARK Flexibility Score: inf
ROOT
ATOM      1  C   UNL     1     -22.959  -5.411   9.717  1.00  0.00     0.044 C 
ATOM      2  C   UNL     1     -23.702  -5.652   8.436  1.00  0.00    -0.050 A 
ATOM      3  C   UNL     1     -24.015  -4.580   7.588  1.00  0.00     0.019 A 
ATOM      4  C   UNL     1     -24.671  -4.795   6.362  1.00  0.00     0.059 A 
ATOM      5  C   UNL     1     -25.027  -6.118   5.997  1.00  0.00     0.126 A 
ATOM      6  C   UNL     1     -24.678  -7.185   6.832  1.00  0.00     0.047 A 
ATOM      7  C   UNL     1     -24.016  -6.957   8.039  1.00  0.00     0.007 A 
ENDROOT
BRANCH   4   8
ATOM      8  C   UNL     1     -24.933  -3.640   5.472  1.00  0.00     0.163 C 
ATOM      9  O   UNL     1     -26.081  -3.474   4.977  1.00  0.00    -0.294 OA
ATOM     10  C   UNL     1     -23.832  -2.709   5.066  1.00  0.00     0.093 C 
ENDBRANCH   4   8
BRANCH   5  11
ATOM     11  O   UNL     1     -25.746  -6.407   4.835  1.00  0.00    -0.507 OA
ATOM     12  H   UNL     1     -25.426  -7.058   4.131  1.00  0.00     0.293 HD
ENDBRANCH   5  11
TORSDOF 2
ENDMDL
MODEL 7
REMARK VINA RESULT:    -3.554      1.646      2.721
REMARK INTER + INTRA:          -4.155
REMARK INTER:                  -3.869
REMARK INTRA:                  -0.286
REMARK UNBOUND:                -0.289
REMARK SMILES CC(=O)c1cc(C)ccc1O
REMARK SMILES IDX 7 1 6 2 5 3 4 4 10 5 9 6 8 7 2 8 3 9 1 10 11 11
REMARK H PARENT 11 12
REMARK Flexibility Score: inf
ROOT
ATOM      1  C   UNL     1     -24.350 -11.564  -4.710  1.00  0.00     0.044 C 
ATOM      2  C   UNL     1     -23.941 -10.809  -5.939  1.00  0.00    -0.050 A 
ATOM      3  C   UNL     1     -22.809 -11.204  -6.667  1.00  0.00     0.019 A 
ATOM      4  C   UNL     1     -22.438 -10.534  -7.848  1.00  0.00     0.059 A 
ATOM      5  C   UNL     1     -23.222  -9.439  -8.290  1.00  0.00     0.126 A 
ATOM      6  C   UNL     1     -24.370  -9.075  -7.578  1.00  0.00     0.047 A 
ATOM      7  C   UNL     1     -24.732  -9.757  -6.416  1.00  0.00     0.007 A 
ENDROOT
BRANCH   4   8
ATOM      8  C   UNL     1     -21.267 -11.019  -8.614  1.00  0.00     0.163 C 
ATOM      9  O   UNL     1     -21.198 -10.813  -9.856  1.00  0.00    -0.294 OA
ATOM     10  C   UNL     1     -20.198 -11.840  -7.959  1.00  0.00     0.093 C 
ENDBRANCH   4   8
BRANCH   5  11
ATOM     11  O   UNL     1     -22.878  -8.675  -9.408  1.00  0.00    -0.507 OA
ATOM     12  H   UNL     1     -23.518  -8.483 -10.168  1.00  0.00     0.293 HD
ENDBRANCH   5  11
TORSDOF 2
ENDMDL
MODEL 8
REMARK VINA RESULT:    -3.527     16.304     17.550
REMARK INTER + INTRA:          -4.125
REMARK INTER:                  -3.834
REMARK INTRA:                  -0.292
REMARK UNBOUND:                -0.289
REMARK SMILES CC(=O)c1cc(C)ccc1O
REMARK SMILES IDX 7 1 6 2 5 3 4 4 10 5 9 6 8 7 2 8 3 9 1 10 11 11
REMARK H PARENT 11 12
REMARK Flexibility Score: inf
ROOT
ATOM      1  C   UNL     1      -7.230 -13.814  -3.157  1.00  0.00     0.044 C 
ATOM      2  C   UNL     1      -7.203 -14.145  -1.694  1.00  0.00    -0.050 A 
ATOM      3  C   UNL     1      -8.173 -14.996  -1.144  1.00  0.00     0.019 A 
ATOM      4  C   UNL     1      -8.134 -15.352   0.217  1.00  0.00     0.059 A 
ATOM      5  C   UNL     1      -7.103 -14.826   1.034  1.00  0.00     0.126 A 
ATOM      6  C   UNL     1      -6.119 -14.008   0.469  1.00  0.00     0.047 A 
ATOM      7  C   UNL     1      -6.163 -13.673  -0.885  1.00  0.00     0.007 A 
ENDROOT
BRANCH   4   8
ATOM      8  C   UNL     1      -9.147 -16.297   0.743  1.00  0.00     0.163 C 
ATOM      9  O   UNL     1      -8.857 -17.059   1.706  1.00  0.00    -0.294 OA
ATOM     10  C   UNL     1     -10.488 -16.438   0.092  1.00  0.00     0.093 C 
ENDBRANCH   4   8
BRANCH   5  11
ATOM     11  O   UNL     1      -7.039 -15.070   2.409  1.00  0.00    -0.507 OA
ATOM     12  H   UNL     1      -7.850 -15.069   3.012  1.00  0.00     0.293 HD
ENDBRANCH   5  11
TORSDOF 2
ENDMDL
MODEL 9
REMARK VINA RESULT:    -3.492     15.543     16.826
REMARK INTER + INTRA:          -4.088
REMARK INTER:                  -3.965
REMARK INTRA:                  -0.123
REMARK UNBOUND:                -0.289
REMARK SMILES CC(=O)c1cc(C)ccc1O
REMARK SMILES IDX 7 1 6 2 5 3 4 4 10 5 9 6 8 7 2 8 3 9 1 10 11 11
REMARK H PARENT 11 12
REMARK Flexibility Score: inf
ROOT
ATOM      1  C   UNL     1      -9.549 -16.984   0.689  1.00  0.00     0.044 C 
ATOM      2  C   UNL     1      -8.588 -15.984   0.116  1.00  0.00    -0.050 A 
ATOM      3  C   UNL     1      -8.842 -15.396  -1.132  1.00  0.00     0.019 A 
ATOM      4  C   UNL     1      -7.974 -14.423  -1.662  1.00  0.00     0.059 A 
ATOM      5  C   UNL     1      -6.826 -14.051  -0.920  1.00  0.00     0.126 A 
ATOM      6  C   UNL     1      -6.600 -14.616   0.340  1.00  0.00     0.047 A 
ATOM      7  C   UNL     1      -7.476 -15.571   0.858  1.00  0.00     0.007 A 
ENDROOT
BRANCH   4   8
ATOM      8  C   UNL     1      -8.310 -13.788  -2.958  1.00  0.00     0.163 C 
ATOM      9  O   UNL     1      -8.051 -14.386  -4.037  1.00  0.00    -0.294 OA
ATOM     10  C   UNL     1      -8.866 -12.398  -3.018  1.00  0.00     0.093 C 
ENDBRANCH   4   8
BRANCH   5  11
ATOM     11  O   UNL     1      -5.877 -13.150  -1.409  1.00  0.00    -0.507 OA
ATOM     12  H   UNL     1      -6.118 -12.316  -1.928  1.00  0.00     0.293 HD
ENDBRANCH   5  11
TORSDOF 2
ENDMDL
