MODEL 1
REMARK VINA RESULT:    -3.178      0.000      0.000
REMARK INTER + INTRA:          -3.777
REMARK INTER:                  -3.735
REMARK INTRA:                  -0.042
REMARK UNBOUND:                -0.042
REMARK SMILES O=C([O-])CCC(=O)[O-]
REMARK SMILES IDX 4 1 2 2 1 3 3 4 5 5 6 6 7 7 8 8
REMARK H PARENT
REMARK Flexibility Score: inf
ROOT
ATOM      1  C   UNL     1      24.476  37.645  24.143  1.00  0.00     0.059 C 
ENDROOT
BRANCH   1   2
ATOM      2  C   UNL     1      24.970  37.918  22.757  1.00  0.00     0.042 C 
ATOM      3  O   UNL     1      25.854  38.793  22.561  1.00  0.00    -0.550 OA
ATOM      4  O   UNL     1      24.419  37.239  21.677  1.00  0.00    -0.550 OA
ENDBRANCH   1   2
BRANCH   1   5
ATOM      5  C   UNL     1      25.298  38.429  25.169  1.00  0.00     0.059 C 
BRANCH   5   6
ATOM      6  C   UNL     1      24.587  38.474  26.485  1.00  0.00     0.042 C 
ATOM      7  O   UNL     1      23.389  38.856  26.545  1.00  0.00    -0.550 OA
ATOM      8  O   UNL     1      25.233  38.046  27.638  1.00  0.00    -0.550 OA
ENDBRANCH   5   6
ENDBRANCH   1   5
TORSDOF 3
ENDMDL
MODEL 2
REMARK VINA RESULT:    -3.173      0.149      4.360
REMARK INTER + INTRA:          -3.771
REMARK INTER:                  -3.732
REMARK INTRA:                  -0.039
REMARK UNBOUND:                -0.042
REMARK SMILES O=C([O-])CCC(=O)[O-]
REMARK SMILES IDX 4 1 2 2 1 3 3 4 5 5 6 6 7 7 8 8
REMARK H PARENT
REMARK Flexibility Score: inf
ROOT
ATOM      1  C   UNL     1      25.259  38.357  25.181  1.00  0.00     0.059 C 
ENDROOT
BRANCH   1   2
ATOM      2  C   UNL     1      24.547  38.411  26.496  1.00  0.00     0.042 C 
ATOM      3  O   UNL     1      23.349  38.794  26.552  1.00  0.00    -0.550 OA
ATOM      4  O   UNL     1      25.222  38.084  27.665  1.00  0.00    -0.550 OA
ENDBRANCH   1   2
BRANCH   1   5
ATOM      5  C   UNL     1      24.303  37.912  24.072  1.00  0.00     0.059 C 
BRANCH   5   6
ATOM      6  C   UNL     1      24.984  37.963  22.741  1.00  0.00     0.042 C 
ATOM      7  O   UNL     1      25.998  38.691  22.576  1.00  0.00    -0.550 OA
ATOM      8  O   UNL     1      24.529  37.168  21.696  1.00  0.00    -0.550 OA
ENDBRANCH   5   6
ENDBRANCH   1   5
TORSDOF 3
ENDMDL
MODEL 3
REMARK VINA RESULT:    -3.137     16.682     18.058
REMARK INTER + INTRA:          -3.728
REMARK INTER:                  -3.697
REMARK INTRA:                  -0.032
REMARK UNBOUND:                -0.042
REMARK SMILES O=C([O-])CCC(=O)[O-]
REMARK SMILES IDX 4 1 2 2 1 3 3 4 5 5 6 6 7 7 8 8
REMARK H PARENT
REMARK Flexibility Score: inf
ROOT
ATOM      1  C   UNL     1      15.127  31.179  11.713  1.00  0.00     0.059 C 
ENDROOT
BRANCH   1   2
ATOM      2  C   UNL     1      15.335  32.660  11.695  1.00  0.00     0.042 C 
ATOM      3  O   UNL     1      16.499  33.137  11.735  1.00  0.00    -0.550 OA
ATOM      4  O   UNL     1      14.239  33.515  11.683  1.00  0.00    -0.550 OA
ENDBRANCH   1   2
BRANCH   1   5
ATOM      5  C   UNL     1      13.666  30.846  12.022  1.00  0.00     0.059 C 
BRANCH   5   6
ATOM      6  C   UNL     1      13.523  29.402  12.386  1.00  0.00     0.042 C 
ATOM      7  O   UNL     1      13.549  29.047  13.593  1.00  0.00    -0.550 OA
ATOM      8  O   UNL     1      13.310  28.453  11.393  1.00  0.00    -0.550 OA
ENDBRANCH   5   6
ENDBRANCH   1   5
TORSDOF 3
ENDMDL
MODEL 4
REMARK VINA RESULT:    -3.118     16.633     18.034
REMARK INTER + INTRA:          -3.706
REMARK INTER:                  -3.672
REMARK INTRA:                  -0.034
REMARK UNBOUND:                -0.042
REMARK SMILES O=C([O-])CCC(=O)[O-]
REMARK SMILES IDX 4 1 2 2 1 3 3 4 5 5 6 6 7 7 8 8
REMARK H PARENT
REMARK Flexibility Score: inf
ROOT
ATOM      1  C   UNL     1      13.671  30.840  12.120  1.00  0.00     0.059 C 
ENDROOT
BRANCH   1   2
ATOM      2  C   UNL     1      13.536  29.379  12.413  1.00  0.00     0.042 C 
ATOM      3  O   UNL     1      13.661  28.955  13.592  1.00  0.00    -0.550 OA
ATOM      4  O   UNL     1      13.321  28.480  11.376  1.00  0.00    -0.550 OA
ENDBRANCH   1   2
BRANCH   1   5
ATOM      5  C   UNL     1      15.108  31.175  11.715  1.00  0.00     0.059 C 
BRANCH   5   6
ATOM      6  C   UNL     1      15.333  32.653  11.755  1.00  0.00     0.042 C 
ATOM      7  O   UNL     1      14.357  33.440  11.870  1.00  0.00    -0.550 OA
ATOM      8  O   UNL     1      16.626  33.161  11.716  1.00  0.00    -0.550 OA
ENDBRANCH   5   6
ENDBRANCH   1   5
TORSDOF 3
ENDMDL
MODEL 5
REMARK VINA RESULT:    -3.105     16.602     18.016
REMARK INTER + INTRA:          -3.691
REMARK INTER:                  -3.659
REMARK INTRA:                  -0.032
REMARK UNBOUND:                -0.042
REMARK SMILES O=C([O-])CCC(=O)[O-]
REMARK SMILES IDX 4 1 2 2 1 3 3 4 5 5 6 6 7 7 8 8
REMARK H PARENT
REMARK Flexibility Score: inf
ROOT
ATOM      1  C   UNL     1      15.204  31.260  11.712  1.00  0.00     0.059 C 
ENDROOT
BRANCH   1   2
ATOM      2  C   UNL     1      15.391  32.745  11.716  1.00  0.00     0.042 C 
ATOM      3  O   UNL     1      16.548  33.238  11.773  1.00  0.00    -0.550 OA
ATOM      4  O   UNL     1      14.283  33.584  11.706  1.00  0.00    -0.550 OA
ENDBRANCH   1   2
BRANCH   1   5
ATOM      5  C   UNL     1      13.730  30.905  11.917  1.00  0.00     0.059 C 
BRANCH   5   6
ATOM      6  C   UNL     1      13.579  29.446  12.210  1.00  0.00     0.042 C 
ATOM      7  O   UNL     1      13.477  28.617  11.268  1.00  0.00    -0.550 OA
ATOM      8  O   UNL     1      13.600  28.995  13.525  1.00  0.00    -0.550 OA
ENDBRANCH   5   6
ENDBRANCH   1   5
TORSDOF 3
ENDMDL
MODEL 6
REMARK VINA RESULT:    -3.040     17.840     18.399
REMARK INTER + INTRA:          -3.614
REMARK INTER:                  -3.581
REMARK INTRA:                  -0.034
REMARK UNBOUND:                -0.042
REMARK SMILES O=C([O-])CCC(=O)[O-]
REMARK SMILES IDX 4 1 2 2 1 3 3 4 5 5 6 6 7 7 8 8
REMARK H PARENT
REMARK Flexibility Score: inf
ROOT
ATOM      1  C   UNL     1      28.557  20.012  23.321  1.00  0.00     0.059 C 
ENDROOT
BRANCH   1   2
ATOM      2  C   UNL     1      30.033  20.023  23.079  1.00  0.00     0.042 C 
ATOM      3  O   UNL     1      30.526  20.778  22.201  1.00  0.00    -0.550 OA
ATOM      4  O   UNL     1      30.859  19.162  23.792  1.00  0.00    -0.550 OA
ENDBRANCH   1   2
BRANCH   1   5
ATOM      5  C   UNL     1      28.231  20.645  24.675  1.00  0.00     0.059 C 
BRANCH   5   6
ATOM      6  C   UNL     1      26.765  20.551  24.958  1.00  0.00     0.042 C 
ATOM      7  O   UNL     1      25.971  20.156  24.065  1.00  0.00    -0.550 OA
ATOM      8  O   UNL     1      26.281  20.853  26.226  1.00  0.00    -0.550 OA
ENDBRANCH   5   6
ENDBRANCH   1   5
TORSDOF 3
ENDMDL
MODEL 7
REMARK VINA RESULT:    -3.013     17.511     18.328
REMARK INTER + INTRA:          -3.583
REMARK INTER:                  -3.548
REMARK INTRA:                  -0.035
REMARK UNBOUND:                -0.042
REMARK SMILES O=C([O-])CCC(=O)[O-]
REMARK SMILES IDX 4 1 2 2 1 3 3 4 5 5 6 6 7 7 8 8
REMARK H PARENT
REMARK Flexibility Score: inf
ROOT
ATOM      1  C   UNL     1      27.437  20.765  25.593  1.00  0.00     0.059 C 
ENDROOT
BRANCH   1   2
ATOM      2  C   UNL     1      25.996  20.694  25.989  1.00  0.00     0.042 C 
ATOM      3  O   UNL     1      25.397  19.587  26.004  1.00  0.00    -0.550 OA
ATOM      4  O   UNL     1      25.302  21.858  26.295  1.00  0.00    -0.550 OA
ENDBRANCH   1   2
BRANCH   1   5
ATOM      5  C   UNL     1      27.613  20.338  24.134  1.00  0.00     0.059 C 
BRANCH   5   6
ATOM      6  C   UNL     1      29.063  20.310  23.768  1.00  0.00     0.042 C 
ATOM      7  O   UNL     1      29.914  20.876  24.503  1.00  0.00    -0.550 OA
ATOM      8  O   UNL     1      29.482  19.615  22.639  1.00  0.00    -0.550 OA
ENDBRANCH   5   6
ENDBRANCH   1   5
TORSDOF 3
ENDMDL
MODEL 8
REMARK VINA RESULT:    -3.010     17.525     18.007
REMARK INTER + INTRA:          -3.579
REMARK INTER:                  -3.545
REMARK INTRA:                  -0.034
REMARK UNBOUND:                -0.042
REMARK SMILES O=C([O-])CCC(=O)[O-]
REMARK SMILES IDX 4 1 2 2 1 3 3 4 5 5 6 6 7 7 8 8
REMARK H PARENT
REMARK Flexibility Score: inf
ROOT
ATOM      1  C   UNL     1      27.609  20.344  24.137  1.00  0.00     0.059 C 
ENDROOT
BRANCH   1   2
ATOM      2  C   UNL     1      29.063  20.275  23.792  1.00  0.00     0.042 C 
ATOM      3  O   UNL     1      29.913  20.865  24.508  1.00  0.00    -0.550 OA
ATOM      4  O   UNL     1      29.473  19.599  22.649  1.00  0.00    -0.550 OA
ENDBRANCH   1   2
BRANCH   1   5
ATOM      5  C   UNL     1      27.425  20.739  25.604  1.00  0.00     0.059 C 
BRANCH   5   6
ATOM      6  C   UNL     1      25.979  20.683  25.984  1.00  0.00     0.042 C 
ATOM      7  O   UNL     1      25.390  19.574  26.074  1.00  0.00    -0.550 OA
ATOM      8  O   UNL     1      25.294  21.853  26.289  1.00  0.00    -0.550 OA
ENDBRANCH   5   6
ENDBRANCH   1   5
TORSDOF 3
ENDMDL
MODEL 9
REMARK VINA RESULT:    -2.794     18.158     18.833
REMARK INTER + INTRA:          -3.326
REMARK INTER:                  -3.202
REMARK INTRA:                  -0.123
REMARK UNBOUND:                -0.042
REMARK SMILES O=C([O-])CCC(=O)[O-]
REMARK SMILES IDX 4 1 2 2 1 3 3 4 5 5 6 6 7 7 8 8
REMARK H PARENT
REMARK Flexibility Score: inf
ROOT
ATOM      1  C   UNL     1      27.978  18.991  24.370  1.00  0.00     0.059 C 
ENDROOT
BRANCH   1   2
ATOM      2  C   UNL     1      26.802  19.772  23.874  1.00  0.00     0.042 C 
ATOM      3  O   UNL     1      26.359  20.742  24.543  1.00  0.00    -0.550 OA
ATOM      4  O   UNL     1      26.167  19.398  22.696  1.00  0.00    -0.550 OA
ENDBRANCH   1   2
BRANCH   1   5
ATOM      5  C   UNL     1      29.098  18.990  23.327  1.00  0.00     0.059 C 
BRANCH   5   6
ATOM      6  C   UNL     1      29.866  20.273  23.381  1.00  0.00     0.042 C 
ATOM      7  O   UNL     1      30.012  20.878  24.475  1.00  0.00    -0.550 OA
ATOM      8  O   UNL     1      30.463  20.774  22.231  1.00  0.00    -0.550 OA
ENDBRANCH   5   6
ENDBRANCH   1   5
TORSDOF 3
ENDMDL
