MODEL 1
REMARK VINA RESULT:    -3.219      0.000      0.000
REMARK INTER + INTRA:          -8.343
REMARK INTER:                  -6.042
REMARK INTRA:                  -2.302
REMARK UNBOUND:                -2.302
REMARK SMILES O=C([O-])CCCCCCCCCCCCCCC(=O)[O-]
REMARK SMILES IDX 10 1 9 2 8 3 7 4 6 5 5 6 4 7 2 8 1 9 3 10 11 11 12 12 13 13
REMARK SMILES IDX 14 14 15 15 16 16 17 17 18 18 19 19 20 20
REMARK H PARENT
REMARK Flexibility Score: inf
ROOT
ATOM      1  C   UNL     1      63.888  34.900  60.931  1.00  0.00     0.000 C 
ENDROOT
BRANCH   1   2
ATOM      2  C   UNL     1      62.584  35.609  60.528  1.00  0.00     0.000 C 
BRANCH   2   3
ATOM      3  C   UNL     1      61.561  34.652  59.892  1.00  0.00     0.000 C 
BRANCH   3   4
ATOM      4  C   UNL     1      61.842  33.174  60.217  1.00  0.00     0.000 C 
BRANCH   4   5
ATOM      5  C   UNL     1      61.179  32.164  59.264  1.00  0.00     0.000 C 
BRANCH   5   6
ATOM      6  C   UNL     1      60.900  30.805  59.931  1.00  0.00     0.006 C 
BRANCH   6   7
ATOM      7  C   UNL     1      61.541  30.702  61.321  1.00  0.00     0.053 C 
BRANCH   7   8
ATOM      8  C   UNL     1      62.700  29.751  61.328  1.00  0.00     0.041 C 
ATOM      9  O   UNL     1      63.880  30.190  61.347  1.00  0.00    -0.550 OA
ATOM     10  O   UNL     1      62.475  28.380  61.351  1.00  0.00    -0.550 OA
ENDBRANCH   7   8
ENDBRANCH   6   7
ENDBRANCH   5   6
ENDBRANCH   4   5
ENDBRANCH   3   4
ENDBRANCH   2   3
ENDBRANCH   1   2
BRANCH   1  11
ATOM     11  C   UNL     1      65.002  35.890  61.310  1.00  0.00     0.000 C 
BRANCH  11  12
ATOM     12  C   UNL     1      66.256  35.732  60.435  1.00  0.00     0.000 C 
BRANCH  12  13
ATOM     13  C   UNL     1      66.045  36.243  58.999  1.00  0.00     0.000 C 
BRANCH  13  14
ATOM     14  C   UNL     1      66.129  35.118  57.956  1.00  0.00     0.000 C 
BRANCH  14  15
ATOM     15  C   UNL     1      64.786  34.866  57.246  1.00  0.00     0.000 C 
BRANCH  15  16
ATOM     16  C   UNL     1      64.244  33.445  57.489  1.00  0.00     0.006 C 
BRANCH  16  17
ATOM     17  C   UNL     1      65.101  32.597  58.442  1.00  0.00     0.053 C 
BRANCH  17  18
ATOM     18  C   UNL     1      64.935  31.130  58.191  1.00  0.00     0.041 C 
ATOM     19  O   UNL     1      63.947  30.708  57.534  1.00  0.00    -0.550 OA
ATOM     20  O   UNL     1      65.889  30.232  58.653  1.00  0.00    -0.550 OA
ENDBRANCH  17  18
ENDBRANCH  16  17
ENDBRANCH  15  16
ENDBRANCH  14  15
ENDBRANCH  13  14
ENDBRANCH  12  13
ENDBRANCH  11  12
ENDBRANCH   1  11
TORSDOF 15
ENDMDL
MODEL 2
REMARK VINA RESULT:    -3.213     11.267     13.789
REMARK INTER + INTRA:          -8.332
REMARK INTER:                  -6.728
REMARK INTRA:                  -1.604
REMARK UNBOUND:                -2.302
REMARK SMILES O=C([O-])CCCCCCCCCCCCCCC(=O)[O-]
REMARK SMILES IDX 10 1 9 2 8 3 7 4 6 5 5 6 4 7 2 8 1 9 3 10 11 11 12 12 13 13
REMARK SMILES IDX 14 14 15 15 16 16 17 17 18 18 19 19 20 20
REMARK H PARENT
REMARK Flexibility Score: inf
ROOT
ATOM      1  C   UNL     1      55.804  25.904  50.208  1.00  0.00     0.000 C 
ENDROOT
BRANCH   1   2
ATOM      2  C   UNL     1      57.253  26.173  49.772  1.00  0.00     0.000 C 
BRANCH   2   3
ATOM      3  C   UNL     1      57.965  27.192  50.679  1.00  0.00     0.000 C 
BRANCH   3   4
ATOM      4  C   UNL     1      57.744  28.648  50.231  1.00  0.00     0.000 C 
BRANCH   4   5
ATOM      5  C   UNL     1      59.005  29.364  49.713  1.00  0.00     0.000 C 
BRANCH   5   6
ATOM      6  C   UNL     1      59.965  28.421  48.967  1.00  0.00     0.006 C 
BRANCH   6   7
ATOM      7  C   UNL     1      61.328  28.315  49.664  1.00  0.00     0.053 C 
BRANCH   7   8
ATOM      8  C   UNL     1      61.894  26.930  49.567  1.00  0.00     0.041 C 
ATOM      9  O   UNL     1      61.130  25.930  49.605  1.00  0.00    -0.550 OA
ATOM     10  O   UNL     1      63.260  26.747  49.397  1.00  0.00    -0.550 OA
ENDBRANCH   7   8
ENDBRANCH   6   7
ENDBRANCH   5   6
ENDBRANCH   4   5
ENDBRANCH   3   4
ENDBRANCH   2   3
ENDBRANCH   1   2
BRANCH   1  11
ATOM     11  C   UNL     1      54.851  25.743  49.011  1.00  0.00     0.000 C 
BRANCH  11  12
ATOM     12  C   UNL     1      53.671  26.728  49.059  1.00  0.00     0.000 C 
BRANCH  12  13
ATOM     13  C   UNL     1      54.074  28.110  49.602  1.00  0.00     0.000 C 
BRANCH  13  14
ATOM     14  C   UNL     1      52.875  29.063  49.731  1.00  0.00     0.000 C 
BRANCH  14  15
ATOM     15  C   UNL     1      53.087  30.138  50.813  1.00  0.00     0.000 C 
BRANCH  15  16
ATOM     16  C   UNL     1      54.575  30.414  51.093  1.00  0.00     0.006 C 
BRANCH  16  17
ATOM     17  C   UNL     1      54.934  30.478  52.587  1.00  0.00     0.053 C 
BRANCH  17  18
ATOM     18  C   UNL     1      54.732  29.160  53.269  1.00  0.00     0.041 C 
ATOM     19  O   UNL     1      55.392  28.151  52.907  1.00  0.00    -0.550 OA
ATOM     20  O   UNL     1      53.839  29.055  54.328  1.00  0.00    -0.550 OA
ENDBRANCH  17  18
ENDBRANCH  16  17
ENDBRANCH  15  16
ENDBRANCH  14  15
ENDBRANCH  13  14
ENDBRANCH  12  13
ENDBRANCH  11  12
ENDBRANCH   1  11
TORSDOF 15
ENDMDL
MODEL 3
REMARK VINA RESULT:    -3.121      2.461      4.422
REMARK INTER + INTRA:          -8.160
REMARK INTER:                  -6.182
REMARK INTRA:                  -1.979
REMARK UNBOUND:                -2.302
REMARK SMILES O=C([O-])CCCCCCCCCCCCCCC(=O)[O-]
REMARK SMILES IDX 10 1 9 2 8 3 7 4 6 5 5 6 4 7 2 8 1 9 3 10 11 11 12 12 13 13
REMARK SMILES IDX 14 14 15 15 16 16 17 17 18 18 19 19 20 20
REMARK H PARENT
REMARK Flexibility Score: inf
ROOT
ATOM      1  C   UNL     1      62.419  32.639  58.976  1.00  0.00     0.000 C 
ENDROOT
BRANCH   1   2
ATOM      2  C   UNL     1      61.723  32.598  60.346  1.00  0.00     0.000 C 
BRANCH   2   3
ATOM      3  C   UNL     1      61.039  31.248  60.624  1.00  0.00     0.000 C 
BRANCH   3   4
ATOM      4  C   UNL     1      61.891  30.316  61.504  1.00  0.00     0.000 C 
BRANCH   4   5
ATOM      5  C   UNL     1      62.850  29.393  60.730  1.00  0.00     0.000 C 
BRANCH   5   6
ATOM      6  C   UNL     1      64.332  29.699  61.011  1.00  0.00     0.006 C 
BRANCH   6   7
ATOM      7  C   UNL     1      65.267  28.659  60.379  1.00  0.00     0.053 C 
BRANCH   7   8
ATOM      8  C   UNL     1      66.292  29.301  59.495  1.00  0.00     0.041 C 
ATOM      9  O   UNL     1      66.037  30.391  58.917  1.00  0.00    -0.550 OA
ATOM     10  O   UNL     1      67.542  28.715  59.339  1.00  0.00    -0.550 OA
ENDBRANCH   7   8
ENDBRANCH   6   7
ENDBRANCH   5   6
ENDBRANCH   4   5
ENDBRANCH   3   4
ENDBRANCH   2   3
ENDBRANCH   1   2
BRANCH   1  11
ATOM     11  C   UNL     1      63.748  33.414  59.015  1.00  0.00     0.000 C 
BRANCH  11  12
ATOM     12  C   UNL     1      64.523  33.193  60.325  1.00  0.00     0.000 C 
BRANCH  12  13
ATOM     13  C   UNL     1      64.716  34.493  61.125  1.00  0.00     0.000 C 
BRANCH  13  14
ATOM     14  C   UNL     1      65.032  35.697  60.224  1.00  0.00     0.000 C 
BRANCH  14  15
ATOM     15  C   UNL     1      64.046  36.863  60.425  1.00  0.00     0.000 C 
BRANCH  15  16
ATOM     16  C   UNL     1      62.674  36.397  60.944  1.00  0.00     0.006 C 
BRANCH  16  17
ATOM     17  C   UNL     1      61.476  36.996  60.189  1.00  0.00     0.053 C 
BRANCH  17  18
ATOM     18  C   UNL     1      61.134  36.205  58.964  1.00  0.00     0.041 C 
ATOM     19  O   UNL     1      60.112  35.469  58.949  1.00  0.00    -0.550 OA
ATOM     20  O   UNL     1      61.925  36.307  57.826  1.00  0.00    -0.550 OA
ENDBRANCH  17  18
ENDBRANCH  16  17
ENDBRANCH  15  16
ENDBRANCH  14  15
ENDBRANCH  13  14
ENDBRANCH  12  13
ENDBRANCH  11  12
ENDBRANCH   1  11
TORSDOF 15
ENDMDL
MODEL 4
REMARK VINA RESULT:    -3.102      2.536      5.269
REMARK INTER + INTRA:          -8.125
REMARK INTER:                  -5.986
REMARK INTRA:                  -2.138
REMARK UNBOUND:                -2.302
REMARK SMILES O=C([O-])CCCCCCCCCCCCCCC(=O)[O-]
REMARK SMILES IDX 10 1 9 2 8 3 7 4 6 5 5 6 4 7 2 8 1 9 3 10 11 11 12 12 13 13
REMARK SMILES IDX 14 14 15 15 16 16 17 17 18 18 19 19 20 20
REMARK H PARENT
REMARK Flexibility Score: inf
ROOT
ATOM      1  C   UNL     1      61.332  30.351  58.865  1.00  0.00     0.000 C 
ENDROOT
BRANCH   1   2
ATOM      2  C   UNL     1      61.665  31.479  57.874  1.00  0.00     0.000 C 
BRANCH   2   3
ATOM      3  C   UNL     1      60.989  32.811  58.245  1.00  0.00     0.000 C 
BRANCH   3   4
ATOM      4  C   UNL     1      61.998  33.895  58.666  1.00  0.00     0.000 C 
BRANCH   4   5
ATOM      5  C   UNL     1      61.952  34.278  60.156  1.00  0.00     0.000 C 
BRANCH   5   6
ATOM      6  C   UNL     1      62.942  35.400  60.517  1.00  0.00     0.006 C 
BRANCH   6   7
ATOM      7  C   UNL     1      64.258  34.849  61.081  1.00  0.00     0.053 C 
BRANCH   7   8
ATOM      8  C   UNL     1      65.422  35.183  60.198  1.00  0.00     0.041 C 
ATOM      9  O   UNL     1      65.418  34.837  58.987  1.00  0.00    -0.550 OA
ATOM     10  O   UNL     1      66.494  35.908  60.703  1.00  0.00    -0.550 OA
ENDBRANCH   7   8
ENDBRANCH   6   7
ENDBRANCH   5   6
ENDBRANCH   4   5
ENDBRANCH   3   4
ENDBRANCH   2   3
ENDBRANCH   1   2
BRANCH   1  11
ATOM     11  C   UNL     1      60.747  30.882  60.185  1.00  0.00     0.000 C 
BRANCH  11  12
ATOM     12  C   UNL     1      61.581  30.471  61.409  1.00  0.00     0.000 C 
BRANCH  12  13
ATOM     13  C   UNL     1      63.007  30.030  61.033  1.00  0.00     0.000 C 
BRANCH  13  14
ATOM     14  C   UNL     1      64.004  31.199  61.035  1.00  0.00     0.000 C 
BRANCH  14  15
ATOM     15  C   UNL     1      64.882  31.231  59.771  1.00  0.00     0.000 C 
BRANCH  15  16
ATOM     16  C   UNL     1      65.284  29.825  59.291  1.00  0.00     0.006 C 
BRANCH  16  17
ATOM     17  C   UNL     1      66.416  29.179  60.106  1.00  0.00     0.053 C 
BRANCH  17  18
ATOM     18  C   UNL     1      66.271  27.690  60.184  1.00  0.00     0.041 C 
ATOM     19  O   UNL     1      67.284  26.949  60.084  1.00  0.00    -0.550 OA
ATOM     20  O   UNL     1      65.021  27.123  60.402  1.00  0.00    -0.550 OA
ENDBRANCH  17  18
ENDBRANCH  16  17
ENDBRANCH  15  16
ENDBRANCH  14  15
ENDBRANCH  13  14
ENDBRANCH  12  13
ENDBRANCH  11  12
ENDBRANCH   1  11
TORSDOF 15
ENDMDL
MODEL 5
REMARK VINA RESULT:    -3.090     10.128     12.293
REMARK INTER + INTRA:          -8.101
REMARK INTER:                  -5.944
REMARK INTRA:                  -2.157
REMARK UNBOUND:                -2.302
REMARK SMILES O=C([O-])CCCCCCCCCCCCCCC(=O)[O-]
REMARK SMILES IDX 10 1 9 2 8 3 7 4 6 5 5 6 4 7 2 8 1 9 3 10 11 11 12 12 13 13
REMARK SMILES IDX 14 14 15 15 16 16 17 17 18 18 19 19 20 20
REMARK H PARENT
REMARK Flexibility Score: inf
ROOT
ATOM      1  C   UNL     1      54.537  26.810  50.287  1.00  0.00     0.000 C 
ENDROOT
BRANCH   1   2
ATOM      2  C   UNL     1      53.697  27.677  49.335  1.00  0.00     0.000 C 
BRANCH   2   3
ATOM      3  C   UNL     1      53.446  29.091  49.885  1.00  0.00     0.000 C 
BRANCH   3   4
ATOM      4  C   UNL     1      54.744  29.809  50.300  1.00  0.00     0.000 C 
BRANCH   4   5
ATOM      5  C   UNL     1      54.677  30.535  51.656  1.00  0.00     0.000 C 
BRANCH   5   6
ATOM      6  C   UNL     1      55.186  29.670  52.823  1.00  0.00     0.006 C 
BRANCH   6   7
ATOM      7  C   UNL     1      56.220  30.409  53.682  1.00  0.00     0.053 C 
BRANCH   7   8
ATOM      8  C   UNL     1      57.202  29.462  54.303  1.00  0.00     0.041 C 
ATOM      9  O   UNL     1      56.852  28.289  54.598  1.00  0.00    -0.550 OA
ATOM     10  O   UNL     1      58.514  29.864  54.522  1.00  0.00    -0.550 OA
ENDBRANCH   7   8
ENDBRANCH   6   7
ENDBRANCH   5   6
ENDBRANCH   4   5
ENDBRANCH   3   4
ENDBRANCH   2   3
ENDBRANCH   1   2
BRANCH   1  11
ATOM     11  C   UNL     1      55.567  25.945  49.539  1.00  0.00     0.000 C 
BRANCH  11  12
ATOM     12  C   UNL     1      57.007  26.457  49.714  1.00  0.00     0.000 C 
BRANCH  12  13
ATOM     13  C   UNL     1      57.276  26.997  51.130  1.00  0.00     0.000 C 
BRANCH  13  14
ATOM     14  C   UNL     1      58.352  28.094  51.147  1.00  0.00     0.000 C 
BRANCH  14  15
ATOM     15  C   UNL     1      58.221  29.072  49.964  1.00  0.00     0.000 C 
BRANCH  15  16
ATOM     16  C   UNL     1      59.538  29.242  49.186  1.00  0.00     0.006 C 
BRANCH  16  17
ATOM     17  C   UNL     1      60.411  27.978  49.139  1.00  0.00     0.053 C 
BRANCH  17  18
ATOM     18  C   UNL     1      61.788  28.226  49.675  1.00  0.00     0.041 C 
ATOM     19  O   UNL     1      61.945  28.605  50.866  1.00  0.00    -0.550 OA
ATOM     20  O   UNL     1      62.899  28.005  48.871  1.00  0.00    -0.550 OA
ENDBRANCH  17  18
ENDBRANCH  16  17
ENDBRANCH  15  16
ENDBRANCH  14  15
ENDBRANCH  13  14
ENDBRANCH  12  13
ENDBRANCH  11  12
ENDBRANCH   1  11
TORSDOF 15
ENDMDL
MODEL 6
REMARK VINA RESULT:    -3.014     11.797     13.560
REMARK INTER + INTRA:          -7.958
REMARK INTER:                  -6.330
REMARK INTRA:                  -1.628
REMARK UNBOUND:                -2.302
REMARK SMILES O=C([O-])CCCCCCCCCCCCCCC(=O)[O-]
REMARK SMILES IDX 10 1 9 2 8 3 7 4 6 5 5 6 4 7 2 8 1 9 3 10 11 11 12 12 13 13
REMARK SMILES IDX 14 14 15 15 16 16 17 17 18 18 19 19 20 20
REMARK H PARENT
REMARK Flexibility Score: inf
ROOT
ATOM      1  C   UNL     1      56.565  27.184  50.932  1.00  0.00     0.000 C 
ENDROOT
BRANCH   1   2
ATOM      2  C   UNL     1      56.567  26.189  49.760  1.00  0.00     0.000 C 
BRANCH   2   3
ATOM      3  C   UNL     1      55.232  26.172  48.995  1.00  0.00     0.000 C 
BRANCH   3   4
ATOM      4  C   UNL     1      54.238  25.136  49.551  1.00  0.00     0.000 C 
BRANCH   4   5
ATOM      5  C   UNL     1      53.086  25.728  50.384  1.00  0.00     0.000 C 
BRANCH   5   6
ATOM      6  C   UNL     1      53.009  25.139  51.804  1.00  0.00     0.006 C 
BRANCH   6   7
ATOM      7  C   UNL     1      53.992  23.977  52.001  1.00  0.00     0.053 C 
BRANCH   7   8
ATOM      8  C   UNL     1      53.477  22.978  52.993  1.00  0.00     0.041 C 
ATOM      9  O   UNL     1      53.526  21.746  52.734  1.00  0.00    -0.550 OA
ATOM     10  O   UNL     1      52.978  23.405  54.217  1.00  0.00    -0.550 OA
ENDBRANCH   7   8
ENDBRANCH   6   7
ENDBRANCH   5   6
ENDBRANCH   4   5
ENDBRANCH   3   4
ENDBRANCH   2   3
ENDBRANCH   1   2
BRANCH   1  11
ATOM     11  C   UNL     1      56.853  28.626  50.480  1.00  0.00     0.000 C 
BRANCH  11  12
ATOM     12  C   UNL     1      58.322  29.028  50.689  1.00  0.00     0.000 C 
BRANCH  12  13
ATOM     13  C   UNL     1      59.034  29.380  49.371  1.00  0.00     0.000 C 
BRANCH  13  14
ATOM     14  C   UNL     1      60.099  28.342  48.982  1.00  0.00     0.000 C 
BRANCH  14  15
ATOM     15  C   UNL     1      60.397  27.345  50.116  1.00  0.00     0.000 C 
BRANCH  15  16
ATOM     16  C   UNL     1      60.539  25.897  49.612  1.00  0.00     0.006 C 
BRANCH  16  17
ATOM     17  C   UNL     1      59.940  24.839  50.553  1.00  0.00     0.053 C 
BRANCH  17  18
ATOM     18  C   UNL     1      60.680  23.539  50.479  1.00  0.00     0.041 C 
ATOM     19  O   UNL     1      60.539  22.677  51.386  1.00  0.00    -0.550 OA
ATOM     20  O   UNL     1      61.500  23.266  49.391  1.00  0.00    -0.550 OA
ENDBRANCH  17  18
ENDBRANCH  16  17
ENDBRANCH  15  16
ENDBRANCH  14  15
ENDBRANCH  13  14
ENDBRANCH  12  13
ENDBRANCH  11  12
ENDBRANCH   1  11
TORSDOF 15
ENDMDL
MODEL 7
REMARK VINA RESULT:    -2.982      2.388      5.590
REMARK INTER + INTRA:          -7.899
REMARK INTER:                  -5.345
REMARK INTRA:                  -2.554
REMARK UNBOUND:                -2.302
REMARK SMILES O=C([O-])CCCCCCCCCCCCCCC(=O)[O-]
REMARK SMILES IDX 10 1 9 2 8 3 7 4 6 5 5 6 4 7 2 8 1 9 3 10 11 11 12 12 13 13
REMARK SMILES IDX 14 14 15 15 16 16 17 17 18 18 19 19 20 20
REMARK H PARENT
REMARK Flexibility Score: inf
ROOT
ATOM      1  C   UNL     1      61.836  31.877  59.080  1.00  0.00     0.000 C 
ENDROOT
BRANCH   1   2
ATOM      2  C   UNL     1      63.320  32.174  58.807  1.00  0.00     0.000 C 
BRANCH   2   3
ATOM      3  C   UNL     1      64.100  32.522  60.087  1.00  0.00     0.000 C 
BRANCH   3   4
ATOM      4  C   UNL     1      64.733  33.924  60.037  1.00  0.00     0.000 C 
BRANCH   4   5
ATOM      5  C   UNL     1      64.202  34.913  61.091  1.00  0.00     0.000 C 
BRANCH   5   6
ATOM      6  C   UNL     1      63.494  36.129  60.468  1.00  0.00     0.006 C 
BRANCH   6   7
ATOM      7  C   UNL     1      61.975  35.932  60.381  1.00  0.00     0.053 C 
BRANCH   7   8
ATOM      8  C   UNL     1      61.544  35.554  58.996  1.00  0.00     0.041 C 
ATOM      9  O   UNL     1      60.371  35.143  58.789  1.00  0.00    -0.550 OA
ATOM     10  O   UNL     1      62.424  35.691  57.931  1.00  0.00    -0.550 OA
ENDBRANCH   7   8
ENDBRANCH   6   7
ENDBRANCH   5   6
ENDBRANCH   4   5
ENDBRANCH   3   4
ENDBRANCH   2   3
ENDBRANCH   1   2
BRANCH   1  11
ATOM     11  C   UNL     1      61.431  32.192  60.531  1.00  0.00     0.000 C 
BRANCH  11  12
ATOM     12  C   UNL     1      61.054  30.931  61.326  1.00  0.00     0.000 C 
BRANCH  12  13
ATOM     13  C   UNL     1      60.911  29.687  60.431  1.00  0.00     0.000 C 
BRANCH  13  14
ATOM     14  C   UNL     1      61.892  28.569  60.816  1.00  0.00     0.000 C 
BRANCH  14  15
ATOM     15  C   UNL     1      63.303  29.099  61.128  1.00  0.00     0.000 C 
BRANCH  15  16
ATOM     16  C   UNL     1      64.320  28.768  60.020  1.00  0.00     0.006 C 
BRANCH  16  17
ATOM     17  C   UNL     1      63.755  27.900  58.884  1.00  0.00     0.053 C 
BRANCH  17  18
ATOM     18  C   UNL     1      63.640  28.662  57.599  1.00  0.00     0.041 C 
ATOM     19  O   UNL     1      62.508  28.979  57.149  1.00  0.00    -0.550 OA
ATOM     20  O   UNL     1      64.786  29.051  56.917  1.00  0.00    -0.550 OA
ENDBRANCH  17  18
ENDBRANCH  16  17
ENDBRANCH  15  16
ENDBRANCH  14  15
ENDBRANCH  13  14
ENDBRANCH  12  13
ENDBRANCH  11  12
ENDBRANCH   1  11
TORSDOF 15
ENDMDL
MODEL 8
REMARK VINA RESULT:    -2.981      2.540      5.721
REMARK INTER + INTRA:          -7.897
REMARK INTER:                  -5.399
REMARK INTRA:                  -2.498
REMARK UNBOUND:                -2.302
REMARK SMILES O=C([O-])CCCCCCCCCCCCCCC(=O)[O-]
REMARK SMILES IDX 10 1 9 2 8 3 7 4 6 5 5 6 4 7 2 8 1 9 3 10 11 11 12 12 13 13
REMARK SMILES IDX 14 14 15 15 16 16 17 17 18 18 19 19 20 20
REMARK H PARENT
REMARK Flexibility Score: inf
ROOT
ATOM      1  C   UNL     1      64.401  30.847  58.017  1.00  0.00     0.000 C 
ENDROOT
BRANCH   1   2
ATOM      2  C   UNL     1      62.919  31.109  57.701  1.00  0.00     0.000 C 
BRANCH   2   3
ATOM      3  C   UNL     1      62.575  32.609  57.674  1.00  0.00     0.000 C 
BRANCH   3   4
ATOM      4  C   UNL     1      61.225  32.923  58.345  1.00  0.00     0.000 C 
BRANCH   4   5
ATOM      5  C   UNL     1      61.235  34.149  59.276  1.00  0.00     0.000 C 
BRANCH   5   6
ATOM      6  C   UNL     1      62.376  34.107  60.309  1.00  0.00     0.006 C 
BRANCH   6   7
ATOM      7  C   UNL     1      63.016  35.485  60.520  1.00  0.00     0.053 C 
BRANCH   7   8
ATOM      8  C   UNL     1      63.770  35.938  59.306  1.00  0.00     0.041 C 
ATOM      9  O   UNL     1      64.784  35.300  58.917  1.00  0.00    -0.550 OA
ATOM     10  O   UNL     1      63.330  37.040  58.584  1.00  0.00    -0.550 OA
ENDBRANCH   7   8
ENDBRANCH   6   7
ENDBRANCH   5   6
ENDBRANCH   4   5
ENDBRANCH   3   4
ENDBRANCH   2   3
ENDBRANCH   1   2
BRANCH   1  11
ATOM     11  C   UNL     1      64.951  31.802  59.091  1.00  0.00     0.000 C 
BRANCH  11  12
ATOM     12  C   UNL     1      64.577  31.365  60.517  1.00  0.00     0.000 C 
BRANCH  12  13
ATOM     13  C   UNL     1      64.573  29.835  60.685  1.00  0.00     0.000 C 
BRANCH  13  14
ATOM     14  C   UNL     1      63.197  29.293  61.103  1.00  0.00     0.000 C 
BRANCH  14  15
ATOM     15  C   UNL     1      62.170  30.412  61.355  1.00  0.00     0.000 C 
BRANCH  15  16
ATOM     16  C   UNL     1      60.798  30.113  60.725  1.00  0.00     0.006 C 
BRANCH  16  17
ATOM     17  C   UNL     1      60.782  28.883  59.803  1.00  0.00     0.053 C 
BRANCH  17  18
ATOM     18  C   UNL     1      59.975  27.760  60.379  1.00  0.00     0.041 C 
ATOM     19  O   UNL     1      58.766  27.939  60.679  1.00  0.00    -0.550 OA
ATOM     20  O   UNL     1      60.549  26.507  60.551  1.00  0.00    -0.550 OA
ENDBRANCH  17  18
ENDBRANCH  16  17
ENDBRANCH  15  16
ENDBRANCH  14  15
ENDBRANCH  13  14
ENDBRANCH  12  13
ENDBRANCH  11  12
ENDBRANCH   1  11
TORSDOF 15
ENDMDL
MODEL 9
REMARK VINA RESULT:    -2.971     10.782     12.575
REMARK INTER + INTRA:          -7.878
REMARK INTER:                  -5.873
REMARK INTRA:                  -2.005
REMARK UNBOUND:                -2.302
REMARK SMILES O=C([O-])CCCCCCCCCCCCCCC(=O)[O-]
REMARK SMILES IDX 10 1 9 2 8 3 7 4 6 5 5 6 4 7 2 8 1 9 3 10 11 11 12 12 13 13
REMARK SMILES IDX 14 14 15 15 16 16 17 17 18 18 19 19 20 20
REMARK H PARENT
REMARK Flexibility Score: inf
ROOT
ATOM      1  C   UNL     1      56.724  26.182  50.153  1.00  0.00     0.000 C 
ENDROOT
BRANCH   1   2
ATOM      2  C   UNL     1      55.216  25.895  50.069  1.00  0.00     0.000 C 
BRANCH   2   3
ATOM      3  C   UNL     1      54.448  26.979  49.293  1.00  0.00     0.000 C 
BRANCH   3   4
ATOM      4  C   UNL     1      53.838  28.053  50.212  1.00  0.00     0.000 C 
BRANCH   4   5
ATOM      5  C   UNL     1      54.467  29.451  50.080  1.00  0.00     0.000 C 
BRANCH   5   6
ATOM      6  C   UNL     1      54.040  30.409  51.207  1.00  0.00     0.006 C 
BRANCH   6   7
ATOM      7  C   UNL     1      55.068  30.456  52.345  1.00  0.00     0.053 C 
BRANCH   7   8
ATOM      8  C   UNL     1      55.242  31.846  52.878  1.00  0.00     0.041 C 
ATOM      9  O   UNL     1      54.333  32.704  52.718  1.00  0.00    -0.550 OA
ATOM     10  O   UNL     1      56.390  32.183  53.582  1.00  0.00    -0.550 OA
ENDBRANCH   7   8
ENDBRANCH   6   7
ENDBRANCH   5   6
ENDBRANCH   4   5
ENDBRANCH   3   4
ENDBRANCH   2   3
ENDBRANCH   1   2
BRANCH   1  11
ATOM     11  C   UNL     1      57.142  26.725  51.531  1.00  0.00     0.000 C 
BRANCH  11  12
ATOM     12  C   UNL     1      57.786  28.119  51.446  1.00  0.00     0.000 C 
BRANCH  12  13
ATOM     13  C   UNL     1      58.090  28.544  49.999  1.00  0.00     0.000 C 
BRANCH  13  14
ATOM     14  C   UNL     1      59.219  29.583  49.916  1.00  0.00     0.000 C 
BRANCH  14  15
ATOM     15  C   UNL     1      60.598  28.943  49.670  1.00  0.00     0.000 C 
BRANCH  15  16
ATOM     16  C   UNL     1      60.497  27.518  49.096  1.00  0.00     0.006 C 
BRANCH  16  17
ATOM     17  C   UNL     1      61.413  26.493  49.785  1.00  0.00     0.053 C 
BRANCH  17  18
ATOM     18  C   UNL     1      60.657  25.614  50.734  1.00  0.00     0.041 C 
ATOM     19  O   UNL     1      59.820  24.782  50.297  1.00  0.00    -0.550 OA
ATOM     20  O   UNL     1      60.902  25.691  52.100  1.00  0.00    -0.550 OA
ENDBRANCH  17  18
ENDBRANCH  16  17
ENDBRANCH  15  16
ENDBRANCH  14  15
ENDBRANCH  13  14
ENDBRANCH  12  13
ENDBRANCH  11  12
ENDBRANCH   1  11
TORSDOF 15
ENDMDL
