MODEL 1
REMARK VINA RESULT:    -1.834      0.000      0.000
REMARK INTER + INTRA:          -4.318
REMARK INTER:                  -2.906
REMARK INTRA:                  -1.412
REMARK UNBOUND:                -1.412
REMARK SMILES CCCCCCCCCCCC(=O)[O-]
REMARK SMILES IDX 7 1 8 2 9 3 10 4 11 5 12 6 13 7 14 8 6 9 5 10 4 11 3 12 2 13
REMARK SMILES IDX 1 14
REMARK H PARENT
REMARK Flexibility Score: inf
ROOT
ATOM      1  C   UNL     1     -30.379 -34.099  13.458  1.00  0.00     0.000 C 
ENDROOT
BRANCH   1   2
ATOM      2  C   UNL     1     -31.328 -33.257  14.328  1.00  0.00     0.000 C 
BRANCH   2   3
ATOM      3  C   UNL     1     -31.384 -33.740  15.788  1.00  0.00     0.000 C 
BRANCH   3   4
ATOM      4  C   UNL     1     -31.737 -35.231  15.968  1.00  0.00     0.006 C 
BRANCH   4   5
ATOM      5  C   UNL     1     -32.541 -35.548  17.239  1.00  0.00     0.053 C 
BRANCH   5   6
ATOM      6  C   UNL     1     -31.747 -35.296  18.484  1.00  0.00     0.041 C 
ATOM      7  O   UNL     1     -32.062 -34.351  19.254  1.00  0.00    -0.550 OA
ATOM      8  O   UNL     1     -30.682 -36.125  18.811  1.00  0.00    -0.550 OA
ENDBRANCH   5   6
ENDBRANCH   4   5
ENDBRANCH   3   4
ENDBRANCH   2   3
ENDBRANCH   1   2
BRANCH   1   9
ATOM      9  C   UNL     1     -31.094 -34.760  12.266  1.00  0.00     0.000 C 
BRANCH   9  10
ATOM     10  C   UNL     1     -31.804 -36.089  12.593  1.00  0.00    -0.000 C 
BRANCH  10  11
ATOM     11  C   UNL     1     -33.344 -36.013  12.652  1.00  0.00    -0.000 C 
BRANCH  11  12
ATOM     12  C   UNL     1     -33.955 -34.741  12.038  1.00  0.00    -0.000 C 
BRANCH  12  13
ATOM     13  C   UNL     1     -34.665 -33.862  13.077  1.00  0.00    -0.003 C 
ATOM     14  C   UNL     1     -34.945 -34.642  14.358  1.00  0.00     0.004 C 
ENDBRANCH  12  13
ENDBRANCH  11  12
ENDBRANCH  10  11
ENDBRANCH   9  10
ENDBRANCH   1   9
TORSDOF 10
ENDMDL
MODEL 2
REMARK VINA RESULT:    -1.782     22.433     24.505
REMARK INTER + INTRA:          -4.237
REMARK INTER:                  -2.616
REMARK INTRA:                  -1.621
REMARK UNBOUND:                -1.412
REMARK SMILES CCCCCCCCCCCC(=O)[O-]
REMARK SMILES IDX 7 1 8 2 9 3 10 4 11 5 12 6 13 7 14 8 6 9 5 10 4 11 3 12 2 13
REMARK SMILES IDX 1 14
REMARK H PARENT
REMARK Flexibility Score: inf
ROOT
ATOM      1  C   UNL     1     -16.833 -25.857  30.732  1.00  0.00     0.000 C 
ENDROOT
BRANCH   1   2
ATOM      2  C   UNL     1     -17.071 -25.743  29.217  1.00  0.00     0.000 C 
BRANCH   2   3
ATOM      3  C   UNL     1     -18.205 -24.765  28.863  1.00  0.00     0.000 C 
BRANCH   3   4
ATOM      4  C   UNL     1     -19.241 -24.536  29.983  1.00  0.00     0.006 C 
BRANCH   4   5
ATOM      5  C   UNL     1     -19.601 -23.063  30.228  1.00  0.00     0.053 C 
BRANCH   5   6
ATOM      6  C   UNL     1     -20.300 -22.865  31.539  1.00  0.00     0.041 C 
ATOM      7  O   UNL     1     -20.243 -21.752  32.125  1.00  0.00    -0.550 OA
ATOM      8  O   UNL     1     -21.042 -23.899  32.095  1.00  0.00    -0.550 OA
ENDBRANCH   5   6
ENDBRANCH   4   5
ENDBRANCH   3   4
ENDBRANCH   2   3
ENDBRANCH   1   2
BRANCH   1   9
ATOM      9  C   UNL     1     -15.365 -25.615  31.123  1.00  0.00     0.000 C 
BRANCH   9  10
ATOM     10  C   UNL     1     -15.105 -24.299  31.882  1.00  0.00    -0.000 C 
BRANCH  10  11
ATOM     11  C   UNL     1     -16.326 -23.365  32.014  1.00  0.00    -0.000 C 
BRANCH  11  12
ATOM     12  C   UNL     1     -16.195 -22.016  31.284  1.00  0.00    -0.000 C 
BRANCH  12  13
ATOM     13  C   UNL     1     -15.646 -22.163  29.858  1.00  0.00    -0.003 C 
ATOM     14  C   UNL     1     -16.533 -21.437  28.851  1.00  0.00     0.004 C 
ENDBRANCH  12  13
ENDBRANCH  11  12
ENDBRANCH  10  11
ENDBRANCH   9  10
ENDBRANCH   1   9
TORSDOF 10
ENDMDL
MODEL 3
REMARK VINA RESULT:    -1.758      1.117      3.040
REMARK INTER + INTRA:          -4.199
REMARK INTER:                  -3.149
REMARK INTRA:                  -1.050
REMARK UNBOUND:                -1.412
REMARK SMILES CCCCCCCCCCCC(=O)[O-]
REMARK SMILES IDX 7 1 8 2 9 3 10 4 11 5 12 6 13 7 14 8 6 9 5 10 4 11 3 12 2 13
REMARK SMILES IDX 1 14
REMARK H PARENT
REMARK Flexibility Score: inf
ROOT
ATOM      1  C   UNL     1     -34.047 -33.671  13.972  1.00  0.00     0.000 C 
ENDROOT
BRANCH   1   2
ATOM      2  C   UNL     1     -35.101 -34.230  14.942  1.00  0.00     0.000 C 
BRANCH   2   3
ATOM      3  C   UNL     1     -34.514 -34.588  16.319  1.00  0.00     0.000 C 
BRANCH   3   4
ATOM      4  C   UNL     1     -33.721 -35.911  16.365  1.00  0.00     0.006 C 
BRANCH   4   5
ATOM      5  C   UNL     1     -32.194 -35.742  16.346  1.00  0.00     0.053 C 
BRANCH   5   6
ATOM      6  C   UNL     1     -31.612 -35.730  17.726  1.00  0.00     0.041 C 
ATOM      7  O   UNL     1     -32.358 -35.888  18.728  1.00  0.00    -0.550 OA
ATOM      8  O   UNL     1     -30.243 -35.580  17.904  1.00  0.00    -0.550 OA
ENDBRANCH   5   6
ENDBRANCH   4   5
ENDBRANCH   3   4
ENDBRANCH   2   3
ENDBRANCH   1   2
BRANCH   1   9
ATOM      9  C   UNL     1     -34.117 -34.322  12.579  1.00  0.00     0.000 C 
BRANCH   9  10
ATOM     10  C   UNL     1     -33.742 -35.817  12.543  1.00  0.00    -0.000 C 
BRANCH  10  11
ATOM     11  C   UNL     1     -32.228 -36.113  12.510  1.00  0.00    -0.000 C 
BRANCH  11  12
ATOM     12  C   UNL     1     -31.342 -34.922  12.101  1.00  0.00    -0.000 C 
BRANCH  12  13
ATOM     13  C   UNL     1     -30.390 -34.478  13.220  1.00  0.00    -0.003 C 
ATOM     14  C   UNL     1     -28.951 -34.396  12.717  1.00  0.00     0.004 C 
ENDBRANCH  12  13
ENDBRANCH  11  12
ENDBRANCH  10  11
ENDBRANCH   9  10
ENDBRANCH   1   9
TORSDOF 10
ENDMDL
MODEL 4
REMARK VINA RESULT:    -1.700      1.595      3.455
REMARK INTER + INTRA:          -4.107
REMARK INTER:                  -2.951
REMARK INTRA:                  -1.155
REMARK UNBOUND:                -1.412
REMARK SMILES CCCCCCCCCCCC(=O)[O-]
REMARK SMILES IDX 7 1 8 2 9 3 10 4 11 5 12 6 13 7 14 8 6 9 5 10 4 11 3 12 2 13
REMARK SMILES IDX 1 14
REMARK H PARENT
REMARK Flexibility Score: inf
ROOT
ATOM      1  C   UNL     1     -33.074 -33.798  12.893  1.00  0.00     0.000 C 
ENDROOT
BRANCH   1   2
ATOM      2  C   UNL     1     -34.424 -34.498  13.124  1.00  0.00     0.000 C 
BRANCH   2   3
ATOM      3  C   UNL     1     -34.964 -34.297  14.551  1.00  0.00     0.000 C 
BRANCH   3   4
ATOM      4  C   UNL     1     -35.125 -35.591  15.375  1.00  0.00     0.006 C 
BRANCH   4   5
ATOM      5  C   UNL     1     -33.820 -36.125  15.988  1.00  0.00     0.053 C 
BRANCH   5   6
ATOM      6  C   UNL     1     -33.569 -35.561  17.353  1.00  0.00     0.041 C 
ATOM      7  O   UNL     1     -32.458 -35.743  17.917  1.00  0.00    -0.550 OA
ATOM      8  O   UNL     1     -34.547 -34.806  17.986  1.00  0.00    -0.550 OA
ENDBRANCH   5   6
ENDBRANCH   4   5
ENDBRANCH   3   4
ENDBRANCH   2   3
ENDBRANCH   1   2
BRANCH   1   9
ATOM      9  C   UNL     1     -32.107 -34.640  12.041  1.00  0.00     0.000 C 
BRANCH   9  10
ATOM     10  C   UNL     1     -31.572 -35.910  12.732  1.00  0.00    -0.000 C 
BRANCH  10  11
ATOM     11  C   UNL     1     -30.074 -35.877  13.098  1.00  0.00    -0.000 C 
BRANCH  11  12
ATOM     12  C   UNL     1     -29.773 -35.907  14.607  1.00  0.00    -0.000 C 
BRANCH  12  13
ATOM     13  C   UNL     1     -30.375 -34.711  15.357  1.00  0.00    -0.003 C 
ATOM     14  C   UNL     1     -29.742 -33.400  14.898  1.00  0.00     0.004 C 
ENDBRANCH  12  13
ENDBRANCH  11  12
ENDBRANCH  10  11
ENDBRANCH   9  10
ENDBRANCH   1   9
TORSDOF 10
ENDMDL
MODEL 5
REMARK VINA RESULT:    -1.639      2.106      3.711
REMARK INTER + INTRA:          -4.009
REMARK INTER:                  -2.632
REMARK INTRA:                  -1.377
REMARK UNBOUND:                -1.412
REMARK SMILES CCCCCCCCCCCC(=O)[O-]
REMARK SMILES IDX 7 1 8 2 9 3 10 4 11 5 12 6 13 7 14 8 6 9 5 10 4 11 3 12 2 13
REMARK SMILES IDX 1 14
REMARK H PARENT
REMARK Flexibility Score: inf
ROOT
ATOM      1  C   UNL     1     -34.804 -36.065  15.827  1.00  0.00     0.000 C 
ENDROOT
BRANCH   1   2
ATOM      2  C   UNL     1     -34.208 -35.008  16.771  1.00  0.00     0.000 C 
BRANCH   2   3
ATOM      3  C   UNL     1     -32.816 -35.398  17.301  1.00  0.00     0.000 C 
BRANCH   3   4
ATOM      4  C   UNL     1     -31.635 -34.968  16.407  1.00  0.00     0.006 C 
BRANCH   4   5
ATOM      5  C   UNL     1     -31.463 -33.447  16.264  1.00  0.00     0.053 C 
BRANCH   5   6
ATOM      6  C   UNL     1     -30.209 -33.090  15.527  1.00  0.00     0.041 C 
ATOM      7  O   UNL     1     -30.243 -32.246  14.593  1.00  0.00    -0.550 OA
ATOM      8  O   UNL     1     -28.998 -33.663  15.893  1.00  0.00    -0.550 OA
ENDBRANCH   5   6
ENDBRANCH   4   5
ENDBRANCH   3   4
ENDBRANCH   2   3
ENDBRANCH   1   2
BRANCH   1   9
ATOM      9  C   UNL     1     -34.509 -35.772  14.345  1.00  0.00     0.000 C 
BRANCH   9  10
ATOM     10  C   UNL     1     -34.708 -34.303  13.923  1.00  0.00    -0.000 C 
BRANCH  10  11
ATOM     11  C   UNL     1     -33.687 -33.770  12.897  1.00  0.00    -0.000 C 
BRANCH  11  12
ATOM     12  C   UNL     1     -32.889 -34.856  12.153  1.00  0.00    -0.000 C 
BRANCH  12  13
ATOM     13  C   UNL     1     -31.382 -34.787  12.439  1.00  0.00    -0.003 C 
ATOM     14  C   UNL     1     -30.860 -36.125  12.957  1.00  0.00     0.004 C 
ENDBRANCH  12  13
ENDBRANCH  11  12
ENDBRANCH  10  11
ENDBRANCH   9  10
ENDBRANCH   1   9
TORSDOF 10
ENDMDL
MODEL 6
REMARK VINA RESULT:    -1.629      2.844      4.043
REMARK INTER + INTRA:          -3.993
REMARK INTER:                  -2.422
REMARK INTRA:                  -1.571
REMARK UNBOUND:                -1.412
REMARK SMILES CCCCCCCCCCCC(=O)[O-]
REMARK SMILES IDX 7 1 8 2 9 3 10 4 11 5 12 6 13 7 14 8 6 9 5 10 4 11 3 12 2 13
REMARK SMILES IDX 1 14
REMARK H PARENT
REMARK Flexibility Score: inf
ROOT
ATOM      1  C   UNL     1     -33.430 -34.992  15.313  1.00  0.00     0.000 C 
ENDROOT
BRANCH   1   2
ATOM      2  C   UNL     1     -32.302 -34.982  16.358  1.00  0.00     0.000 C 
BRANCH   2   3
ATOM      3  C   UNL     1     -31.133 -35.911  15.985  1.00  0.00     0.000 C 
BRANCH   3   4
ATOM      4  C   UNL     1     -29.865 -35.192  15.480  1.00  0.00     0.006 C 
BRANCH   4   5
ATOM      5  C   UNL     1     -28.687 -36.125  15.157  1.00  0.00     0.053 C 
BRANCH   5   6
ATOM      6  C   UNL     1     -27.696 -35.481  14.238  1.00  0.00     0.041 C 
ATOM      7  O   UNL     1     -27.791 -35.641  12.992  1.00  0.00    -0.550 OA
ATOM      8  O   UNL     1     -26.688 -34.677  14.753  1.00  0.00    -0.550 OA
ENDBRANCH   5   6
ENDBRANCH   4   5
ENDBRANCH   3   4
ENDBRANCH   2   3
ENDBRANCH   1   2
BRANCH   1   9
ATOM      9  C   UNL     1     -33.274 -36.124  14.282  1.00  0.00     0.000 C 
BRANCH   9  10
ATOM     10  C   UNL     1     -33.102 -35.654  12.824  1.00  0.00    -0.000 C 
BRANCH  10  11
ATOM     11  C   UNL     1     -31.655 -35.687  12.290  1.00  0.00    -0.000 C 
BRANCH  11  12
ATOM     12  C   UNL     1     -31.032 -34.306  12.019  1.00  0.00    -0.000 C 
BRANCH  12  13
ATOM     13  C   UNL     1     -31.968 -33.147  12.392  1.00  0.00    -0.003 C 
ATOM     14  C   UNL     1     -31.412 -32.349  13.568  1.00  0.00     0.004 C 
ENDBRANCH  12  13
ENDBRANCH  11  12
ENDBRANCH  10  11
ENDBRANCH   9  10
ENDBRANCH   1   9
TORSDOF 10
ENDMDL
MODEL 7
REMARK VINA RESULT:    -1.621      1.610      3.099
REMARK INTER + INTRA:          -3.981
REMARK INTER:                  -2.663
REMARK INTRA:                  -1.319
REMARK UNBOUND:                -1.412
REMARK SMILES CCCCCCCCCCCC(=O)[O-]
REMARK SMILES IDX 7 1 8 2 9 3 10 4 11 5 12 6 13 7 14 8 6 9 5 10 4 11 3 12 2 13
REMARK SMILES IDX 1 14
REMARK H PARENT
REMARK Flexibility Score: inf
ROOT
ATOM      1  C   UNL     1     -32.685 -36.124  13.650  1.00  0.00     0.000 C 
ENDROOT
BRANCH   1   2
ATOM      2  C   UNL     1     -34.100 -35.558  13.447  1.00  0.00     0.000 C 
BRANCH   2   3
ATOM      3  C   UNL     1     -34.838 -35.306  14.775  1.00  0.00     0.000 C 
BRANCH   3   4
ATOM      4  C   UNL     1     -34.271 -36.070  15.989  1.00  0.00     0.006 C 
BRANCH   4   5
ATOM      5  C   UNL     1     -34.958 -35.746  17.325  1.00  0.00     0.053 C 
BRANCH   5   6
ATOM      6  C   UNL     1     -34.045 -35.021  18.266  1.00  0.00     0.041 C 
ATOM      7  O   UNL     1     -33.399 -35.660  19.138  1.00  0.00    -0.550 OA
ATOM      8  O   UNL     1     -33.880 -33.647  18.157  1.00  0.00    -0.550 OA
ENDBRANCH   5   6
ENDBRANCH   4   5
ENDBRANCH   3   4
ENDBRANCH   2   3
ENDBRANCH   1   2
BRANCH   1   9
ATOM      9  C   UNL     1     -31.748 -35.819  12.467  1.00  0.00     0.000 C 
BRANCH   9  10
ATOM     10  C   UNL     1     -31.803 -34.366  11.956  1.00  0.00    -0.000 C 
BRANCH  10  11
ATOM     11  C   UNL     1     -31.237 -33.307  12.925  1.00  0.00    -0.000 C 
BRANCH  11  12
ATOM     12  C   UNL     1     -32.291 -32.390  13.571  1.00  0.00    -0.000 C 
BRANCH  12  13
ATOM     13  C   UNL     1     -32.077 -32.210  15.080  1.00  0.00    -0.003 C 
ATOM     14  C   UNL     1     -31.348 -33.410  15.678  1.00  0.00     0.004 C 
ENDBRANCH  12  13
ENDBRANCH  11  12
ENDBRANCH  10  11
ENDBRANCH   9  10
ENDBRANCH   1   9
TORSDOF 10
ENDMDL
MODEL 8
REMARK VINA RESULT:    -1.602     22.994     24.503
REMARK INTER + INTRA:          -3.951
REMARK INTER:                  -2.287
REMARK INTRA:                  -1.664
REMARK UNBOUND:                -1.412
REMARK SMILES CCCCCCCCCCCC(=O)[O-]
REMARK SMILES IDX 7 1 8 2 9 3 10 4 11 5 12 6 13 7 14 8 6 9 5 10 4 11 3 12 2 13
REMARK SMILES IDX 1 14
REMARK H PARENT
REMARK Flexibility Score: inf
ROOT
ATOM      1  C   UNL     1     -15.338 -21.555  29.509  1.00  0.00     0.000 C 
ENDROOT
BRANCH   1   2
ATOM      2  C   UNL     1     -14.875 -22.972  29.887  1.00  0.00     0.000 C 
BRANCH   2   3
ATOM      3  C   UNL     1     -15.142 -23.313  31.364  1.00  0.00     0.000 C 
BRANCH   3   4
ATOM      4  C   UNL     1     -16.145 -24.462  31.596  1.00  0.00     0.006 C 
BRANCH   4   5
ATOM      5  C   UNL     1     -15.995 -25.646  30.628  1.00  0.00     0.053 C 
BRANCH   5   6
ATOM      6  C   UNL     1     -17.120 -26.627  30.761  1.00  0.00     0.041 C 
ATOM      7  O   UNL     1     -18.313 -26.222  30.780  1.00  0.00    -0.550 OA
ATOM      8  O   UNL     1     -16.853 -27.988  30.830  1.00  0.00    -0.550 OA
ENDBRANCH   5   6
ENDBRANCH   4   5
ENDBRANCH   3   4
ENDBRANCH   2   3
ENDBRANCH   1   2
BRANCH   1   9
ATOM      9  C   UNL     1     -16.487 -21.559  28.485  1.00  0.00     0.000 C 
BRANCH   9  10
ATOM     10  C   UNL     1     -17.164 -22.928  28.276  1.00  0.00    -0.000 C 
BRANCH  10  11
ATOM     11  C   UNL     1     -18.493 -23.126  29.035  1.00  0.00    -0.000 C 
BRANCH  11  12
ATOM     12  C   UNL     1     -19.014 -21.877  29.768  1.00  0.00    -0.000 C 
BRANCH  12  13
ATOM     13  C   UNL     1     -18.874 -21.981  31.294  1.00  0.00    -0.003 C 
ATOM     14  C   UNL     1     -18.080 -20.804  31.854  1.00  0.00     0.004 C 
ENDBRANCH  12  13
ENDBRANCH  11  12
ENDBRANCH  10  11
ENDBRANCH   9  10
ENDBRANCH   1   9
TORSDOF 10
ENDMDL
MODEL 9
REMARK VINA RESULT:    -1.572      2.908      4.573
REMARK INTER + INTRA:          -3.903
REMARK INTER:                  -2.755
REMARK INTRA:                  -1.148
REMARK UNBOUND:                -1.412
REMARK SMILES CCCCCCCCCCCC(=O)[O-]
REMARK SMILES IDX 7 1 8 2 9 3 10 4 11 5 12 6 13 7 14 8 6 9 5 10 4 11 3 12 2 13
REMARK SMILES IDX 1 14
REMARK H PARENT
REMARK Flexibility Score: inf
ROOT
ATOM      1  C   UNL     1     -31.532 -35.215  13.596  1.00  0.00     0.000 C 
ENDROOT
BRANCH   1   2
ATOM      2  C   UNL     1     -32.290 -36.125  12.615  1.00  0.00     0.000 C 
BRANCH   2   3
ATOM      3  C   UNL     1     -33.676 -35.572  12.237  1.00  0.00     0.000 C 
BRANCH   3   4
ATOM      4  C   UNL     1     -33.811 -34.038  12.327  1.00  0.00     0.006 C 
BRANCH   4   5
ATOM      5  C   UNL     1     -35.076 -33.549  13.050  1.00  0.00     0.053 C 
BRANCH   5   6
ATOM      6  C   UNL     1     -34.876 -33.451  14.531  1.00  0.00     0.041 C 
ATOM      7  O   UNL     1     -34.901 -34.490  15.243  1.00  0.00    -0.550 OA
ATOM      8  O   UNL     1     -34.627 -32.219  15.120  1.00  0.00    -0.550 OA
ENDBRANCH   5   6
ENDBRANCH   4   5
ENDBRANCH   3   4
ENDBRANCH   2   3
ENDBRANCH   1   2
BRANCH   1   9
ATOM      9  C   UNL     1     -30.104 -34.890  13.122  1.00  0.00     0.000 C 
BRANCH   9  10
ATOM     10  C   UNL     1     -30.017 -33.830  12.005  1.00  0.00    -0.000 C 
BRANCH  10  11
ATOM     11  C   UNL     1     -29.132 -32.608  12.327  1.00  0.00    -0.000 C 
BRANCH  11  12
ATOM     12  C   UNL     1     -29.871 -31.258  12.343  1.00  0.00    -0.000 C 
BRANCH  12  13
ATOM     13  C   UNL     1     -31.329 -31.372  11.877  1.00  0.00    -0.003 C 
ATOM     14  C   UNL     1     -32.276 -30.694  12.864  1.00  0.00     0.004 C 
ENDBRANCH  12  13
ENDBRANCH  11  12
ENDBRANCH  10  11
ENDBRANCH   9  10
ENDBRANCH   1   9
TORSDOF 10
ENDMDL
