MODEL 1
REMARK VINA RESULT:     0.724      0.000      0.000
REMARK INTER + INTRA:           0.788
REMARK INTER:                   0.788
REMARK INTRA:                   0.000
REMARK UNBOUND:                 0.000
REMARK SMILES Cc1cc(O)c2c(c1)C(=O)c1cc(O)cc(O)c1C2=O
REMARK SMILES IDX 1 1 2 2 8 3 7 4 6 5 4 6 3 7 19 8 20 9 18 10 11 11 9 12 10 13
REMARK SMILES IDX 12 14 13 15 15 16 16 17 5 18 17 20 14 22
REMARK H PARENT 5 19 17 21 14 23
REMARK Flexibility Score: inf
ROOT
ATOM      1  C   UNL     1      10.854  18.953  -5.123  1.00  0.00     0.044 C 
ATOM      2  C   UNL     1      11.473  19.666  -3.956  1.00  0.00    -0.047 A 
ATOM      3  C   UNL     1      11.955  20.971  -4.103  1.00  0.00     0.016 A 
ATOM      4  C   UNL     1      12.560  21.636  -3.024  1.00  0.00     0.038 A 
ATOM      5  C   UNL     1      12.687  20.984  -1.777  1.00  0.00     0.076 A 
ATOM      6  C   UNL     1      12.274  19.632  -1.659  1.00  0.00     0.127 A 
ATOM      7  C   UNL     1      11.655  18.998  -2.740  1.00  0.00     0.050 A 
ATOM      8  C   UNL     1      13.196  21.769  -0.622  1.00  0.00     0.201 C 
ATOM      9  O   UNL     1      12.816  21.484   0.545  1.00  0.00    -0.288 OA
ATOM     10  C   UNL     1      13.999  22.996  -0.861  1.00  0.00     0.076 A 
ATOM     11  C   UNL     1      13.872  23.645  -2.111  1.00  0.00     0.041 A 
ATOM     12  C   UNL     1      13.075  23.017  -3.190  1.00  0.00     0.194 C 
ATOM     13  O   UNL     1      12.854  23.648  -4.260  1.00  0.00    -0.289 OA
ATOM     14  C   UNL     1      14.508  24.880  -2.324  1.00  0.00     0.059 A 
ATOM     15  C   UNL     1      15.277  25.465  -1.315  1.00  0.00     0.120 A 
ATOM     16  C   UNL     1      15.437  24.809  -0.095  1.00  0.00     0.093 A 
ATOM     17  C   UNL     1      14.833  23.569   0.134  1.00  0.00     0.131 A 
ENDROOT
BRANCH   6  18
ATOM     18  O   UNL     1      12.491  18.875  -0.505  1.00  0.00    -0.507 OA
ATOM     19  H   UNL     1      13.158  19.126   0.211  1.00  0.00     0.293 HD
ENDBRANCH   6  18
BRANCH  17  20
ATOM     20  O   UNL     1      15.114  22.931   1.345  1.00  0.00    -0.507 OA
ATOM     21  H   UNL     1      15.051  23.386   2.245  1.00  0.00     0.293 HD
ENDBRANCH  17  20
BRANCH  15  22
ATOM     22  O   UNL     1      15.898  26.696  -1.520  1.00  0.00    -0.508 OA
ATOM     23  H   UNL     1      16.312  26.939  -2.412  1.00  0.00     0.293 HD
ENDBRANCH  15  22
TORSDOF 3
ENDMDL
MODEL 2
REMARK VINA RESULT:     2.459      1.348      5.502
REMARK INTER + INTRA:           2.674
REMARK INTER:                   2.674
REMARK INTRA:                   0.000
REMARK UNBOUND:                 0.000
REMARK SMILES Cc1cc(O)c2c(c1)C(=O)c1cc(O)cc(O)c1C2=O
REMARK SMILES IDX 1 1 2 2 8 3 7 4 6 5 4 6 3 7 19 8 20 9 18 10 11 11 9 12 10 13
REMARK SMILES IDX 12 14 13 15 15 16 16 17 5 18 17 20 14 22
REMARK H PARENT 5 19 17 21 14 23
REMARK Flexibility Score: inf
ROOT
ATOM      1  C   UNL     1      15.494  26.594  -1.377  1.00  0.00     0.044 C 
ATOM      2  C   UNL     1      14.935  25.209  -1.222  1.00  0.00    -0.047 A 
ATOM      3  C   UNL     1      14.388  24.543  -2.323  1.00  0.00     0.016 A 
ATOM      4  C   UNL     1      13.838  23.258  -2.182  1.00  0.00     0.038 A 
ATOM      5  C   UNL     1      13.834  22.630  -0.916  1.00  0.00     0.076 A 
ATOM      6  C   UNL     1      14.313  23.344   0.212  1.00  0.00     0.127 A 
ATOM      7  C   UNL     1      14.875  24.614   0.043  1.00  0.00     0.050 A 
ATOM      8  C   UNL     1      13.380  21.217  -0.835  1.00  0.00     0.201 C 
ATOM      9  O   UNL     1      13.860  20.455   0.046  1.00  0.00    -0.288 OA
ATOM     10  C   UNL     1      12.510  20.659  -1.902  1.00  0.00     0.076 A 
ATOM     11  C   UNL     1      12.513  21.292  -3.166  1.00  0.00     0.041 A 
ATOM     12  C   UNL     1      13.253  22.562  -3.353  1.00  0.00     0.194 C 
ATOM     13  O   UNL     1      13.365  23.063  -4.506  1.00  0.00    -0.289 OA
ATOM     14  C   UNL     1      11.811  20.715  -4.238  1.00  0.00     0.059 A 
ATOM     15  C   UNL     1      11.096  19.528  -4.060  1.00  0.00     0.120 A 
ATOM     16  C   UNL     1      11.057  18.922  -2.805  1.00  0.00     0.093 A 
ATOM     17  C   UNL     1      11.730  19.488  -1.717  1.00  0.00     0.131 A 
ENDROOT
BRANCH   6  18
ATOM     18  O   UNL     1      14.217  22.850   1.514  1.00  0.00    -0.507 OA
ATOM     19  H   UNL     1      14.509  21.920   1.782  1.00  0.00     0.293 HD
ENDBRANCH   6  18
BRANCH  17  20
ATOM     20  O   UNL     1      11.569  18.875  -0.472  1.00  0.00    -0.507 OA
ATOM     21  H   UNL     1      11.390  17.887  -0.354  1.00  0.00     0.293 HD
ENDBRANCH  17  20
BRANCH  15  22
ATOM     22  O   UNL     1      10.409  18.947  -5.125  1.00  0.00    -0.508 OA
ATOM     23  H   UNL     1       9.571  19.367  -5.508  1.00  0.00     0.293 HD
ENDBRANCH  15  22
TORSDOF 3
ENDMDL
