MODEL 1
REMARK VINA RESULT:    -4.767      0.000      0.000
REMARK INTER + INTRA:         -10.880
REMARK INTER:                  -9.226
REMARK INTRA:                  -1.655
REMARK UNBOUND:                -1.655
REMARK SMILES CCCCCCCCCCCCCCCCCC(=O)[O-]
REMARK SMILES IDX 10 1 11 2 12 3 13 4 14 5 15 6 16 7 17 8 18 9 19 10 20 11
REMARK SMILES IDX 9 12 8 13 7 14 6 15 5 16 4 17 3 18 2 19 1 20
REMARK H PARENT
REMARK Flexibility Score: inf
ROOT
ATOM      1  C   UNL     1      13.344   2.634  11.517  1.00  0.00     0.000 C 
ENDROOT
BRANCH   1   2
ATOM      2  C   UNL     1      12.395   3.837  11.386  1.00  0.00     0.000 C 
BRANCH   2   3
ATOM      3  C   UNL     1      13.110   5.111  10.907  1.00  0.00     0.000 C 
BRANCH   3   4
ATOM      4  C   UNL     1      12.109   6.115  10.323  1.00  0.00     0.000 C 
BRANCH   4   5
ATOM      5  C   UNL     1      11.006   6.446  11.337  1.00  0.00     0.000 C 
BRANCH   5   6
ATOM      6  C   UNL     1      11.165   7.842  11.964  1.00  0.00     0.000 C 
BRANCH   6   7
ATOM      7  C   UNL     1      11.725   8.901  10.991  1.00  0.00     0.006 C 
BRANCH   7   8
ATOM      8  C   UNL     1      11.971  10.251  11.677  1.00  0.00     0.053 C 
BRANCH   8   9
ATOM      9  C   UNL     1      12.305  11.300  10.664  1.00  0.00     0.041 C 
ATOM     10  O   UNL     1      11.948  12.495  10.847  1.00  0.00    -0.550 OA
ATOM     11  O   UNL     1      12.953  10.948   9.489  1.00  0.00    -0.550 OA
ENDBRANCH   8   9
ENDBRANCH   7   8
ENDBRANCH   6   7
ENDBRANCH   5   6
ENDBRANCH   4   5
ENDBRANCH   3   4
ENDBRANCH   2   3
ENDBRANCH   1   2
BRANCH   1  12
ATOM     12  C   UNL     1      12.682   1.326  11.999  1.00  0.00     0.000 C 
BRANCH  12  13
ATOM     13  C   UNL     1      13.149   0.823  13.376  1.00  0.00    -0.000 C 
BRANCH  13  14
ATOM     14  C   UNL     1      13.499   1.970  14.341  1.00  0.00    -0.000 C 
BRANCH  14  15
ATOM     15  C   UNL     1      12.802   1.825  15.707  1.00  0.00    -0.000 C 
BRANCH  15  16
ATOM     16  C   UNL     1      11.265   1.889  15.629  1.00  0.00    -0.000 C 
BRANCH  16  17
ATOM     17  C   UNL     1      10.708   3.330  15.709  1.00  0.00    -0.000 C 
BRANCH  17  18
ATOM     18  C   UNL     1      10.182   3.859  14.362  1.00  0.00    -0.000 C 
BRANCH  18  19
ATOM     19  C   UNL     1       9.471   5.220  14.450  1.00  0.00    -0.003 C 
ATOM     20  C   UNL     1      10.307   6.278  15.168  1.00  0.00     0.004 C 
ENDBRANCH  18  19
ENDBRANCH  17  18
ENDBRANCH  16  17
ENDBRANCH  15  16
ENDBRANCH  14  15
ENDBRANCH  13  14
ENDBRANCH  12  13
ENDBRANCH   1  12
TORSDOF 16
ENDMDL
MODEL 2
REMARK VINA RESULT:    -4.763      1.421      2.431
REMARK INTER + INTRA:         -10.872
REMARK INTER:                  -9.123
REMARK INTRA:                  -1.749
REMARK UNBOUND:                -1.655
REMARK SMILES CCCCCCCCCCCCCCCCCC(=O)[O-]
REMARK SMILES IDX 10 1 11 2 12 3 13 4 14 5 15 6 16 7 17 8 18 9 19 10 20 11
REMARK SMILES IDX 9 12 8 13 7 14 6 15 5 16 4 17 3 18 2 19 1 20
REMARK H PARENT
REMARK Flexibility Score: inf
ROOT
ATOM      1  C   UNL     1      11.248   4.594   9.907  1.00  0.00     0.000 C 
ENDROOT
BRANCH   1   2
ATOM      2  C   UNL     1      12.258   5.482  10.657  1.00  0.00     0.000 C 
BRANCH   2   3
ATOM      3  C   UNL     1      12.059   6.979  10.376  1.00  0.00     0.000 C 
BRANCH   3   4
ATOM      4  C   UNL     1      11.432   7.685  11.584  1.00  0.00     0.000 C 
BRANCH   4   5
ATOM      5  C   UNL     1      11.502   9.210  11.427  1.00  0.00     0.000 C 
BRANCH   5   6
ATOM      6  C   UNL     1      12.114   9.650  10.086  1.00  0.00     0.000 C 
BRANCH   6   7
ATOM      7  C   UNL     1      12.600  11.114  10.074  1.00  0.00     0.006 C 
BRANCH   7   8
ATOM      8  C   UNL     1      12.367  11.817  11.419  1.00  0.00     0.053 C 
BRANCH   8   9
ATOM      9  C   UNL     1      11.786  13.179  11.204  1.00  0.00     0.041 C 
ATOM     10  O   UNL     1      11.616  13.619  10.035  1.00  0.00    -0.550 OA
ATOM     11  O   UNL     1      11.492  13.987  12.293  1.00  0.00    -0.550 OA
ENDBRANCH   8   9
ENDBRANCH   7   8
ENDBRANCH   6   7
ENDBRANCH   5   6
ENDBRANCH   4   5
ENDBRANCH   3   4
ENDBRANCH   2   3
ENDBRANCH   1   2
BRANCH   1  12
ATOM     12  C   UNL     1      11.726   3.155   9.621  1.00  0.00     0.000 C 
BRANCH  12  13
ATOM     13  C   UNL     1      11.674   2.196  10.824  1.00  0.00    -0.000 C 
BRANCH  13  14
ATOM     14  C   UNL     1      13.040   2.037  11.517  1.00  0.00    -0.000 C 
BRANCH  14  15
ATOM     15  C   UNL     1      13.025   2.542  12.973  1.00  0.00    -0.000 C 
BRANCH  15  16
ATOM     16  C   UNL     1      11.668   2.362  13.678  1.00  0.00    -0.000 C 
BRANCH  16  17
ATOM     17  C   UNL     1      11.147   3.657  14.343  1.00  0.00    -0.000 C 
BRANCH  17  18
ATOM     18  C   UNL     1      10.198   4.471  13.443  1.00  0.00    -0.000 C 
BRANCH  18  19
ATOM     19  C   UNL     1       9.432   5.586  14.174  1.00  0.00    -0.003 C 
ATOM     20  C   UNL     1      10.353   6.524  14.951  1.00  0.00     0.004 C 
ENDBRANCH  18  19
ENDBRANCH  17  18
ENDBRANCH  16  17
ENDBRANCH  15  16
ENDBRANCH  14  15
ENDBRANCH  13  14
ENDBRANCH  12  13
ENDBRANCH   1  12
TORSDOF 16
ENDMDL
MODEL 3
REMARK VINA RESULT:    -4.741      2.618      4.815
REMARK INTER + INTRA:         -10.830
REMARK INTER:                  -9.093
REMARK INTRA:                  -1.737
REMARK UNBOUND:                -1.655
REMARK SMILES CCCCCCCCCCCCCCCCCC(=O)[O-]
REMARK SMILES IDX 10 1 11 2 12 3 13 4 14 5 15 6 16 7 17 8 18 9 19 10 20 11
REMARK SMILES IDX 9 12 8 13 7 14 6 15 5 16 4 17 3 18 2 19 1 20
REMARK H PARENT
REMARK Flexibility Score: inf
ROOT
ATOM      1  C   UNL     1      10.305   5.211  11.229  1.00  0.00     0.000 C 
ENDROOT
BRANCH   1   2
ATOM      2  C   UNL     1      11.416   5.561  10.224  1.00  0.00     0.000 C 
BRANCH   2   3
ATOM      3  C   UNL     1      12.090   6.909  10.525  1.00  0.00     0.000 C 
BRANCH   3   4
ATOM      4  C   UNL     1      11.325   7.674  11.612  1.00  0.00     0.000 C 
BRANCH   4   5
ATOM      5  C   UNL     1      11.460   9.190  11.416  1.00  0.00     0.000 C 
BRANCH   5   6
ATOM      6  C   UNL     1      12.212   9.565  10.127  1.00  0.00     0.000 C 
BRANCH   6   7
ATOM      7  C   UNL     1      12.503  11.075   9.993  1.00  0.00     0.006 C 
BRANCH   7   8
ATOM      8  C   UNL     1      12.416  11.807  11.339  1.00  0.00     0.053 C 
BRANCH   8   9
ATOM      9  C   UNL     1      11.339  12.846  11.301  1.00  0.00     0.041 C 
ATOM     10  O   UNL     1      10.354  12.767  12.083  1.00  0.00    -0.550 OA
ATOM     11  O   UNL     1      11.392  13.865  10.361  1.00  0.00    -0.550 OA
ENDBRANCH   8   9
ENDBRANCH   7   8
ENDBRANCH   6   7
ENDBRANCH   5   6
ENDBRANCH   4   5
ENDBRANCH   3   4
ENDBRANCH   2   3
ENDBRANCH   1   2
BRANCH   1  12
ATOM     12  C   UNL     1       9.253   4.204  10.719  1.00  0.00     0.000 C 
BRANCH  12  13
ATOM     13  C   UNL     1       8.884   4.338   9.231  1.00  0.00    -0.000 C 
BRANCH  13  14
ATOM     14  C   UNL     1       9.225   3.077   8.417  1.00  0.00    -0.000 C 
BRANCH  14  15
ATOM     15  C   UNL     1       8.938   1.778   9.195  1.00  0.00    -0.000 C 
BRANCH  15  16
ATOM     16  C   UNL     1       9.629   0.535   8.603  1.00  0.00    -0.000 C 
BRANCH  16  17
ATOM     17  C   UNL     1      11.163   0.535   8.802  1.00  0.00    -0.000 C 
BRANCH  17  18
ATOM     18  C   UNL     1      11.597   0.947  10.221  1.00  0.00    -0.000 C 
BRANCH  18  19
ATOM     19  C   UNL     1      12.528   2.171  10.269  1.00  0.00    -0.003 C 
ATOM     20  C   UNL     1      13.089   2.431  11.665  1.00  0.00     0.004 C 
ENDBRANCH  18  19
ENDBRANCH  17  18
ENDBRANCH  16  17
ENDBRANCH  15  16
ENDBRANCH  14  15
ENDBRANCH  13  14
ENDBRANCH  12  13
ENDBRANCH   1  12
TORSDOF 16
ENDMDL
MODEL 4
REMARK VINA RESULT:    -4.705      3.486      5.991
REMARK INTER + INTRA:         -10.760
REMARK INTER:                  -7.856
REMARK INTRA:                  -2.904
REMARK UNBOUND:                -1.655
REMARK SMILES CCCCCCCCCCCCCCCCCC(=O)[O-]
REMARK SMILES IDX 10 1 11 2 12 3 13 4 14 5 15 6 16 7 17 8 18 9 19 10 20 11
REMARK SMILES IDX 9 12 8 13 7 14 6 15 5 16 4 17 3 18 2 19 1 20
REMARK H PARENT
REMARK Flexibility Score: inf
ROOT
ATOM      1  C   UNL     1      11.326   6.969  12.323  1.00  0.00     0.000 C 
ENDROOT
BRANCH   1   2
ATOM      2  C   UNL     1      10.135   6.373  13.094  1.00  0.00     0.000 C 
BRANCH   2   3
ATOM      3  C   UNL     1      10.557   5.289  14.098  1.00  0.00     0.000 C 
BRANCH   3   4
ATOM      4  C   UNL     1       9.610   4.085  14.037  1.00  0.00     0.000 C 
BRANCH   4   5
ATOM      5  C   UNL     1       9.141   3.827  12.598  1.00  0.00     0.000 C 
BRANCH   5   6
ATOM      6  C   UNL     1       9.316   2.363  12.162  1.00  0.00     0.000 C 
BRANCH   6   7
ATOM      7  C   UNL     1       8.863   2.087  10.713  1.00  0.00     0.006 C 
BRANCH   7   8
ATOM      8  C   UNL     1       8.561   3.378   9.940  1.00  0.00     0.053 C 
BRANCH   8   9
ATOM      9  C   UNL     1       8.834   3.191   8.481  1.00  0.00     0.041 C 
ATOM     10  O   UNL     1       8.951   2.032   8.001  1.00  0.00    -0.550 OA
ATOM     11  O   UNL     1       9.023   4.297   7.664  1.00  0.00    -0.550 OA
ENDBRANCH   8   9
ENDBRANCH   7   8
ENDBRANCH   6   7
ENDBRANCH   5   6
ENDBRANCH   4   5
ENDBRANCH   3   4
ENDBRANCH   2   3
ENDBRANCH   1   2
BRANCH   1  12
ATOM     12  C   UNL     1      11.489   6.462  10.875  1.00  0.00     0.000 C 
BRANCH  12  13
ATOM     13  C   UNL     1      12.582   5.398  10.673  1.00  0.00    -0.000 C 
BRANCH  13  14
ATOM     14  C   UNL     1      12.039   4.097  10.054  1.00  0.00    -0.000 C 
BRANCH  14  15
ATOM     15  C   UNL     1      12.712   2.840  10.637  1.00  0.00    -0.000 C 
BRANCH  15  16
ATOM     16  C   UNL     1      12.903   2.890  12.165  1.00  0.00    -0.000 C 
BRANCH  16  17
ATOM     17  C   UNL     1      13.040   1.492  12.810  1.00  0.00    -0.000 C 
BRANCH  17  18
ATOM     18  C   UNL     1      12.241   1.339  14.118  1.00  0.00    -0.000 C 
BRANCH  18  19
ATOM     19  C   UNL     1      12.682   2.288  15.245  1.00  0.00    -0.003 C 
ATOM     20  C   UNL     1      14.147   2.102  15.634  1.00  0.00     0.004 C 
ENDBRANCH  18  19
ENDBRANCH  17  18
ENDBRANCH  16  17
ENDBRANCH  15  16
ENDBRANCH  14  15
ENDBRANCH  13  14
ENDBRANCH  12  13
ENDBRANCH   1  12
TORSDOF 16
ENDMDL
MODEL 5
REMARK VINA RESULT:    -4.678      4.328      6.833
REMARK INTER + INTRA:         -10.707
REMARK INTER:                  -7.858
REMARK INTRA:                  -2.849
REMARK UNBOUND:                -1.655
REMARK SMILES CCCCCCCCCCCCCCCCCC(=O)[O-]
REMARK SMILES IDX 10 1 11 2 12 3 13 4 14 5 15 6 16 7 17 8 18 9 19 10 20 11
REMARK SMILES IDX 9 12 8 13 7 14 6 15 5 16 4 17 3 18 2 19 1 20
REMARK H PARENT
REMARK Flexibility Score: inf
ROOT
ATOM      1  C   UNL     1      10.650   3.348   9.084  1.00  0.00     0.000 C 
ENDROOT
BRANCH   1   2
ATOM      2  C   UNL     1      11.903   2.504   9.376  1.00  0.00     0.000 C 
BRANCH   2   3
ATOM      3  C   UNL     1      11.592   1.007   9.530  1.00  0.00     0.000 C 
BRANCH   3   4
ATOM      4  C   UNL     1      12.328   0.416  10.738  1.00  0.00     0.000 C 
BRANCH   4   5
ATOM      5  C   UNL     1      12.913   1.525  11.623  1.00  0.00     0.000 C 
BRANCH   5   6
ATOM      6  C   UNL     1      13.090   1.094  13.089  1.00  0.00     0.000 C 
BRANCH   6   7
ATOM      7  C   UNL     1      13.486   2.248  14.034  1.00  0.00     0.006 C 
BRANCH   7   8
ATOM      8  C   UNL     1      13.543   1.807  15.502  1.00  0.00     0.053 C 
BRANCH   8   9
ATOM      9  C   UNL     1      12.226   1.240  15.930  1.00  0.00     0.041 C 
ATOM     10  O   UNL     1      12.121   0.014  16.202  1.00  0.00    -0.550 OA
ATOM     11  O   UNL     1      11.101   2.051  15.968  1.00  0.00    -0.550 OA
ENDBRANCH   8   9
ENDBRANCH   7   8
ENDBRANCH   6   7
ENDBRANCH   5   6
ENDBRANCH   4   5
ENDBRANCH   3   4
ENDBRANCH   2   3
ENDBRANCH   1   2
BRANCH   1  12
ATOM     12  C   UNL     1       9.306   2.637   9.347  1.00  0.00     0.000 C 
BRANCH  12  13
ATOM     13  C   UNL     1       8.336   3.392  10.274  1.00  0.00    -0.000 C 
BRANCH  13  14
ATOM     14  C   UNL     1       8.188   2.722  11.652  1.00  0.00    -0.000 C 
BRANCH  14  15
ATOM     15  C   UNL     1       9.535   2.585  12.389  1.00  0.00    -0.000 C 
BRANCH  15  16
ATOM     16  C   UNL     1       9.937   3.841  13.185  1.00  0.00    -0.000 C 
BRANCH  16  17
ATOM     17  C   UNL     1      11.051   4.668  12.503  1.00  0.00    -0.000 C 
BRANCH  17  18
ATOM     18  C   UNL     1      10.530   5.931  11.793  1.00  0.00    -0.000 C 
BRANCH  18  19
ATOM     19  C   UNL     1      11.601   6.699  10.999  1.00  0.00    -0.003 C 
ATOM     20  C   UNL     1      12.760   5.808  10.557  1.00  0.00     0.004 C 
ENDBRANCH  18  19
ENDBRANCH  17  18
ENDBRANCH  16  17
ENDBRANCH  15  16
ENDBRANCH  14  15
ENDBRANCH  13  14
ENDBRANCH  12  13
ENDBRANCH   1  12
TORSDOF 16
ENDMDL
MODEL 6
REMARK VINA RESULT:    -4.676      3.737      6.052
REMARK INTER + INTRA:         -10.704
REMARK INTER:                  -7.967
REMARK INTRA:                  -2.737
REMARK UNBOUND:                -1.655
REMARK SMILES CCCCCCCCCCCCCCCCCC(=O)[O-]
REMARK SMILES IDX 10 1 11 2 12 3 13 4 14 5 15 6 16 7 17 8 18 9 19 10 20 11
REMARK SMILES IDX 9 12 8 13 7 14 6 15 5 16 4 17 3 18 2 19 1 20
REMARK H PARENT
REMARK Flexibility Score: inf
ROOT
ATOM      1  C   UNL     1      11.651   6.246  10.663  1.00  0.00     0.000 C 
ENDROOT
BRANCH   1   2
ATOM      2  C   UNL     1      12.765   5.190  10.562  1.00  0.00     0.000 C 
BRANCH   2   3
ATOM      3  C   UNL     1      12.794   4.237  11.768  1.00  0.00     0.000 C 
BRANCH   3   4
ATOM      4  C   UNL     1      13.223   2.828  11.343  1.00  0.00     0.000 C 
BRANCH   4   5
ATOM      5  C   UNL     1      12.277   2.263  10.275  1.00  0.00     0.000 C 
BRANCH   5   6
ATOM      6  C   UNL     1      11.051   1.552  10.873  1.00  0.00     0.000 C 
BRANCH   6   7
ATOM      7  C   UNL     1       9.800   2.450  10.975  1.00  0.00     0.006 C 
BRANCH   7   8
ATOM      8  C   UNL     1       9.491   3.171   9.656  1.00  0.00     0.053 C 
BRANCH   8   9
ATOM      9  C   UNL     1       8.652   2.306   8.770  1.00  0.00     0.041 C 
ATOM     10  O   UNL     1       8.602   2.527   7.530  1.00  0.00    -0.550 OA
ATOM     11  O   UNL     1       7.876   1.296   9.320  1.00  0.00    -0.550 OA
ENDBRANCH   8   9
ENDBRANCH   7   8
ENDBRANCH   6   7
ENDBRANCH   5   6
ENDBRANCH   4   5
ENDBRANCH   3   4
ENDBRANCH   2   3
ENDBRANCH   1   2
BRANCH   1  12
ATOM     12  C   UNL     1      10.608   5.995  11.772  1.00  0.00     0.000 C 
BRANCH  12  13
ATOM     13  C   UNL     1      10.687   6.953  12.975  1.00  0.00    -0.000 C 
BRANCH  13  14
ATOM     14  C   UNL     1      10.341   6.264  14.307  1.00  0.00    -0.000 C 
BRANCH  14  15
ATOM     15  C   UNL     1       9.141   5.306  14.182  1.00  0.00    -0.000 C 
BRANCH  15  16
ATOM     16  C   UNL     1       9.476   3.843  14.530  1.00  0.00    -0.000 C 
BRANCH  16  17
ATOM     17  C   UNL     1      10.949   3.636  14.951  1.00  0.00    -0.000 C 
BRANCH  17  18
ATOM     18  C   UNL     1      11.492   2.234  14.617  1.00  0.00    -0.000 C 
BRANCH  18  19
ATOM     19  C   UNL     1      12.573   1.726  15.585  1.00  0.00    -0.003 C 
ATOM     20  C   UNL     1      13.984   2.123  15.157  1.00  0.00     0.004 C 
ENDBRANCH  18  19
ENDBRANCH  17  18
ENDBRANCH  16  17
ENDBRANCH  15  16
ENDBRANCH  14  15
ENDBRANCH  13  14
ENDBRANCH  12  13
ENDBRANCH   1  12
TORSDOF 16
ENDMDL
MODEL 7
REMARK VINA RESULT:    -4.669      1.964      3.785
REMARK INTER + INTRA:         -10.690
REMARK INTER:                  -9.360
REMARK INTRA:                  -1.330
REMARK UNBOUND:                -1.655
REMARK SMILES CCCCCCCCCCCCCCCCCC(=O)[O-]
REMARK SMILES IDX 10 1 11 2 12 3 13 4 14 5 15 6 16 7 17 8 18 9 19 10 20 11
REMARK SMILES IDX 9 12 8 13 7 14 6 15 5 16 4 17 3 18 2 19 1 20
REMARK H PARENT
REMARK Flexibility Score: inf
ROOT
ATOM      1  C   UNL     1      10.545   4.370   9.301  1.00  0.00     0.000 C 
ENDROOT
BRANCH   1   2
ATOM      2  C   UNL     1      10.262   4.874  10.727  1.00  0.00     0.000 C 
BRANCH   2   3
ATOM      3  C   UNL     1      11.515   5.430  11.422  1.00  0.00     0.000 C 
BRANCH   3   4
ATOM      4  C   UNL     1      11.306   6.889  11.845  1.00  0.00     0.000 C 
BRANCH   4   5
ATOM      5  C   UNL     1      11.738   7.852  10.732  1.00  0.00     0.000 C 
BRANCH   5   6
ATOM      6  C   UNL     1      11.531   9.331  11.102  1.00  0.00     0.000 C 
BRANCH   6   7
ATOM      7  C   UNL     1      12.374  10.308  10.254  1.00  0.00     0.006 C 
BRANCH   7   8
ATOM      8  C   UNL     1      12.350  11.736  10.815  1.00  0.00     0.053 C 
BRANCH   8   9
ATOM      9  C   UNL     1      12.263  12.734   9.704  1.00  0.00     0.041 C 
ATOM     10  O   UNL     1      11.690  13.841   9.889  1.00  0.00    -0.550 OA
ATOM     11  O   UNL     1      12.758  12.416   8.447  1.00  0.00    -0.550 OA
ENDBRANCH   8   9
ENDBRANCH   7   8
ENDBRANCH   6   7
ENDBRANCH   5   6
ENDBRANCH   4   5
ENDBRANCH   3   4
ENDBRANCH   2   3
ENDBRANCH   1   2
BRANCH   1  12
ATOM     12  C   UNL     1       9.500   3.386   8.734  1.00  0.00     0.000 C 
BRANCH  12  13
ATOM     13  C   UNL     1       9.908   1.903   8.774  1.00  0.00    -0.000 C 
BRANCH  13  14
ATOM     14  C   UNL     1      11.416   1.706   9.012  1.00  0.00    -0.000 C 
BRANCH  14  15
ATOM     15  C   UNL     1      11.709   0.670  10.114  1.00  0.00    -0.000 C 
BRANCH  15  16
ATOM     16  C   UNL     1      11.546   1.221  11.543  1.00  0.00    -0.000 C 
BRANCH  16  17
ATOM     17  C   UNL     1      12.841   1.850  12.108  1.00  0.00    -0.000 C 
BRANCH  17  18
ATOM     18  C   UNL     1      12.643   2.543  13.469  1.00  0.00    -0.000 C 
BRANCH  18  19
ATOM     19  C   UNL     1      13.613   2.073  14.566  1.00  0.00    -0.003 C 
ATOM     20  C   UNL     1      13.268   0.687  15.106  1.00  0.00     0.004 C 
ENDBRANCH  18  19
ENDBRANCH  17  18
ENDBRANCH  16  17
ENDBRANCH  15  16
ENDBRANCH  14  15
ENDBRANCH  13  14
ENDBRANCH  12  13
ENDBRANCH   1  12
TORSDOF 16
ENDMDL
MODEL 8
REMARK VINA RESULT:    -4.631      4.178      7.421
REMARK INTER + INTRA:         -10.617
REMARK INTER:                  -7.985
REMARK INTRA:                  -2.632
REMARK UNBOUND:                -1.655
REMARK SMILES CCCCCCCCCCCCCCCCCC(=O)[O-]
REMARK SMILES IDX 10 1 11 2 12 3 13 4 14 5 15 6 16 7 17 8 18 9 19 10 20 11
REMARK SMILES IDX 9 12 8 13 7 14 6 15 5 16 4 17 3 18 2 19 1 20
REMARK H PARENT
REMARK Flexibility Score: inf
ROOT
ATOM      1  C   UNL     1       9.652   3.167  13.871  1.00  0.00     0.000 C 
ENDROOT
BRANCH   1   2
ATOM      2  C   UNL     1       9.922   2.565  12.480  1.00  0.00     0.000 C 
BRANCH   2   3
ATOM      3  C   UNL     1      10.720   1.254  12.543  1.00  0.00     0.000 C 
BRANCH   3   4
ATOM      4  C   UNL     1      12.175   1.475  12.112  1.00  0.00     0.000 C 
BRANCH   4   5
ATOM      5  C   UNL     1      13.150   0.985  13.191  1.00  0.00     0.000 C 
BRANCH   5   6
ATOM      6  C   UNL     1      13.615   2.107  14.135  1.00  0.00     0.000 C 
BRANCH   6   7
ATOM      7  C   UNL     1      13.240   1.872  15.614  1.00  0.00     0.006 C 
BRANCH   7   8
ATOM      8  C   UNL     1      12.287   0.682  15.791  1.00  0.00     0.053 C 
BRANCH   8   9
ATOM      9  C   UNL     1      11.107   1.075  16.622  1.00  0.00     0.041 C 
ATOM     10  O   UNL     1      11.148   2.116  17.331  1.00  0.00    -0.550 OA
ATOM     11  O   UNL     1       9.985   0.259  16.663  1.00  0.00    -0.550 OA
ENDBRANCH   8   9
ENDBRANCH   7   8
ENDBRANCH   6   7
ENDBRANCH   5   6
ENDBRANCH   4   5
ENDBRANCH   3   4
ENDBRANCH   2   3
ENDBRANCH   1   2
BRANCH   1  12
ATOM     12  C   UNL     1      10.661   4.241  14.327  1.00  0.00     0.000 C 
BRANCH  12  13
ATOM     13  C   UNL     1      10.039   5.570  14.792  1.00  0.00    -0.000 C 
BRANCH  13  14
ATOM     14  C   UNL     1      10.366   6.742  13.849  1.00  0.00    -0.000 C 
BRANCH  14  15
ATOM     15  C   UNL     1      10.441   6.309  12.373  1.00  0.00    -0.000 C 
BRANCH  15  16
ATOM     16  C   UNL     1      11.329   7.219  11.503  1.00  0.00    -0.000 C 
BRANCH  16  17
ATOM     17  C   UNL     1      12.072   6.457  10.381  1.00  0.00    -0.000 C 
BRANCH  17  18
ATOM     18  C   UNL     1      12.234   4.952  10.665  1.00  0.00    -0.000 C 
BRANCH  18  19
ATOM     19  C   UNL     1      11.644   4.036   9.580  1.00  0.00    -0.003 C 
ATOM     20  C   UNL     1      10.226   4.435   9.177  1.00  0.00     0.004 C 
ENDBRANCH  18  19
ENDBRANCH  17  18
ENDBRANCH  16  17
ENDBRANCH  15  16
ENDBRANCH  14  15
ENDBRANCH  13  14
ENDBRANCH  12  13
ENDBRANCH   1  12
TORSDOF 16
ENDMDL
MODEL 9
REMARK VINA RESULT:    -4.593      4.043      6.987
REMARK INTER + INTRA:         -10.543
REMARK INTER:                  -7.696
REMARK INTRA:                  -2.846
REMARK UNBOUND:                -1.655
REMARK SMILES CCCCCCCCCCCCCCCCCC(=O)[O-]
REMARK SMILES IDX 10 1 11 2 12 3 13 4 14 5 15 6 16 7 17 8 18 9 19 10 20 11
REMARK SMILES IDX 9 12 8 13 7 14 6 15 5 16 4 17 3 18 2 19 1 20
REMARK H PARENT
REMARK Flexibility Score: inf
ROOT
ATOM      1  C   UNL     1      13.437   3.992  11.373  1.00  0.00     0.000 C 
ENDROOT
BRANCH   1   2
ATOM      2  C   UNL     1      13.051   2.511  11.220  1.00  0.00     0.000 C 
BRANCH   2   3
ATOM      3  C   UNL     1      13.143   1.731  12.541  1.00  0.00     0.000 C 
BRANCH   3   4
ATOM      4  C   UNL     1      12.986   2.668  13.744  1.00  0.00     0.000 C 
BRANCH   4   5
ATOM      5  C   UNL     1      13.604   2.052  15.006  1.00  0.00     0.000 C 
BRANCH   5   6
ATOM      6  C   UNL     1      13.162   0.597  15.243  1.00  0.00     0.000 C 
BRANCH   6   7
ATOM      7  C   UNL     1      11.715   0.463  15.763  1.00  0.00     0.006 C 
BRANCH   7   8
ATOM      8  C   UNL     1      11.376   1.519  16.823  1.00  0.00     0.053 C 
BRANCH   8   9
ATOM      9  C   UNL     1      10.144   2.274  16.435  1.00  0.00     0.041 C 
ATOM     10  O   UNL     1      10.213   3.502  16.159  1.00  0.00    -0.550 OA
ATOM     11  O   UNL     1       8.911   1.638  16.439  1.00  0.00    -0.550 OA
ENDBRANCH   8   9
ENDBRANCH   7   8
ENDBRANCH   6   7
ENDBRANCH   5   6
ENDBRANCH   4   5
ENDBRANCH   3   4
ENDBRANCH   2   3
ENDBRANCH   1   2
BRANCH   1  12
ATOM     12  C   UNL     1      12.566   4.983  10.573  1.00  0.00     0.000 C 
BRANCH  12  13
ATOM     13  C   UNL     1      11.966   6.138  11.395  1.00  0.00    -0.000 C 
BRANCH  13  14
ATOM     14  C   UNL     1      10.472   5.933  11.705  1.00  0.00    -0.000 C 
BRANCH  14  15
ATOM     15  C   UNL     1      10.243   5.054  12.949  1.00  0.00    -0.000 C 
BRANCH  15  16
ATOM     16  C   UNL     1       9.601   3.689  12.635  1.00  0.00    -0.000 C 
BRANCH  16  17
ATOM     17  C   UNL     1       9.032   3.597  11.200  1.00  0.00    -0.000 C 
BRANCH  17  18
ATOM     18  C   UNL     1       9.599   2.417  10.390  1.00  0.00    -0.000 C 
BRANCH  18  19
ATOM     19  C   UNL     1       9.979   2.767   8.941  1.00  0.00    -0.003 C 
ATOM     20  C   UNL     1       9.557   4.181   8.546  1.00  0.00     0.004 C 
ENDBRANCH  18  19
ENDBRANCH  17  18
ENDBRANCH  16  17
ENDBRANCH  15  16
ENDBRANCH  14  15
ENDBRANCH  13  14
ENDBRANCH  12  13
ENDBRANCH   1  12
TORSDOF 16
ENDMDL
