MODEL 1
REMARK VINA RESULT:    -3.866      0.000      0.000
REMARK INTER + INTRA:          -8.630
REMARK INTER:                  -7.482
REMARK INTRA:                  -1.148
REMARK UNBOUND:                -1.148
REMARK SMILES CCCCCCCCCCCCCCCCCC(=O)[O-]
REMARK SMILES IDX 10 1 11 2 12 3 13 4 14 5 15 6 16 7 17 8 18 9 19 10 20 11
REMARK SMILES IDX 9 12 8 13 7 14 6 15 5 16 4 17 3 18 2 19 1 20
REMARK H PARENT
REMARK Flexibility Score: inf
ROOT
ATOM      1  C   UNL     1      -5.064   7.752  -1.816  1.00  0.00     0.000 C 
ENDROOT
BRANCH   1   2
ATOM      2  C   UNL     1      -4.467   8.668  -0.734  1.00  0.00     0.000 C 
BRANCH   2   3
ATOM      3  C   UNL     1      -4.492  10.156  -1.143  1.00  0.00     0.000 C 
BRANCH   3   4
ATOM      4  C   UNL     1      -3.606  11.057  -0.262  1.00  0.00     0.000 C 
BRANCH   4   5
ATOM      5  C   UNL     1      -3.878  10.960   1.251  1.00  0.00     0.000 C 
BRANCH   5   6
ATOM      6  C   UNL     1      -2.901  10.052   2.025  1.00  0.00     0.000 C 
BRANCH   6   7
ATOM      7  C   UNL     1      -1.504  10.003   1.387  1.00  0.00     0.006 C 
BRANCH   7   8
ATOM      8  C   UNL     1      -1.050   8.555   1.168  1.00  0.00     0.053 C 
BRANCH   8   9
ATOM      9  C   UNL     1      -0.959   8.254  -0.295  1.00  0.00     0.041 C 
ATOM     10  O   UNL     1      -0.876   9.193  -1.131  1.00  0.00    -0.550 OA
ATOM     11  O   UNL     1      -0.904   6.933  -0.733  1.00  0.00    -0.550 OA
ENDBRANCH   8   9
ENDBRANCH   7   8
ENDBRANCH   6   7
ENDBRANCH   5   6
ENDBRANCH   4   5
ENDBRANCH   3   4
ENDBRANCH   2   3
ENDBRANCH   1   2
BRANCH   1  12
ATOM     12  C   UNL     1      -4.629   8.154  -3.234  1.00  0.00     0.000 C 
BRANCH  12  13
ATOM     13  C   UNL     1      -3.110   8.051  -3.438  1.00  0.00    -0.000 C 
BRANCH  13  14
ATOM     14  C   UNL     1      -2.723   8.431  -4.876  1.00  0.00    -0.000 C 
BRANCH  14  15
ATOM     15  C   UNL     1      -1.261   8.087  -5.216  1.00  0.00    -0.000 C 
BRANCH  15  16
ATOM     16  C   UNL     1      -1.076   6.828  -6.082  1.00  0.00    -0.000 C 
BRANCH  16  17
ATOM     17  C   UNL     1      -1.255   5.524  -5.284  1.00  0.00    -0.000 C 
BRANCH  17  18
ATOM     18  C   UNL     1      -1.177   4.267  -6.170  1.00  0.00    -0.000 C 
BRANCH  18  19
ATOM     19  C   UNL     1      -1.638   2.966  -5.486  1.00  0.00    -0.003 C 
ATOM     20  C   UNL     1      -1.027   1.712  -6.112  1.00  0.00     0.004 C 
ENDBRANCH  18  19
ENDBRANCH  17  18
ENDBRANCH  16  17
ENDBRANCH  15  16
ENDBRANCH  14  15
ENDBRANCH  13  14
ENDBRANCH  12  13
ENDBRANCH   1  12
TORSDOF 16
ENDMDL
MODEL 2
REMARK VINA RESULT:    -2.976      2.671      6.665
REMARK INTER + INTRA:          -6.906
REMARK INTER:                  -5.068
REMARK INTRA:                  -1.838
REMARK UNBOUND:                -1.148
REMARK SMILES CCCCCCCCCCCCCCCCCC(=O)[O-]
REMARK SMILES IDX 10 1 11 2 12 3 13 4 14 5 15 6 16 7 17 8 18 9 19 10 20 11
REMARK SMILES IDX 9 12 8 13 7 14 6 15 5 16 4 17 3 18 2 19 1 20
REMARK H PARENT
REMARK Flexibility Score: inf
ROOT
ATOM      1  C   UNL     1      -5.037   7.713  -1.823  1.00  0.00     0.000 C 
ENDROOT
BRANCH   1   2
ATOM      2  C   UNL     1      -4.525   8.096  -3.222  1.00  0.00     0.000 C 
BRANCH   2   3
ATOM      3  C   UNL     1      -3.475   7.100  -3.757  1.00  0.00     0.000 C 
BRANCH   3   4
ATOM      4  C   UNL     1      -2.756   7.581  -5.032  1.00  0.00     0.000 C 
BRANCH   4   5
ATOM      5  C   UNL     1      -1.321   7.052  -5.211  1.00  0.00     0.000 C 
BRANCH   5   6
ATOM      6  C   UNL     1      -1.040   6.400  -6.580  1.00  0.00     0.000 C 
BRANCH   6   7
ATOM      7  C   UNL     1      -1.401   4.907  -6.612  1.00  0.00     0.006 C 
BRANCH   7   8
ATOM      8  C   UNL     1      -0.901   4.193  -5.351  1.00  0.00     0.053 C 
BRANCH   8   9
ATOM      9  C   UNL     1      -1.081   2.714  -5.485  1.00  0.00     0.041 C 
ATOM     10  O   UNL     1      -0.999   2.165  -6.617  1.00  0.00    -0.550 OA
ATOM     11  O   UNL     1      -1.277   1.930  -4.351  1.00  0.00    -0.550 OA
ENDBRANCH   8   9
ENDBRANCH   7   8
ENDBRANCH   6   7
ENDBRANCH   5   6
ENDBRANCH   4   5
ENDBRANCH   3   4
ENDBRANCH   2   3
ENDBRANCH   1   2
BRANCH   1  12
ATOM     12  C   UNL     1      -3.994   7.972  -0.723  1.00  0.00     0.000 C 
BRANCH  12  13
ATOM     13  C   UNL     1      -3.732   9.469  -0.498  1.00  0.00    -0.000 C 
BRANCH  13  14
ATOM     14  C   UNL     1      -2.578   9.679   0.495  1.00  0.00    -0.000 C 
BRANCH  14  15
ATOM     15  C   UNL     1      -1.203   9.769  -0.192  1.00  0.00    -0.000 C 
BRANCH  15  16
ATOM     16  C   UNL     1      -1.092   9.002  -1.524  1.00  0.00    -0.000 C 
BRANCH  16  17
ATOM     17  C   UNL     1      -0.875   9.932  -2.731  1.00  0.00    -0.000 C 
BRANCH  17  18
ATOM     18  C   UNL     1      -1.847  11.125  -2.748  1.00  0.00    -0.000 C 
BRANCH  18  19
ATOM     19  C   UNL     1      -2.903  11.081  -3.870  1.00  0.00    -0.003 C 
ATOM     20  C   UNL     1      -2.289  11.116  -5.270  1.00  0.00     0.004 C 
ENDBRANCH  18  19
ENDBRANCH  17  18
ENDBRANCH  16  17
ENDBRANCH  15  16
ENDBRANCH  14  15
ENDBRANCH  13  14
ENDBRANCH  12  13
ENDBRANCH   1  12
TORSDOF 16
ENDMDL
MODEL 3
REMARK VINA RESULT:    -2.740      2.350      6.577
REMARK INTER + INTRA:          -6.450
REMARK INTER:                  -4.829
REMARK INTRA:                  -1.621
REMARK UNBOUND:                -1.148
REMARK SMILES CCCCCCCCCCCCCCCCCC(=O)[O-]
REMARK SMILES IDX 10 1 11 2 12 3 13 4 14 5 15 6 16 7 17 8 18 9 19 10 20 11
REMARK SMILES IDX 9 12 8 13 7 14 6 15 5 16 4 17 3 18 2 19 1 20
REMARK H PARENT
REMARK Flexibility Score: inf
ROOT
ATOM      1  C   UNL     1      -5.157   9.470  -2.275  1.00  0.00     0.000 C 
ENDROOT
BRANCH   1   2
ATOM      2  C   UNL     1      -4.290  10.700  -1.962  1.00  0.00     0.000 C 
BRANCH   2   3
ATOM      3  C   UNL     1      -3.414  11.124  -3.160  1.00  0.00     0.000 C 
BRANCH   3   4
ATOM      4  C   UNL     1      -2.619   9.963  -3.788  1.00  0.00     0.000 C 
BRANCH   4   5
ATOM      5  C   UNL     1      -2.172  10.191  -5.244  1.00  0.00     0.000 C 
BRANCH   5   6
ATOM      6  C   UNL     1      -1.638   8.934  -5.960  1.00  0.00     0.000 C 
BRANCH   6   7
ATOM      7  C   UNL     1      -1.343   7.779  -4.990  1.00  0.00     0.006 C 
BRANCH   7   8
ATOM      8  C   UNL     1      -0.875   6.531  -5.747  1.00  0.00     0.053 C 
BRANCH   8   9
ATOM      9  C   UNL     1      -1.903   5.448  -5.651  1.00  0.00     0.041 C 
ATOM     10  O   UNL     1      -3.116   5.740  -5.474  1.00  0.00    -0.550 OA
ATOM     11  O   UNL     1      -1.531   4.117  -5.819  1.00  0.00    -0.550 OA
ENDBRANCH   8   9
ENDBRANCH   7   8
ENDBRANCH   6   7
ENDBRANCH   5   6
ENDBRANCH   4   5
ENDBRANCH   3   4
ENDBRANCH   2   3
ENDBRANCH   1   2
BRANCH   1  12
ATOM     12  C   UNL     1      -4.826   8.270  -1.373  1.00  0.00     0.000 C 
BRANCH  12  13
ATOM     13  C   UNL     1      -3.455   7.653  -1.691  1.00  0.00    -0.000 C 
BRANCH  13  14
ATOM     14  C   UNL     1      -2.520   7.741  -0.476  1.00  0.00    -0.000 C 
BRANCH  14  15
ATOM     15  C   UNL     1      -1.144   8.341  -0.818  1.00  0.00    -0.000 C 
BRANCH  15  16
ATOM     16  C   UNL     1      -1.104   9.879  -0.876  1.00  0.00    -0.000 C 
BRANCH  16  17
ATOM     17  C   UNL     1      -0.965  10.525   0.514  1.00  0.00    -0.000 C 
BRANCH  17  18
ATOM     18  C   UNL     1      -2.288  11.117   1.033  1.00  0.00    -0.000 C 
BRANCH  18  19
ATOM     19  C   UNL     1      -3.211  10.108   1.743  1.00  0.00    -0.003 C 
ATOM     20  C   UNL     1      -4.024  10.737   2.875  1.00  0.00     0.004 C 
ENDBRANCH  18  19
ENDBRANCH  17  18
ENDBRANCH  16  17
ENDBRANCH  15  16
ENDBRANCH  14  15
ENDBRANCH  13  14
ENDBRANCH  12  13
ENDBRANCH   1  12
TORSDOF 16
ENDMDL
MODEL 4
REMARK VINA RESULT:    -2.634      2.715      4.361
REMARK INTER + INTRA:          -6.244
REMARK INTER:                  -4.681
REMARK INTRA:                  -1.563
REMARK UNBOUND:                -1.148
REMARK SMILES CCCCCCCCCCCCCCCCCC(=O)[O-]
REMARK SMILES IDX 10 1 11 2 12 3 13 4 14 5 15 6 16 7 17 8 18 9 19 10 20 11
REMARK SMILES IDX 9 12 8 13 7 14 6 15 5 16 4 17 3 18 2 19 1 20
REMARK H PARENT
REMARK Flexibility Score: inf
ROOT
ATOM      1  C   UNL     1      -4.312   7.635  -4.375  1.00  0.00     0.000 C 
ENDROOT
BRANCH   1   2
ATOM      2  C   UNL     1      -4.388   8.113  -2.915  1.00  0.00     0.000 C 
BRANCH   2   3
ATOM      3  C   UNL     1      -5.533   9.122  -2.686  1.00  0.00     0.000 C 
BRANCH   3   4
ATOM      4  C   UNL     1      -5.061  10.482  -2.138  1.00  0.00     0.000 C 
BRANCH   4   5
ATOM      5  C   UNL     1      -3.623  10.877  -2.523  1.00  0.00     0.000 C 
BRANCH   5   6
ATOM      6  C   UNL     1      -2.612  10.846  -1.360  1.00  0.00     0.000 C 
BRANCH   6   7
ATOM      7  C   UNL     1      -3.292  10.771   0.016  1.00  0.00     0.006 C 
BRANCH   7   8
ATOM      8  C   UNL     1      -3.321   9.329   0.537  1.00  0.00     0.053 C 
BRANCH   8   9
ATOM      9  C   UNL     1      -1.929   8.825   0.752  1.00  0.00     0.041 C 
ATOM     10  O   UNL     1      -1.413   8.020  -0.069  1.00  0.00    -0.550 OA
ATOM     11  O   UNL     1      -1.176   9.292   1.827  1.00  0.00    -0.550 OA
ENDBRANCH   8   9
ENDBRANCH   7   8
ENDBRANCH   6   7
ENDBRANCH   5   6
ENDBRANCH   4   5
ENDBRANCH   3   4
ENDBRANCH   2   3
ENDBRANCH   1   2
BRANCH   1  12
ATOM     12  C   UNL     1      -2.902   7.785  -4.971  1.00  0.00     0.000 C 
BRANCH  12  13
ATOM     13  C   UNL     1      -1.812   7.888  -3.893  1.00  0.00    -0.000 C 
BRANCH  13  14
ATOM     14  C   UNL     1      -0.906   9.103  -4.145  1.00  0.00    -0.000 C 
BRANCH  14  15
ATOM     15  C   UNL     1      -1.593  10.204  -4.974  1.00  0.00    -0.000 C 
BRANCH  15  16
ATOM     16  C   UNL     1      -0.875  10.570  -6.286  1.00  0.00    -0.000 C 
BRANCH  16  17
ATOM     17  C   UNL     1      -1.796  10.480  -7.515  1.00  0.00    -0.000 C 
BRANCH  17  18
ATOM     18  C   UNL     1      -1.179  11.120  -8.772  1.00  0.00    -0.000 C 
BRANCH  18  19
ATOM     19  C   UNL     1      -1.296  10.272 -10.052  1.00  0.00    -0.003 C 
ATOM     20  C   UNL     1      -2.012  11.002 -11.190  1.00  0.00     0.004 C 
ENDBRANCH  18  19
ENDBRANCH  17  18
ENDBRANCH  16  17
ENDBRANCH  15  16
ENDBRANCH  14  15
ENDBRANCH  13  14
ENDBRANCH  12  13
ENDBRANCH   1  12
TORSDOF 16
ENDMDL
MODEL 5
REMARK VINA RESULT:    -2.429      2.398      3.690
REMARK INTER + INTRA:          -5.848
REMARK INTER:                  -4.885
REMARK INTRA:                  -0.963
REMARK UNBOUND:                -1.148
REMARK SMILES CCCCCCCCCCCCCCCCCC(=O)[O-]
REMARK SMILES IDX 10 1 11 2 12 3 13 4 14 5 15 6 16 7 17 8 18 9 19 10 20 11
REMARK SMILES IDX 9 12 8 13 7 14 6 15 5 16 4 17 3 18 2 19 1 20
REMARK H PARENT
REMARK Flexibility Score: inf
ROOT
ATOM      1  C   UNL     1      -4.845   7.985  -2.326  1.00  0.00     0.000 C 
ENDROOT
BRANCH   1   2
ATOM      2  C   UNL     1      -3.776   8.770  -1.549  1.00  0.00     0.000 C 
BRANCH   2   3
ATOM      3  C   UNL     1      -4.010  10.295  -1.603  1.00  0.00     0.000 C 
BRANCH   3   4
ATOM      4  C   UNL     1      -4.231  10.938  -0.220  1.00  0.00     0.000 C 
BRANCH   4   5
ATOM      5  C   UNL     1      -4.422   9.942   0.939  1.00  0.00     0.000 C 
BRANCH   5   6
ATOM      6  C   UNL     1      -3.993  10.472   2.322  1.00  0.00     0.000 C 
BRANCH   6   7
ATOM      7  C   UNL     1      -2.589  11.095   2.309  1.00  0.00     0.006 C 
BRANCH   7   8
ATOM      8  C   UNL     1      -1.506  10.011   2.327  1.00  0.00     0.053 C 
BRANCH   8   9
ATOM      9  C   UNL     1      -1.180   9.577   0.933  1.00  0.00     0.041 C 
ATOM     10  O   UNL     1      -0.875  10.433   0.058  1.00  0.00    -0.550 OA
ATOM     11  O   UNL     1      -1.153   8.223   0.612  1.00  0.00    -0.550 OA
ENDBRANCH   8   9
ENDBRANCH   7   8
ENDBRANCH   6   7
ENDBRANCH   5   6
ENDBRANCH   4   5
ENDBRANCH   3   4
ENDBRANCH   2   3
ENDBRANCH   1   2
BRANCH   1  12
ATOM     12  C   UNL     1      -4.771   8.230  -3.842  1.00  0.00     0.000 C 
BRANCH  12  13
ATOM     13  C   UNL     1      -3.786   7.283  -4.546  1.00  0.00    -0.000 C 
BRANCH  13  14
ATOM     14  C   UNL     1      -2.629   8.071  -5.181  1.00  0.00    -0.000 C 
BRANCH  14  15
ATOM     15  C   UNL     1      -1.353   8.062  -4.320  1.00  0.00    -0.000 C 
BRANCH  15  16
ATOM     16  C   UNL     1      -1.307   9.136  -3.218  1.00  0.00    -0.000 C 
BRANCH  16  17
ATOM     17  C   UNL     1      -0.878  10.516  -3.747  1.00  0.00    -0.000 C 
BRANCH  17  18
ATOM     18  C   UNL     1      -1.797  11.038  -4.866  1.00  0.00    -0.000 C 
BRANCH  18  19
ATOM     19  C   UNL     1      -1.137  11.120  -6.256  1.00  0.00    -0.003 C 
ATOM     20  C   UNL     1      -2.149  11.067  -7.402  1.00  0.00     0.004 C 
ENDBRANCH  18  19
ENDBRANCH  17  18
ENDBRANCH  16  17
ENDBRANCH  15  16
ENDBRANCH  14  15
ENDBRANCH  13  14
ENDBRANCH  12  13
ENDBRANCH   1  12
TORSDOF 16
ENDMDL
MODEL 6
REMARK VINA RESULT:    -2.221      2.544      4.137
REMARK INTER + INTRA:          -5.447
REMARK INTER:                  -4.935
REMARK INTRA:                  -0.512
REMARK UNBOUND:                -1.148
REMARK SMILES CCCCCCCCCCCCCCCCCC(=O)[O-]
REMARK SMILES IDX 10 1 11 2 12 3 13 4 14 5 15 6 16 7 17 8 18 9 19 10 20 11
REMARK SMILES IDX 9 12 8 13 7 14 6 15 5 16 4 17 3 18 2 19 1 20
REMARK H PARENT
REMARK Flexibility Score: inf
ROOT
ATOM      1  C   UNL     1      -4.759   7.391  -4.160  1.00  0.00     0.000 C 
ENDROOT
BRANCH   1   2
ATOM      2  C   UNL     1      -4.169   8.536  -3.319  1.00  0.00     0.000 C 
BRANCH   2   3
ATOM      3  C   UNL     1      -5.226   9.211  -2.419  1.00  0.00     0.000 C 
BRANCH   3   4
ATOM      4  C   UNL     1      -4.822   9.283  -0.935  1.00  0.00     0.000 C 
BRANCH   4   5
ATOM      5  C   UNL     1      -3.686   8.328  -0.520  1.00  0.00     0.000 C 
BRANCH   5   6
ATOM      6  C   UNL     1      -2.286   8.971  -0.479  1.00  0.00     0.000 C 
BRANCH   6   7
ATOM      7  C   UNL     1      -1.724   9.080   0.947  1.00  0.00     0.006 C 
BRANCH   7   8
ATOM      8  C   UNL     1      -1.642  10.544   1.395  1.00  0.00     0.053 C 
BRANCH   8   9
ATOM      9  C   UNL     1      -2.631  10.811   2.485  1.00  0.00     0.041 C 
ATOM     10  O   UNL     1      -3.868  10.751   2.248  1.00  0.00    -0.550 OA
ATOM     11  O   UNL     1      -2.189  11.064   3.781  1.00  0.00    -0.550 OA
ENDBRANCH   8   9
ENDBRANCH   7   8
ENDBRANCH   6   7
ENDBRANCH   5   6
ENDBRANCH   4   5
ENDBRANCH   3   4
ENDBRANCH   2   3
ENDBRANCH   1   2
BRANCH   1  12
ATOM     12  C   UNL     1      -3.837   6.976  -5.318  1.00  0.00     0.000 C 
BRANCH  12  13
ATOM     13  C   UNL     1      -2.466   6.480  -4.834  1.00  0.00    -0.000 C 
BRANCH  13  14
ATOM     14  C   UNL     1      -1.330   7.188  -5.588  1.00  0.00    -0.000 C 
BRANCH  14  15
ATOM     15  C   UNL     1      -1.065   8.614  -5.072  1.00  0.00    -0.000 C 
BRANCH  15  16
ATOM     16  C   UNL     1      -2.121   9.658  -5.479  1.00  0.00    -0.000 C 
BRANCH  16  17
ATOM     17  C   UNL     1      -1.676  10.523  -6.672  1.00  0.00    -0.000 C 
BRANCH  17  18
ATOM     18  C   UNL     1      -0.877   9.729  -7.721  1.00  0.00    -0.000 C 
BRANCH  18  19
ATOM     19  C   UNL     1      -1.125  10.156  -9.180  1.00  0.00    -0.003 C 
ATOM     20  C   UNL     1      -1.078   8.984 -10.162  1.00  0.00     0.004 C 
ENDBRANCH  18  19
ENDBRANCH  17  18
ENDBRANCH  16  17
ENDBRANCH  15  16
ENDBRANCH  14  15
ENDBRANCH  13  14
ENDBRANCH  12  13
ENDBRANCH   1  12
TORSDOF 16
ENDMDL
