MODEL 1
REMARK VINA RESULT:    -5.033      0.000      0.000
REMARK INTER + INTRA:         -11.797
REMARK INTER:                  -9.446
REMARK INTRA:                  -2.352
REMARK UNBOUND:                -2.352
REMARK SMILES O=C([O-])CCCCCCCCCCCCCCC(=O)[O-]
REMARK SMILES IDX 10 1 9 2 8 3 7 4 6 5 5 6 4 7 2 8 1 9 3 10 11 11 12 12 13 13
REMARK SMILES IDX 14 14 15 15 16 16 17 17 18 18 19 19 20 20
REMARK H PARENT
REMARK Flexibility Score: inf
ROOT
ATOM      1  C   UNL     1       1.762  54.814  20.509  1.00  0.00     0.000 C 
ENDROOT
BRANCH   1   2
ATOM      2  C   UNL     1       2.598  53.655  19.944  1.00  0.00     0.000 C 
BRANCH   2   3
ATOM      3  C   UNL     1       1.692  52.579  19.324  1.00  0.00     0.000 C 
BRANCH   3   4
ATOM      4  C   UNL     1       1.584  52.704  17.795  1.00  0.00     0.000 C 
BRANCH   4   5
ATOM      5  C   UNL     1       0.125  52.750  17.311  1.00  0.00     0.000 C 
BRANCH   5   6
ATOM      6  C   UNL     1      -0.836  52.009  18.254  1.00  0.00     0.006 C 
BRANCH   6   7
ATOM      7  C   UNL     1      -2.145  51.597  17.565  1.00  0.00     0.053 C 
BRANCH   7   8
ATOM      8  C   UNL     1      -2.890  50.614  18.411  1.00  0.00     0.041 C 
ATOM      9  O   UNL     1      -2.808  50.665  19.667  1.00  0.00    -0.550 OA
ATOM     10  O   UNL     1      -3.722  49.675  17.814  1.00  0.00    -0.550 OA
ENDBRANCH   7   8
ENDBRANCH   6   7
ENDBRANCH   5   6
ENDBRANCH   4   5
ENDBRANCH   3   4
ENDBRANCH   2   3
ENDBRANCH   1   2
BRANCH   1  11
ATOM     11  C   UNL     1       0.318  54.398  20.834  1.00  0.00     0.000 C 
BRANCH  11  12
ATOM     12  C   UNL     1      -0.721  55.207  20.042  1.00  0.00     0.000 C 
BRANCH  12  13
ATOM     13  C   UNL     1      -0.050  56.333  19.245  1.00  0.00     0.000 C 
BRANCH  13  14
ATOM     14  C   UNL     1      -0.396  56.229  17.751  1.00  0.00     0.000 C 
BRANCH  14  15
ATOM     15  C   UNL     1       0.688  56.834  16.840  1.00  0.00     0.000 C 
BRANCH  15  16
ATOM     16  C   UNL     1       1.854  55.888  16.501  1.00  0.00     0.006 C 
BRANCH  16  17
ATOM     17  C   UNL     1       3.146  56.239  17.252  1.00  0.00     0.053 C 
BRANCH  17  18
ATOM     18  C   UNL     1       4.342  55.910  16.415  1.00  0.00     0.041 C 
ATOM     19  O   UNL     1       5.421  56.540  16.577  1.00  0.00    -0.550 OA
ATOM     20  O   UNL     1       4.251  54.939  15.425  1.00  0.00    -0.550 OA
ENDBRANCH  17  18
ENDBRANCH  16  17
ENDBRANCH  15  16
ENDBRANCH  14  15
ENDBRANCH  13  14
ENDBRANCH  12  13
ENDBRANCH  11  12
ENDBRANCH   1  11
TORSDOF 15
ENDMDL
MODEL 2
REMARK VINA RESULT:    -5.031      1.290      2.692
REMARK INTER + INTRA:         -11.794
REMARK INTER:                  -9.351
REMARK INTRA:                  -2.442
REMARK UNBOUND:                -2.352
REMARK SMILES O=C([O-])CCCCCCCCCCCCCCC(=O)[O-]
REMARK SMILES IDX 10 1 9 2 8 3 7 4 6 5 5 6 4 7 2 8 1 9 3 10 11 11 12 12 13 13
REMARK SMILES IDX 14 14 15 15 16 16 17 17 18 18 19 19 20 20
REMARK H PARENT
REMARK Flexibility Score: inf
ROOT
ATOM      1  C   UNL     1       0.324  54.878  20.532  1.00  0.00     0.000 C 
ENDROOT
BRANCH   1   2
ATOM      2  C   UNL     1      -0.189  55.962  19.571  1.00  0.00     0.000 C 
BRANCH   2   3
ATOM      3  C   UNL     1      -1.716  55.878  19.417  1.00  0.00     0.000 C 
BRANCH   3   4
ATOM      4  C   UNL     1      -2.205  54.449  19.131  1.00  0.00     0.000 C 
BRANCH   4   5
ATOM      5  C   UNL     1      -2.329  54.161  17.625  1.00  0.00     0.000 C 
BRANCH   5   6
ATOM      6  C   UNL     1      -2.284  52.658  17.303  1.00  0.00     0.006 C 
BRANCH   6   7
ATOM      7  C   UNL     1      -2.348  51.780  18.561  1.00  0.00     0.053 C 
BRANCH   7   8
ATOM      8  C   UNL     1      -1.999  50.364  18.224  1.00  0.00     0.041 C 
ATOM      9  O   UNL     1      -0.802  49.974  18.283  1.00  0.00    -0.550 OA
ATOM     10  O   UNL     1      -3.002  49.461  17.901  1.00  0.00    -0.550 OA
ENDBRANCH   7   8
ENDBRANCH   6   7
ENDBRANCH   5   6
ENDBRANCH   4   5
ENDBRANCH   3   4
ENDBRANCH   2   3
ENDBRANCH   1   2
BRANCH   1  11
ATOM     11  C   UNL     1       1.857  54.861  20.639  1.00  0.00     0.000 C 
BRANCH  11  12
ATOM     12  C   UNL     1       2.480  53.610  19.999  1.00  0.00     0.000 C 
BRANCH  12  13
ATOM     13  C   UNL     1       1.407  52.750  19.318  1.00  0.00     0.000 C 
BRANCH  13  14
ATOM     14  C   UNL     1       1.705  52.587  17.820  1.00  0.00     0.000 C 
BRANCH  14  15
ATOM     15  C   UNL     1       1.239  53.790  16.979  1.00  0.00     0.000 C 
BRANCH  15  16
ATOM     16  C   UNL     1       2.360  54.540  16.239  1.00  0.00     0.006 C 
BRANCH  16  17
ATOM     17  C   UNL     1       2.826  55.802  16.979  1.00  0.00     0.053 C 
BRANCH  17  18
ATOM     18  C   UNL     1       4.312  55.786  17.150  1.00  0.00     0.041 C 
ATOM     19  O   UNL     1       5.024  56.659  16.583  1.00  0.00    -0.550 OA
ATOM     20  O   UNL     1       4.916  54.782  17.897  1.00  0.00    -0.550 OA
ENDBRANCH  17  18
ENDBRANCH  16  17
ENDBRANCH  15  16
ENDBRANCH  14  15
ENDBRANCH  13  14
ENDBRANCH  12  13
ENDBRANCH  11  12
ENDBRANCH   1  11
TORSDOF 15
ENDMDL
MODEL 3
REMARK VINA RESULT:    -4.977      2.890      6.026
REMARK INTER + INTRA:         -11.692
REMARK INTER:                  -9.307
REMARK INTRA:                  -2.385
REMARK UNBOUND:                -2.352
REMARK SMILES O=C([O-])CCCCCCCCCCCCCCC(=O)[O-]
REMARK SMILES IDX 10 1 9 2 8 3 7 4 6 5 5 6 4 7 2 8 1 9 3 10 11 11 12 12 13 13
REMARK SMILES IDX 14 14 15 15 16 16 17 17 18 18 19 19 20 20
REMARK H PARENT
REMARK Flexibility Score: inf
ROOT
ATOM      1  C   UNL     1       1.888  53.586  20.001  1.00  0.00     0.000 C 
ENDROOT
BRANCH   1   2
ATOM      2  C   UNL     1       0.793  54.454  20.640  1.00  0.00     0.000 C 
BRANCH   2   3
ATOM      3  C   UNL     1       0.596  55.757  19.849  1.00  0.00     0.000 C 
BRANCH   3   4
ATOM      4  C   UNL     1       1.874  56.206  19.122  1.00  0.00     0.000 C 
BRANCH   4   5
ATOM      5  C   UNL     1       1.619  56.548  17.643  1.00  0.00     0.000 C 
BRANCH   5   6
ATOM      6  C   UNL     1       1.496  55.297  16.758  1.00  0.00     0.006 C 
BRANCH   6   7
ATOM      7  C   UNL     1       2.598  55.212  15.693  1.00  0.00     0.053 C 
BRANCH   7   8
ATOM      8  C   UNL     1       3.931  55.005  16.339  1.00  0.00     0.041 C 
ATOM      9  O   UNL     1       4.883  55.794  16.098  1.00  0.00    -0.550 OA
ATOM     10  O   UNL     1       4.106  53.974  17.252  1.00  0.00    -0.550 OA
ENDBRANCH   7   8
ENDBRANCH   6   7
ENDBRANCH   5   6
ENDBRANCH   4   5
ENDBRANCH   3   4
ENDBRANCH   2   3
ENDBRANCH   1   2
BRANCH   1  11
ATOM     11  C   UNL     1       1.318  52.363  19.264  1.00  0.00     0.000 C 
BRANCH  11  12
ATOM     12  C   UNL     1      -0.217  52.382  19.186  1.00  0.00     0.000 C 
BRANCH  12  13
ATOM     13  C   UNL     1      -0.691  52.501  17.733  1.00  0.00     0.000 C 
BRANCH  13  14
ATOM     14  C   UNL     1      -1.824  53.532  17.608  1.00  0.00     0.000 C 
BRANCH  14  15
ATOM     15  C   UNL     1      -2.449  53.905  18.966  1.00  0.00     0.000 C 
BRANCH  15  16
ATOM     16  C   UNL     1      -3.165  55.266  18.999  1.00  0.00     0.006 C 
BRANCH  16  17
ATOM     17  C   UNL     1      -2.545  56.293  18.041  1.00  0.00     0.053 C 
BRANCH  17  18
ATOM     18  C   UNL     1      -3.537  57.363  17.711  1.00  0.00     0.041 C 
ATOM     19  O   UNL     1      -3.305  58.174  16.775  1.00  0.00    -0.550 OA
ATOM     20  O   UNL     1      -4.696  57.494  18.466  1.00  0.00    -0.550 OA
ENDBRANCH  17  18
ENDBRANCH  16  17
ENDBRANCH  15  16
ENDBRANCH  14  15
ENDBRANCH  13  14
ENDBRANCH  12  13
ENDBRANCH  11  12
ENDBRANCH   1  11
TORSDOF 15
ENDMDL
MODEL 4
REMARK VINA RESULT:    -4.918      1.944      6.262
REMARK INTER + INTRA:         -11.582
REMARK INTER:                  -9.059
REMARK INTRA:                  -2.523
REMARK UNBOUND:                -2.352
REMARK SMILES O=C([O-])CCCCCCCCCCCCCCC(=O)[O-]
REMARK SMILES IDX 10 1 9 2 8 3 7 4 6 5 5 6 4 7 2 8 1 9 3 10 11 11 12 12 13 13
REMARK SMILES IDX 14 14 15 15 16 16 17 17 18 18 19 19 20 20
REMARK H PARENT
REMARK Flexibility Score: inf
ROOT
ATOM      1  C   UNL     1       0.720  55.451  20.263  1.00  0.00     0.000 C 
ENDROOT
BRANCH   1   2
ATOM      2  C   UNL     1       1.567  55.943  19.080  1.00  0.00     0.000 C 
BRANCH   2   3
ATOM      3  C   UNL     1       0.704  56.728  18.079  1.00  0.00     0.000 C 
BRANCH   3   4
ATOM      4  C   UNL     1       0.970  56.320  16.620  1.00  0.00     0.000 C 
BRANCH   4   5
ATOM      5  C   UNL     1       1.887  55.089  16.512  1.00  0.00     0.000 C 
BRANCH   5   6
ATOM      6  C   UNL     1       2.883  55.194  15.346  1.00  0.00     0.006 C 
BRANCH   6   7
ATOM      7  C   UNL     1       4.323  54.862  15.763  1.00  0.00     0.053 C 
BRANCH   7   8
ATOM      8  C   UNL     1       4.620  55.440  17.111  1.00  0.00     0.041 C 
ATOM      9  O   UNL     1       4.872  54.683  18.085  1.00  0.00    -0.550 OA
ATOM     10  O   UNL     1       4.675  56.818  17.277  1.00  0.00    -0.550 OA
ENDBRANCH   7   8
ENDBRANCH   6   7
ENDBRANCH   5   6
ENDBRANCH   4   5
ENDBRANCH   3   4
ENDBRANCH   2   3
ENDBRANCH   1   2
BRANCH   1  11
ATOM     11  C   UNL     1       0.799  53.927  20.453  1.00  0.00     0.000 C 
BRANCH  11  12
ATOM     12  C   UNL     1       1.949  53.291  19.657  1.00  0.00     0.000 C 
BRANCH  12  13
ATOM     13  C   UNL     1       1.419  52.255  18.658  1.00  0.00     0.000 C 
BRANCH  13  14
ATOM     14  C   UNL     1      -0.112  52.153  18.735  1.00  0.00     0.000 C 
BRANCH  14  15
ATOM     15  C   UNL     1      -0.810  52.591  17.434  1.00  0.00     0.000 C 
BRANCH  15  16
ATOM     16  C   UNL     1      -2.228  53.161  17.617  1.00  0.00     0.006 C 
BRANCH  16  17
ATOM     17  C   UNL     1      -2.230  54.623  18.083  1.00  0.00     0.053 C 
BRANCH  17  18
ATOM     18  C   UNL     1      -2.993  54.761  19.363  1.00  0.00     0.041 C 
ATOM     19  O   UNL     1      -2.763  53.980  20.325  1.00  0.00    -0.550 OA
ATOM     20  O   UNL     1      -3.991  55.722  19.477  1.00  0.00    -0.550 OA
ENDBRANCH  17  18
ENDBRANCH  16  17
ENDBRANCH  15  16
ENDBRANCH  14  15
ENDBRANCH  13  14
ENDBRANCH  12  13
ENDBRANCH  11  12
ENDBRANCH   1  11
TORSDOF 15
ENDMDL
MODEL 5
REMARK VINA RESULT:    -4.900      2.630      6.108
REMARK INTER + INTRA:         -11.549
REMARK INTER:                  -9.409
REMARK INTRA:                  -2.140
REMARK UNBOUND:                -2.352
REMARK SMILES O=C([O-])CCCCCCCCCCCCCCC(=O)[O-]
REMARK SMILES IDX 10 1 9 2 8 3 7 4 6 5 5 6 4 7 2 8 1 9 3 10 11 11 12 12 13 13
REMARK SMILES IDX 14 14 15 15 16 16 17 17 18 18 19 19 20 20
REMARK H PARENT
REMARK Flexibility Score: inf
ROOT
ATOM      1  C   UNL     1       2.067  52.270  18.924  1.00  0.00     0.000 C 
ENDROOT
BRANCH   1   2
ATOM      2  C   UNL     1       0.559  52.349  18.641  1.00  0.00     0.000 C 
BRANCH   2   3
ATOM      3  C   UNL     1       0.292  53.010  17.279  1.00  0.00     0.000 C 
BRANCH   3   4
ATOM      4  C   UNL     1       1.581  53.251  16.476  1.00  0.00     0.000 C 
BRANCH   4   5
ATOM      5  C   UNL     1       1.918  54.747  16.340  1.00  0.00     0.000 C 
BRANCH   5   6
ATOM      6  C   UNL     1       3.336  54.988  15.797  1.00  0.00     0.006 C 
BRANCH   6   7
ATOM      7  C   UNL     1       4.407  54.950  16.897  1.00  0.00     0.053 C 
BRANCH   7   8
ATOM      8  C   UNL     1       4.807  56.340  17.280  1.00  0.00     0.041 C 
ATOM      9  O   UNL     1       5.905  56.816  16.887  1.00  0.00    -0.550 OA
ATOM     10  O   UNL     1       3.942  57.130  18.026  1.00  0.00    -0.550 OA
ENDBRANCH   7   8
ENDBRANCH   6   7
ENDBRANCH   5   6
ENDBRANCH   4   5
ENDBRANCH   3   4
ENDBRANCH   2   3
ENDBRANCH   1   2
BRANCH   1  11
ATOM     11  C   UNL     1       2.546  53.369  19.888  1.00  0.00     0.000 C 
BRANCH  11  12
ATOM     12  C   UNL     1       1.383  54.165  20.501  1.00  0.00     0.000 C 
BRANCH  12  13
ATOM     13  C   UNL     1       1.418  55.628  20.044  1.00  0.00     0.000 C 
BRANCH  13  14
ATOM     14  C   UNL     1       0.050  56.064  19.497  1.00  0.00     0.000 C 
BRANCH  14  15
ATOM     15  C   UNL     1       0.153  56.833  18.166  1.00  0.00     0.000 C 
BRANCH  15  16
ATOM     16  C   UNL     1      -1.064  56.688  17.235  1.00  0.00     0.006 C 
BRANCH  16  17
ATOM     17  C   UNL     1      -2.250  55.982  17.907  1.00  0.00     0.053 C 
BRANCH  17  18
ATOM     18  C   UNL     1      -3.430  56.898  17.978  1.00  0.00     0.041 C 
ATOM     19  O   UNL     1      -3.509  57.891  17.206  1.00  0.00    -0.550 OA
ATOM     20  O   UNL     1      -4.421  56.684  18.929  1.00  0.00    -0.550 OA
ENDBRANCH  17  18
ENDBRANCH  16  17
ENDBRANCH  15  16
ENDBRANCH  14  15
ENDBRANCH  13  14
ENDBRANCH  12  13
ENDBRANCH  11  12
ENDBRANCH   1  11
TORSDOF 15
ENDMDL
MODEL 6
REMARK VINA RESULT:    -4.849      3.032      3.673
REMARK INTER + INTRA:         -11.452
REMARK INTER:                  -8.892
REMARK INTRA:                  -2.560
REMARK UNBOUND:                -2.352
REMARK SMILES O=C([O-])CCCCCCCCCCCCCCC(=O)[O-]
REMARK SMILES IDX 10 1 9 2 8 3 7 4 6 5 5 6 4 7 2 8 1 9 3 10 11 11 12 12 13 13
REMARK SMILES IDX 14 14 15 15 16 16 17 17 18 18 19 19 20 20
REMARK H PARENT
REMARK Flexibility Score: inf
ROOT
ATOM      1  C   UNL     1       0.578  54.501  20.830  1.00  0.00     0.000 C 
ENDROOT
BRANCH   1   2
ATOM      2  C   UNL     1      -0.326  53.500  20.095  1.00  0.00     0.000 C 
BRANCH   2   3
ATOM      3  C   UNL     1       0.352  52.988  18.814  1.00  0.00     0.000 C 
BRANCH   3   4
ATOM      4  C   UNL     1      -0.548  53.120  17.574  1.00  0.00     0.000 C 
BRANCH   4   5
ATOM      5  C   UNL     1      -2.039  53.227  17.939  1.00  0.00     0.000 C 
BRANCH   5   6
ATOM      6  C   UNL     1      -2.635  54.602  17.599  1.00  0.00     0.006 C 
BRANCH   6   7
ATOM      7  C   UNL     1      -3.334  55.259  18.797  1.00  0.00     0.053 C 
BRANCH   7   8
ATOM      8  C   UNL     1      -3.807  56.632  18.435  1.00  0.00     0.041 C 
ATOM      9  O   UNL     1      -3.264  57.261  17.489  1.00  0.00    -0.550 OA
ATOM     10  O   UNL     1      -4.884  57.194  19.108  1.00  0.00    -0.550 OA
ENDBRANCH   7   8
ENDBRANCH   6   7
ENDBRANCH   5   6
ENDBRANCH   4   5
ENDBRANCH   3   4
ENDBRANCH   2   3
ENDBRANCH   1   2
BRANCH   1  11
ATOM     11  C   UNL     1       1.138  55.587  19.897  1.00  0.00     0.000 C 
BRANCH  11  12
ATOM     12  C   UNL     1       0.033  56.418  19.227  1.00  0.00     0.000 C 
BRANCH  12  13
ATOM     13  C   UNL     1       0.381  56.717  17.763  1.00  0.00     0.000 C 
BRANCH  13  14
ATOM     14  C   UNL     1       1.870  56.453  17.489  1.00  0.00     0.000 C 
BRANCH  14  15
ATOM     15  C   UNL     1       2.101  55.442  16.351  1.00  0.00     0.000 C 
BRANCH  15  16
ATOM     16  C   UNL     1       3.208  54.406  16.617  1.00  0.00     0.006 C 
BRANCH  16  17
ATOM     17  C   UNL     1       3.944  54.643  17.942  1.00  0.00     0.053 C 
BRANCH  17  18
ATOM     18  C   UNL     1       4.110  53.355  18.684  1.00  0.00     0.041 C 
ATOM     19  O   UNL     1       3.834  53.291  19.912  1.00  0.00    -0.550 OA
ATOM     20  O   UNL     1       4.614  52.236  18.032  1.00  0.00    -0.550 OA
ENDBRANCH  17  18
ENDBRANCH  16  17
ENDBRANCH  15  16
ENDBRANCH  14  15
ENDBRANCH  13  14
ENDBRANCH  12  13
ENDBRANCH  11  12
ENDBRANCH   1  11
TORSDOF 15
ENDMDL
MODEL 7
REMARK VINA RESULT:    -4.843      2.365      3.382
REMARK INTER + INTRA:         -11.442
REMARK INTER:                  -9.006
REMARK INTRA:                  -2.436
REMARK UNBOUND:                -2.352
REMARK SMILES O=C([O-])CCCCCCCCCCCCCCC(=O)[O-]
REMARK SMILES IDX 10 1 9 2 8 3 7 4 6 5 5 6 4 7 2 8 1 9 3 10 11 11 12 12 13 13
REMARK SMILES IDX 14 14 15 15 16 16 17 17 18 18 19 19 20 20
REMARK H PARENT
REMARK Flexibility Score: inf
ROOT
ATOM      1  C   UNL     1      -0.392  54.141  20.934  1.00  0.00     0.000 C 
ENDROOT
BRANCH   1   2
ATOM      2  C   UNL     1      -1.851  53.742  20.668  1.00  0.00     0.000 C 
BRANCH   2   3
ATOM      3  C   UNL     1      -1.924  52.534  19.720  1.00  0.00     0.000 C 
BRANCH   3   4
ATOM      4  C   UNL     1      -2.275  52.934  18.277  1.00  0.00     0.000 C 
BRANCH   4   5
ATOM      5  C   UNL     1      -1.131  52.643  17.291  1.00  0.00     0.000 C 
BRANCH   5   6
ATOM      6  C   UNL     1       0.141  52.139  17.992  1.00  0.00     0.006 C 
BRANCH   6   7
ATOM      7  C   UNL     1       1.403  52.889  17.543  1.00  0.00     0.053 C 
BRANCH   7   8
ATOM      8  C   UNL     1       2.551  52.562  18.445  1.00  0.00     0.041 C 
ATOM      9  O   UNL     1       3.617  52.087  17.971  1.00  0.00    -0.550 OA
ATOM     10  O   UNL     1       2.464  52.834  19.804  1.00  0.00    -0.550 OA
ENDBRANCH   7   8
ENDBRANCH   6   7
ENDBRANCH   5   6
ENDBRANCH   4   5
ENDBRANCH   3   4
ENDBRANCH   2   3
ENDBRANCH   1   2
BRANCH   1  11
ATOM     11  C   UNL     1       0.047  55.361  20.107  1.00  0.00     0.000 C 
BRANCH  11  12
ATOM     12  C   UNL     1      -1.142  56.121  19.499  1.00  0.00     0.000 C 
BRANCH  12  13
ATOM     13  C   UNL     1      -0.911  56.399  18.008  1.00  0.00     0.000 C 
BRANCH  13  14
ATOM     14  C   UNL     1       0.566  56.204  17.636  1.00  0.00     0.000 C 
BRANCH  14  15
ATOM     15  C   UNL     1       1.360  57.524  17.614  1.00  0.00     0.000 C 
BRANCH  15  16
ATOM     16  C   UNL     1       2.738  57.465  18.296  1.00  0.00     0.006 C 
BRANCH  16  17
ATOM     17  C   UNL     1       3.427  56.102  18.138  1.00  0.00     0.053 C 
BRANCH  17  18
ATOM     18  C   UNL     1       4.157  56.035  16.834  1.00  0.00     0.041 C 
ATOM     19  O   UNL     1       3.733  55.292  15.909  1.00  0.00    -0.550 OA
ATOM     20  O   UNL     1       5.331  56.756  16.656  1.00  0.00    -0.550 OA
ENDBRANCH  17  18
ENDBRANCH  16  17
ENDBRANCH  15  16
ENDBRANCH  14  15
ENDBRANCH  13  14
ENDBRANCH  12  13
ENDBRANCH  11  12
ENDBRANCH   1  11
TORSDOF 15
ENDMDL
MODEL 8
REMARK VINA RESULT:    -4.832      1.675      5.977
REMARK INTER + INTRA:         -11.420
REMARK INTER:                  -8.765
REMARK INTRA:                  -2.655
REMARK UNBOUND:                -2.352
REMARK SMILES O=C([O-])CCCCCCCCCCCCCCC(=O)[O-]
REMARK SMILES IDX 10 1 9 2 8 3 7 4 6 5 5 6 4 7 2 8 1 9 3 10 11 11 12 12 13 13
REMARK SMILES IDX 14 14 15 15 16 16 17 17 18 18 19 19 20 20
REMARK H PARENT
REMARK Flexibility Score: inf
ROOT
ATOM      1  C   UNL     1       2.228  54.873  20.883  1.00  0.00     0.000 C 
ENDROOT
BRANCH   1   2
ATOM      2  C   UNL     1       2.980  53.725  20.193  1.00  0.00     0.000 C 
BRANCH   2   3
ATOM      3  C   UNL     1       1.996  52.738  19.545  1.00  0.00     0.000 C 
BRANCH   3   4
ATOM      4  C   UNL     1       2.284  52.510  18.052  1.00  0.00     0.000 C 
BRANCH   4   5
ATOM      5  C   UNL     1       1.456  53.436  17.145  1.00  0.00     0.000 C 
BRANCH   5   6
ATOM      6  C   UNL     1       2.331  54.399  16.325  1.00  0.00     0.006 C 
BRANCH   6   7
ATOM      7  C   UNL     1       2.189  55.860  16.777  1.00  0.00     0.053 C 
BRANCH   7   8
ATOM      8  C   UNL     1       3.382  56.274  17.580  1.00  0.00     0.041 C 
ATOM      9  O   UNL     1       3.324  57.286  18.328  1.00  0.00    -0.550 OA
ATOM     10  O   UNL     1       4.541  55.509  17.545  1.00  0.00    -0.550 OA
ENDBRANCH   7   8
ENDBRANCH   6   7
ENDBRANCH   5   6
ENDBRANCH   4   5
ENDBRANCH   3   4
ENDBRANCH   2   3
ENDBRANCH   1   2
BRANCH   1  11
ATOM     11  C   UNL     1       0.713  54.826  20.627  1.00  0.00     0.000 C 
BRANCH  11  12
ATOM     12  C   UNL     1       0.235  55.957  19.703  1.00  0.00     0.000 C 
BRANCH  12  13
ATOM     13  C   UNL     1      -1.280  55.879  19.478  1.00  0.00     0.000 C 
BRANCH  13  14
ATOM     14  C   UNL     1      -1.611  54.978  18.278  1.00  0.00     0.000 C 
BRANCH  14  15
ATOM     15  C   UNL     1      -2.567  53.825  18.637  1.00  0.00     0.000 C 
BRANCH  15  16
ATOM     16  C   UNL     1      -1.955  52.417  18.534  1.00  0.00     0.006 C 
BRANCH  16  17
ATOM     17  C   UNL     1      -1.405  51.904  19.872  1.00  0.00     0.053 C 
BRANCH  17  18
ATOM     18  C   UNL     1      -2.376  52.182  20.976  1.00  0.00     0.041 C 
ATOM     19  O   UNL     1      -3.431  51.499  21.078  1.00  0.00    -0.550 OA
ATOM     20  O   UNL     1      -2.140  53.224  21.864  1.00  0.00    -0.550 OA
ENDBRANCH  17  18
ENDBRANCH  16  17
ENDBRANCH  15  16
ENDBRANCH  14  15
ENDBRANCH  13  14
ENDBRANCH  12  13
ENDBRANCH  11  12
ENDBRANCH   1  11
TORSDOF 15
ENDMDL
MODEL 9
REMARK VINA RESULT:    -4.807      0.756      6.560
REMARK INTER + INTRA:         -11.375
REMARK INTER:                  -9.085
REMARK INTRA:                  -2.290
REMARK UNBOUND:                -2.352
REMARK SMILES O=C([O-])CCCCCCCCCCCCCCC(=O)[O-]
REMARK SMILES IDX 10 1 9 2 8 3 7 4 6 5 5 6 4 7 2 8 1 9 3 10 11 11 12 12 13 13
REMARK SMILES IDX 14 14 15 15 16 16 17 17 18 18 19 19 20 20
REMARK H PARENT
REMARK Flexibility Score: inf
ROOT
ATOM      1  C   UNL     1       1.871  55.258  20.670  1.00  0.00     0.000 C 
ENDROOT
BRANCH   1   2
ATOM      2  C   UNL     1       0.384  54.939  20.452  1.00  0.00     0.000 C 
BRANCH   2   3
ATOM      3  C   UNL     1      -0.248  55.928  19.460  1.00  0.00     0.000 C 
BRANCH   3   4
ATOM      4  C   UNL     1       0.801  56.678  18.622  1.00  0.00     0.000 C 
BRANCH   4   5
ATOM      5  C   UNL     1       0.721  56.326  17.127  1.00  0.00     0.000 C 
BRANCH   5   6
ATOM      6  C   UNL     1       2.019  55.698  16.595  1.00  0.00     0.006 C 
BRANCH   6   7
ATOM      7  C   UNL     1       3.277  56.305  17.232  1.00  0.00     0.053 C 
BRANCH   7   8
ATOM      8  C   UNL     1       4.493  55.923  16.449  1.00  0.00     0.041 C 
ATOM      9  O   UNL     1       4.438  54.987  15.607  1.00  0.00    -0.550 OA
ATOM     10  O   UNL     1       5.674  56.637  16.609  1.00  0.00    -0.550 OA
ENDBRANCH   7   8
ENDBRANCH   6   7
ENDBRANCH   5   6
ENDBRANCH   4   5
ENDBRANCH   3   4
ENDBRANCH   2   3
ENDBRANCH   1   2
BRANCH   1  11
ATOM     11  C   UNL     1       2.800  54.193  20.063  1.00  0.00     0.000 C 
BRANCH  11  12
ATOM     12  C   UNL     1       2.101  52.838  19.876  1.00  0.00     0.000 C 
BRANCH  12  13
ATOM     13  C   UNL     1       1.881  52.534  18.388  1.00  0.00     0.000 C 
BRANCH  13  14
ATOM     14  C   UNL     1       0.459  52.008  18.140  1.00  0.00     0.000 C 
BRANCH  14  15
ATOM     15  C   UNL     1      -0.373  52.930  17.229  1.00  0.00     0.000 C 
BRANCH  15  16
ATOM     16  C   UNL     1      -1.894  52.861  17.449  1.00  0.00     0.006 C 
BRANCH  16  17
ATOM     17  C   UNL     1      -2.274  52.455  18.880  1.00  0.00     0.053 C 
BRANCH  17  18
ATOM     18  C   UNL     1      -2.696  51.020  18.919  1.00  0.00     0.041 C 
ATOM     19  O   UNL     1      -2.489  50.327  19.952  1.00  0.00    -0.550 OA
ATOM     20  O   UNL     1      -3.275  50.434  17.800  1.00  0.00    -0.550 OA
ENDBRANCH  17  18
ENDBRANCH  16  17
ENDBRANCH  15  16
ENDBRANCH  14  15
ENDBRANCH  13  14
ENDBRANCH  12  13
ENDBRANCH  11  12
ENDBRANCH   1  11
TORSDOF 15
ENDMDL
