MODEL 1
REMARK VINA RESULT:    -4.988      0.000      0.000
REMARK INTER + INTRA:          -6.139
REMARK INTER:                  -6.008
REMARK INTRA:                  -0.130
REMARK UNBOUND:                -0.130
REMARK SMILES [NH3+][C@H](Cc1cnc[nH]1)C(=O)[O-]
REMARK SMILES IDX 3 1 2 2 1 3 9 7 10 8 11 9 4 10 5 11 8 12 6 13 7 14
REMARK H PARENT 1 4 1 5 1 6 8 15
REMARK Flexibility Score: inf
ROOT
ATOM      1  C   UNL     1     -15.043 -28.831 -13.847  1.00  0.00     0.127 C 
ENDROOT
BRANCH   1   2
ATOM      2  C   UNL     1     -14.222 -27.721 -14.538  1.00  0.00     0.233 C 
BRANCH   2   3
ATOM      3  N   UNL     1     -14.347 -27.779 -16.002  1.00  0.00    -0.350 N 
ATOM      4  H   UNL     1     -15.332 -27.599 -16.305  1.00  0.00     0.345 HD
ATOM      5  H   UNL     1     -13.723 -27.061 -16.435  1.00  0.00     0.345 HD
ATOM      6  H   UNL     1     -14.051 -28.720 -16.346  1.00  0.00     0.345 HD
ENDBRANCH   2   3
BRANCH   2   7
ATOM      7  C   UNL     1     -14.584 -26.356 -14.008  1.00  0.00     0.099 C 
ATOM      8  O   UNL     1     -14.420 -26.074 -12.790  1.00  0.00    -0.544 OA
ATOM      9  O   UNL     1     -15.051 -25.380 -14.878  1.00  0.00    -0.544 OA
ENDBRANCH   2   7
ENDBRANCH   1   2
BRANCH   1  10
ATOM     10  C   UNL     1     -14.434 -30.196 -13.989  1.00  0.00     0.041 A 
ATOM     11  C   UNL     1     -13.381 -30.706 -13.264  1.00  0.00     0.134 A 
ATOM     12  N   UNL     1     -14.817 -31.112 -14.892  1.00  0.00    -0.348 N 
ATOM     13  N   UNL     1     -13.101 -31.948 -13.707  1.00  0.00    -0.245 NA
ATOM     14  C   UNL     1     -13.995 -32.160 -14.697  1.00  0.00     0.196 A 
ATOM     15  H   UNL     1     -15.582 -31.032 -15.599  1.00  0.00     0.167 HD
ENDBRANCH   1  10
TORSDOF 4
ENDMDL
MODEL 2
REMARK VINA RESULT:    -4.810      3.157      3.631
REMARK INTER + INTRA:          -5.925
REMARK INTER:                  -5.734
REMARK INTRA:                  -0.191
REMARK UNBOUND:                -0.130
REMARK SMILES [NH3+][C@H](Cc1cnc[nH]1)C(=O)[O-]
REMARK SMILES IDX 3 1 2 2 1 3 9 7 10 8 11 9 4 10 5 11 8 12 6 13 7 14
REMARK H PARENT 1 4 1 5 1 6 8 15
REMARK Flexibility Score: inf
ROOT
ATOM      1  C   UNL     1     -13.370 -28.830 -13.357  1.00  0.00     0.127 C 
ENDROOT
BRANCH   1   2
ATOM      2  C   UNL     1     -13.893 -27.960 -14.521  1.00  0.00     0.233 C 
BRANCH   2   3
ATOM      3  N   UNL     1     -13.894 -28.693 -15.795  1.00  0.00    -0.350 N 
ATOM      4  H   UNL     1     -12.933 -29.023 -16.043  1.00  0.00     0.345 HD
ATOM      5  H   UNL     1     -14.528 -29.522 -15.721  1.00  0.00     0.345 HD
ATOM      6  H   UNL     1     -14.251 -28.075 -16.559  1.00  0.00     0.345 HD
ENDBRANCH   2   3
BRANCH   2   7
ATOM      7  C   UNL     1     -15.253 -27.388 -14.213  1.00  0.00     0.099 C 
ATOM      8  O   UNL     1     -16.190 -28.130 -13.813  1.00  0.00    -0.544 OA
ATOM      9  O   UNL     1     -15.466 -26.019 -14.319  1.00  0.00    -0.544 OA
ENDBRANCH   2   7
ENDBRANCH   1   2
BRANCH   1  10
ATOM     10  C   UNL     1     -13.304 -28.096 -12.049  1.00  0.00     0.041 A 
ATOM     11  C   UNL     1     -12.247 -27.349 -11.578  1.00  0.00     0.134 A 
ATOM     12  N   UNL     1     -14.273 -28.102 -11.120  1.00  0.00    -0.348 N 
ATOM     13  N   UNL     1     -12.552 -26.879 -10.352  1.00  0.00    -0.245 NA
ATOM     14  C   UNL     1     -13.791 -27.358 -10.108  1.00  0.00     0.196 A 
ATOM     15  H   UNL     1     -15.199 -28.583 -11.166  1.00  0.00     0.167 HD
ENDBRANCH   1  10
TORSDOF 4
ENDMDL
MODEL 3
REMARK VINA RESULT:    -4.621      3.716      4.414
REMARK INTER + INTRA:          -5.697
REMARK INTER:                  -5.545
REMARK INTRA:                  -0.153
REMARK UNBOUND:                -0.130
REMARK SMILES [NH3+][C@H](Cc1cnc[nH]1)C(=O)[O-]
REMARK SMILES IDX 3 1 2 2 1 3 9 7 10 8 11 9 4 10 5 11 8 12 6 13 7 14
REMARK H PARENT 1 4 1 5 1 6 8 15
REMARK Flexibility Score: inf
ROOT
ATOM      1  C   UNL     1     -12.990 -26.817 -13.035  1.00  0.00     0.127 C 
ENDROOT
BRANCH   1   2
ATOM      2  C   UNL     1     -14.409 -26.440 -13.511  1.00  0.00     0.233 C 
BRANCH   2   3
ATOM      3  N   UNL     1     -14.439 -25.115 -14.149  1.00  0.00    -0.350 N 
ATOM      4  H   UNL     1     -13.681 -24.499 -13.777  1.00  0.00     0.345 HD
ATOM      5  H   UNL     1     -14.313 -25.221 -15.181  1.00  0.00     0.345 HD
ATOM      6  H   UNL     1     -15.364 -24.660 -13.977  1.00  0.00     0.345 HD
ENDBRANCH   2   3
BRANCH   2   7
ATOM      7  C   UNL     1     -14.988 -27.499 -14.414  1.00  0.00     0.099 C 
ATOM      8  O   UNL     1     -15.911 -28.258 -14.011  1.00  0.00    -0.544 OA
ATOM      9  O   UNL     1     -14.540 -27.608 -15.724  1.00  0.00    -0.544 OA
ENDBRANCH   2   7
ENDBRANCH   1   2
BRANCH   1  10
ATOM     10  C   UNL     1     -12.891 -27.002 -11.548  1.00  0.00     0.041 A 
ATOM     11  C   UNL     1     -13.931 -26.979 -10.646  1.00  0.00     0.134 A 
ATOM     12  N   UNL     1     -11.742 -27.177 -10.875  1.00  0.00    -0.348 N 
ATOM     13  N   UNL     1     -13.439 -27.145  -9.402  1.00  0.00    -0.245 NA
ATOM     14  C   UNL     1     -12.106 -27.262  -9.582  1.00  0.00     0.196 A 
ATOM     15  H   UNL     1     -10.775 -27.230 -11.265  1.00  0.00     0.167 HD
ENDBRANCH   1  10
TORSDOF 4
ENDMDL
MODEL 4
REMARK VINA RESULT:    -4.582      4.665      5.368
REMARK INTER + INTRA:          -5.650
REMARK INTER:                  -5.504
REMARK INTRA:                  -0.146
REMARK UNBOUND:                -0.130
REMARK SMILES [NH3+][C@H](Cc1cnc[nH]1)C(=O)[O-]
REMARK SMILES IDX 3 1 2 2 1 3 9 7 10 8 11 9 4 10 5 11 8 12 6 13 7 14
REMARK H PARENT 1 4 1 5 1 6 8 15
REMARK Flexibility Score: inf
ROOT
ATOM      1  C   UNL     1     -14.343 -27.348 -10.487  1.00  0.00     0.127 C 
ENDROOT
BRANCH   1   2
ATOM      2  C   UNL     1     -13.962 -27.928 -11.867  1.00  0.00     0.233 C 
BRANCH   2   3
ATOM      3  N   UNL     1     -14.027 -29.397 -11.880  1.00  0.00    -0.350 N 
ATOM      4  H   UNL     1     -14.204 -29.759 -12.844  1.00  0.00     0.345 HD
ATOM      5  H   UNL     1     -13.124 -29.790 -11.530  1.00  0.00     0.345 HD
ATOM      6  H   UNL     1     -14.793 -29.723 -11.247  1.00  0.00     0.345 HD
ENDBRANCH   2   3
BRANCH   2   7
ATOM      7  C   UNL     1     -14.801 -27.330 -12.967  1.00  0.00     0.099 C 
ATOM      8  O   UNL     1     -15.666 -28.022 -13.569  1.00  0.00    -0.544 OA
ATOM      9  O   UNL     1     -14.661 -25.986 -13.288  1.00  0.00    -0.544 OA
ENDBRANCH   2   7
ENDBRANCH   1   2
BRANCH   1  10
ATOM     10  C   UNL     1     -13.161 -26.862  -9.699  1.00  0.00     0.041 A 
ATOM     11  C   UNL     1     -11.834 -26.989 -10.046  1.00  0.00     0.134 A 
ATOM     12  N   UNL     1     -13.236 -26.261  -8.502  1.00  0.00    -0.348 N 
ATOM     13  N   UNL     1     -11.071 -26.462  -9.068  1.00  0.00    -0.245 NA
ATOM     14  C   UNL     1     -11.959 -26.030  -8.146  1.00  0.00     0.196 A 
ATOM     15  H   UNL     1     -14.096 -26.027  -7.958  1.00  0.00     0.167 HD
ENDBRANCH   1  10
TORSDOF 4
ENDMDL
MODEL 5
REMARK VINA RESULT:    -4.560      1.766      2.017
REMARK INTER + INTRA:          -5.624
REMARK INTER:                  -5.521
REMARK INTRA:                  -0.103
REMARK UNBOUND:                -0.130
REMARK SMILES [NH3+][C@H](Cc1cnc[nH]1)C(=O)[O-]
REMARK SMILES IDX 3 1 2 2 1 3 9 7 10 8 11 9 4 10 5 11 8 12 6 13 7 14
REMARK H PARENT 1 4 1 5 1 6 8 15
REMARK Flexibility Score: inf
ROOT
ATOM      1  C   UNL     1     -15.230 -28.113 -13.462  1.00  0.00     0.127 C 
ENDROOT
BRANCH   1   2
ATOM      2  C   UNL     1     -14.190 -26.974 -13.378  1.00  0.00     0.233 C 
BRANCH   2   3
ATOM      3  N   UNL     1     -14.741 -25.695 -13.848  1.00  0.00    -0.350 N 
ATOM      4  H   UNL     1     -14.003 -24.955 -13.882  1.00  0.00     0.345 HD
ATOM      5  H   UNL     1     -15.142 -25.817 -14.807  1.00  0.00     0.345 HD
ATOM      6  H   UNL     1     -15.508 -25.383 -13.210  1.00  0.00     0.345 HD
ENDBRANCH   2   3
BRANCH   2   7
ATOM      7  C   UNL     1     -13.619 -26.851 -11.989  1.00  0.00     0.099 C 
ATOM      8  O   UNL     1     -14.359 -26.559 -11.010  1.00  0.00    -0.544 OA
ATOM      9  O   UNL     1     -12.273 -27.114 -11.771  1.00  0.00    -0.544 OA
ENDBRANCH   2   7
ENDBRANCH   1   2
BRANCH   1  10
ATOM     10  C   UNL     1     -14.616 -29.462 -13.704  1.00  0.00     0.041 A 
ATOM     11  C   UNL     1     -13.951 -30.239 -12.782  1.00  0.00     0.134 A 
ATOM     12  N   UNL     1     -14.597 -30.090 -14.890  1.00  0.00    -0.348 N 
ATOM     13  N   UNL     1     -13.515 -31.362 -13.386  1.00  0.00    -0.245 NA
ATOM     14  C   UNL     1     -13.926 -31.236 -14.666  1.00  0.00     0.196 A 
ATOM     15  H   UNL     1     -15.006 -29.763 -15.793  1.00  0.00     0.167 HD
ENDBRANCH   1  10
TORSDOF 4
ENDMDL
MODEL 6
REMARK VINA RESULT:    -4.530      3.310      4.826
REMARK INTER + INTRA:          -5.587
REMARK INTER:                  -5.583
REMARK INTRA:                  -0.005
REMARK UNBOUND:                -0.130
REMARK SMILES [NH3+][C@H](Cc1cnc[nH]1)C(=O)[O-]
REMARK SMILES IDX 3 1 2 2 1 3 9 7 10 8 11 9 4 10 5 11 8 12 6 13 7 14
REMARK H PARENT 1 4 1 5 1 6 8 15
REMARK Flexibility Score: inf
ROOT
ATOM      1  C   UNL     1     -14.094 -30.073 -13.314  1.00  0.00     0.127 C 
ENDROOT
BRANCH   1   2
ATOM      2  C   UNL     1     -14.345 -31.027 -14.503  1.00  0.00     0.233 C 
BRANCH   2   3
ATOM      3  N   UNL     1     -14.070 -30.377 -15.792  1.00  0.00    -0.350 N 
ATOM      4  H   UNL     1     -14.943 -29.986 -16.213  1.00  0.00     0.345 HD
ATOM      5  H   UNL     1     -13.383 -29.601 -15.654  1.00  0.00     0.345 HD
ATOM      6  H   UNL     1     -13.652 -31.069 -16.456  1.00  0.00     0.345 HD
ENDBRANCH   2   3
BRANCH   2   7
ATOM      7  C   UNL     1     -13.567 -32.309 -14.354  1.00  0.00     0.099 C 
ATOM      8  O   UNL     1     -13.950 -33.366 -14.925  1.00  0.00    -0.544 OA
ATOM      9  O   UNL     1     -12.384 -32.318 -13.626  1.00  0.00    -0.544 OA
ENDBRANCH   2   7
ENDBRANCH   1   2
BRANCH   1  10
ATOM     10  C   UNL     1     -14.371 -28.633 -13.638  1.00  0.00     0.041 A 
ATOM     11  C   UNL     1     -13.494 -27.580 -13.512  1.00  0.00     0.134 A 
ATOM     12  N   UNL     1     -15.553 -28.161 -14.066  1.00  0.00    -0.348 N 
ATOM     13  N   UNL     1     -14.121 -26.440 -13.865  1.00  0.00    -0.245 NA
ATOM     14  C   UNL     1     -15.370 -26.833 -14.196  1.00  0.00     0.196 A 
ATOM     15  H   UNL     1     -16.427 -28.700 -14.253  1.00  0.00     0.167 HD
ENDBRANCH   1  10
TORSDOF 4
ENDMDL
MODEL 7
REMARK VINA RESULT:    -4.494      3.912      4.820
REMARK INTER + INTRA:          -5.544
REMARK INTER:                  -5.338
REMARK INTRA:                  -0.206
REMARK UNBOUND:                -0.130
REMARK SMILES [NH3+][C@H](Cc1cnc[nH]1)C(=O)[O-]
REMARK SMILES IDX 3 1 2 2 1 3 9 7 10 8 11 9 4 10 5 11 8 12 6 13 7 14
REMARK H PARENT 1 4 1 5 1 6 8 15
REMARK Flexibility Score: inf
ROOT
ATOM      1  C   UNL     1     -13.964 -27.272 -12.966  1.00  0.00     0.127 C 
ENDROOT
BRANCH   1   2
ATOM      2  C   UNL     1     -14.747 -28.590 -13.154  1.00  0.00     0.233 C 
BRANCH   2   3
ATOM      3  N   UNL     1     -15.860 -28.434 -14.102  1.00  0.00    -0.350 N 
ATOM      4  H   UNL     1     -15.511 -28.321 -15.081  1.00  0.00     0.345 HD
ATOM      5  H   UNL     1     -16.478 -29.276 -14.058  1.00  0.00     0.345 HD
ATOM      6  H   UNL     1     -16.431 -27.596 -13.844  1.00  0.00     0.345 HD
ENDBRANCH   2   3
BRANCH   2   7
ATOM      7  C   UNL     1     -13.835 -29.721 -13.557  1.00  0.00     0.099 C 
ATOM      8  O   UNL     1     -14.019 -30.345 -14.637  1.00  0.00    -0.544 OA
ATOM      9  O   UNL     1     -12.747 -30.046 -12.758  1.00  0.00    -0.544 OA
ENDBRANCH   2   7
ENDBRANCH   1   2
BRANCH   1  10
ATOM     10  C   UNL     1     -13.420 -27.098 -11.577  1.00  0.00     0.041 A 
ATOM     11  C   UNL     1     -14.139 -26.786 -10.446  1.00  0.00     0.134 A 
ATOM     12  N   UNL     1     -12.120 -27.183 -11.250  1.00  0.00    -0.348 N 
ATOM     13  N   UNL     1     -13.294 -26.679  -9.401  1.00  0.00    -0.245 NA
ATOM     14  C   UNL     1     -12.076 -26.927  -9.929  1.00  0.00     0.196 A 
ATOM     15  H   UNL     1     -11.316 -27.396 -11.881  1.00  0.00     0.167 HD
ENDBRANCH   1  10
TORSDOF 4
ENDMDL
MODEL 8
REMARK VINA RESULT:    -4.476      3.554      4.922
REMARK INTER + INTRA:          -5.523
REMARK INTER:                  -5.361
REMARK INTRA:                  -0.162
REMARK UNBOUND:                -0.130
REMARK SMILES [NH3+][C@H](Cc1cnc[nH]1)C(=O)[O-]
REMARK SMILES IDX 3 1 2 2 1 3 9 7 10 8 11 9 4 10 5 11 8 12 6 13 7 14
REMARK H PARENT 1 4 1 5 1 6 8 15
REMARK Flexibility Score: inf
ROOT
ATOM      1  C   UNL     1     -14.098 -27.854 -11.769  1.00  0.00     0.127 C 
ENDROOT
BRANCH   1   2
ATOM      2  C   UNL     1     -13.991 -26.884 -10.572  1.00  0.00     0.233 C 
BRANCH   2   3
ATOM      3  N   UNL     1     -15.081 -27.084  -9.607  1.00  0.00    -0.350 N 
ATOM      4  H   UNL     1     -14.874 -26.611  -8.698  1.00  0.00     0.345 HD
ATOM      5  H   UNL     1     -15.970 -26.693  -9.996  1.00  0.00     0.345 HD
ATOM      6  H   UNL     1     -15.221 -28.106  -9.436  1.00  0.00     0.345 HD
ENDBRANCH   2   3
BRANCH   2   7
ATOM      7  C   UNL     1     -12.641 -26.977  -9.906  1.00  0.00     0.099 C 
ATOM      8  O   UNL     1     -12.543 -27.013  -8.649  1.00  0.00    -0.544 OA
ATOM      9  O   UNL     1     -11.495 -27.079 -10.683  1.00  0.00    -0.544 OA
ENDBRANCH   2   7
ENDBRANCH   1   2
BRANCH   1  10
ATOM     10  C   UNL     1     -14.437 -27.168 -13.061  1.00  0.00     0.041 A 
ATOM     11  C   UNL     1     -14.455 -27.739 -14.314  1.00  0.00     0.134 A 
ATOM     12  N   UNL     1     -14.737 -25.865 -13.178  1.00  0.00    -0.348 N 
ATOM     13  N   UNL     1     -14.770 -26.796 -15.224  1.00  0.00    -0.245 NA
ATOM     14  C   UNL     1     -14.934 -25.670 -14.496  1.00  0.00     0.196 A 
ATOM     15  H   UNL     1     -14.798 -25.153 -12.417  1.00  0.00     0.167 HD
ENDBRANCH   1  10
TORSDOF 4
ENDMDL
MODEL 9
REMARK VINA RESULT:    -4.432      3.354      3.885
REMARK INTER + INTRA:          -5.469
REMARK INTER:                  -5.282
REMARK INTRA:                  -0.187
REMARK UNBOUND:                -0.130
REMARK SMILES [NH3+][C@H](Cc1cnc[nH]1)C(=O)[O-]
REMARK SMILES IDX 3 1 2 2 1 3 9 7 10 8 11 9 4 10 5 11 8 12 6 13 7 14
REMARK H PARENT 1 4 1 5 1 6 8 15
REMARK Flexibility Score: inf
ROOT
ATOM      1  C   UNL     1     -13.706 -29.011 -11.021  1.00  0.00     0.127 C 
ENDROOT
BRANCH   1   2
ATOM      2  C   UNL     1     -13.727 -27.498 -10.715  1.00  0.00     0.233 C 
BRANCH   2   3
ATOM      3  N   UNL     1     -14.754 -27.155  -9.721  1.00  0.00    -0.350 N 
ATOM      4  H   UNL     1     -15.490 -27.896  -9.665  1.00  0.00     0.345 HD
ATOM      5  H   UNL     1     -14.310 -27.047  -8.780  1.00  0.00     0.345 HD
ATOM      6  H   UNL     1     -15.205 -26.246  -9.975  1.00  0.00     0.345 HD
ENDBRANCH   2   3
BRANCH   2   7
ATOM      7  C   UNL     1     -12.367 -27.001 -10.295  1.00  0.00     0.099 C 
ATOM      8  O   UNL     1     -11.352 -27.217 -11.012  1.00  0.00    -0.544 OA
ATOM      9  O   UNL     1     -12.235 -26.250  -9.135  1.00  0.00    -0.544 OA
ENDBRANCH   2   7
ENDBRANCH   1   2
BRANCH   1  10
ATOM     10  C   UNL     1     -13.838 -29.324 -12.484  1.00  0.00     0.041 A 
ATOM     11  C   UNL     1     -13.764 -28.426 -13.525  1.00  0.00     0.134 A 
ATOM     12  N   UNL     1     -14.092 -30.543 -12.984  1.00  0.00    -0.348 N 
ATOM     13  N   UNL     1     -13.968 -29.081 -14.686  1.00  0.00    -0.245 NA
ATOM     14  C   UNL     1     -14.163 -30.365 -14.316  1.00  0.00     0.196 A 
ATOM     15  H   UNL     1     -14.214 -31.437 -12.458  1.00  0.00     0.167 HD
ENDBRANCH   1  10
TORSDOF 4
ENDMDL
