MODEL 1
REMARK VINA RESULT:    -3.350      0.000      0.000
REMARK INTER + INTRA:          -4.284
REMARK INTER:                  -4.721
REMARK INTRA:                   0.437
REMARK UNBOUND:                 0.437
REMARK SMILES CC1=CCC(=C(C)C)C(=O)CC(C)=CCC1
REMARK SMILES IDX 12 1 14 2 13 3 15 4 16 5 2 6 1 7 3 8 11 10 9 11 10 12 5 13
REMARK SMILES IDX 6 14 7 15 8 16 4 17
REMARK H PARENT
REMARK Flexibility Score: 60.00
ROOT
ATOM      1  C   UNL     1     100.175   3.586  77.188  1.00  0.00    -0.070 C 
ATOM      2  C   UNL     1      99.033   3.438  76.481  1.00  0.00    -0.027 C 
ATOM      3  C   UNL     1     101.367   2.758  76.782  1.00  0.00     0.039 C 
ENDROOT
BRANCH   2   4
ATOM      4  C   UNL     1      97.766   4.244  76.670  1.00  0.00     0.032 C 
BRANCH   4   5
ATOM      5  C   UNL     1      97.343   5.083  75.447  1.00  0.00     0.034 C 
BRANCH   5   6
ATOM      6  C   UNL     1      98.454   5.973  74.919  1.00  0.00    -0.077 C 
ATOM      7  C   UNL     1      98.916   5.753  73.502  1.00  0.00     0.039 C 
ATOM      8  C   UNL     1      99.008   6.996  75.616  1.00  0.00    -0.023 CG0
ATOM      9  G   UNL     1      98.717   7.391  77.050  1.00  0.00     0.000 G0
ENDBRANCH   5   6
ENDBRANCH   4   5
ENDBRANCH   2   4
BRANCH   1  10
ATOM     10  C   UNL     1     100.340   4.605  78.297  1.00  0.00     0.111 C 
BRANCH  10  11
ATOM     11  C   UNL     1     100.734   5.955  77.757  1.00  0.00     0.163 C 
ATOM     12  O   UNL     1     101.774   6.030  77.047  1.00  0.00    -0.294 OA
BRANCH  11  13
ATOM     13  C   UNL     1      99.911   7.180  77.984  1.00  0.00    -0.002 C 
ATOM     14  C   UNL     1     100.280   8.108  78.917  1.00  0.00    -0.069 C 
ATOM     15  C   UNL     1      99.559   9.430  79.059  1.00  0.00     0.039 C 
ATOM     16  C   UNL     1     101.436   7.856  79.858  1.00  0.00     0.039 C 
BRANCH  13  17
ATOM     17  C   UNL     1      98.714   7.391  77.071  1.00  0.00     0.066 CG0
ATOM     18  G   UNL     1      99.005   6.995  75.637  1.00  0.00     0.000 G0
ENDBRANCH  13  17
ENDBRANCH  11  13
ENDBRANCH  10  11
ENDBRANCH   1  10
TORSDOF 0
ENDMDL
MODEL 2
REMARK VINA RESULT:    -3.275      1.968      5.026
REMARK INTER + INTRA:          -4.178
REMARK INTER:                  -4.367
REMARK INTRA:                   0.189
REMARK UNBOUND:                 0.437
REMARK SMILES CC1=CCC(=C(C)C)C(=O)CC(C)=CCC1
REMARK SMILES IDX 12 1 14 2 13 3 15 4 16 5 2 6 1 7 3 8 11 10 9 11 10 12 5 13
REMARK SMILES IDX 6 14 7 15 8 16 4 17
REMARK H PARENT
REMARK Flexibility Score: 60.00
ROOT
ATOM      1  C   UNL     1      97.277   7.854  76.571  1.00  0.00    -0.070 C 
ATOM      2  C   UNL     1      97.866   8.820  77.311  1.00  0.00    -0.027 C 
ATOM      3  C   UNL     1      96.177   8.263  75.625  1.00  0.00     0.039 C 
ENDROOT
BRANCH   2   4
ATOM      4  C   UNL     1      99.045   8.625  78.240  1.00  0.00     0.032 C 
BRANCH   4   5
ATOM      5  C   UNL     1     100.410   8.486  77.535  1.00  0.00     0.034 C 
BRANCH   5   6
ATOM      6  C   UNL     1     101.234   7.321  78.053  1.00  0.00    -0.077 C 
ATOM      7  C   UNL     1     101.659   7.351  79.499  1.00  0.00     0.039 C 
ATOM      8  C   UNL     1     101.555   6.226  77.320  1.00  0.00    -0.023 CG0
ATOM      9  G   UNL     1     101.253   5.987  75.854  1.00  0.00     0.000 G0
ENDBRANCH   5   6
ENDBRANCH   4   5
ENDBRANCH   2   4
BRANCH   1  10
ATOM     10  C   UNL     1      97.729   6.409  76.580  1.00  0.00     0.111 C 
BRANCH  10  11
ATOM     11  C   UNL     1      98.700   6.124  75.463  1.00  0.00     0.163 C 
ATOM     12  O   UNL     1      98.501   6.677  74.347  1.00  0.00    -0.294 OA
BRANCH  11  13
ATOM     13  C   UNL     1      99.908   5.267  75.651  1.00  0.00    -0.002 C 
ATOM     14  C   UNL     1      99.823   3.906  75.553  1.00  0.00    -0.069 C 
ATOM     15  C   UNL     1     101.052   3.024  75.580  1.00  0.00     0.039 C 
ATOM     16  C   UNL     1      98.487   3.213  75.410  1.00  0.00     0.039 C 
BRANCH  13  17
ATOM     17  C   UNL     1     101.238   5.976  75.856  1.00  0.00     0.066 CG0
ATOM     18  G   UNL     1     101.532   6.236  77.320  1.00  0.00     0.000 G0
ENDBRANCH  13  17
ENDBRANCH  11  13
ENDBRANCH  10  11
ENDBRANCH   1  10
TORSDOF 0
ENDMDL
MODEL 3
REMARK VINA RESULT:    -3.218      1.880      3.955
REMARK INTER + INTRA:          -4.098
REMARK INTER:                  -4.297
REMARK INTRA:                   0.199
REMARK UNBOUND:                 0.437
REMARK SMILES CC1=CCC(=C(C)C)C(=O)CC(C)=CCC1
REMARK SMILES IDX 12 1 14 2 13 3 15 4 16 5 2 6 1 7 3 8 11 10 9 11 10 12 5 13
REMARK SMILES IDX 6 14 7 15 8 16 4 17
REMARK H PARENT
REMARK Flexibility Score: 60.00
ROOT
ATOM      1  C   UNL     1      99.712   8.757  78.112  1.00  0.00    -0.070 C 
ATOM      2  C   UNL     1      98.459   8.426  77.730  1.00  0.00    -0.027 C 
ATOM      3  C   UNL     1      99.876   9.534  79.393  1.00  0.00     0.039 C 
ENDROOT
BRANCH   2   4
ATOM      4  C   UNL     1      98.097   7.571  76.534  1.00  0.00     0.032 C 
BRANCH   4   5
ATOM      5  C   UNL     1      97.752   6.105  76.867  1.00  0.00     0.034 C 
BRANCH   5   6
ATOM      6  C   UNL     1      98.434   5.107  75.946  1.00  0.00    -0.077 C 
ATOM      7  C   UNL     1      97.742   4.760  74.653  1.00  0.00     0.039 C 
ATOM      8  C   UNL     1      99.653   4.562  76.180  1.00  0.00    -0.023 CG0
ATOM      9  G   UNL     1     100.519   4.750  77.410  1.00  0.00     0.000 G0
ENDBRANCH   5   6
ENDBRANCH   4   5
ENDBRANCH   2   4
BRANCH   1  10
ATOM     10  C   UNL     1     100.953   8.306  77.370  1.00  0.00     0.111 C 
BRANCH  10  11
ATOM     11  C   UNL     1     101.528   7.046  77.962  1.00  0.00     0.163 C 
ATOM     12  O   UNL     1     101.879   7.065  79.173  1.00  0.00    -0.294 OA
BRANCH  11  13
ATOM     13  C   UNL     1     101.636   5.774  77.188  1.00  0.00    -0.002 C 
ATOM     14  C   UNL     1     102.716   5.533  76.385  1.00  0.00    -0.069 C 
ATOM     15  C   UNL     1     102.933   4.194  75.716  1.00  0.00     0.039 C 
ATOM     16  C   UNL     1     103.756   6.601  76.129  1.00  0.00     0.039 C 
BRANCH  13  17
ATOM     17  C   UNL     1     100.551   4.732  77.408  1.00  0.00     0.066 CG0
ATOM     18  G   UNL     1      99.665   4.558  76.190  1.00  0.00     0.000 G0
ENDBRANCH  13  17
ENDBRANCH  11  13
ENDBRANCH  10  11
ENDBRANCH   1  10
TORSDOF 0
ENDMDL
MODEL 4
REMARK VINA RESULT:    -3.188      1.967      4.913
REMARK INTER + INTRA:          -4.055
REMARK INTER:                  -4.303
REMARK INTRA:                   0.248
REMARK UNBOUND:                 0.437
REMARK SMILES CC1=CCC(=C(C)C)C(=O)CC(C)=CCC1
REMARK SMILES IDX 12 1 14 2 13 3 15 4 16 5 2 6 1 7 3 8 11 10 9 11 10 12 5 13
REMARK SMILES IDX 6 14 7 15 8 16 4 17
REMARK H PARENT
REMARK Flexibility Score: 60.00
ROOT
ATOM      1  C   UNL     1      99.535   7.435  77.476  1.00  0.00    -0.070 C 
ATOM      2  C   UNL     1      99.942   6.560  78.422  1.00  0.00    -0.027 C 
ATOM      3  C   UNL     1      99.235   8.849  77.905  1.00  0.00     0.039 C 
ENDROOT
BRANCH   2   4
ATOM      4  C   UNL     1     100.380   5.133  78.175  1.00  0.00     0.032 C 
BRANCH   4   5
ATOM      5  C   UNL     1      99.232   4.105  78.112  1.00  0.00     0.034 C 
BRANCH   5   6
ATOM      6  C   UNL     1      99.335   3.165  76.924  1.00  0.00    -0.077 C 
ATOM      7  C   UNL     1     100.398   2.097  76.966  1.00  0.00     0.039 C 
ATOM      8  C   UNL     1      98.492   3.180  75.863  1.00  0.00    -0.023 CG0
ATOM      9  G   UNL     1      97.370   4.166  75.600  1.00  0.00     0.000 G0
ENDBRANCH   5   6
ENDBRANCH   4   5
ENDBRANCH   2   4
BRANCH   1  10
ATOM     10  C   UNL     1      99.456   7.089  76.003  1.00  0.00     0.111 C 
BRANCH  10  11
ATOM     11  C   UNL     1      98.072   6.645  75.609  1.00  0.00     0.163 C 
ATOM     12  O   UNL     1      97.100   7.390  75.913  1.00  0.00    -0.294 OA
BRANCH  11  13
ATOM     13  C   UNL     1      97.822   5.398  74.828  1.00  0.00    -0.002 C 
ATOM     14  C   UNL     1      98.087   5.347  73.487  1.00  0.00    -0.069 C 
ATOM     15  C   UNL     1      97.997   4.057  72.702  1.00  0.00     0.039 C 
ATOM     16  C   UNL     1      98.489   6.587  72.721  1.00  0.00     0.039 C 
BRANCH  13  17
ATOM     17  C   UNL     1      97.358   4.174  75.601  1.00  0.00     0.066 CG0
ATOM     18  G   UNL     1      98.485   3.192  75.856  1.00  0.00     0.000 G0
ENDBRANCH  13  17
ENDBRANCH  11  13
ENDBRANCH  10  11
ENDBRANCH   1  10
TORSDOF 0
ENDMDL
MODEL 5
REMARK VINA RESULT:    -3.170      2.235      4.855
REMARK INTER + INTRA:          -4.030
REMARK INTER:                  -4.236
REMARK INTRA:                   0.206
REMARK UNBOUND:                 0.437
REMARK SMILES CC1=CCC(=C(C)C)C(=O)CC(C)=CCC1
REMARK SMILES IDX 12 1 14 2 13 3 15 4 16 5 2 6 1 7 3 8 11 10 9 11 10 12 5 13
REMARK SMILES IDX 6 14 7 15 8 16 4 17
REMARK H PARENT
REMARK Flexibility Score: 60.00
ROOT
ATOM      1  C   UNL     1      97.601   7.752  76.730  1.00  0.00    -0.070 C 
ATOM      2  C   UNL     1      97.466   8.981  77.275  1.00  0.00    -0.027 C 
ATOM      3  C   UNL     1      96.638   7.354  75.640  1.00  0.00     0.039 C 
ENDROOT
BRANCH   2   4
ATOM      4  C   UNL     1      98.387   9.597  78.305  1.00  0.00     0.032 C 
BRANCH   4   5
ATOM      5  C   UNL     1      99.707  10.160  77.739  1.00  0.00     0.034 C 
BRANCH   5   6
ATOM      6  C   UNL     1     100.939   9.619  78.444  1.00  0.00    -0.077 C 
ATOM      7  C   UNL     1     101.147  10.003  79.887  1.00  0.00     0.039 C 
ATOM      8  C   UNL     1     101.825   8.760  77.882  1.00  0.00    -0.023 CG0
ATOM      9  G   UNL     1     101.828   8.255  76.453  1.00  0.00     0.000 G0
ENDBRANCH   5   6
ENDBRANCH   4   5
ENDBRANCH   2   4
BRANCH   1  10
ATOM     10  C   UNL     1      98.724   6.801  77.092  1.00  0.00     0.111 C 
BRANCH  10  11
ATOM     11  C   UNL     1      99.782   6.757  76.021  1.00  0.00     0.163 C 
ATOM     12  O   UNL     1      99.408   6.690  74.818  1.00  0.00    -0.294 OA
BRANCH  11  13
ATOM     13  C   UNL     1     101.240   6.850  76.331  1.00  0.00    -0.002 C 
ATOM     14  C   UNL     1     102.009   5.724  76.423  1.00  0.00    -0.069 C 
ATOM     15  C   UNL     1     103.512   5.792  76.577  1.00  0.00     0.039 C 
ATOM     16  C   UNL     1     101.389   4.346  76.373  1.00  0.00     0.039 C 
BRANCH  13  17
ATOM     17  C   UNL     1     101.839   8.243  76.441  1.00  0.00     0.066 CG0
ATOM     18  G   UNL     1     101.838   8.761  77.866  1.00  0.00     0.000 G0
ENDBRANCH  13  17
ENDBRANCH  11  13
ENDBRANCH  10  11
ENDBRANCH   1  10
TORSDOF 0
ENDMDL
MODEL 6
REMARK VINA RESULT:    -3.146      2.122      4.678
REMARK INTER + INTRA:          -3.996
REMARK INTER:                  -4.180
REMARK INTRA:                   0.184
REMARK UNBOUND:                 0.437
REMARK SMILES CC1=CCC(=C(C)C)C(=O)CC(C)=CCC1
REMARK SMILES IDX 12 1 14 2 13 3 15 4 16 5 2 6 1 7 3 8 11 10 9 11 10 12 5 13
REMARK SMILES IDX 6 14 7 15 8 16 4 17
REMARK H PARENT
REMARK Flexibility Score: 60.00
ROOT
ATOM      1  C   UNL     1     100.775   7.591  78.550  1.00  0.00    -0.070 C 
ATOM      2  C   UNL     1     102.087   7.714  78.250  1.00  0.00    -0.027 C 
ATOM      3  C   UNL     1     100.068   8.792  79.125  1.00  0.00     0.039 C 
ENDROOT
BRANCH   2   4
ATOM      4  C   UNL     1     102.942   6.660  77.580  1.00  0.00     0.032 C 
BRANCH   4   5
ATOM      5  C   UNL     1     102.869   6.650  76.040  1.00  0.00     0.034 C 
BRANCH   5   6
ATOM      6  C   UNL     1     102.543   5.282  75.466  1.00  0.00    -0.077 C 
ATOM      7  C   UNL     1     103.623   4.231  75.500  1.00  0.00     0.039 C 
ATOM      8  C   UNL     1     101.325   4.925  74.990  1.00  0.00    -0.023 CG0
ATOM      9  G   UNL     1     100.104   5.812  74.842  1.00  0.00     0.000 G0
ENDBRANCH   5   6
ENDBRANCH   4   5
ENDBRANCH   2   4
BRANCH   1  10
ATOM     10  C   UNL     1      99.967   6.345  78.252  1.00  0.00     0.111 C 
BRANCH  10  11
ATOM     11  C   UNL     1      99.065   6.539  77.061  1.00  0.00     0.163 C 
ATOM     12  O   UNL     1      98.334   7.566  77.031  1.00  0.00    -0.294 OA
BRANCH  11  13
ATOM     13  C   UNL     1      99.055   5.598  75.902  1.00  0.00    -0.002 C 
ATOM     14  C   UNL     1      98.085   4.642  75.785  1.00  0.00    -0.069 C 
ATOM     15  C   UNL     1      97.954   3.782  74.548  1.00  0.00     0.039 C 
ATOM     16  C   UNL     1      97.088   4.398  76.896  1.00  0.00     0.039 C 
BRANCH  13  17
ATOM     17  C   UNL     1     100.102   5.815  74.821  1.00  0.00     0.066 CG0
ATOM     18  G   UNL     1     101.302   4.905  74.991  1.00  0.00     0.000 G0
ENDBRANCH  13  17
ENDBRANCH  11  13
ENDBRANCH  10  11
ENDBRANCH   1  10
TORSDOF 0
ENDMDL
MODEL 7
REMARK VINA RESULT:    -2.944      1.994      3.940
REMARK INTER + INTRA:          -3.712
REMARK INTER:                  -3.927
REMARK INTRA:                   0.215
REMARK UNBOUND:                 0.437
REMARK SMILES CC1=CCC(=C(C)C)C(=O)CC(C)=CCC1
REMARK SMILES IDX 12 1 14 2 13 3 15 4 16 5 2 6 1 7 3 8 11 10 9 11 10 12 5 13
REMARK SMILES IDX 6 14 7 15 8 16 4 17
REMARK H PARENT
REMARK Flexibility Score: 60.00
ROOT
ATOM      1  C   UNL     1      98.238   6.177  75.709  1.00  0.00    -0.070 C 
ATOM      2  C   UNL     1      97.316   7.039  76.191  1.00  0.00    -0.027 C 
ATOM      3  C   UNL     1      97.749   4.879  75.118  1.00  0.00     0.039 C 
ENDROOT
BRANCH   2   4
ATOM      4  C   UNL     1      97.599   8.424  76.732  1.00  0.00     0.032 C 
BRANCH   4   5
ATOM      5  C   UNL     1      98.191   8.455  78.156  1.00  0.00     0.034 C 
BRANCH   5   6
ATOM      6  C   UNL     1      99.412   9.349  78.277  1.00  0.00    -0.077 C 
ATOM      7  C   UNL     1      99.217  10.831  78.082  1.00  0.00     0.039 C 
ATOM      8  C   UNL     1     100.649   8.911  78.616  1.00  0.00    -0.023 CG0
ATOM      9  G   UNL     1     101.081   7.475  78.841  1.00  0.00     0.000 G0
ENDBRANCH   5   6
ENDBRANCH   4   5
ENDBRANCH   2   4
BRANCH   1  10
ATOM     10  C   UNL     1      99.719   6.491  75.650  1.00  0.00     0.111 C 
BRANCH  10  11
ATOM     11  C   UNL     1     100.447   5.968  76.861  1.00  0.00     0.163 C 
ATOM     12  O   UNL     1     100.185   4.798  77.252  1.00  0.00    -0.294 OA
BRANCH  11  13
ATOM     13  C   UNL     1     101.498   6.759  77.566  1.00  0.00    -0.002 C 
ATOM     14  C   UNL     1     102.745   6.905  77.026  1.00  0.00    -0.069 C 
ATOM     15  C   UNL     1     103.779   7.827  77.634  1.00  0.00     0.039 C 
ATOM     16  C   UNL     1     103.153   6.147  75.782  1.00  0.00     0.039 C 
BRANCH  13  17
ATOM     17  C   UNL     1     101.092   7.466  78.850  1.00  0.00     0.066 CG0
ATOM     18  G   UNL     1     100.666   8.901  78.607  1.00  0.00     0.000 G0
ENDBRANCH  13  17
ENDBRANCH  11  13
ENDBRANCH  10  11
ENDBRANCH   1  10
TORSDOF 0
ENDMDL
MODEL 8
REMARK VINA RESULT:    -2.944      4.488      7.387
REMARK INTER + INTRA:          -3.711
REMARK INTER:                  -4.274
REMARK INTRA:                   0.563
REMARK UNBOUND:                 0.437
REMARK SMILES CC1=CCC(=C(C)C)C(=O)CC(C)=CCC1
REMARK SMILES IDX 12 1 14 2 13 3 15 4 16 5 2 6 1 7 3 8 11 10 9 11 10 12 5 13
REMARK SMILES IDX 6 14 7 15 8 16 4 17
REMARK H PARENT
REMARK Flexibility Score: 60.00
ROOT
ATOM      1  C   UNL     1      97.601   7.757  69.634  1.00  0.00    -0.070 C 
ATOM      2  C   UNL     1      97.254   6.918  68.633  1.00  0.00    -0.027 C 
ATOM      3  C   UNL     1      98.004   9.163  69.268  1.00  0.00     0.039 C 
ENDROOT
BRANCH   2   4
ATOM      4  C   UNL     1      96.731   5.507  68.804  1.00  0.00     0.032 C 
BRANCH   4   5
ATOM      5  C   UNL     1      97.510   4.430  68.022  1.00  0.00     0.034 C 
BRANCH   5   6
ATOM      6  C   UNL     1      98.905   4.184  68.570  1.00  0.00    -0.077 C 
ATOM      7  C   UNL     1     100.049   4.157  67.589  1.00  0.00     0.039 C 
ATOM      8  C   UNL     1      99.196   4.058  69.889  1.00  0.00    -0.023 CG0
ATOM      9  G   UNL     1      98.215   4.036  71.044  1.00  0.00     0.000 G0
ENDBRANCH   5   6
ENDBRANCH   4   5
ENDBRANCH   2   4
BRANCH   1  10
ATOM     10  C   UNL     1      97.515   7.383  71.099  1.00  0.00     0.111 C 
BRANCH  10  11
ATOM     11  C   UNL     1      98.676   6.520  71.522  1.00  0.00     0.163 C 
ATOM     12  O   UNL     1      99.835   7.013  71.461  1.00  0.00    -0.294 OA
BRANCH  11  13
ATOM     13  C   UNL     1      98.494   5.140  72.061  1.00  0.00    -0.002 C 
ATOM     14  C   UNL     1      98.478   4.911  73.408  1.00  0.00    -0.069 C 
ATOM     15  C   UNL     1      98.138   3.555  73.986  1.00  0.00     0.039 C 
ATOM     16  C   UNL     1      98.799   6.012  74.394  1.00  0.00     0.039 C 
BRANCH  13  17
ATOM     17  C   UNL     1      98.233   4.030  71.055  1.00  0.00     0.066 CG0
ATOM     18  G   UNL     1      99.210   4.061  69.896  1.00  0.00     0.000 G0
ENDBRANCH  13  17
ENDBRANCH  11  13
ENDBRANCH  10  11
ENDBRANCH   1  10
TORSDOF 0
ENDMDL
MODEL 9
REMARK VINA RESULT:    -2.911      2.758      5.348
REMARK INTER + INTRA:          -3.665
REMARK INTER:                  -3.885
REMARK INTRA:                   0.220
REMARK UNBOUND:                 0.437
REMARK SMILES CC1=CCC(=C(C)C)C(=O)CC(C)=CCC1
REMARK SMILES IDX 12 1 14 2 13 3 15 4 16 5 2 6 1 7 3 8 11 10 9 11 10 12 5 13
REMARK SMILES IDX 6 14 7 15 8 16 4 17
REMARK H PARENT
REMARK Flexibility Score: 60.00
ROOT
ATOM      1  C   UNL     1     100.720   7.106  78.203  1.00  0.00    -0.070 C 
ATOM      2  C   UNL     1     101.825   7.785  77.825  1.00  0.00    -0.027 C 
ATOM      3  C   UNL     1      99.438   7.881  78.370  1.00  0.00     0.039 C 
ENDROOT
BRANCH   2   4
ATOM      4  C   UNL     1     103.174   7.174  77.513  1.00  0.00     0.032 C 
BRANCH   4   5
ATOM      5  C   UNL     1     103.363   6.735  76.046  1.00  0.00     0.034 C 
BRANCH   5   6
ATOM      6  C   UNL     1     104.100   5.415  75.907  1.00  0.00    -0.077 C 
ATOM      7  C   UNL     1     105.585   5.410  76.164  1.00  0.00     0.039 C 
ATOM      8  C   UNL     1     103.499   4.230  75.636  1.00  0.00    -0.023 CG0
ATOM      9  G   UNL     1     102.033   3.997  75.327  1.00  0.00     0.000 G0
ENDBRANCH   5   6
ENDBRANCH   4   5
ENDBRANCH   2   4
BRANCH   1  10
ATOM     10  C   UNL     1     100.687   5.601  78.373  1.00  0.00     0.111 C 
BRANCH  10  11
ATOM     11  C   UNL     1     100.383   4.901  77.074  1.00  0.00     0.163 C 
ATOM     12  O   UNL     1      99.436   5.344  76.368  1.00  0.00    -0.294 OA
BRANCH  11  13
ATOM     13  C   UNL     1     101.195   3.753  76.573  1.00  0.00    -0.002 C 
ATOM     14  C   UNL     1     101.108   2.523  77.164  1.00  0.00    -0.069 C 
ATOM     15  C   UNL     1     101.794   1.306  76.584  1.00  0.00     0.039 C 
ATOM     16  C   UNL     1     100.314   2.320  78.435  1.00  0.00     0.039 C 
BRANCH  13  17
ATOM     17  C   UNL     1     102.038   3.988  75.330  1.00  0.00     0.066 CG0
ATOM     18  G   UNL     1     103.498   4.231  75.661  1.00  0.00     0.000 G0
ENDBRANCH  13  17
ENDBRANCH  11  13
ENDBRANCH  10  11
ENDBRANCH   1  10
TORSDOF 0
ENDMDL
