MODEL 1
REMARK VINA RESULT:    -5.071      0.000      0.000
REMARK INTER + INTRA:         -15.195
REMARK INTER:                 -11.593
REMARK INTRA:                  -3.602
REMARK UNBOUND:                -3.602
REMARK SMILES CCCCCCCCCCCCCCCCCCCCCCCC(=O)[O-]
REMARK SMILES IDX 13 1 14 2 15 3 16 4 17 5 18 6 19 7 20 8 21 9 22 10 23 11
REMARK SMILES IDX 24 12 25 13 26 14 12 15 11 16 10 17 9 18 8 19 7 20 6 21 5 22
REMARK SMILES IDX 4 23 3 24 2 25 1 26
REMARK H PARENT
REMARK Flexibility Score: inf
ROOT
ATOM      1  C   UNL     1    -103.253 -82.355  35.417  1.00  0.00     0.000 C 
ENDROOT
BRANCH   1   2
ATOM      2  C   UNL     1    -104.450 -82.261  36.379  1.00  0.00     0.000 C 
BRANCH   2   3
ATOM      3  C   UNL     1    -104.208 -81.286  37.543  1.00  0.00     0.000 C 
BRANCH   3   4
ATOM      4  C   UNL     1    -105.126 -81.532  38.760  1.00  0.00     0.000 C 
BRANCH   4   5
ATOM      5  C   UNL     1    -104.325 -81.669  40.067  1.00  0.00     0.000 C 
BRANCH   5   6
ATOM      6  C   UNL     1    -102.813 -81.836  39.834  1.00  0.00     0.000 C 
BRANCH   6   7
ATOM      7  C   UNL     1    -102.249 -83.224  40.190  1.00  0.00     0.000 C 
BRANCH   7   8
ATOM      8  C   UNL     1    -102.664 -84.315  39.188  1.00  0.00     0.000 C 
BRANCH   8   9
ATOM      9  C   UNL     1    -103.652 -85.323  39.803  1.00  0.00     0.000 C 
BRANCH   9  10
ATOM     10  C   UNL     1    -105.024 -85.346  39.104  1.00  0.00     0.006 C 
BRANCH  10  11
ATOM     11  C   UNL     1    -104.908 -85.651  37.605  1.00  0.00     0.053 C 
BRANCH  11  12
ATOM     12  C   UNL     1    -104.935 -87.128  37.366  1.00  0.00     0.041 C 
ATOM     13  O   UNL     1    -104.250 -87.902  38.086  1.00  0.00    -0.550 OA
ATOM     14  O   UNL     1    -105.693 -87.649  36.324  1.00  0.00    -0.550 OA
ENDBRANCH  11  12
ENDBRANCH  10  11
ENDBRANCH   9  10
ENDBRANCH   8   9
ENDBRANCH   7   8
ENDBRANCH   6   7
ENDBRANCH   5   6
ENDBRANCH   4   5
ENDBRANCH   3   4
ENDBRANCH   2   3
ENDBRANCH   1   2
BRANCH   1  15
ATOM     15  C   UNL     1    -102.486 -83.688  35.537  1.00  0.00     0.000 C 
BRANCH  15  16
ATOM     16  C   UNL     1    -102.260 -84.408  34.193  1.00  0.00     0.000 C 
BRANCH  16  17
ATOM     17  C   UNL     1    -103.496 -84.500  33.279  1.00  0.00     0.000 C 
BRANCH  17  18
ATOM     18  C   UNL     1    -104.576 -85.505  33.731  1.00  0.00    -0.000 C 
BRANCH  18  19
ATOM     19  C   UNL     1    -105.914 -84.876  34.160  1.00  0.00    -0.000 C 
BRANCH  19  20
ATOM     20  C   UNL     1    -106.243 -83.589  33.390  1.00  0.00    -0.000 C 
BRANCH  20  21
ATOM     21  C   UNL     1    -107.729 -83.550  33.001  1.00  0.00    -0.000 C 
BRANCH  21  22
ATOM     22  C   UNL     1    -107.943 -83.437  31.482  1.00  0.00    -0.000 C 
BRANCH  22  23
ATOM     23  C   UNL     1    -106.870 -82.621  30.738  1.00  0.00    -0.000 C 
BRANCH  23  24
ATOM     24  C   UNL     1    -106.072 -83.443  29.703  1.00  0.00    -0.000 C 
BRANCH  24  25
ATOM     25  C   UNL     1    -104.561 -83.419  29.980  1.00  0.00    -0.003 C 
ATOM     26  C   UNL     1    -103.806 -84.288  28.977  1.00  0.00     0.004 C 
ENDBRANCH  24  25
ENDBRANCH  23  24
ENDBRANCH  22  23
ENDBRANCH  21  22
ENDBRANCH  20  21
ENDBRANCH  19  20
ENDBRANCH  18  19
ENDBRANCH  17  18
ENDBRANCH  16  17
ENDBRANCH  15  16
ENDBRANCH   1  15
TORSDOF 22
ENDMDL
MODEL 2
REMARK VINA RESULT:    -5.015      2.886      7.166
REMARK INTER + INTRA:         -15.067
REMARK INTER:                 -11.335
REMARK INTRA:                  -3.732
REMARK UNBOUND:                -3.602
REMARK SMILES CCCCCCCCCCCCCCCCCCCCCCCC(=O)[O-]
REMARK SMILES IDX 13 1 14 2 15 3 16 4 17 5 18 6 19 7 20 8 21 9 22 10 23 11
REMARK SMILES IDX 24 12 25 13 26 14 12 15 11 16 10 17 9 18 8 19 7 20 6 21 5 22
REMARK SMILES IDX 4 23 3 24 2 25 1 26
REMARK H PARENT
REMARK Flexibility Score: inf
ROOT
ATOM      1  C   UNL     1    -105.112 -87.365  37.686  1.00  0.00     0.000 C 
ENDROOT
BRANCH   1   2
ATOM      2  C   UNL     1    -104.790 -87.260  36.185  1.00  0.00     0.000 C 
BRANCH   2   3
ATOM      3  C   UNL     1    -105.117 -85.877  35.598  1.00  0.00     0.000 C 
BRANCH   3   4
ATOM      4  C   UNL     1    -103.941 -84.879  35.670  1.00  0.00     0.000 C 
BRANCH   4   5
ATOM      5  C   UNL     1    -103.171 -84.799  34.339  1.00  0.00     0.000 C 
BRANCH   5   6
ATOM      6  C   UNL     1    -104.081 -84.504  33.132  1.00  0.00     0.000 C 
BRANCH   6   7
ATOM      7  C   UNL     1    -104.302 -83.010  32.835  1.00  0.00     0.000 C 
BRANCH   7   8
ATOM      8  C   UNL     1    -105.790 -82.637  32.715  1.00  0.00     0.000 C 
BRANCH   8   9
ATOM      9  C   UNL     1    -106.714 -83.753  33.238  1.00  0.00     0.000 C 
BRANCH   9  10
ATOM     10  C   UNL     1    -108.135 -83.702  32.649  1.00  0.00     0.006 C 
BRANCH  10  11
ATOM     11  C   UNL     1    -108.238 -82.738  31.460  1.00  0.00     0.053 C 
BRANCH  11  12
ATOM     12  C   UNL     1    -108.222 -83.494  30.169  1.00  0.00     0.041 C 
ATOM     13  O   UNL     1    -108.967 -84.499  30.010  1.00  0.00    -0.550 OA
ATOM     14  O   UNL     1    -107.360 -83.110  29.149  1.00  0.00    -0.550 OA
ENDBRANCH  11  12
ENDBRANCH  10  11
ENDBRANCH   9  10
ENDBRANCH   8   9
ENDBRANCH   7   8
ENDBRANCH   6   7
ENDBRANCH   5   6
ENDBRANCH   4   5
ENDBRANCH   3   4
ENDBRANCH   2   3
ENDBRANCH   1   2
BRANCH   1  15
ATOM     15  C   UNL     1    -103.859 -87.265  38.580  1.00  0.00     0.000 C 
BRANCH  15  16
ATOM     16  C   UNL     1    -103.869 -86.064  39.546  1.00  0.00     0.000 C 
BRANCH  16  17
ATOM     17  C   UNL     1    -105.108 -85.155  39.454  1.00  0.00     0.000 C 
BRANCH  17  18
ATOM     18  C   UNL     1    -104.811 -83.641  39.399  1.00  0.00    -0.000 C 
BRANCH  18  19
ATOM     19  C   UNL     1    -103.324 -83.274  39.245  1.00  0.00    -0.000 C 
BRANCH  19  20
ATOM     20  C   UNL     1    -103.025 -81.818  39.632  1.00  0.00    -0.000 C 
BRANCH  20  21
ATOM     21  C   UNL     1    -104.282 -81.133  40.191  1.00  0.00    -0.000 C 
BRANCH  21  22
ATOM     22  C   UNL     1    -104.771 -79.975  39.305  1.00  0.00    -0.000 C 
BRANCH  22  23
ATOM     23  C   UNL     1    -105.896 -80.347  38.321  1.00  0.00    -0.000 C 
BRANCH  23  24
ATOM     24  C   UNL     1    -105.496 -80.201  36.837  1.00  0.00    -0.000 C 
BRANCH  24  25
ATOM     25  C   UNL     1    -104.822 -81.467  36.288  1.00  0.00    -0.003 C 
ATOM     26  C   UNL     1    -103.361 -81.201  35.933  1.00  0.00     0.004 C 
ENDBRANCH  24  25
ENDBRANCH  23  24
ENDBRANCH  22  23
ENDBRANCH  21  22
ENDBRANCH  20  21
ENDBRANCH  19  20
ENDBRANCH  18  19
ENDBRANCH  17  18
ENDBRANCH  16  17
ENDBRANCH  15  16
ENDBRANCH   1  15
TORSDOF 22
ENDMDL
MODEL 3
REMARK VINA RESULT:    -4.939      3.181      7.561
REMARK INTER + INTRA:         -14.893
REMARK INTER:                 -11.552
REMARK INTRA:                  -3.342
REMARK UNBOUND:                -3.602
REMARK SMILES CCCCCCCCCCCCCCCCCCCCCCCC(=O)[O-]
REMARK SMILES IDX 13 1 14 2 15 3 16 4 17 5 18 6 19 7 20 8 21 9 22 10 23 11
REMARK SMILES IDX 24 12 25 13 26 14 12 15 11 16 10 17 9 18 8 19 7 20 6 21 5 22
REMARK SMILES IDX 4 23 3 24 2 25 1 26
REMARK H PARENT
REMARK Flexibility Score: inf
ROOT
ATOM      1  C   UNL     1    -104.170 -85.298  33.765  1.00  0.00     0.000 C 
ENDROOT
BRANCH   1   2
ATOM      2  C   UNL     1    -102.899 -84.757  34.443  1.00  0.00     0.000 C 
BRANCH   2   3
ATOM      3  C   UNL     1    -103.201 -83.909  35.690  1.00  0.00     0.000 C 
BRANCH   3   4
ATOM      4  C   UNL     1    -103.265 -82.392  35.408  1.00  0.00     0.000 C 
BRANCH   4   5
ATOM      5  C   UNL     1    -104.645 -81.801  35.748  1.00  0.00     0.000 C 
BRANCH   5   6
ATOM      6  C   UNL     1    -105.567 -81.678  34.521  1.00  0.00     0.000 C 
BRANCH   6   7
ATOM      7  C   UNL     1    -104.844 -81.667  33.162  1.00  0.00     0.000 C 
BRANCH   7   8
ATOM      8  C   UNL     1    -105.567 -82.503  32.092  1.00  0.00     0.000 C 
BRANCH   8   9
ATOM      9  C   UNL     1    -106.874 -83.123  32.622  1.00  0.00     0.000 C 
BRANCH   9  10
ATOM     10  C   UNL     1    -108.125 -82.685  31.838  1.00  0.00     0.006 C 
BRANCH  10  11
ATOM     11  C   UNL     1    -108.491 -83.677  30.726  1.00  0.00     0.053 C 
BRANCH  11  12
ATOM     12  C   UNL     1    -108.491 -82.995  29.394  1.00  0.00     0.041 C 
ATOM     13  O   UNL     1    -107.461 -82.394  28.986  1.00  0.00    -0.550 OA
ATOM     14  O   UNL     1    -109.642 -82.994  28.615  1.00  0.00    -0.550 OA
ENDBRANCH  11  12
ENDBRANCH  10  11
ENDBRANCH   9  10
ENDBRANCH   8   9
ENDBRANCH   7   8
ENDBRANCH   6   7
ENDBRANCH   5   6
ENDBRANCH   4   5
ENDBRANCH   3   4
ENDBRANCH   2   3
ENDBRANCH   1   2
BRANCH   1  15
ATOM     15  C   UNL     1    -105.355 -85.449  34.740  1.00  0.00     0.000 C 
BRANCH  15  16
ATOM     16  C   UNL     1    -105.698 -86.909  35.094  1.00  0.00     0.000 C 
BRANCH  16  17
ATOM     17  C   UNL     1    -104.892 -87.511  36.260  1.00  0.00     0.000 C 
BRANCH  17  18
ATOM     18  C   UNL     1    -105.125 -86.846  37.633  1.00  0.00    -0.000 C 
BRANCH  18  19
ATOM     19  C   UNL     1    -103.937 -86.931  38.608  1.00  0.00    -0.000 C 
BRANCH  19  20
ATOM     20  C   UNL     1    -103.812 -85.691  39.505  1.00  0.00    -0.000 C 
BRANCH  20  21
ATOM     21  C   UNL     1    -105.115 -84.877  39.497  1.00  0.00    -0.000 C 
BRANCH  21  22
ATOM     22  C   UNL     1    -104.871 -83.367  39.332  1.00  0.00    -0.000 C 
BRANCH  22  23
ATOM     23  C   UNL     1    -103.394 -82.967  39.155  1.00  0.00    -0.000 C 
BRANCH  23  24
ATOM     24  C   UNL     1    -102.875 -82.010  40.250  1.00  0.00    -0.000 C 
BRANCH  24  25
ATOM     25  C   UNL     1    -103.261 -80.549  39.977  1.00  0.00    -0.003 C 
ATOM     26  C   UNL     1    -104.220 -80.026  41.043  1.00  0.00     0.004 C 
ENDBRANCH  24  25
ENDBRANCH  23  24
ENDBRANCH  22  23
ENDBRANCH  21  22
ENDBRANCH  20  21
ENDBRANCH  19  20
ENDBRANCH  18  19
ENDBRANCH  17  18
ENDBRANCH  16  17
ENDBRANCH  15  16
ENDBRANCH   1  15
TORSDOF 22
ENDMDL
MODEL 4
REMARK VINA RESULT:    -4.896      2.801      7.140
REMARK INTER + INTRA:         -14.796
REMARK INTER:                 -10.811
REMARK INTRA:                  -3.984
REMARK UNBOUND:                -3.602
REMARK SMILES CCCCCCCCCCCCCCCCCCCCCCCC(=O)[O-]
REMARK SMILES IDX 13 1 14 2 15 3 16 4 17 5 18 6 19 7 20 8 21 9 22 10 23 11
REMARK SMILES IDX 24 12 25 13 26 14 12 15 11 16 10 17 9 18 8 19 7 20 6 21 5 22
REMARK SMILES IDX 4 23 3 24 2 25 1 26
REMARK H PARENT
REMARK Flexibility Score: inf
ROOT
ATOM      1  C   UNL     1    -104.940 -84.547  35.883  1.00  0.00     0.000 C 
ENDROOT
BRANCH   1   2
ATOM      2  C   UNL     1    -103.635 -83.763  35.663  1.00  0.00     0.000 C 
BRANCH   2   3
ATOM      3  C   UNL     1    -102.395 -84.671  35.603  1.00  0.00     0.000 C 
BRANCH   3   4
ATOM      4  C   UNL     1    -101.582 -84.525  34.298  1.00  0.00     0.000 C 
BRANCH   4   5
ATOM      5  C   UNL     1    -102.254 -83.560  33.305  1.00  0.00     0.000 C 
BRANCH   5   6
ATOM      6  C   UNL     1    -102.970 -84.285  32.151  1.00  0.00     0.000 C 
BRANCH   6   7
ATOM      7  C   UNL     1    -104.432 -83.858  31.922  1.00  0.00     0.000 C 
BRANCH   7   8
ATOM      8  C   UNL     1    -104.728 -82.436  32.429  1.00  0.00     0.000 C 
BRANCH   8   9
ATOM      9  C   UNL     1    -106.119 -82.329  33.081  1.00  0.00     0.000 C 
BRANCH   9  10
ATOM     10  C   UNL     1    -106.981 -83.593  32.904  1.00  0.00     0.006 C 
BRANCH  10  11
ATOM     11  C   UNL     1    -108.297 -83.302  32.171  1.00  0.00     0.053 C 
BRANCH  11  12
ATOM     12  C   UNL     1    -108.030 -82.881  30.760  1.00  0.00     0.041 C 
ATOM     13  O   UNL     1    -107.427 -83.654  29.969  1.00  0.00    -0.550 OA
ATOM     14  O   UNL     1    -108.419 -81.619  30.326  1.00  0.00    -0.550 OA
ENDBRANCH  11  12
ENDBRANCH  10  11
ENDBRANCH   9  10
ENDBRANCH   8   9
ENDBRANCH   7   8
ENDBRANCH   6   7
ENDBRANCH   5   6
ENDBRANCH   4   5
ENDBRANCH   3   4
ENDBRANCH   2   3
ENDBRANCH   1   2
BRANCH   1  15
ATOM     15  C   UNL     1    -105.079 -85.764  34.945  1.00  0.00     0.000 C 
BRANCH  15  16
ATOM     16  C   UNL     1    -105.070 -87.124  35.671  1.00  0.00     0.000 C 
BRANCH  16  17
ATOM     17  C   UNL     1    -105.189 -87.053  37.204  1.00  0.00     0.000 C 
BRANCH  17  18
ATOM     18  C   UNL     1    -103.999 -87.649  37.985  1.00  0.00    -0.000 C 
BRANCH  18  19
ATOM     19  C   UNL     1    -103.590 -86.867  39.247  1.00  0.00    -0.000 C 
BRANCH  19  20
ATOM     20  C   UNL     1    -103.756 -85.349  39.088  1.00  0.00    -0.000 C 
BRANCH  20  21
ATOM     21  C   UNL     1    -105.079 -84.877  39.710  1.00  0.00    -0.000 C 
BRANCH  21  22
ATOM     22  C   UNL     1    -105.373 -83.393  39.426  1.00  0.00    -0.000 C 
BRANCH  22  23
ATOM     23  C   UNL     1    -104.221 -82.430  39.770  1.00  0.00    -0.000 C 
BRANCH  23  24
ATOM     24  C   UNL     1    -104.177 -81.172  38.877  1.00  0.00    -0.000 C 
BRANCH  24  25
ATOM     25  C   UNL     1    -105.546 -80.845  38.261  1.00  0.00    -0.003 C 
ATOM     26  C   UNL     1    -105.434 -80.633  36.754  1.00  0.00     0.004 C 
ENDBRANCH  24  25
ENDBRANCH  23  24
ENDBRANCH  22  23
ENDBRANCH  21  22
ENDBRANCH  20  21
ENDBRANCH  19  20
ENDBRANCH  18  19
ENDBRANCH  17  18
ENDBRANCH  16  17
ENDBRANCH  15  16
ENDBRANCH   1  15
TORSDOF 22
ENDMDL
MODEL 5
REMARK VINA RESULT:    -4.868      2.403      6.891
REMARK INTER + INTRA:         -14.731
REMARK INTER:                 -10.488
REMARK INTRA:                  -4.243
REMARK UNBOUND:                -3.602
REMARK SMILES CCCCCCCCCCCCCCCCCCCCCCCC(=O)[O-]
REMARK SMILES IDX 13 1 14 2 15 3 16 4 17 5 18 6 19 7 20 8 21 9 22 10 23 11
REMARK SMILES IDX 24 12 25 13 26 14 12 15 11 16 10 17 9 18 8 19 7 20 6 21 5 22
REMARK SMILES IDX 4 23 3 24 2 25 1 26
REMARK H PARENT
REMARK Flexibility Score: inf
ROOT
ATOM      1  C   UNL     1    -104.685 -86.016  35.306  1.00  0.00     0.000 C 
ENDROOT
BRANCH   1   2
ATOM      2  C   UNL     1    -104.745 -84.724  36.140  1.00  0.00     0.000 C 
BRANCH   2   3
ATOM      3  C   UNL     1    -103.492 -83.848  35.979  1.00  0.00     0.000 C 
BRANCH   3   4
ATOM      4  C   UNL     1    -102.174 -84.653  35.934  1.00  0.00     0.000 C 
BRANCH   4   5
ATOM      5  C   UNL     1    -101.462 -84.516  34.576  1.00  0.00     0.000 C 
BRANCH   5   6
ATOM      6  C   UNL     1    -102.223 -83.619  33.583  1.00  0.00     0.000 C 
BRANCH   6   7
ATOM      7  C   UNL     1    -102.848 -84.358  32.386  1.00  0.00     0.000 C 
BRANCH   7   8
ATOM      8  C   UNL     1    -104.174 -83.732  31.921  1.00  0.00     0.000 C 
BRANCH   8   9
ATOM      9  C   UNL     1    -104.475 -82.404  32.642  1.00  0.00     0.000 C 
BRANCH   9  10
ATOM     10  C   UNL     1    -105.823 -82.400  33.385  1.00  0.00     0.006 C 
BRANCH  10  11
ATOM     11  C   UNL     1    -106.591 -83.716  33.205  1.00  0.00     0.053 C 
BRANCH  11  12
ATOM     12  C   UNL     1    -107.965 -83.453  32.673  1.00  0.00     0.041 C 
ATOM     13  O   UNL     1    -108.911 -84.243  32.936  1.00  0.00    -0.550 OA
ATOM     14  O   UNL     1    -108.195 -82.353  31.857  1.00  0.00    -0.550 OA
ENDBRANCH  11  12
ENDBRANCH  10  11
ENDBRANCH   9  10
ENDBRANCH   8   9
ENDBRANCH   7   8
ENDBRANCH   6   7
ENDBRANCH   5   6
ENDBRANCH   4   5
ENDBRANCH   3   4
ENDBRANCH   2   3
ENDBRANCH   1   2
BRANCH   1  15
ATOM     15  C   UNL     1    -105.177 -87.256  36.079  1.00  0.00     0.000 C 
BRANCH  15  16
ATOM     16  C   UNL     1    -105.103 -87.115  37.612  1.00  0.00     0.000 C 
BRANCH  16  17
ATOM     17  C   UNL     1    -103.820 -87.662  38.262  1.00  0.00     0.000 C 
BRANCH  17  18
ATOM     18  C   UNL     1    -103.285 -86.841  39.454  1.00  0.00    -0.000 C 
BRANCH  18  19
ATOM     19  C   UNL     1    -103.867 -85.421  39.582  1.00  0.00    -0.000 C 
BRANCH  19  20
ATOM     20  C   UNL     1    -102.784 -84.334  39.630  1.00  0.00    -0.000 C 
BRANCH  20  21
ATOM     21  C   UNL     1    -103.411 -82.947  39.845  1.00  0.00    -0.000 C 
BRANCH  21  22
ATOM     22  C   UNL     1    -104.890 -82.893  39.426  1.00  0.00    -0.000 C 
BRANCH  22  23
ATOM     23  C   UNL     1    -105.328 -81.567  38.777  1.00  0.00    -0.000 C 
BRANCH  23  24
ATOM     24  C   UNL     1    -104.632 -80.324  39.372  1.00  0.00    -0.000 C 
BRANCH  24  25
ATOM     25  C   UNL     1    -103.817 -79.554  38.322  1.00  0.00    -0.003 C 
ATOM     26  C   UNL     1    -103.779 -80.308  36.995  1.00  0.00     0.004 C 
ENDBRANCH  24  25
ENDBRANCH  23  24
ENDBRANCH  22  23
ENDBRANCH  21  22
ENDBRANCH  20  21
ENDBRANCH  19  20
ENDBRANCH  18  19
ENDBRANCH  17  18
ENDBRANCH  16  17
ENDBRANCH  15  16
ENDBRANCH   1  15
TORSDOF 22
ENDMDL
MODEL 6
REMARK VINA RESULT:    -4.855      2.307      7.463
REMARK INTER + INTRA:         -14.701
REMARK INTER:                 -11.211
REMARK INTRA:                  -3.490
REMARK UNBOUND:                -3.602
REMARK SMILES CCCCCCCCCCCCCCCCCCCCCCCC(=O)[O-]
REMARK SMILES IDX 13 1 14 2 15 3 16 4 17 5 18 6 19 7 20 8 21 9 22 10 23 11
REMARK SMILES IDX 24 12 25 13 26 14 12 15 11 16 10 17 9 18 8 19 7 20 6 21 5 22
REMARK SMILES IDX 4 23 3 24 2 25 1 26
REMARK H PARENT
REMARK Flexibility Score: inf
ROOT
ATOM      1  C   UNL     1    -104.482 -83.433  35.857  1.00  0.00     0.000 C 
ENDROOT
BRANCH   1   2
ATOM      2  C   UNL     1    -102.979 -83.135  35.719  1.00  0.00     0.000 C 
BRANCH   2   3
ATOM      3  C   UNL     1    -102.123 -84.408  35.614  1.00  0.00     0.000 C 
BRANCH   3   4
ATOM      4  C   UNL     1    -101.346 -84.525  34.285  1.00  0.00     0.000 C 
BRANCH   4   5
ATOM      5  C   UNL     1    -101.889 -83.561  33.214  1.00  0.00     0.000 C 
BRANCH   5   6
ATOM      6  C   UNL     1    -102.620 -84.283  32.067  1.00  0.00     0.000 C 
BRANCH   6   7
ATOM      7  C   UNL     1    -103.721 -83.458  31.376  1.00  0.00     0.000 C 
BRANCH   7   8
ATOM      8  C   UNL     1    -103.906 -83.827  29.894  1.00  0.00     0.000 C 
BRANCH   8   9
ATOM      9  C   UNL     1    -105.390 -83.854  29.483  1.00  0.00     0.000 C 
BRANCH   9  10
ATOM     10  C   UNL     1    -106.243 -82.782  30.185  1.00  0.00     0.006 C 
BRANCH  10  11
ATOM     11  C   UNL     1    -107.490 -83.377  30.853  1.00  0.00     0.053 C 
BRANCH  11  12
ATOM     12  C   UNL     1    -107.967 -82.489  31.958  1.00  0.00     0.041 C 
ATOM     13  O   UNL     1    -108.480 -82.985  32.997  1.00  0.00    -0.550 OA
ATOM     14  O   UNL     1    -107.878 -81.109  31.828  1.00  0.00    -0.550 OA
ENDBRANCH  11  12
ENDBRANCH  10  11
ENDBRANCH   9  10
ENDBRANCH   8   9
ENDBRANCH   7   8
ENDBRANCH   6   7
ENDBRANCH   5   6
ENDBRANCH   4   5
ENDBRANCH   3   4
ENDBRANCH   2   3
ENDBRANCH   1   2
BRANCH   1  15
ATOM     15  C   UNL     1    -105.207 -83.517  34.498  1.00  0.00     0.000 C 
BRANCH  15  16
ATOM     16  C   UNL     1    -105.849 -84.889  34.209  1.00  0.00     0.000 C 
BRANCH  16  17
ATOM     17  C   UNL     1    -104.987 -86.110  34.578  1.00  0.00     0.000 C 
BRANCH  17  18
ATOM     18  C   UNL     1    -105.754 -87.290  35.210  1.00  0.00    -0.000 C 
BRANCH  18  19
ATOM     19  C   UNL     1    -105.236 -87.741  36.588  1.00  0.00    -0.000 C 
BRANCH  19  20
ATOM     20  C   UNL     1    -104.913 -86.564  37.519  1.00  0.00    -0.000 C 
BRANCH  20  21
ATOM     21  C   UNL     1    -103.762 -86.921  38.472  1.00  0.00    -0.000 C 
BRANCH  21  22
ATOM     22  C   UNL     1    -103.687 -85.984  39.690  1.00  0.00    -0.000 C 
BRANCH  22  23
ATOM     23  C   UNL     1    -103.941 -84.498  39.378  1.00  0.00    -0.000 C 
BRANCH  23  24
ATOM     24  C   UNL     1    -102.715 -83.593  39.629  1.00  0.00    -0.000 C 
BRANCH  24  25
ATOM     25  C   UNL     1    -103.107 -82.119  39.813  1.00  0.00    -0.003 C 
ATOM     26  C   UNL     1    -104.543 -81.872  39.361  1.00  0.00     0.004 C 
ENDBRANCH  24  25
ENDBRANCH  23  24
ENDBRANCH  22  23
ENDBRANCH  21  22
ENDBRANCH  20  21
ENDBRANCH  19  20
ENDBRANCH  18  19
ENDBRANCH  17  18
ENDBRANCH  16  17
ENDBRANCH  15  16
ENDBRANCH   1  15
TORSDOF 22
ENDMDL
MODEL 7
REMARK VINA RESULT:    -4.842      2.282      4.402
REMARK INTER + INTRA:         -14.671
REMARK INTER:                 -10.888
REMARK INTRA:                  -3.783
REMARK UNBOUND:                -3.602
REMARK SMILES CCCCCCCCCCCCCCCCCCCCCCCC(=O)[O-]
REMARK SMILES IDX 13 1 14 2 15 3 16 4 17 5 18 6 19 7 20 8 21 9 22 10 23 11
REMARK SMILES IDX 24 12 25 13 26 14 12 15 11 16 10 17 9 18 8 19 7 20 6 21 5 22
REMARK SMILES IDX 4 23 3 24 2 25 1 26
REMARK H PARENT
REMARK Flexibility Score: inf
ROOT
ATOM      1  C   UNL     1    -104.439 -83.313  35.811  1.00  0.00     0.000 C 
ENDROOT
BRANCH   1   2
ATOM      2  C   UNL     1    -105.009 -83.472  34.391  1.00  0.00     0.000 C 
BRANCH   2   3
ATOM      3  C   UNL     1    -105.862 -84.741  34.227  1.00  0.00     0.000 C 
BRANCH   3   4
ATOM      4  C   UNL     1    -105.035 -86.044  34.198  1.00  0.00     0.000 C 
BRANCH   4   5
ATOM      5  C   UNL     1    -105.627 -87.123  35.123  1.00  0.00     0.000 C 
BRANCH   5   6
ATOM      6  C   UNL     1    -104.776 -87.372  36.381  1.00  0.00     0.000 C 
BRANCH   6   7
ATOM      7  C   UNL     1    -105.108 -86.467  37.582  1.00  0.00     0.000 C 
BRANCH   7   8
ATOM      8  C   UNL     1    -103.976 -86.410  38.622  1.00  0.00     0.000 C 
BRANCH   8   9
ATOM      9  C   UNL     1    -104.333 -85.512  39.821  1.00  0.00     0.000 C 
BRANCH   9  10
ATOM     10  C   UNL     1    -104.892 -84.136  39.416  1.00  0.00     0.006 C 
BRANCH  10  11
ATOM     11  C   UNL     1    -103.905 -82.998  39.706  1.00  0.00     0.053 C 
BRANCH  11  12
ATOM     12  C   UNL     1    -104.431 -81.700  39.181  1.00  0.00     0.041 C 
ATOM     13  O   UNL     1    -105.622 -81.612  38.777  1.00  0.00    -0.550 OA
ATOM     14  O   UNL     1    -103.597 -80.592  39.106  1.00  0.00    -0.550 OA
ENDBRANCH  11  12
ENDBRANCH  10  11
ENDBRANCH   9  10
ENDBRANCH   8   9
ENDBRANCH   7   8
ENDBRANCH   6   7
ENDBRANCH   5   6
ENDBRANCH   4   5
ENDBRANCH   3   4
ENDBRANCH   2   3
ENDBRANCH   1   2
BRANCH   1  15
ATOM     15  C   UNL     1    -102.907 -83.139  35.830  1.00  0.00     0.000 C 
BRANCH  15  16
ATOM     16  C   UNL     1    -102.124 -84.400  35.416  1.00  0.00     0.000 C 
BRANCH  16  17
ATOM     17  C   UNL     1    -101.579 -84.394  33.976  1.00  0.00     0.000 C 
BRANCH  17  18
ATOM     18  C   UNL     1    -101.577 -83.017  33.279  1.00  0.00    -0.000 C 
BRANCH  18  19
ATOM     19  C   UNL     1    -102.243 -82.988  31.891  1.00  0.00    -0.000 C 
BRANCH  19  20
ATOM     20  C   UNL     1    -102.892 -84.328  31.513  1.00  0.00    -0.000 C 
BRANCH  20  21
ATOM     21  C   UNL     1    -103.925 -84.137  30.391  1.00  0.00    -0.000 C 
BRANCH  21  22
ATOM     22  C   UNL     1    -105.164 -83.350  30.853  1.00  0.00    -0.000 C 
BRANCH  22  23
ATOM     23  C   UNL     1    -106.120 -82.929  29.721  1.00  0.00    -0.000 C 
BRANCH  23  24
ATOM     24  C   UNL     1    -107.563 -82.658  30.197  1.00  0.00    -0.000 C 
BRANCH  24  25
ATOM     25  C   UNL     1    -107.870 -83.332  31.542  1.00  0.00    -0.003 C 
ATOM     26  C   UNL     1    -108.147 -82.294  32.626  1.00  0.00     0.004 C 
ENDBRANCH  24  25
ENDBRANCH  23  24
ENDBRANCH  22  23
ENDBRANCH  21  22
ENDBRANCH  20  21
ENDBRANCH  19  20
ENDBRANCH  18  19
ENDBRANCH  17  18
ENDBRANCH  16  17
ENDBRANCH  15  16
ENDBRANCH   1  15
TORSDOF 22
ENDMDL
MODEL 8
REMARK VINA RESULT:    -4.818      2.891      7.421
REMARK INTER + INTRA:         -14.617
REMARK INTER:                 -11.136
REMARK INTRA:                  -3.481
REMARK UNBOUND:                -3.602
REMARK SMILES CCCCCCCCCCCCCCCCCCCCCCCC(=O)[O-]
REMARK SMILES IDX 13 1 14 2 15 3 16 4 17 5 18 6 19 7 20 8 21 9 22 10 23 11
REMARK SMILES IDX 24 12 25 13 26 14 12 15 11 16 10 17 9 18 8 19 7 20 6 21 5 22
REMARK SMILES IDX 4 23 3 24 2 25 1 26
REMARK H PARENT
REMARK Flexibility Score: inf
ROOT
ATOM      1  C   UNL     1    -104.469 -85.709  34.307  1.00  0.00     0.000 C 
ENDROOT
BRANCH   1   2
ATOM      2  C   UNL     1    -103.295 -84.986  34.989  1.00  0.00     0.000 C 
BRANCH   2   3
ATOM      3  C   UNL     1    -103.753 -83.957  36.036  1.00  0.00     0.000 C 
BRANCH   3   4
ATOM      4  C   UNL     1    -103.147 -82.552  35.832  1.00  0.00     0.000 C 
BRANCH   4   5
ATOM      5  C   UNL     1    -103.942 -81.725  34.805  1.00  0.00     0.000 C 
BRANCH   5   6
ATOM      6  C   UNL     1    -105.466 -81.834  34.992  1.00  0.00     0.000 C 
BRANCH   6   7
ATOM      7  C   UNL     1    -106.285 -81.800  33.689  1.00  0.00     0.000 C 
BRANCH   7   8
ATOM      8  C   UNL     1    -106.736 -83.196  33.227  1.00  0.00     0.000 C 
BRANCH   8   9
ATOM      9  C   UNL     1    -108.201 -83.207  32.751  1.00  0.00     0.000 C 
BRANCH   9  10
ATOM     10  C   UNL     1    -108.399 -83.888  31.384  1.00  0.00     0.006 C 
BRANCH  10  11
ATOM     11  C   UNL     1    -108.496 -82.874  30.237  1.00  0.00     0.053 C 
BRANCH  11  12
ATOM     12  C   UNL     1    -107.159 -82.673  29.597  1.00  0.00     0.041 C 
ATOM     13  O   UNL     1    -106.455 -83.666  29.269  1.00  0.00    -0.550 OA
ATOM     14  O   UNL     1    -106.672 -81.388  29.394  1.00  0.00    -0.550 OA
ENDBRANCH  11  12
ENDBRANCH  10  11
ENDBRANCH   9  10
ENDBRANCH   8   9
ENDBRANCH   7   8
ENDBRANCH   6   7
ENDBRANCH   5   6
ENDBRANCH   4   5
ENDBRANCH   3   4
ENDBRANCH   2   3
ENDBRANCH   1   2
BRANCH   1  15
ATOM     15  C   UNL     1    -105.504 -86.258  35.310  1.00  0.00     0.000 C 
BRANCH  15  16
ATOM     16  C   UNL     1    -105.011 -87.469  36.126  1.00  0.00     0.000 C 
BRANCH  16  17
ATOM     17  C   UNL     1    -105.130 -87.327  37.654  1.00  0.00     0.000 C 
BRANCH  17  18
ATOM     18  C   UNL     1    -103.801 -87.075  38.397  1.00  0.00    -0.000 C 
BRANCH  18  19
ATOM     19  C   UNL     1    -103.857 -85.984  39.482  1.00  0.00    -0.000 C 
BRANCH  19  20
ATOM     20  C   UNL     1    -105.124 -85.122  39.396  1.00  0.00    -0.000 C 
BRANCH  20  21
ATOM     21  C   UNL     1    -104.788 -83.636  39.594  1.00  0.00    -0.000 C 
BRANCH  21  22
ATOM     22  C   UNL     1    -103.273 -83.373  39.660  1.00  0.00    -0.000 C 
BRANCH  22  23
ATOM     23  C   UNL     1    -102.883 -81.905  39.913  1.00  0.00    -0.000 C 
BRANCH  23  24
ATOM     24  C   UNL     1    -104.090 -80.947  39.992  1.00  0.00    -0.000 C 
BRANCH  24  25
ATOM     25  C   UNL     1    -104.343 -80.217  38.664  1.00  0.00    -0.003 C 
ATOM     26  C   UNL     1    -105.824 -80.241  38.297  1.00  0.00     0.004 C 
ENDBRANCH  24  25
ENDBRANCH  23  24
ENDBRANCH  22  23
ENDBRANCH  21  22
ENDBRANCH  20  21
ENDBRANCH  19  20
ENDBRANCH  18  19
ENDBRANCH  17  18
ENDBRANCH  16  17
ENDBRANCH  15  16
ENDBRANCH   1  15
TORSDOF 22
ENDMDL
MODEL 9
REMARK VINA RESULT:    -4.801      3.072      7.707
REMARK INTER + INTRA:         -14.577
REMARK INTER:                 -10.872
REMARK INTRA:                  -3.705
REMARK UNBOUND:                -3.602
REMARK SMILES CCCCCCCCCCCCCCCCCCCCCCCC(=O)[O-]
REMARK SMILES IDX 13 1 14 2 15 3 16 4 17 5 18 6 19 7 20 8 21 9 22 10 23 11
REMARK SMILES IDX 24 12 25 13 26 14 12 15 11 16 10 17 9 18 8 19 7 20 6 21 5 22
REMARK SMILES IDX 4 23 3 24 2 25 1 26
REMARK H PARENT
REMARK Flexibility Score: inf
ROOT
ATOM      1  C   UNL     1    -102.516 -84.762  35.942  1.00  0.00     0.000 C 
ENDROOT
BRANCH   1   2
ATOM      2  C   UNL     1    -101.642 -84.521  34.700  1.00  0.00     0.000 C 
BRANCH   2   3
ATOM      3  C   UNL     1    -102.297 -83.573  33.681  1.00  0.00     0.000 C 
BRANCH   3   4
ATOM      4  C   UNL     1    -102.679 -84.259  32.352  1.00  0.00     0.000 C 
BRANCH   4   5
ATOM      5  C   UNL     1    -104.156 -84.024  31.986  1.00  0.00     0.000 C 
BRANCH   5   6
ATOM      6  C   UNL     1    -104.642 -82.603  32.323  1.00  0.00     0.000 C 
BRANCH   6   7
ATOM      7  C   UNL     1    -105.890 -82.538  33.222  1.00  0.00     0.000 C 
BRANCH   7   8
ATOM      8  C   UNL     1    -106.949 -83.590  32.855  1.00  0.00     0.000 C 
BRANCH   8   9
ATOM      9  C   UNL     1    -108.271 -82.948  32.393  1.00  0.00     0.000 C 
BRANCH   9  10
ATOM     10  C   UNL     1    -108.260 -82.513  30.916  1.00  0.00     0.006 C 
BRANCH  10  11
ATOM     11  C   UNL     1    -107.450 -83.472  30.033  1.00  0.00     0.053 C 
BRANCH  11  12
ATOM     12  C   UNL     1    -106.698 -82.713  28.985  1.00  0.00     0.041 C 
ATOM     13  O   UNL     1    -105.488 -82.977  28.754  1.00  0.00    -0.550 OA
ATOM     14  O   UNL     1    -107.324 -81.688  28.286  1.00  0.00    -0.550 OA
ENDBRANCH  11  12
ENDBRANCH  10  11
ENDBRANCH   9  10
ENDBRANCH   8   9
ENDBRANCH   7   8
ENDBRANCH   6   7
ENDBRANCH   5   6
ENDBRANCH   4   5
ENDBRANCH   3   4
ENDBRANCH   2   3
ENDBRANCH   1   2
BRANCH   1  15
ATOM     15  C   UNL     1    -103.867 -84.020  35.882  1.00  0.00     0.000 C 
BRANCH  15  16
ATOM     16  C   UNL     1    -105.096 -84.950  35.850  1.00  0.00     0.000 C 
BRANCH  16  17
ATOM     17  C   UNL     1    -104.856 -86.338  35.229  1.00  0.00     0.000 C 
BRANCH  17  18
ATOM     18  C   UNL     1    -104.746 -87.500  36.238  1.00  0.00    -0.000 C 
BRANCH  18  19
ATOM     19  C   UNL     1    -105.043 -87.124  37.701  1.00  0.00    -0.000 C 
BRANCH  19  20
ATOM     20  C   UNL     1    -103.784 -87.104  38.579  1.00  0.00    -0.000 C 
BRANCH  20  21
ATOM     21  C   UNL     1    -103.986 -86.195  39.802  1.00  0.00    -0.000 C 
BRANCH  21  22
ATOM     22  C   UNL     1    -103.871 -84.701  39.456  1.00  0.00    -0.000 C 
BRANCH  22  23
ATOM     23  C   UNL     1    -105.186 -83.908  39.573  1.00  0.00    -0.000 C 
BRANCH  23  24
ATOM     24  C   UNL     1    -105.085 -82.458  39.053  1.00  0.00    -0.000 C 
BRANCH  24  25
ATOM     25  C   UNL     1    -104.399 -81.523  40.060  1.00  0.00    -0.003 C 
ATOM     26  C   UNL     1    -102.942 -81.279  39.678  1.00  0.00     0.004 C 
ENDBRANCH  24  25
ENDBRANCH  23  24
ENDBRANCH  22  23
ENDBRANCH  21  22
ENDBRANCH  20  21
ENDBRANCH  19  20
ENDBRANCH  18  19
ENDBRANCH  17  18
ENDBRANCH  16  17
ENDBRANCH  15  16
ENDBRANCH   1  15
TORSDOF 22
ENDMDL
