MODEL 1
REMARK VINA RESULT:    -4.288      0.000      0.000
REMARK INTER + INTRA:          -4.731
REMARK INTER:                  -4.539
REMARK INTRA:                  -0.192
REMARK UNBOUND:                -0.192
REMARK SMILES C=C1CC=C(C(C)C)CC1
REMARK SMILES IDX 5 1 4 2 3 3 2 4 1 5 10 6 9 7 6 8 7 9 8 10
REMARK H PARENT
REMARK Flexibility Score: inf
ROOT
ATOM      1  C   UNL     1      30.560   8.614  30.811  1.00  0.00    -0.071 C 
ATOM      2  C   UNL     1      31.333   7.951  31.695  1.00  0.00    -0.023 C 
ATOM      3  C   UNL     1      31.811   8.612  32.962  1.00  0.00     0.057 C 
ATOM      4  C   UNL     1      32.123  10.074  32.723  1.00  0.00    -0.073 C 
ATOM      5  C   UNL     1      33.026  10.704  33.486  1.00  0.00     0.008 C 
ATOM      6  C   UNL     1      31.386  10.839  31.642  1.00  0.00     0.035 C 
ATOM      7  C   UNL     1      30.177  10.049  31.119  1.00  0.00     0.035 C 
ENDROOT
BRANCH   1   8
ATOM      8  C   UNL     1      30.147   7.953  29.505  1.00  0.00     0.008 C 
ATOM      9  C   UNL     1      29.724   8.996  28.465  1.00  0.00     0.012 C 
ATOM     10  C   UNL     1      31.270   7.060  28.967  1.00  0.00     0.012 C 
ENDBRANCH   1   8
TORSDOF 1
ENDMDL
MODEL 2
REMARK VINA RESULT:    -4.274      1.070      4.549
REMARK INTER + INTRA:          -4.715
REMARK INTER:                  -4.525
REMARK INTRA:                  -0.190
REMARK UNBOUND:                -0.192
REMARK SMILES C=C1CC=C(C(C)C)CC1
REMARK SMILES IDX 5 1 4 2 3 3 2 4 1 5 10 6 9 7 6 8 7 9 8 10
REMARK H PARENT
REMARK Flexibility Score: inf
ROOT
ATOM      1  C   UNL     1      30.864   7.860  31.483  1.00  0.00    -0.071 C 
ATOM      2  C   UNL     1      30.528   8.819  30.596  1.00  0.00    -0.023 C 
ATOM      3  C   UNL     1      30.188   8.477  29.169  1.00  0.00     0.057 C 
ATOM      4  C   UNL     1      31.047   7.335  28.669  1.00  0.00    -0.073 C 
ATOM      5  C   UNL     1      31.316   7.216  27.361  1.00  0.00     0.008 C 
ATOM      6  C   UNL     1      31.576   6.301  29.643  1.00  0.00     0.035 C 
ATOM      7  C   UNL     1      30.892   6.418  31.013  1.00  0.00     0.035 C 
ENDROOT
BRANCH   1   8
ATOM      8  C   UNL     1      31.273   8.234  32.900  1.00  0.00     0.008 C 
ATOM      9  C   UNL     1      31.929   7.049  33.618  1.00  0.00     0.012 C 
ATOM     10  C   UNL     1      32.196   9.457  32.896  1.00  0.00     0.012 C 
ENDBRANCH   1   8
TORSDOF 1
ENDMDL
MODEL 3
REMARK VINA RESULT:    -4.254      2.555      4.312
REMARK INTER + INTRA:          -4.695
REMARK INTER:                  -4.533
REMARK INTRA:                  -0.162
REMARK UNBOUND:                -0.192
REMARK SMILES C=C1CC=C(C(C)C)CC1
REMARK SMILES IDX 5 1 4 2 3 3 2 4 1 5 10 6 9 7 6 8 7 9 8 10
REMARK H PARENT
REMARK Flexibility Score: inf
ROOT
ATOM      1  C   UNL     1      31.473   8.865  33.618  1.00  0.00    -0.071 C 
ATOM      2  C   UNL     1      31.618   7.550  33.359  1.00  0.00    -0.023 C 
ATOM      3  C   UNL     1      31.096   6.505  34.311  1.00  0.00     0.057 C 
ATOM      4  C   UNL     1      31.259   6.954  35.747  1.00  0.00    -0.073 C 
ATOM      5  C   UNL     1      31.382   6.047  36.727  1.00  0.00     0.008 C 
ATOM      6  C   UNL     1      31.248   8.431  36.086  1.00  0.00     0.035 C 
ATOM      7  C   UNL     1      30.767   9.276  34.897  1.00  0.00     0.035 C 
ENDROOT
BRANCH   1   8
ATOM      8  C   UNL     1      32.070   9.903  32.681  1.00  0.00     0.008 C 
ATOM      9  C   UNL     1      30.979  10.787  32.066  1.00  0.00     0.012 C 
ATOM     10  C   UNL     1      33.125  10.748  33.403  1.00  0.00     0.012 C 
ENDBRANCH   1   8
TORSDOF 1
ENDMDL
MODEL 4
REMARK VINA RESULT:    -4.190      1.070      4.411
REMARK INTER + INTRA:          -4.627
REMARK INTER:                  -4.487
REMARK INTRA:                  -0.140
REMARK UNBOUND:                -0.192
REMARK SMILES C=C1CC=C(C(C)C)CC1
REMARK SMILES IDX 5 1 4 2 3 3 2 4 1 5 10 6 9 7 6 8 7 9 8 10
REMARK H PARENT
REMARK Flexibility Score: inf
ROOT
ATOM      1  C   UNL     1      31.374   9.162  32.230  1.00  0.00    -0.071 C 
ATOM      2  C   UNL     1      30.898   9.995  31.283  1.00  0.00    -0.023 C 
ATOM      3  C   UNL     1      30.054   9.483  30.146  1.00  0.00     0.057 C 
ATOM      4  C   UNL     1      30.523   8.114  29.699  1.00  0.00    -0.073 C 
ATOM      5  C   UNL     1      30.317   7.710  28.438  1.00  0.00     0.008 C 
ATOM      6  C   UNL     1      31.197   7.184  30.687  1.00  0.00     0.035 C 
ATOM      7  C   UNL     1      31.038   7.686  32.130  1.00  0.00     0.035 C 
ENDROOT
BRANCH   1   8
ATOM      8  C   UNL     1      32.284   9.688  33.329  1.00  0.00     0.008 C 
ATOM      9  C   UNL     1      32.839  11.072  32.975  1.00  0.00     0.012 C 
ATOM     10  C   UNL     1      31.554   9.713  34.677  1.00  0.00     0.012 C 
ENDBRANCH   1   8
TORSDOF 1
ENDMDL
MODEL 5
REMARK VINA RESULT:    -4.112      1.469      2.357
REMARK INTER + INTRA:          -4.544
REMARK INTER:                  -4.407
REMARK INTRA:                  -0.137
REMARK UNBOUND:                -0.192
REMARK SMILES C=C1CC=C(C(C)C)CC1
REMARK SMILES IDX 5 1 4 2 3 3 2 4 1 5 10 6 9 7 6 8 7 9 8 10
REMARK H PARENT
REMARK Flexibility Score: inf
ROOT
ATOM      1  C   UNL     1      31.262   7.867  31.832  1.00  0.00    -0.071 C 
ATOM      2  C   UNL     1      31.366   9.209  31.911  1.00  0.00    -0.023 C 
ATOM      3  C   UNL     1      31.936   9.876  33.136  1.00  0.00     0.057 C 
ATOM      4  C   UNL     1      31.537   9.132  34.392  1.00  0.00    -0.073 C 
ATOM      5  C   UNL     1      31.451   9.781  35.562  1.00  0.00     0.008 C 
ATOM      6  C   UNL     1      31.267   7.642  34.337  1.00  0.00     0.035 C 
ATOM      7  C   UNL     1      31.738   7.034  33.007  1.00  0.00     0.035 C 
ENDROOT
BRANCH   1   8
ATOM      8  C   UNL     1      30.617   7.218  30.617  1.00  0.00     0.008 C 
ATOM      9  C   UNL     1      30.197   8.269  29.584  1.00  0.00     0.012 C 
ATOM     10  C   UNL     1      31.551   6.174  29.996  1.00  0.00     0.012 C 
ENDBRANCH   1   8
TORSDOF 1
ENDMDL
MODEL 6
REMARK VINA RESULT:    -4.002      2.198      4.840
REMARK INTER + INTRA:          -4.428
REMARK INTER:                  -4.285
REMARK INTRA:                  -0.143
REMARK UNBOUND:                -0.192
REMARK SMILES C=C1CC=C(C(C)C)CC1
REMARK SMILES IDX 5 1 4 2 3 3 2 4 1 5 10 6 9 7 6 8 7 9 8 10
REMARK H PARENT
REMARK Flexibility Score: inf
ROOT
ATOM      1  C   UNL     1      31.321   7.979  34.290  1.00  0.00    -0.071 C 
ATOM      2  C   UNL     1      31.125   6.909  33.493  1.00  0.00    -0.023 C 
ATOM      3  C   UNL     1      31.351   6.992  32.006  1.00  0.00     0.057 C 
ATOM      4  C   UNL     1      30.932   8.346  31.471  1.00  0.00    -0.073 C 
ATOM      5  C   UNL     1      30.535   8.474  30.197  1.00  0.00     0.008 C 
ATOM      6  C   UNL     1      30.994   9.567  32.367  1.00  0.00     0.035 C 
ATOM      7  C   UNL     1      31.779   9.279  33.656  1.00  0.00     0.035 C 
ENDROOT
BRANCH   1   8
ATOM      8  C   UNL     1      31.019   7.894  35.778  1.00  0.00     0.008 C 
ATOM      9  C   UNL     1      31.545   6.585  36.377  1.00  0.00     0.012 C 
ATOM     10  C   UNL     1      31.585   9.108  36.520  1.00  0.00     0.012 C 
ENDBRANCH   1   8
TORSDOF 1
ENDMDL
MODEL 7
REMARK VINA RESULT:    -3.994      1.069      1.650
REMARK INTER + INTRA:          -4.420
REMARK INTER:                  -4.277
REMARK INTRA:                  -0.143
REMARK UNBOUND:                -0.192
REMARK SMILES C=C1CC=C(C(C)C)CC1
REMARK SMILES IDX 5 1 4 2 3 3 2 4 1 5 10 6 9 7 6 8 7 9 8 10
REMARK H PARENT
REMARK Flexibility Score: inf
ROOT
ATOM      1  C   UNL     1      30.700   7.925  29.899  1.00  0.00    -0.071 C 
ATOM      2  C   UNL     1      31.269   7.140  30.837  1.00  0.00    -0.023 C 
ATOM      3  C   UNL     1      31.314   7.560  32.283  1.00  0.00     0.057 C 
ATOM      4  C   UNL     1      31.522   9.055  32.404  1.00  0.00    -0.073 C 
ATOM      5  C   UNL     1      32.113   9.567  33.493  1.00  0.00     0.008 C 
ATOM      6  C   UNL     1      31.029   9.980  31.310  1.00  0.00     0.035 C 
ATOM      7  C   UNL     1      30.098   9.248  30.332  1.00  0.00     0.035 C 
ENDROOT
BRANCH   1   8
ATOM      8  C   UNL     1      30.729   7.515  28.434  1.00  0.00     0.008 C 
ATOM      9  C   UNL     1      31.905   6.576  28.145  1.00  0.00     0.012 C 
ATOM     10  C   UNL     1      29.398   6.879  28.019  1.00  0.00     0.012 C 
ENDBRANCH   1   8
TORSDOF 1
ENDMDL
MODEL 8
REMARK VINA RESULT:    -3.991      1.249      2.786
REMARK INTER + INTRA:          -4.416
REMARK INTER:                  -4.273
REMARK INTRA:                  -0.143
REMARK UNBOUND:                -0.192
REMARK SMILES C=C1CC=C(C(C)C)CC1
REMARK SMILES IDX 5 1 4 2 3 3 2 4 1 5 10 6 9 7 6 8 7 9 8 10
REMARK H PARENT
REMARK Flexibility Score: inf
ROOT
ATOM      1  C   UNL     1      30.624   9.459  31.007  1.00  0.00    -0.071 C 
ATOM      2  C   UNL     1      31.188   9.888  32.154  1.00  0.00    -0.023 C 
ATOM      3  C   UNL     1      32.020   8.966  33.007  1.00  0.00     0.057 C 
ATOM      4  C   UNL     1      31.457   7.561  32.989  1.00  0.00    -0.073 C 
ATOM      5  C   UNL     1      31.665   6.739  34.028  1.00  0.00     0.008 C 
ATOM      6  C   UNL     1      30.688   7.067  31.781  1.00  0.00     0.035 C 
ATOM      7  C   UNL     1      30.848   8.019  30.586  1.00  0.00     0.035 C 
ENDROOT
BRANCH   1   8
ATOM      8  C   UNL     1      29.729  10.386  30.198  1.00  0.00     0.008 C 
ATOM      9  C   UNL     1      30.313  11.801  30.131  1.00  0.00     0.012 C 
ATOM     10  C   UNL     1      29.487   9.821  28.794  1.00  0.00     0.012 C 
ENDBRANCH   1   8
TORSDOF 1
ENDMDL
MODEL 9
REMARK VINA RESULT:    -3.979      2.174      3.797
REMARK INTER + INTRA:          -4.403
REMARK INTER:                  -4.222
REMARK INTRA:                  -0.181
REMARK UNBOUND:                -0.192
REMARK SMILES C=C1CC=C(C(C)C)CC1
REMARK SMILES IDX 5 1 4 2 3 3 2 4 1 5 10 6 9 7 6 8 7 9 8 10
REMARK H PARENT
REMARK Flexibility Score: inf
ROOT
ATOM      1  C   UNL     1      30.370   7.467  27.971  1.00  0.00    -0.071 C 
ATOM      2  C   UNL     1      29.863   8.315  28.888  1.00  0.00    -0.023 C 
ATOM      3  C   UNL     1      30.540   8.522  30.217  1.00  0.00     0.057 C 
ATOM      4  C   UNL     1      31.146   7.230  30.722  1.00  0.00    -0.073 C 
ATOM      5  C   UNL     1      31.306   7.029  32.038  1.00  0.00     0.008 C 
ATOM      6  C   UNL     1      31.606   6.173  29.738  1.00  0.00     0.035 C 
ATOM      7  C   UNL     1      31.649   6.721  28.304  1.00  0.00     0.035 C 
ENDROOT
BRANCH   1   8
ATOM      8  C   UNL     1      29.632   7.217  26.664  1.00  0.00     0.008 C 
ATOM      9  C   UNL     1      28.753   5.965  26.754  1.00  0.00     0.012 C 
ATOM     10  C   UNL     1      28.807   8.444  26.261  1.00  0.00     0.012 C 
ENDBRANCH   1   8
TORSDOF 1
ENDMDL
