MODEL 1
REMARK VINA RESULT:    -3.780      0.000      0.000
REMARK INTER + INTRA:          -3.780
REMARK INTER:                  -3.780
REMARK INTRA:                   0.000
REMARK UNBOUND:                 0.000
REMARK SMILES C=C1CC[C@@H]2C[C@H]1C2(C)C
REMARK SMILES IDX 9 1 8 2 5 3 4 4 3 5 2 6 1 7 7 8 6 9 10 10
REMARK H PARENT
REMARK Flexibility Score: inf
ROOT
ATOM      1  C   UNL     1     139.733 133.720 135.892  1.00  0.00     0.012 C 
ATOM      2  C   UNL     1     139.575 134.672 134.679  1.00  0.00    -0.026 C 
ATOM      3  C   UNL     1     139.179 136.104 135.117  1.00  0.00    -0.004 C 
ATOM      4  C   UNL     1     138.635 136.930 133.906  1.00  0.00     0.008 C 
ATOM      5  C   UNL     1     139.604 136.893 132.664  1.00  0.00     0.031 C 
ATOM      6  C   UNL     1     140.775 135.919 132.867  1.00  0.00    -0.074 C 
ATOM      7  C   UNL     1     141.629 135.641 131.876  1.00  0.00     0.008 C 
ATOM      8  C   UNL     1     140.926 135.291 134.249  1.00  0.00     0.021 C 
ATOM      9  C   UNL     1     140.674 136.441 135.238  1.00  0.00     0.012 C 
ATOM     10  C   UNL     1     138.715 133.955 133.603  1.00  0.00     0.012 C 
ENDROOT
TORSDOF 0
ENDMDL
MODEL 2
REMARK VINA RESULT:    -3.780      4.514      6.611
REMARK INTER + INTRA:          -3.780
REMARK INTER:                  -3.780
REMARK INTRA:                   0.000
REMARK UNBOUND:                 0.000
REMARK SMILES C=C1CC[C@@H]2C[C@H]1C2(C)C
REMARK SMILES IDX 9 1 8 2 5 3 4 4 3 5 2 6 1 7 7 8 6 9 10 10
REMARK H PARENT
REMARK Flexibility Score: inf
ROOT
ATOM      1  C   UNL     1     137.027 141.295 132.050  1.00  0.00     0.012 C 
ATOM      2  C   UNL     1     136.415 140.365 133.127  1.00  0.00    -0.026 C 
ATOM      3  C   UNL     1     137.394 139.235 133.539  1.00  0.00    -0.004 C 
ATOM      4  C   UNL     1     136.644 138.094 134.299  1.00  0.00     0.008 C 
ATOM      5  C   UNL     1     135.764 138.634 135.489  1.00  0.00     0.031 C 
ATOM      6  C   UNL     1     135.711 140.169 135.525  1.00  0.00    -0.074 C 
ATOM      7  C   UNL     1     134.906 140.818 136.373  1.00  0.00     0.008 C 
ATOM      8  C   UNL     1     136.621 140.919 134.557  1.00  0.00     0.021 C 
ATOM      9  C   UNL     1     137.964 140.174 134.616  1.00  0.00     0.012 C 
ATOM     10  C   UNL     1     134.977 139.981 132.683  1.00  0.00     0.012 C 
ENDROOT
TORSDOF 0
ENDMDL
MODEL 3
REMARK VINA RESULT:    -3.772      0.999      3.070
REMARK INTER + INTRA:          -3.772
REMARK INTER:                  -3.772
REMARK INTRA:                   0.000
REMARK UNBOUND:                 0.000
REMARK SMILES C=C1CC[C@@H]2C[C@H]1C2(C)C
REMARK SMILES IDX 9 1 8 2 5 3 4 4 3 5 2 6 1 7 7 8 6 9 10 10
REMARK H PARENT
REMARK Flexibility Score: inf
ROOT
ATOM      1  C   UNL     1     141.285 135.628 132.061  1.00  0.00     0.012 C 
ATOM      2  C   UNL     1     140.358 136.235 133.143  1.00  0.00    -0.026 C 
ATOM      3  C   UNL     1     139.234 135.252 133.560  1.00  0.00    -0.004 C 
ATOM      4  C   UNL     1     138.094 135.996 134.326  1.00  0.00     0.008 C 
ATOM      5  C   UNL     1     138.637 136.877 135.514  1.00  0.00     0.031 C 
ATOM      6  C   UNL     1     140.171 136.936 135.543  1.00  0.00    -0.074 C 
ATOM      7  C   UNL     1     140.821 137.743 136.388  1.00  0.00     0.008 C 
ATOM      8  C   UNL     1     140.920 136.030 134.570  1.00  0.00     0.021 C 
ATOM      9  C   UNL     1     140.181 134.684 134.631  1.00  0.00     0.012 C 
ATOM     10  C   UNL     1     139.966 137.672 132.703  1.00  0.00     0.012 C 
ENDROOT
TORSDOF 0
ENDMDL
MODEL 4
REMARK VINA RESULT:    -3.760      3.804      5.380
REMARK INTER + INTRA:          -3.760
REMARK INTER:                  -3.760
REMARK INTRA:                   0.000
REMARK UNBOUND:                 0.000
REMARK SMILES C=C1CC[C@@H]2C[C@H]1C2(C)C
REMARK SMILES IDX 9 1 8 2 5 3 4 4 3 5 2 6 1 7 7 8 6 9 10 10
REMARK H PARENT
REMARK Flexibility Score: inf
ROOT
ATOM      1  C   UNL     1     135.640 131.453 132.079  1.00  0.00     0.012 C 
ATOM      2  C   UNL     1     136.282 132.332 133.181  1.00  0.00    -0.026 C 
ATOM      3  C   UNL     1     135.331 133.466 133.642  1.00  0.00    -0.004 C 
ATOM      4  C   UNL     1     136.112 134.565 134.432  1.00  0.00     0.008 C 
ATOM      5  C   UNL     1     136.992 133.966 135.594  1.00  0.00     0.031 C 
ATOM      6  C   UNL     1     137.014 132.430 135.576  1.00  0.00    -0.074 C 
ATOM      7  C   UNL     1     137.814 131.736 136.392  1.00  0.00     0.008 C 
ATOM      8  C   UNL     1     136.079 131.733 134.592  1.00  0.00     0.021 C 
ATOM      9  C   UNL     1     134.752 132.503 134.691  1.00  0.00     0.012 C 
ATOM     10  C   UNL     1     137.723 132.702 132.734  1.00  0.00     0.012 C 
ENDROOT
TORSDOF 0
ENDMDL
MODEL 5
REMARK VINA RESULT:    -3.751      6.244      7.967
REMARK INTER + INTRA:          -3.751
REMARK INTER:                  -3.751
REMARK INTRA:                   0.000
REMARK UNBOUND:                 0.000
REMARK SMILES C=C1CC[C@@H]2C[C@H]1C2(C)C
REMARK SMILES IDX 9 1 8 2 5 3 4 4 3 5 2 6 1 7 7 8 6 9 10 10
REMARK H PARENT
REMARK Flexibility Score: inf
ROOT
ATOM      1  C   UNL     1     131.411 137.084 132.115  1.00  0.00     0.012 C 
ATOM      2  C   UNL     1     132.315 136.427 133.188  1.00  0.00    -0.026 C 
ATOM      3  C   UNL     1     133.467 137.366 133.626  1.00  0.00    -0.004 C 
ATOM      4  C   UNL     1     134.581 136.571 134.381  1.00  0.00     0.008 C 
ATOM      5  C   UNL     1     134.006 135.686 135.551  1.00  0.00     0.031 C 
ATOM      6  C   UNL     1     132.470 135.675 135.574  1.00  0.00    -0.074 C 
ATOM      7  C   UNL     1     131.792 134.874 136.402  1.00  0.00     0.008 C 
ATOM      8  C   UNL     1     131.754 136.623 134.616  1.00  0.00     0.021 C 
ATOM      9  C   UNL     1     132.536 137.944 134.705  1.00  0.00     0.012 C 
ATOM     10  C   UNL     1     132.662 134.987 132.721  1.00  0.00     0.012 C 
ENDROOT
TORSDOF 0
ENDMDL
MODEL 6
REMARK VINA RESULT:    -3.681      5.716      7.470
REMARK INTER + INTRA:          -3.681
REMARK INTER:                  -3.681
REMARK INTRA:                   0.000
REMARK UNBOUND:                 0.000
REMARK SMILES C=C1CC[C@@H]2C[C@H]1C2(C)C
REMARK SMILES IDX 9 1 8 2 5 3 4 4 3 5 2 6 1 7 7 8 6 9 10 10
REMARK H PARENT
REMARK Flexibility Score: inf
ROOT
ATOM      1  C   UNL     1     133.145 136.557 135.714  1.00  0.00     0.012 C 
ATOM      2  C   UNL     1     134.022 137.823 135.885  1.00  0.00    -0.026 C 
ATOM      3  C   UNL     1     133.468 139.024 135.076  1.00  0.00    -0.004 C 
ATOM      4  C   UNL     1     134.547 140.144 134.927  1.00  0.00     0.008 C 
ATOM      5  C   UNL     1     135.191 140.553 136.305  1.00  0.00     0.031 C 
ATOM      6  C   UNL     1     134.735 139.642 137.455  1.00  0.00    -0.074 C 
ATOM      7  C   UNL     1     135.275 139.737 138.675  1.00  0.00     0.008 C 
ATOM      8  C   UNL     1     133.636 138.630 137.146  1.00  0.00     0.021 C 
ATOM      9  C   UNL     1     132.613 139.402 136.297  1.00  0.00     0.012 C 
ATOM     10  C   UNL     1     135.509 137.417 135.694  1.00  0.00     0.012 C 
ENDROOT
TORSDOF 0
ENDMDL
MODEL 7
REMARK VINA RESULT:    -3.678      3.133      4.828
REMARK INTER + INTRA:          -3.678
REMARK INTER:                  -3.678
REMARK INTRA:                   0.000
REMARK UNBOUND:                 0.000
REMARK SMILES C=C1CC[C@@H]2C[C@H]1C2(C)C
REMARK SMILES IDX 9 1 8 2 5 3 4 4 3 5 2 6 1 7 7 8 6 9 10 10
REMARK H PARENT
REMARK Flexibility Score: inf
ROOT
ATOM      1  C   UNL     1     136.573 139.509 135.787  1.00  0.00     0.012 C 
ATOM      2  C   UNL     1     137.837 138.628 135.949  1.00  0.00    -0.026 C 
ATOM      3  C   UNL     1     139.038 139.186 135.143  1.00  0.00    -0.004 C 
ATOM      4  C   UNL     1     140.156 138.106 134.983  1.00  0.00     0.008 C 
ATOM      5  C   UNL     1     140.565 137.450 136.356  1.00  0.00     0.031 C 
ATOM      6  C   UNL     1     139.656 137.898 137.511  1.00  0.00    -0.074 C 
ATOM      7  C   UNL     1     139.751 137.348 138.726  1.00  0.00     0.008 C 
ATOM      8  C   UNL     1     138.647 139.002 137.212  1.00  0.00     0.021 C 
ATOM      9  C   UNL     1     139.420 140.031 136.371  1.00  0.00     0.012 C 
ATOM     10  C   UNL     1     137.428 137.144 135.746  1.00  0.00     0.012 C 
ENDROOT
TORSDOF 0
ENDMDL
MODEL 8
REMARK VINA RESULT:    -3.644      5.831      7.429
REMARK INTER + INTRA:          -3.644
REMARK INTER:                  -3.644
REMARK INTRA:                   0.000
REMARK UNBOUND:                 0.000
REMARK SMILES C=C1CC[C@@H]2C[C@H]1C2(C)C
REMARK SMILES IDX 9 1 8 2 5 3 4 4 3 5 2 6 1 7 7 8 6 9 10 10
REMARK H PARENT
REMARK Flexibility Score: inf
ROOT
ATOM      1  C   UNL     1     134.676 133.819 133.830  1.00  0.00     0.012 C 
ATOM      2  C   UNL     1     134.064 134.408 135.126  1.00  0.00    -0.026 C 
ATOM      3  C   UNL     1     132.582 133.992 135.307  1.00  0.00    -0.004 C 
ATOM      4  C   UNL     1     131.872 134.896 136.365  1.00  0.00     0.008 C 
ATOM      5  C   UNL     1     132.673 134.988 137.719  1.00  0.00     0.031 C 
ATOM      6  C   UNL     1     134.048 134.309 137.630  1.00  0.00    -0.074 C 
ATOM      7  C   UNL     1     134.935 134.399 138.627  1.00  0.00     0.008 C 
ATOM      8  C   UNL     1     134.354 133.522 136.360  1.00  0.00     0.021 C 
ATOM      9  C   UNL     1     133.066 132.739 136.057  1.00  0.00     0.012 C 
ATOM     10  C   UNL     1     134.430 135.916 135.197  1.00  0.00     0.012 C 
ENDROOT
TORSDOF 0
ENDMDL
MODEL 9
REMARK VINA RESULT:    -3.636      2.353      3.784
REMARK INTER + INTRA:          -3.636
REMARK INTER:                  -3.636
REMARK INTRA:                   0.000
REMARK UNBOUND:                 0.000
REMARK SMILES C=C1CC[C@@H]2C[C@H]1C2(C)C
REMARK SMILES IDX 9 1 8 2 5 3 4 4 3 5 2 6 1 7 7 8 6 9 10 10
REMARK H PARENT
REMARK Flexibility Score: inf
ROOT
ATOM      1  C   UNL     1     140.502 135.731 134.689  1.00  0.00     0.012 C 
ATOM      2  C   UNL     1     139.637 136.729 135.498  1.00  0.00    -0.026 C 
ATOM      3  C   UNL     1     140.205 136.967 136.920  1.00  0.00    -0.004 C 
ATOM      4  C   UNL     1     139.137 137.634 137.846  1.00  0.00     0.008 C 
ATOM      5  C   UNL     1     138.492 138.918 137.199  1.00  0.00     0.031 C 
ATOM      6  C   UNL     1     138.935 139.123 135.743  1.00  0.00    -0.074 C 
ATOM      7  C   UNL     1     138.392 140.076 134.977  1.00  0.00     0.008 C 
ATOM      8  C   UNL     1     140.026 138.199 135.212  1.00  0.00     0.021 C 
ATOM      9  C   UNL     1     141.060 138.110 136.346  1.00  0.00     0.012 C 
ATOM     10  C   UNL     1     138.146 136.318 135.349  1.00  0.00     0.012 C 
ENDROOT
TORSDOF 0
ENDMDL
