MODEL 1
REMARK VINA RESULT:     2.562      0.000      0.000
REMARK INTER + INTRA:           5.178
REMARK INTER:                   3.910
REMARK INTRA:                   1.268
REMARK UNBOUND:                 1.268
REMARK SMILES CC1=CCC[C@@H](C)C(=O)C[C@H](C(C)C)C(=O)C1
REMARK SMILES IDX 8 1 9 2 6 3 7 4 5 5 4 6 3 7 2 8 1 9 10 11 11 12 15 13 16 14
REMARK SMILES IDX 17 15 12 17 13 18 14 19
REMARK H PARENT
REMARK Flexibility Score: 70.00
ROOT
ATOM      1  C   UNL     1      -2.638  12.226   7.431  1.00  0.00     0.136 C 
ATOM      2  O   UNL     1      -2.313  11.596   6.435  1.00  0.00    -0.299 OA
ENDROOT
BRANCH   1   3
ATOM      3  C   UNL     1      -2.561  11.531   8.784  1.00  0.00     0.053 C 
ATOM      4  C   UNL     1      -1.262  10.733   8.973  1.00  0.00     0.016 C 
BRANCH   3   5
ATOM      5  C   UNL     1      -3.842  10.728   9.121  1.00  0.00     0.015 C 
BRANCH   5   6
ATOM      6  C   UNL     1      -5.135  11.215   8.434  1.00  0.00     0.028 C 
BRANCH   6   7
ATOM      7  C   UNL     1      -5.624  12.499   9.053  1.00  0.00    -0.028 C 
ATOM      8  C   UNL     1      -6.094  13.560   8.354  1.00  0.00    -0.070 CG0
ATOM      9  C   UNL     1      -6.481  14.799   9.122  1.00  0.00     0.039 C 
ATOM     10  G   UNL     1      -6.260  13.546   6.841  1.00  0.00     0.000 G0
ENDBRANCH   6   7
ENDBRANCH   5   6
ENDBRANCH   3   5
ENDBRANCH   1   3
BRANCH   1  11
ATOM     11  C   UNL     1      -3.122  13.650   7.258  1.00  0.00     0.087 C 
BRANCH  11  12
ATOM     12  C   UNL     1      -3.829  13.925   5.901  1.00  0.00     0.066 C 
BRANCH  12  13
ATOM     13  C   UNL     1      -5.246  14.429   6.134  1.00  0.00     0.140 C 
ATOM     14  O   UNL     1      -5.580  15.524   5.702  1.00  0.00    -0.299 OA
BRANCH  13  15
ATOM     15  C   UNL     1      -6.265  13.562   6.831  1.00  0.00     0.106 CG0
ATOM     16  G   UNL     1      -6.075  13.541   8.342  1.00  0.00     0.000 G0
ENDBRANCH  13  15
ENDBRANCH  12  13
BRANCH  12  17
ATOM     17  C   UNL     1      -3.037  14.860   4.925  1.00  0.00    -0.006 C 
ATOM     18  C   UNL     1      -1.622  14.337   4.621  1.00  0.00     0.008 C 
ATOM     19  C   UNL     1      -3.798  15.031   3.597  1.00  0.00     0.008 C 
ENDBRANCH  12  17
ENDBRANCH  11  12
ENDBRANCH   1  11
TORSDOF 1
ENDMDL
MODEL 2
REMARK VINA RESULT:     2.754      2.000      3.671
REMARK INTER + INTRA:           5.471
REMARK INTER:                   3.770
REMARK INTRA:                   1.700
REMARK UNBOUND:                 1.268
REMARK SMILES CC1=CCC[C@@H](C)C(=O)C[C@H](C(C)C)C(=O)C1
REMARK SMILES IDX 8 1 9 2 6 3 7 4 5 5 4 6 3 7 2 8 1 9 10 11 11 12 15 13 16 14
REMARK SMILES IDX 17 15 12 17 13 18 14 19
REMARK H PARENT
REMARK Flexibility Score: 70.00
ROOT
ATOM      1  C   UNL     1      -6.178  12.479   6.626  1.00  0.00     0.136 C 
ATOM      2  O   UNL     1      -6.602  11.396   6.250  1.00  0.00    -0.299 OA
ENDROOT
BRANCH   1   3
ATOM      3  C   UNL     1      -6.266  12.816   8.108  1.00  0.00     0.053 C 
ATOM      4  C   UNL     1      -6.174  14.323   8.386  1.00  0.00     0.016 C 
BRANCH   3   5
ATOM      5  C   UNL     1      -5.310  11.962   8.976  1.00  0.00     0.015 C 
BRANCH   5   6
ATOM      6  C   UNL     1      -3.875  12.510   9.125  1.00  0.00     0.028 C 
BRANCH   6   7
ATOM      7  C   UNL     1      -2.858  11.486   8.693  1.00  0.00    -0.028 C 
ATOM      8  C   UNL     1      -2.653  11.099   7.411  1.00  0.00    -0.070 CG0
ATOM      9  C   UNL     1      -1.643  10.010   7.153  1.00  0.00     0.039 C 
ATOM     10  G   UNL     1      -3.384  11.724   6.230  1.00  0.00     0.000 G0
ENDBRANCH   6   7
ENDBRANCH   5   6
ENDBRANCH   3   5
ENDBRANCH   1   3
BRANCH   1  11
ATOM     11  C   UNL     1      -5.612  13.431   5.592  1.00  0.00     0.087 C 
BRANCH  11  12
ATOM     12  C   UNL     1      -4.335  14.189   6.051  1.00  0.00     0.066 C 
BRANCH  12  13
ATOM     13  C   UNL     1      -3.148  13.239   6.110  1.00  0.00     0.140 C 
ATOM     14  O   UNL     1      -2.010  13.689   6.148  1.00  0.00    -0.299 OA
BRANCH  13  15
ATOM     15  C   UNL     1      -3.360  11.748   6.195  1.00  0.00     0.106 CG0
ATOM     16  G   UNL     1      -2.643  11.125   7.385  1.00  0.00     0.000 G0
ENDBRANCH  13  15
ENDBRANCH  12  13
BRANCH  12  17
ATOM     17  C   UNL     1      -4.003  15.477   5.224  1.00  0.00    -0.006 C 
ATOM     18  C   UNL     1      -3.399  15.158   3.845  1.00  0.00     0.008 C 
ATOM     19  C   UNL     1      -5.266  16.337   5.025  1.00  0.00     0.008 C 
ENDBRANCH  12  17
ENDBRANCH  11  12
ENDBRANCH   1  11
TORSDOF 1
ENDMDL
MODEL 3
REMARK VINA RESULT:     2.876      1.595      3.898
REMARK INTER + INTRA:           5.658
REMARK INTER:                   3.608
REMARK INTRA:                   2.050
REMARK UNBOUND:                 1.268
REMARK SMILES CC1=CCC[C@@H](C)C(=O)C[C@H](C(C)C)C(=O)C1
REMARK SMILES IDX 8 1 9 2 6 3 7 4 5 5 4 6 3 7 2 8 1 9 10 11 11 12 15 13 16 14
REMARK SMILES IDX 17 15 12 17 13 18 14 19
REMARK H PARENT
REMARK Flexibility Score: 70.00
ROOT
ATOM      1  C   UNL     1      -3.935  11.063   8.081  1.00  0.00     0.136 C 
ATOM      2  O   UNL     1      -4.133  10.457   9.124  1.00  0.00    -0.299 OA
ENDROOT
BRANCH   1   3
ATOM      3  C   UNL     1      -2.512  11.130   7.543  1.00  0.00     0.053 C 
ATOM      4  C   UNL     1      -1.477  11.460   8.628  1.00  0.00     0.016 C 
BRANCH   3   5
ATOM      5  C   UNL     1      -2.390  12.012   6.275  1.00  0.00     0.015 C 
BRANCH   5   6
ATOM      6  C   UNL     1      -2.619  13.523   6.490  1.00  0.00     0.028 C 
BRANCH   6   7
ATOM      7  C   UNL     1      -2.798  14.234   5.173  1.00  0.00    -0.028 C 
ATOM      8  C   UNL     1      -3.886  14.968   4.837  1.00  0.00    -0.070 CG0
ATOM      9  C   UNL     1      -3.940  15.559   3.451  1.00  0.00     0.039 C 
ATOM     10  G   UNL     1      -5.037  15.230   5.798  1.00  0.00     0.000 G0
ENDBRANCH   6   7
ENDBRANCH   5   6
ENDBRANCH   3   5
ENDBRANCH   1   3
BRANCH   1  11
ATOM     11  C   UNL     1      -5.111  11.731   7.400  1.00  0.00     0.087 C 
BRANCH  11  12
ATOM     12  C   UNL     1      -5.152  13.276   7.564  1.00  0.00     0.066 C 
BRANCH  12  13
ATOM     13  C   UNL     1      -5.654  13.931   6.286  1.00  0.00     0.140 C 
ATOM     14  O   UNL     1      -6.600  13.441   5.683  1.00  0.00    -0.299 OA
BRANCH  13  15
ATOM     15  C   UNL     1      -5.044  15.219   5.792  1.00  0.00     0.106 CG0
ATOM     16  G   UNL     1      -3.892  14.984   4.824  1.00  0.00     0.000 G0
ENDBRANCH  13  15
ENDBRANCH  12  13
BRANCH  12  17
ATOM     17  C   UNL     1      -5.939  13.782   8.820  1.00  0.00    -0.006 C 
ATOM     18  C   UNL     1      -6.390  15.248   8.687  1.00  0.00     0.008 C 
ATOM     19  C   UNL     1      -7.179  12.904   9.076  1.00  0.00     0.008 C 
ENDBRANCH  12  17
ENDBRANCH  11  12
ENDBRANCH   1  11
TORSDOF 1
ENDMDL
MODEL 4
REMARK VINA RESULT:     3.135      1.552      2.128
REMARK INTER + INTRA:           6.053
REMARK INTER:                   4.292
REMARK INTRA:                   1.762
REMARK UNBOUND:                 1.268
REMARK SMILES CC1=CCC[C@@H](C)C(=O)C[C@H](C(C)C)C(=O)C1
REMARK SMILES IDX 8 1 9 2 6 3 7 4 5 5 4 6 3 7 2 8 1 9 10 11 11 12 15 13 16 14
REMARK SMILES IDX 17 15 12 17 13 18 14 19
REMARK H PARENT
REMARK Flexibility Score: 70.00
ROOT
ATOM      1  C   UNL     1      -2.779  13.044   6.332  1.00  0.00     0.136 C 
ATOM      2  O   UNL     1      -2.229  13.409   5.303  1.00  0.00    -0.299 OA
ENDROOT
BRANCH   1   3
ATOM      3  C   UNL     1      -2.157  11.896   7.116  1.00  0.00     0.053 C 
ATOM      4  C   UNL     1      -2.251  10.550   6.382  1.00  0.00     0.016 C 
BRANCH   3   5
ATOM      5  C   UNL     1      -2.642  11.840   8.586  1.00  0.00     0.015 C 
BRANCH   5   6
ATOM      6  C   UNL     1      -3.998  11.139   8.815  1.00  0.00     0.028 C 
BRANCH   6   7
ATOM      7  C   UNL     1      -5.082  12.144   9.109  1.00  0.00    -0.028 C 
ATOM      8  C   UNL     1      -6.066  12.489   8.244  1.00  0.00    -0.070 CG0
ATOM      9  C   UNL     1      -7.036  13.563   8.666  1.00  0.00     0.039 C 
ATOM     10  G   UNL     1      -6.240  11.830   6.882  1.00  0.00     0.000 G0
ENDBRANCH   6   7
ENDBRANCH   5   6
ENDBRANCH   3   5
ENDBRANCH   1   3
BRANCH   1  11
ATOM     11  C   UNL     1      -4.058  13.737   6.752  1.00  0.00     0.087 C 
BRANCH  11  12
ATOM     12  C   UNL     1      -5.101  13.902   5.612  1.00  0.00     0.066 C 
BRANCH  12  13
ATOM     13  C   UNL     1      -6.216  12.878   5.760  1.00  0.00     0.140 C 
ATOM     14  O   UNL     1      -7.119  12.838   4.935  1.00  0.00    -0.299 OA
BRANCH  13  15
ATOM     15  C   UNL     1      -6.183  11.863   6.876  1.00  0.00     0.106 CG0
ATOM     16  G   UNL     1      -6.078  12.511   8.250  1.00  0.00     0.000 G0
ENDBRANCH  13  15
ENDBRANCH  12  13
BRANCH  12  17
ATOM     17  C   UNL     1      -5.668  15.353   5.445  1.00  0.00    -0.006 C 
ATOM     18  C   UNL     1      -5.978  16.028   6.793  1.00  0.00     0.008 C 
ATOM     19  C   UNL     1      -4.678  16.238   4.664  1.00  0.00     0.008 C 
ENDBRANCH  12  17
ENDBRANCH  11  12
ENDBRANCH   1  11
TORSDOF 1
ENDMDL
MODEL 5
REMARK VINA RESULT:     3.198      1.718      3.432
REMARK INTER + INTRA:           6.150
REMARK INTER:                   4.196
REMARK INTRA:                   1.953
REMARK UNBOUND:                 1.268
REMARK SMILES CC1=CCC[C@@H](C)C(=O)C[C@H](C(C)C)C(=O)C1
REMARK SMILES IDX 8 1 9 2 6 3 7 4 5 5 4 6 3 7 2 8 1 9 10 11 11 12 15 13 16 14
REMARK SMILES IDX 17 15 12 17 13 18 14 19
REMARK H PARENT
REMARK Flexibility Score: 70.00
ROOT
ATOM      1  C   UNL     1      -3.383  11.675   8.622  1.00  0.00     0.136 C 
ATOM      2  O   UNL     1      -2.699  12.554   9.125  1.00  0.00    -0.299 OA
ENDROOT
BRANCH   1   3
ATOM      3  C   UNL     1      -2.776  10.834   7.508  1.00  0.00     0.053 C 
ATOM      4  C   UNL     1      -1.518  10.073   7.949  1.00  0.00     0.016 C 
BRANCH   3   5
ATOM      5  C   UNL     1      -2.596  11.625   6.188  1.00  0.00     0.015 C 
BRANCH   5   6
ATOM      6  C   UNL     1      -2.301  13.131   6.349  1.00  0.00     0.028 C 
BRANCH   6   7
ATOM      7  C   UNL     1      -3.396  13.964   5.733  1.00  0.00    -0.028 C 
ATOM      8  C   UNL     1      -4.425  14.512   6.422  1.00  0.00    -0.070 CG0
ATOM      9  C   UNL     1      -5.478  15.262   5.646  1.00  0.00     0.039 C 
ATOM     10  G   UNL     1      -4.553  14.414   7.937  1.00  0.00     0.000 G0
ENDBRANCH   6   7
ENDBRANCH   5   6
ENDBRANCH   3   5
ENDBRANCH   1   3
BRANCH   1  11
ATOM     11  C   UNL     1      -4.801  11.491   9.121  1.00  0.00     0.087 C 
BRANCH  11  12
ATOM     12  C   UNL     1      -5.881  12.193   8.251  1.00  0.00     0.066 C 
BRANCH  12  13
ATOM     13  C   UNL     1      -5.793  13.703   8.412  1.00  0.00     0.140 C 
ATOM     14  O   UNL     1      -6.697  14.309   8.973  1.00  0.00    -0.299 OA
BRANCH  13  15
ATOM     15  C   UNL     1      -4.568  14.454   7.953  1.00  0.00     0.106 CG0
ATOM     16  G   UNL     1      -4.445  14.494   6.435  1.00  0.00     0.000 G0
ENDBRANCH  13  15
ENDBRANCH  12  13
BRANCH  12  17
ATOM     17  C   UNL     1      -5.885  11.773   6.742  1.00  0.00    -0.006 C 
ATOM     18  C   UNL     1      -5.899  10.246   6.551  1.00  0.00     0.008 C 
ATOM     19  C   UNL     1      -7.101  12.375   6.012  1.00  0.00     0.008 C 
ENDBRANCH  12  17
ENDBRANCH  11  12
ENDBRANCH   1  11
TORSDOF 1
ENDMDL
MODEL 6
REMARK VINA RESULT:     3.944      1.589      3.913
REMARK INTER + INTRA:           7.288
REMARK INTER:                   6.862
REMARK INTRA:                   0.426
REMARK UNBOUND:                 1.268
REMARK SMILES CC1=CCC[C@@H](C)C(=O)C[C@H](C(C)C)C(=O)C1
REMARK SMILES IDX 8 1 9 2 6 3 7 4 5 5 4 6 3 7 2 8 1 9 10 11 11 12 15 13 16 14
REMARK SMILES IDX 17 15 12 17 13 18 14 19
REMARK H PARENT
REMARK Flexibility Score: 70.00
ROOT
ATOM      1  C   UNL     1      -5.809  14.282   7.036  1.00  0.00     0.136 C 
ATOM      2  O   UNL     1      -6.045  15.457   6.796  1.00  0.00    -0.299 OA
ENDROOT
BRANCH   1   3
ATOM      3  C   UNL     1      -6.407  13.666   8.294  1.00  0.00     0.053 C 
ATOM      4  C   UNL     1      -7.220  14.670   9.123  1.00  0.00     0.016 C 
BRANCH   3   5
ATOM      5  C   UNL     1      -5.371  12.866   9.122  1.00  0.00     0.015 C 
BRANCH   5   6
ATOM      6  C   UNL     1      -5.215  11.380   8.738  1.00  0.00     0.028 C 
BRANCH   6   7
ATOM      7  C   UNL     1      -3.853  10.863   9.125  1.00  0.00    -0.028 C 
ATOM      8  C   UNL     1      -2.757  10.914   8.331  1.00  0.00    -0.070 CG0
ATOM      9  C   UNL     1      -1.483  10.289   8.841  1.00  0.00     0.039 C 
ATOM     10  G   UNL     1      -2.756  11.583   6.963  1.00  0.00     0.000 G0
ENDBRANCH   6   7
ENDBRANCH   5   6
ENDBRANCH   3   5
ENDBRANCH   1   3
BRANCH   1  11
ATOM     11  C   UNL     1      -4.917  13.516   6.082  1.00  0.00     0.087 C 
BRANCH  11  12
ATOM     12  C   UNL     1      -3.428  13.961   6.101  1.00  0.00     0.066 C 
BRANCH  12  13
ATOM     13  C   UNL     1      -2.622  13.078   7.041  1.00  0.00     0.140 C 
ATOM     14  O   UNL     1      -1.933  13.589   7.914  1.00  0.00    -0.299 OA
BRANCH  13  15
ATOM     15  C   UNL     1      -2.720  11.575   6.956  1.00  0.00     0.106 CG0
ATOM     16  G   UNL     1      -2.750  10.915   8.328  1.00  0.00     0.000 G0
ENDBRANCH  13  15
ENDBRANCH  12  13
BRANCH  12  17
ATOM     17  C   UNL     1      -2.756  14.067   4.690  1.00  0.00    -0.006 C 
ATOM     18  C   UNL     1      -3.510  15.017   3.743  1.00  0.00     0.008 C 
ATOM     19  C   UNL     1      -1.298  14.546   4.815  1.00  0.00     0.008 C 
ENDBRANCH  12  17
ENDBRANCH  11  12
ENDBRANCH   1  11
TORSDOF 1
ENDMDL
MODEL 7
REMARK VINA RESULT:     5.114      1.640      4.155
REMARK INTER + INTRA:           9.073
REMARK INTER:                   7.920
REMARK INTRA:                   1.153
REMARK UNBOUND:                 1.268
REMARK SMILES CC1=CCC[C@@H](C)C(=O)C[C@H](C(C)C)C(=O)C1
REMARK SMILES IDX 8 1 9 2 6 3 7 4 5 5 4 6 3 7 2 8 1 9 10 11 11 12 15 13 16 14
REMARK SMILES IDX 17 15 12 17 13 18 14 19
REMARK H PARENT
REMARK Flexibility Score: 70.00
ROOT
ATOM      1  C   UNL     1      -3.264  13.805   5.715  1.00  0.00     0.136 C 
ATOM      2  O   UNL     1      -2.248  14.460   5.528  1.00  0.00    -0.299 OA
ENDROOT
BRANCH   1   3
ATOM      3  C   UNL     1      -4.610  14.470   5.463  1.00  0.00     0.053 C 
ATOM      4  C   UNL     1      -4.713  15.104   4.069  1.00  0.00     0.016 C 
BRANCH   3   5
ATOM      5  C   UNL     1      -5.036  15.416   6.613  1.00  0.00     0.015 C 
BRANCH   5   6
ATOM      6  C   UNL     1      -5.845  14.760   7.752  1.00  0.00     0.028 C 
BRANCH   6   7
ATOM      7  C   UNL     1      -6.336  13.393   7.347  1.00  0.00    -0.028 C 
ATOM      8  C   UNL     1      -5.884  12.228   7.870  1.00  0.00    -0.070 CG0
ATOM      9  C   UNL     1      -6.430  10.941   7.306  1.00  0.00     0.039 C 
ATOM     10  G   UNL     1      -4.869  12.168   9.004  1.00  0.00     0.000 G0
ENDBRANCH   6   7
ENDBRANCH   5   6
ENDBRANCH   3   5
ENDBRANCH   1   3
BRANCH   1  11
ATOM     11  C   UNL     1      -3.122  12.380   6.208  1.00  0.00     0.087 C 
BRANCH  11  12
ATOM     12  C   UNL     1      -2.596  12.257   7.666  1.00  0.00     0.066 C 
BRANCH  12  13
ATOM     13  C   UNL     1      -3.588  12.872   8.641  1.00  0.00     0.140 C 
ATOM     14  O   UNL     1      -3.378  13.988   9.098  1.00  0.00    -0.299 OA
BRANCH  13  15
ATOM     15  C   UNL     1      -4.865  12.152   8.996  1.00  0.00     0.106 CG0
ATOM     16  G   UNL     1      -5.896  12.209   7.877  1.00  0.00     0.000 G0
ENDBRANCH  13  15
ENDBRANCH  12  13
BRANCH  12  17
ATOM     17  C   UNL     1      -2.187  10.807   8.096  1.00  0.00    -0.006 C 
ATOM     18  C   UNL     1      -1.953   9.875   6.894  1.00  0.00     0.008 C 
ATOM     19  C   UNL     1      -0.911  10.834   8.959  1.00  0.00     0.008 C 
ENDBRANCH  12  17
ENDBRANCH  11  12
ENDBRANCH   1  11
TORSDOF 1
ENDMDL
