MODEL 1
REMARK VINA RESULT:    -6.643      0.000      0.000
REMARK INTER + INTRA:         -10.520
REMARK INTER:                  -9.749
REMARK INTRA:                  -0.770
REMARK UNBOUND:                -0.770
REMARK SMILES Cc1cc2c(C(C)C)c(O)c(O)c(C=O)c2c(O)c1-c1c(C)cc2c(C(C)C)c(O)c(O)c(C=O)c2c1O
REMARK SMILES IDX 1 1 2 2 3 3 4 4 16 5 13 6 11 7 9 8 5 9 17 10 19 11 20 12
REMARK SMILES IDX 37 13 21 14 36 15 23 16 22 17 24 18 33 19 25 20 31 21 29 22
REMARK SMILES IDX 38 23 34 25 35 26 26 27 27 28 28 29 32 30 30 32 18 34 6 36
REMARK SMILES IDX 7 37 8 38 14 39 15 40 10 41 12 43
REMARK H PARENT 38 24 32 31 30 33 18 35 10 42 12 44
REMARK Flexibility Score: inf
ROOT
ATOM      1  C   UNL     1     -12.036 -13.828  25.439  1.00  0.00     0.045 C 
ATOM      2  C   UNL     1     -11.011 -13.588  24.357  1.00  0.00    -0.039 A 
ATOM      3  C   UNL     1      -9.835 -14.338  24.346  1.00  0.00     0.013 A 
ATOM      4  C   UNL     1      -8.844 -14.155  23.358  1.00  0.00    -0.006 A 
ATOM      5  C   UNL     1      -8.985 -13.075  22.436  1.00  0.00     0.039 A 
ATOM      6  C   UNL     1      -7.888 -12.749  21.582  1.00  0.00     0.072 A 
ATOM      7  C   UNL     1      -6.693 -13.493  21.663  1.00  0.00     0.169 A 
ATOM      8  C   UNL     1      -6.605 -14.611  22.498  1.00  0.00     0.162 A 
ATOM      9  C   UNL     1      -7.703 -15.011  23.290  1.00  0.00     0.008 A 
ATOM     10  C   UNL     1     -10.224 -12.364  22.398  1.00  0.00     0.132 A 
ATOM     11  C   UNL     1     -11.225 -12.623  23.359  1.00  0.00     0.031 A 
ENDROOT
BRANCH  11  12
ATOM     12  C   UNL     1     -12.504 -11.866  23.333  1.00  0.00     0.031 A 
ATOM     13  C   UNL     1     -13.522 -12.224  22.423  1.00  0.00     0.132 A 
ATOM     14  C   UNL     1     -12.713 -10.818  24.244  1.00  0.00    -0.039 A 
ATOM     15  C   UNL     1     -14.733 -11.470  22.360  1.00  0.00     0.039 A 
ATOM     16  C   UNL     1     -13.935 -10.146  24.252  1.00  0.00     0.013 A 
ATOM     17  C   UNL     1     -11.667 -10.462  25.273  1.00  0.00     0.045 C 
ATOM     18  C   UNL     1     -14.945 -10.420  23.303  1.00  0.00    -0.006 A 
ATOM     19  C   UNL     1     -15.759 -11.765  21.415  1.00  0.00     0.072 A 
ATOM     20  C   UNL     1     -16.179  -9.699  23.308  1.00  0.00     0.008 A 
ATOM     21  C   UNL     1     -17.021 -11.158  21.537  1.00  0.00     0.169 A 
ATOM     22  C   UNL     1     -17.252 -10.194  22.534  1.00  0.00     0.162 A 
BRANCH  13  23
ATOM     23  O   UNL     1     -13.351 -13.355  21.618  1.00  0.00    -0.507 OA
ATOM     24  H   UNL     1     -14.090 -13.775  21.068  1.00  0.00     0.293 HD
ENDBRANCH  13  23
BRANCH  19  25
ATOM     25  C   UNL     1     -15.518 -12.633  20.235  1.00  0.00     0.264 C 
ATOM     26  O   UNL     1     -15.579 -12.174  19.063  1.00  0.00    -0.298 OA
ENDBRANCH  19  25
BRANCH  20  27
ATOM     27  C   UNL     1     -16.380  -8.439  24.170  1.00  0.00     0.017 C 
ATOM     28  C   UNL     1     -15.389  -7.340  23.773  1.00  0.00     0.012 C 
ATOM     29  C   UNL     1     -16.337  -8.709  25.686  1.00  0.00     0.012 C 
ENDBRANCH  20  27
BRANCH  21  30
ATOM     30  O   UNL     1     -18.022 -11.494  20.617  1.00  0.00    -0.504 OA
ATOM     31  H   UNL     1     -17.872 -12.067  19.799  1.00  0.00     0.293 HD
ENDBRANCH  21  30
BRANCH  22  32
ATOM     32  O   UNL     1     -18.545  -9.723  22.780  1.00  0.00    -0.504 OA
ATOM     33  H   UNL     1     -19.007  -9.019  22.222  1.00  0.00     0.293 HD
ENDBRANCH  22  32
ENDBRANCH  11  12
BRANCH  10  34
ATOM     34  O   UNL     1     -10.468 -11.419  21.394  1.00  0.00    -0.507 OA
ATOM     35  H   UNL     1      -9.787 -10.741  21.080  1.00  0.00     0.293 HD
ENDBRANCH  10  34
BRANCH   9  36
ATOM     36  C   UNL     1      -7.641 -16.339  24.067  1.00  0.00     0.017 C 
ATOM     37  C   UNL     1      -6.504 -16.320  25.092  1.00  0.00     0.012 C 
ATOM     38  C   UNL     1      -7.561 -17.582  23.162  1.00  0.00     0.012 C 
ENDBRANCH   9  36
BRANCH   6  39
ATOM     39  C   UNL     1      -7.928 -11.589  20.668  1.00  0.00     0.264 C 
ATOM     40  O   UNL     1      -7.855 -11.752  19.421  1.00  0.00    -0.298 OA
ENDBRANCH   6  39
BRANCH   8  41
ATOM     41  O   UNL     1      -5.404 -15.320  22.566  1.00  0.00    -0.504 OA
ATOM     42  H   UNL     1      -5.328 -16.242  22.978  1.00  0.00     0.293 HD
ENDBRANCH   8  41
BRANCH   7  43
ATOM     43  O   UNL     1      -5.554 -13.130  20.934  1.00  0.00    -0.504 OA
ATOM     44  H   UNL     1      -4.997 -12.308  21.124  1.00  0.00     0.293 HD
ENDBRANCH   7  43
TORSDOF 11
ENDMDL
MODEL 2
REMARK VINA RESULT:    -6.626      1.805      8.978
REMARK INTER + INTRA:         -10.495
REMARK INTER:                  -9.701
REMARK INTRA:                  -0.794
REMARK UNBOUND:                -0.770
REMARK SMILES Cc1cc2c(C(C)C)c(O)c(O)c(C=O)c2c(O)c1-c1c(C)cc2c(C(C)C)c(O)c(O)c(C=O)c2c1O
REMARK SMILES IDX 1 1 2 2 3 3 4 4 16 5 13 6 11 7 9 8 5 9 17 10 19 11 20 12
REMARK SMILES IDX 37 13 21 14 36 15 23 16 22 17 24 18 33 19 25 20 31 21 29 22
REMARK SMILES IDX 38 23 34 25 35 26 26 27 27 28 28 29 32 30 30 32 18 34 6 36
REMARK SMILES IDX 7 37 8 38 14 39 15 40 10 41 12 43
REMARK H PARENT 38 24 32 31 30 33 18 35 10 42 12 44
REMARK Flexibility Score: inf
ROOT
ATOM      1  C   UNL     1     -12.734 -13.314  21.109  1.00  0.00     0.045 C 
ATOM      2  C   UNL     1     -12.937 -12.326  22.232  1.00  0.00    -0.039 A 
ATOM      3  C   UNL     1     -14.165 -11.678  22.363  1.00  0.00     0.013 A 
ATOM      4  C   UNL     1     -14.408 -10.746  23.395  1.00  0.00    -0.006 A 
ATOM      5  C   UNL     1     -13.322 -10.350  24.233  1.00  0.00     0.039 A 
ATOM      6  C   UNL     1     -13.506  -9.253  25.128  1.00  0.00     0.072 A 
ATOM      7  C   UNL     1     -14.746  -8.583  25.169  1.00  0.00     0.169 A 
ATOM      8  C   UNL     1     -15.831  -9.045  24.417  1.00  0.00     0.162 A 
ATOM      9  C   UNL     1     -15.706 -10.181  23.588  1.00  0.00     0.008 A 
ATOM     10  C   UNL     1     -12.094 -11.074  24.149  1.00  0.00     0.132 A 
ATOM     11  C   UNL     1     -11.909 -12.052  23.149  1.00  0.00     0.031 A 
ENDROOT
BRANCH  11  12
ATOM     12  C   UNL     1     -10.620 -12.787  23.047  1.00  0.00     0.031 A 
ATOM     13  C   UNL     1      -9.643 -12.380  22.113  1.00  0.00     0.132 A 
ATOM     14  C   UNL     1     -10.361 -13.863  23.912  1.00  0.00    -0.039 A 
ATOM     15  C   UNL     1      -8.424 -13.111  21.978  1.00  0.00     0.039 A 
ATOM     16  C   UNL     1      -9.129 -14.515  23.850  1.00  0.00     0.013 A 
ATOM     17  C   UNL     1     -11.361 -14.272  24.966  1.00  0.00     0.045 C 
ATOM     18  C   UNL     1      -8.160 -14.191  22.874  1.00  0.00    -0.006 A 
ATOM     19  C   UNL     1      -7.440 -12.767  21.006  1.00  0.00     0.072 A 
ATOM     20  C   UNL     1      -6.916 -14.890  22.807  1.00  0.00     0.008 A 
ATOM     21  C   UNL     1      -6.164 -13.356  21.059  1.00  0.00     0.169 A 
ATOM     22  C   UNL     1      -5.881 -14.351  22.011  1.00  0.00     0.162 A 
BRANCH  13  23
ATOM     23  O   UNL     1      -9.862 -11.224  21.357  1.00  0.00    -0.507 OA
ATOM     24  H   UNL     1     -10.544 -11.156  20.613  1.00  0.00     0.293 HD
ENDBRANCH  13  23
BRANCH  19  25
ATOM     25  C   UNL     1      -7.739 -11.862  19.868  1.00  0.00     0.264 C 
ATOM     26  O   UNL     1      -7.353 -12.132  18.700  1.00  0.00    -0.298 OA
ENDBRANCH  19  25
BRANCH  20  27
ATOM     27  C   UNL     1      -6.664 -16.176  23.614  1.00  0.00     0.017 C 
ATOM     28  C   UNL     1      -7.689 -17.257  23.259  1.00  0.00     0.012 C 
ATOM     29  C   UNL     1      -6.594 -15.952  25.138  1.00  0.00     0.012 C 
ENDBRANCH  20  27
BRANCH  21  30
ATOM     30  O   UNL     1      -5.205 -12.972  20.115  1.00  0.00    -0.504 OA
ATOM     31  H   UNL     1      -5.403 -12.404  19.303  1.00  0.00     0.293 HD
ENDBRANCH  21  30
BRANCH  22  32
ATOM     32  O   UNL     1      -4.573 -14.809  22.191  1.00  0.00    -0.504 OA
ATOM     33  H   UNL     1      -4.320 -15.783  22.275  1.00  0.00     0.293 HD
ENDBRANCH  22  32
ENDBRANCH  11  12
BRANCH  10  34
ATOM     34  O   UNL     1     -11.067 -10.836  25.071  1.00  0.00    -0.507 OA
ATOM     35  H   UNL     1     -10.648 -11.554  25.648  1.00  0.00     0.293 HD
ENDBRANCH  10  34
BRANCH   9  36
ATOM     36  C   UNL     1     -16.953 -10.772  22.907  1.00  0.00     0.017 C 
ATOM     37  C   UNL     1     -17.253 -10.047  21.592  1.00  0.00     0.012 C 
ATOM     38  C   UNL     1     -18.194 -10.816  23.819  1.00  0.00     0.012 C 
ENDBRANCH   9  36
BRANCH   6  39
ATOM     39  C   UNL     1     -12.402  -8.730  25.959  1.00  0.00     0.264 C 
ATOM     40  O   UNL     1     -11.641  -7.827  25.520  1.00  0.00    -0.298 OA
ENDBRANCH   6  39
BRANCH   8  41
ATOM     41  O   UNL     1     -17.043  -8.353  24.469  1.00  0.00    -0.504 OA
ATOM     42  H   UNL     1     -17.175  -7.437  24.058  1.00  0.00     0.293 HD
ENDBRANCH   8  41
BRANCH   7  43
ATOM     43  O   UNL     1     -14.929  -7.428  25.940  1.00  0.00    -0.504 OA
ATOM     44  H   UNL     1     -14.898  -6.488  25.569  1.00  0.00     0.293 HD
ENDBRANCH   7  43
TORSDOF 11
ENDMDL
MODEL 3
REMARK VINA RESULT:    -6.300      0.802      8.958
REMARK INTER + INTRA:         -10.016
REMARK INTER:                  -9.184
REMARK INTRA:                  -0.832
REMARK UNBOUND:                -0.770
REMARK SMILES Cc1cc2c(C(C)C)c(O)c(O)c(C=O)c2c(O)c1-c1c(C)cc2c(C(C)C)c(O)c(O)c(C=O)c2c1O
REMARK SMILES IDX 1 1 2 2 3 3 4 4 16 5 13 6 11 7 9 8 5 9 17 10 19 11 20 12
REMARK SMILES IDX 37 13 21 14 36 15 23 16 22 17 24 18 33 19 25 20 31 21 29 22
REMARK SMILES IDX 38 23 34 25 35 26 26 27 27 28 28 29 32 30 30 32 18 34 6 36
REMARK SMILES IDX 7 37 8 38 14 39 15 40 10 41 12 43
REMARK H PARENT 38 24 32 31 30 33 18 35 10 42 12 44
REMARK Flexibility Score: inf
ROOT
ATOM      1  C   UNL     1     -10.878 -11.142  25.624  1.00  0.00     0.045 C 
ATOM      2  C   UNL     1     -12.008 -11.285  24.632  1.00  0.00    -0.039 A 
ATOM      3  C   UNL     1     -13.171 -10.536  24.805  1.00  0.00     0.013 A 
ATOM      4  C   UNL     1     -14.257 -10.630  23.908  1.00  0.00    -0.006 A 
ATOM      5  C   UNL     1     -14.219 -11.625  22.886  1.00  0.00     0.039 A 
ATOM      6  C   UNL     1     -15.398 -11.874  22.120  1.00  0.00     0.072 A 
ATOM      7  C   UNL     1     -16.572 -11.138  22.384  1.00  0.00     0.169 A 
ATOM      8  C   UNL     1     -16.566 -10.098  23.319  1.00  0.00     0.162 A 
ATOM      9  C   UNL     1     -15.391  -9.770  24.029  1.00  0.00     0.008 A 
ATOM     10  C   UNL     1     -12.996 -12.331  22.662  1.00  0.00     0.132 A 
ATOM     11  C   UNL     1     -11.903 -12.159  23.538  1.00  0.00     0.031 A 
ENDROOT
BRANCH  11  12
ATOM     12  C   UNL     1     -10.640 -12.912  23.318  1.00  0.00     0.031 A 
ATOM     13  C   UNL     1      -9.697 -12.456  22.372  1.00  0.00     0.132 A 
ATOM     14  C   UNL     1     -10.370 -14.057  24.084  1.00  0.00    -0.039 A 
ATOM     15  C   UNL     1      -8.506 -13.201  22.123  1.00  0.00     0.039 A 
ATOM     16  C   UNL     1      -9.160 -14.730  23.913  1.00  0.00     0.013 A 
ATOM     17  C   UNL     1     -11.330 -14.525  25.151  1.00  0.00     0.045 C 
ATOM     18  C   UNL     1      -8.229 -14.353  22.919  1.00  0.00    -0.006 A 
ATOM     19  C   UNL     1      -7.559 -12.804  21.133  1.00  0.00     0.072 A 
ATOM     20  C   UNL     1      -7.008 -15.073  22.739  1.00  0.00     0.008 A 
ATOM     21  C   UNL     1      -6.298 -13.425  21.080  1.00  0.00     0.169 A 
ATOM     22  C   UNL     1      -5.997 -14.497  21.938  1.00  0.00     0.162 A 
BRANCH  13  23
ATOM     23  O   UNL     1      -9.920 -11.239  21.718  1.00  0.00    -0.507 OA
ATOM     24  H   UNL     1     -10.816 -10.956  21.341  1.00  0.00     0.293 HD
ENDBRANCH  13  23
BRANCH  19  25
ATOM     25  C   UNL     1      -7.886 -11.807  20.084  1.00  0.00     0.264 C 
ATOM     26  O   UNL     1      -7.549 -11.987  18.884  1.00  0.00    -0.298 OA
ENDBRANCH  19  25
BRANCH  20  27
ATOM     27  C   UNL     1      -6.752 -16.424  23.432  1.00  0.00     0.017 C 
ATOM     28  C   UNL     1      -7.868 -17.424  23.113  1.00  0.00     0.012 C 
ATOM     29  C   UNL     1      -6.521 -16.310  24.951  1.00  0.00     0.012 C 
ENDBRANCH  20  27
BRANCH  21  30
ATOM     30  O   UNL     1      -5.373 -12.990  20.122  1.00  0.00    -0.504 OA
ATOM     31  H   UNL     1      -4.370 -13.058  20.230  1.00  0.00     0.293 HD
ENDBRANCH  21  30
BRANCH  22  32
ATOM     32  O   UNL     1      -4.695 -14.997  22.019  1.00  0.00    -0.504 OA
ATOM     33  H   UNL     1      -4.439 -15.835  22.522  1.00  0.00     0.293 HD
ENDBRANCH  22  32
ENDBRANCH  11  12
BRANCH  10  34
ATOM     34  O   UNL     1     -12.863 -13.184  21.561  1.00  0.00    -0.507 OA
ATOM     35  H   UNL     1     -13.139 -14.157  21.563  1.00  0.00     0.293 HD
ENDBRANCH  10  34
BRANCH   9  36
ATOM     36  C   UNL     1     -15.362  -8.516  24.921  1.00  0.00     0.017 C 
ATOM     37  C   UNL     1     -16.302  -8.675  26.120  1.00  0.00     0.012 C 
ATOM     38  C   UNL     1     -15.642  -7.207  24.159  1.00  0.00     0.012 C 
ENDBRANCH   9  36
BRANCH   6  39
ATOM     39  C   UNL     1     -15.460 -12.949  21.108  1.00  0.00     0.264 C 
ATOM     40  O   UNL     1     -15.599 -12.673  19.887  1.00  0.00    -0.298 OA
ENDBRANCH   6  39
BRANCH   8  41
ATOM     41  O   UNL     1     -17.747  -9.396  23.567  1.00  0.00    -0.504 OA
ATOM     42  H   UNL     1     -18.604  -9.555  23.051  1.00  0.00     0.293 HD
ENDBRANCH   8  41
BRANCH   7  43
ATOM     43  O   UNL     1     -17.781 -11.435  21.743  1.00  0.00    -0.504 OA
ATOM     44  H   UNL     1     -18.145 -10.920  20.953  1.00  0.00     0.293 HD
ENDBRANCH   7  43
TORSDOF 11
ENDMDL
MODEL 4
REMARK VINA RESULT:    -5.762      1.643      3.053
REMARK INTER + INTRA:          -9.228
REMARK INTER:                  -9.131
REMARK INTRA:                  -0.097
REMARK UNBOUND:                -0.770
REMARK SMILES Cc1cc2c(C(C)C)c(O)c(O)c(C=O)c2c(O)c1-c1c(C)cc2c(C(C)C)c(O)c(O)c(C=O)c2c1O
REMARK SMILES IDX 1 1 2 2 3 3 4 4 16 5 13 6 11 7 9 8 5 9 17 10 19 11 20 12
REMARK SMILES IDX 37 13 21 14 36 15 23 16 22 17 24 18 33 19 25 20 31 21 29 22
REMARK SMILES IDX 38 23 34 25 35 26 26 27 27 28 28 29 32 30 30 32 18 34 6 36
REMARK SMILES IDX 7 37 8 38 14 39 15 40 10 41 12 43
REMARK H PARENT 38 24 32 31 30 33 18 35 10 42 12 44
REMARK Flexibility Score: inf
ROOT
ATOM      1  C   UNL     1     -11.465 -11.121  20.837  1.00  0.00     0.045 C 
ATOM      2  C   UNL     1     -10.982 -12.036  21.935  1.00  0.00    -0.039 A 
ATOM      3  C   UNL     1      -9.739 -12.657  21.814  1.00  0.00     0.013 A 
ATOM      4  C   UNL     1      -9.238 -13.522  22.811  1.00  0.00    -0.006 A 
ATOM      5  C   UNL     1     -10.090 -13.883  23.897  1.00  0.00     0.039 A 
ATOM      6  C   UNL     1      -9.675 -14.922  24.784  1.00  0.00     0.072 A 
ATOM      7  C   UNL     1      -8.440 -15.570  24.574  1.00  0.00     0.169 A 
ATOM      8  C   UNL     1      -7.571 -15.137  23.567  1.00  0.00     0.162 A 
ATOM      9  C   UNL     1      -7.916 -14.054  22.729  1.00  0.00     0.008 A 
ATOM     10  C   UNL     1     -11.326 -13.184  24.061  1.00  0.00     0.132 A 
ATOM     11  C   UNL     1     -11.764 -12.270  23.079  1.00  0.00     0.031 A 
ENDROOT
BRANCH  11  12
ATOM     12  C   UNL     1     -13.061 -11.562  23.238  1.00  0.00     0.031 A 
ATOM     13  C   UNL     1     -14.191 -11.978  22.502  1.00  0.00     0.132 A 
ATOM     14  C   UNL     1     -13.170 -10.504  24.154  1.00  0.00    -0.039 A 
ATOM     15  C   UNL     1     -15.427 -11.272  22.614  1.00  0.00     0.039 A 
ATOM     16  C   UNL     1     -14.403  -9.878  24.340  1.00  0.00     0.013 A 
ATOM     17  C   UNL     1     -11.994 -10.087  25.005  1.00  0.00     0.045 C 
ATOM     18  C   UNL     1     -15.534 -10.210  23.562  1.00  0.00    -0.006 A 
ATOM     19  C   UNL     1     -16.572 -11.625  21.843  1.00  0.00     0.072 A 
ATOM     20  C   UNL     1     -16.781  -9.537  23.747  1.00  0.00     0.008 A 
ATOM     21  C   UNL     1     -17.825 -11.064  22.149  1.00  0.00     0.169 A 
ATOM     22  C   UNL     1     -17.939 -10.088  23.155  1.00  0.00     0.162 A 
BRANCH  13  23
ATOM     23  O   UNL     1     -14.100 -13.119  21.697  1.00  0.00    -0.507 OA
ATOM     24  H   UNL     1     -14.863 -13.768  21.548  1.00  0.00     0.293 HD
ENDBRANCH  13  23
BRANCH  19  25
ATOM     25  C   UNL     1     -16.480 -12.508  20.654  1.00  0.00     0.264 C 
ATOM     26  O   UNL     1     -16.986 -12.172  19.550  1.00  0.00    -0.298 OA
ENDBRANCH  19  25
BRANCH  20  27
ATOM     27  C   UNL     1     -16.898  -8.267  24.609  1.00  0.00     0.017 C 
ATOM     28  C   UNL     1     -15.870  -7.216  24.180  1.00  0.00     0.012 C 
ATOM     29  C   UNL     1     -16.824  -8.535  26.125  1.00  0.00     0.012 C 
ENDBRANCH  20  27
BRANCH  21  30
ATOM     30  O   UNL     1     -18.941 -11.456  21.400  1.00  0.00    -0.504 OA
ATOM     31  H   UNL     1     -19.707 -12.003  21.767  1.00  0.00     0.293 HD
ENDBRANCH  21  30
BRANCH  22  32
ATOM     32  O   UNL     1     -19.197  -9.661  23.589  1.00  0.00    -0.504 OA
ATOM     33  H   UNL     1     -20.067  -9.918  23.147  1.00  0.00     0.293 HD
ENDBRANCH  22  32
ENDBRANCH  11  12
BRANCH  10  34
ATOM     34  O   UNL     1     -12.105 -13.382  25.206  1.00  0.00    -0.507 OA
ATOM     35  H   UNL     1     -11.886 -12.990  26.113  1.00  0.00     0.293 HD
ENDBRANCH  10  34
BRANCH   9  36
ATOM     36  C   UNL     1      -6.875 -13.487  21.747  1.00  0.00     0.017 C 
ATOM     37  C   UNL     1      -7.137 -12.004  21.470  1.00  0.00     0.012 C 
ATOM     38  C   UNL     1      -6.758 -14.290  20.437  1.00  0.00     0.012 C 
ENDBRANCH   9  36
BRANCH   6  39
ATOM     39  C   UNL     1     -10.542 -15.412  25.875  1.00  0.00     0.264 C 
ATOM     40  O   UNL     1     -11.550 -16.124  25.623  1.00  0.00    -0.298 OA
ENDBRANCH   6  39
BRANCH   8  41
ATOM     41  O   UNL     1      -6.360 -15.807  23.375  1.00  0.00    -0.504 OA
ATOM     42  H   UNL     1      -6.297 -16.728  22.959  1.00  0.00     0.293 HD
ENDBRANCH   8  41
BRANCH   7  43
ATOM     43  O   UNL     1      -8.051 -16.674  25.343  1.00  0.00    -0.504 OA
ATOM     44  H   UNL     1      -7.117 -16.814  25.702  1.00  0.00     0.293 HD
ENDBRANCH   7  43
TORSDOF 11
ENDMDL
MODEL 5
REMARK VINA RESULT:    -5.082      1.805      3.344
REMARK INTER + INTRA:          -8.229
REMARK INTER:                  -7.849
REMARK INTRA:                  -0.380
REMARK UNBOUND:                -0.770
REMARK SMILES Cc1cc2c(C(C)C)c(O)c(O)c(C=O)c2c(O)c1-c1c(C)cc2c(C(C)C)c(O)c(O)c(C=O)c2c1O
REMARK SMILES IDX 1 1 2 2 3 3 4 4 16 5 13 6 11 7 9 8 5 9 17 10 19 11 20 12
REMARK SMILES IDX 37 13 21 14 36 15 23 16 22 17 24 18 33 19 25 20 31 21 29 22
REMARK SMILES IDX 38 23 34 25 35 26 26 27 27 28 28 29 32 30 30 32 18 34 6 36
REMARK SMILES IDX 7 37 8 38 14 39 15 40 10 41 12 43
REMARK H PARENT 38 24 32 31 30 33 18 35 10 42 12 44
REMARK Flexibility Score: inf
ROOT
ATOM      1  C   UNL     1     -11.590 -13.545  25.318  1.00  0.00     0.045 C 
ATOM      2  C   UNL     1     -10.593 -13.408  24.193  1.00  0.00    -0.039 A 
ATOM      3  C   UNL     1      -9.459 -14.220  24.177  1.00  0.00     0.013 A 
ATOM      4  C   UNL     1      -8.496 -14.134  23.149  1.00  0.00    -0.006 A 
ATOM      5  C   UNL     1      -8.612 -13.087  22.186  1.00  0.00     0.039 A 
ATOM      6  C   UNL     1      -7.531 -12.858  21.282  1.00  0.00     0.072 A 
ATOM      7  C   UNL     1      -6.374 -13.661  21.356  1.00  0.00     0.169 A 
ATOM      8  C   UNL     1      -6.316 -14.746  22.237  1.00  0.00     0.162 A 
ATOM      9  C   UNL     1      -7.405 -15.052  23.082  1.00  0.00     0.008 A 
ATOM     10  C   UNL     1      -9.813 -12.313  22.157  1.00  0.00     0.132 A 
ATOM     11  C   UNL     1     -10.791 -12.476  23.161  1.00  0.00     0.031 A 
ENDROOT
BRANCH  11  12
ATOM     12  C   UNL     1     -12.028 -11.651  23.144  1.00  0.00     0.031 A 
ATOM     13  C   UNL     1     -12.138 -10.520  23.981  1.00  0.00     0.132 A 
ATOM     14  C   UNL     1     -13.071 -11.978  22.263  1.00  0.00    -0.039 A 
ATOM     15  C   UNL     1     -13.342  -9.753  24.004  1.00  0.00     0.039 A 
ATOM     16  C   UNL     1     -14.208 -11.171  22.212  1.00  0.00     0.013 A 
ATOM     17  C   UNL     1     -12.948 -13.142  21.308  1.00  0.00     0.045 C 
ATOM     18  C   UNL     1     -14.390 -10.080  23.091  1.00  0.00    -0.006 A 
ATOM     19  C   UNL     1     -13.513  -8.640  24.878  1.00  0.00     0.072 A 
ATOM     20  C   UNL     1     -15.575  -9.282  23.043  1.00  0.00     0.008 A 
ATOM     21  C   UNL     1     -14.609  -7.775  24.707  1.00  0.00     0.169 A 
ATOM     22  C   UNL     1     -15.587  -8.052  23.737  1.00  0.00     0.162 A 
BRANCH  13  23
ATOM     23  O   UNL     1     -11.037 -10.130  24.750  1.00  0.00    -0.507 OA
ATOM     24  H   UNL     1     -10.255 -10.735  24.966  1.00  0.00     0.293 HD
ENDBRANCH  13  23
BRANCH  19  25
ATOM     25  C   UNL     1     -12.615  -8.402  26.035  1.00  0.00     0.264 C 
ATOM     26  O   UNL     1     -11.930  -7.348  26.125  1.00  0.00    -0.298 OA
ENDBRANCH  19  25
BRANCH  20  27
ATOM     27  C   UNL     1     -16.805  -9.705  22.220  1.00  0.00     0.017 C 
ATOM     28  C   UNL     1     -17.724 -10.618  23.037  1.00  0.00     0.012 C 
ATOM     29  C   UNL     1     -16.456 -10.336  20.859  1.00  0.00     0.012 C 
ENDBRANCH  20  27
BRANCH  21  30
ATOM     30  O   UNL     1     -14.732  -6.668  25.556  1.00  0.00    -0.504 OA
ATOM     31  H   UNL     1     -13.953  -6.211  26.009  1.00  0.00     0.293 HD
ENDBRANCH  21  30
BRANCH  22  32
ATOM     32  O   UNL     1     -16.575  -7.110  23.436  1.00  0.00    -0.504 OA
ATOM     33  H   UNL     1     -16.612  -6.181  23.832  1.00  0.00     0.293 HD
ENDBRANCH  22  32
ENDBRANCH  11  12
BRANCH  10  34
ATOM     34  O   UNL     1     -10.041 -11.399  21.121  1.00  0.00    -0.507 OA
ATOM     35  H   UNL     1     -10.187 -10.408  21.264  1.00  0.00     0.293 HD
ENDBRANCH  10  34
BRANCH   9  36
ATOM     36  C   UNL     1      -7.386 -16.347  23.913  1.00  0.00     0.017 C 
ATOM     37  C   UNL     1      -8.556 -17.259  23.532  1.00  0.00     0.012 C 
ATOM     38  C   UNL     1      -7.336 -16.106  25.434  1.00  0.00     0.012 C 
ENDBRANCH   9  36
BRANCH   6  39
ATOM     39  C   UNL     1      -7.542 -11.737  20.319  1.00  0.00     0.264 C 
ATOM     40  O   UNL     1      -6.465 -11.296  19.836  1.00  0.00    -0.298 OA
ENDBRANCH   6  39
BRANCH   8  41
ATOM     41  O   UNL     1      -5.152 -15.517  22.295  1.00  0.00    -0.504 OA
ATOM     42  H   UNL     1      -4.590 -15.606  23.133  1.00  0.00     0.293 HD
ENDBRANCH   8  41
BRANCH   7  43
ATOM     43  O   UNL     1      -5.244 -13.392  20.574  1.00  0.00    -0.504 OA
ATOM     44  H   UNL     1      -5.271 -12.906  19.688  1.00  0.00     0.293 HD
ENDBRANCH   7  43
TORSDOF 11
ENDMDL
MODEL 6
REMARK VINA RESULT:    -4.854      1.554      9.018
REMARK INTER + INTRA:          -7.894
REMARK INTER:                  -7.994
REMARK INTRA:                   0.100
REMARK UNBOUND:                -0.770
REMARK SMILES Cc1cc2c(C(C)C)c(O)c(O)c(C=O)c2c(O)c1-c1c(C)cc2c(C(C)C)c(O)c(O)c(C=O)c2c1O
REMARK SMILES IDX 1 1 2 2 3 3 4 4 16 5 13 6 11 7 9 8 5 9 17 10 19 11 20 12
REMARK SMILES IDX 37 13 21 14 36 15 23 16 22 17 24 18 33 19 25 20 31 21 29 22
REMARK SMILES IDX 38 23 34 25 35 26 26 27 27 28 28 29 32 30 30 32 18 34 6 36
REMARK SMILES IDX 7 37 8 38 14 39 15 40 10 41 12 43
REMARK H PARENT 38 24 32 31 30 33 18 35 10 42 12 44
REMARK Flexibility Score: inf
ROOT
ATOM      1  C   UNL     1     -11.666 -10.773  25.069  1.00  0.00     0.045 C 
ATOM      2  C   UNL     1     -12.849 -10.911  24.141  1.00  0.00    -0.039 A 
ATOM      3  C   UNL     1     -14.093 -10.420  24.536  1.00  0.00     0.013 A 
ATOM      4  C   UNL     1     -15.231 -10.522  23.707  1.00  0.00    -0.006 A 
ATOM      5  C   UNL     1     -15.136 -11.277  22.500  1.00  0.00     0.039 A 
ATOM      6  C   UNL     1     -16.330 -11.570  21.773  1.00  0.00     0.072 A 
ATOM      7  C   UNL     1     -17.573 -11.112  22.256  1.00  0.00     0.169 A 
ATOM      8  C   UNL     1     -17.640 -10.288  23.385  1.00  0.00     0.162 A 
ATOM      9  C   UNL     1     -16.468  -9.909  24.074  1.00  0.00     0.008 A 
ATOM     10  C   UNL     1     -13.846 -11.706  22.060  1.00  0.00     0.132 A 
ATOM     11  C   UNL     1     -12.714 -11.523  22.884  1.00  0.00     0.031 A 
ENDROOT
BRANCH  11  12
ATOM     12  C   UNL     1     -11.377 -11.992  22.435  1.00  0.00     0.031 A 
ATOM     13  C   UNL     1     -10.837 -13.191  22.948  1.00  0.00     0.132 A 
ATOM     14  C   UNL     1     -10.669 -11.260  21.469  1.00  0.00    -0.039 A 
ATOM     15  C   UNL     1      -9.533 -13.621  22.558  1.00  0.00     0.039 A 
ATOM     16  C   UNL     1      -9.439 -11.733  21.011  1.00  0.00     0.013 A 
ATOM     17  C   UNL     1     -11.257 -10.013  20.853  1.00  0.00     0.045 C 
ATOM     18  C   UNL     1      -8.829 -12.882  21.560  1.00  0.00    -0.006 A 
ATOM     19  C   UNL     1      -8.930 -14.794  23.100  1.00  0.00     0.072 A 
ATOM     20  C   UNL     1      -7.553 -13.334  21.099  1.00  0.00     0.008 A 
ATOM     21  C   UNL     1      -7.755 -15.310  22.523  1.00  0.00     0.169 A 
ATOM     22  C   UNL     1      -7.121 -14.626  21.472  1.00  0.00     0.162 A 
BRANCH  13  23
ATOM     23  O   UNL     1     -11.613 -13.978  23.806  1.00  0.00    -0.507 OA
ATOM     24  H   UNL     1     -12.473 -13.664  24.237  1.00  0.00     0.293 HD
ENDBRANCH  13  23
BRANCH  19  25
ATOM     25  C   UNL     1      -9.450 -15.455  24.322  1.00  0.00     0.264 C 
ATOM     26  O   UNL     1     -10.062 -16.555  24.260  1.00  0.00    -0.298 OA
ENDBRANCH  19  25
BRANCH  20  27
ATOM     27  C   UNL     1      -6.674 -12.474  20.174  1.00  0.00     0.017 C 
ATOM     28  C   UNL     1      -7.325 -12.309  18.797  1.00  0.00     0.012 C 
ATOM     29  C   UNL     1      -5.223 -12.978  20.048  1.00  0.00     0.012 C 
ENDBRANCH  20  27
BRANCH  21  30
ATOM     30  O   UNL     1      -7.205 -16.484  23.051  1.00  0.00    -0.504 OA
ATOM     31  H   UNL     1      -6.238 -16.583  23.328  1.00  0.00     0.293 HD
ENDBRANCH  21  30
BRANCH  22  32
ATOM     32  O   UNL     1      -6.065 -15.218  20.774  1.00  0.00    -0.504 OA
ATOM     33  H   UNL     1      -5.603 -16.070  21.061  1.00  0.00     0.293 HD
ENDBRANCH  22  32
ENDBRANCH  11  12
BRANCH  10  34
ATOM     34  O   UNL     1     -13.687 -12.293  20.800  1.00  0.00    -0.507 OA
ATOM     35  H   UNL     1     -13.017 -13.024  20.597  1.00  0.00     0.293 HD
ENDBRANCH  10  34
BRANCH   9  36
ATOM     36  C   UNL     1     -16.549  -8.867  25.204  1.00  0.00     0.017 C 
ATOM     37  C   UNL     1     -17.740  -9.150  26.125  1.00  0.00     0.012 C 
ATOM     38  C   UNL     1     -16.562  -7.410  24.703  1.00  0.00     0.012 C 
ENDBRANCH   9  36
BRANCH   6  39
ATOM     39  C   UNL     1     -16.320 -12.422  20.566  1.00  0.00     0.264 C 
ATOM     40  O   UNL     1     -16.542 -11.926  19.430  1.00  0.00    -0.298 OA
ENDBRANCH   6  39
BRANCH   8  41
ATOM     41  O   UNL     1     -18.887  -9.861  23.845  1.00  0.00    -0.504 OA
ATOM     42  H   UNL     1     -19.430  -9.140  23.385  1.00  0.00     0.293 HD
ENDBRANCH   8  41
BRANCH   7  43
ATOM     43  O   UNL     1     -18.777 -11.480  21.643  1.00  0.00    -0.504 OA
ATOM     44  H   UNL     1     -19.678 -11.452  22.101  1.00  0.00     0.293 HD
ENDBRANCH   7  43
TORSDOF 11
ENDMDL
MODEL 7
REMARK VINA RESULT:    -4.783      2.265      3.877
REMARK INTER + INTRA:          -7.790
REMARK INTER:                  -7.638
REMARK INTRA:                  -0.152
REMARK UNBOUND:                -0.770
REMARK SMILES Cc1cc2c(C(C)C)c(O)c(O)c(C=O)c2c(O)c1-c1c(C)cc2c(C(C)C)c(O)c(O)c(C=O)c2c1O
REMARK SMILES IDX 1 1 2 2 3 3 4 4 16 5 13 6 11 7 9 8 5 9 17 10 19 11 20 12
REMARK SMILES IDX 37 13 21 14 36 15 23 16 22 17 24 18 33 19 25 20 31 21 29 22
REMARK SMILES IDX 38 23 34 25 35 26 26 27 27 28 28 29 32 30 30 32 18 34 6 36
REMARK SMILES IDX 7 37 8 38 14 39 15 40 10 41 12 43
REMARK H PARENT 38 24 32 31 30 33 18 35 10 42 12 44
REMARK Flexibility Score: inf
ROOT
ATOM      1  C   UNL     1      -8.528 -11.875  22.270  1.00  0.00     0.045 C 
ATOM      2  C   UNL     1      -8.321 -13.044  23.202  1.00  0.00    -0.039 A 
ATOM      3  C   UNL     1      -7.053 -13.612  23.319  1.00  0.00     0.013 A 
ATOM      4  C   UNL     1      -6.804 -14.706  24.176  1.00  0.00    -0.006 A 
ATOM      5  C   UNL     1      -7.909 -15.336  24.823  1.00  0.00     0.039 A 
ATOM      6  C   UNL     1      -7.694 -16.570  25.510  1.00  0.00     0.072 A 
ATOM      7  C   UNL     1      -6.405 -17.141  25.536  1.00  0.00     0.169 A 
ATOM      8  C   UNL     1      -5.313 -16.462  24.984  1.00  0.00     0.162 A 
ATOM      9  C   UNL     1      -5.479 -15.199  24.376  1.00  0.00     0.008 A 
ATOM     10  C   UNL     1      -9.188 -14.703  24.766  1.00  0.00     0.132 A 
ATOM     11  C   UNL     1      -9.386 -13.566  23.954  1.00  0.00     0.031 A 
ENDROOT
BRANCH  11  12
ATOM     12  C   UNL     1     -10.725 -12.923  23.877  1.00  0.00     0.031 A 
ATOM     13  C   UNL     1     -11.578 -13.192  22.785  1.00  0.00     0.132 A 
ATOM     14  C   UNL     1     -11.154 -12.079  24.913  1.00  0.00    -0.039 A 
ATOM     15  C   UNL     1     -12.844 -12.541  22.681  1.00  0.00     0.039 A 
ATOM     16  C   UNL     1     -12.432 -11.521  24.863  1.00  0.00     0.013 A 
ATOM     17  C   UNL     1     -10.287 -11.832  26.125  1.00  0.00     0.045 C 
ATOM     18  C   UNL     1     -13.281 -11.700  23.748  1.00  0.00    -0.006 A 
ATOM     19  C   UNL     1     -13.708 -12.742  21.564  1.00  0.00     0.072 A 
ATOM     20  C   UNL     1     -14.576 -11.096  23.701  1.00  0.00     0.008 A 
ATOM     21  C   UNL     1     -15.033 -12.273  21.609  1.00  0.00     0.169 A 
ATOM     22  C   UNL     1     -15.486 -11.527  22.711  1.00  0.00     0.162 A 
BRANCH  13  23
ATOM     23  O   UNL     1     -11.191 -14.141  21.833  1.00  0.00    -0.507 OA
ATOM     24  H   UNL     1     -10.880 -13.909  20.898  1.00  0.00     0.293 HD
ENDBRANCH  13  23
BRANCH  19  25
ATOM     25  C   UNL     1     -13.232 -13.358  20.301  1.00  0.00     0.264 C 
ATOM     26  O   UNL     1     -13.474 -12.828  19.184  1.00  0.00    -0.298 OA
ENDBRANCH  19  25
BRANCH  20  27
ATOM     27  C   UNL     1     -15.013 -10.034  24.726  1.00  0.00     0.017 C 
ATOM     28  C   UNL     1     -16.504 -10.169  25.053  1.00  0.00     0.012 C 
ATOM     29  C   UNL     1     -14.659  -8.591  24.318  1.00  0.00     0.012 C 
ENDBRANCH  20  27
BRANCH  21  30
ATOM     30  O   UNL     1     -15.871 -12.516  20.513  1.00  0.00    -0.504 OA
ATOM     31  H   UNL     1     -16.630 -13.183  20.517  1.00  0.00     0.293 HD
ENDBRANCH  21  30
BRANCH  22  32
ATOM     32  O   UNL     1     -16.841 -11.216  22.849  1.00  0.00    -0.504 OA
ATOM     33  H   UNL     1     -17.595 -11.816  22.544  1.00  0.00     0.293 HD
ENDBRANCH  22  32
ENDBRANCH  11  12
BRANCH  10  34
ATOM     34  O   UNL     1     -10.254 -15.191  25.531  1.00  0.00    -0.507 OA
ATOM     35  H   UNL     1     -10.476 -14.868  26.463  1.00  0.00     0.293 HD
ENDBRANCH  10  34
BRANCH   9  36
ATOM     36  C   UNL     1      -4.242 -14.396  23.933  1.00  0.00     0.017 C 
ATOM     37  C   UNL     1      -3.690 -14.930  22.608  1.00  0.00     0.012 C 
ATOM     38  C   UNL     1      -3.141 -14.312  25.006  1.00  0.00     0.012 C 
ENDBRANCH   9  36
BRANCH   6  39
ATOM     39  C   UNL     1      -8.805 -17.325  26.125  1.00  0.00     0.264 C 
ATOM     40  O   UNL     1      -8.824 -18.583  26.085  1.00  0.00    -0.298 OA
ENDBRANCH   6  39
BRANCH   8  41
ATOM     41  O   UNL     1      -4.051 -17.059  25.016  1.00  0.00    -0.504 OA
ATOM     42  H   UNL     1      -3.671 -17.507  25.841  1.00  0.00     0.293 HD
ENDBRANCH   8  41
BRANCH   7  43
ATOM     43  O   UNL     1      -6.176 -18.406  26.090  1.00  0.00    -0.504 OA
ATOM     44  H   UNL     1      -5.279 -18.874  26.085  1.00  0.00     0.293 HD
ENDBRANCH   7  43
TORSDOF 11
ENDMDL
MODEL 8
REMARK VINA RESULT:    -4.577      2.316      9.145
REMARK INTER + INTRA:          -7.488
REMARK INTER:                  -7.789
REMARK INTRA:                   0.302
REMARK UNBOUND:                -0.770
REMARK SMILES Cc1cc2c(C(C)C)c(O)c(O)c(C=O)c2c(O)c1-c1c(C)cc2c(C(C)C)c(O)c(O)c(C=O)c2c1O
REMARK SMILES IDX 1 1 2 2 3 3 4 4 16 5 13 6 11 7 9 8 5 9 17 10 19 11 20 12
REMARK SMILES IDX 37 13 21 14 36 15 23 16 22 17 24 18 33 19 25 20 31 21 29 22
REMARK SMILES IDX 38 23 34 25 35 26 26 27 27 28 28 29 32 30 30 32 18 34 6 36
REMARK SMILES IDX 7 37 8 38 14 39 15 40 10 41 12 43
REMARK H PARENT 38 24 32 31 30 33 18 35 10 42 12 44
REMARK Flexibility Score: inf
ROOT
ATOM      1  C   UNL     1     -12.980 -13.117  21.002  1.00  0.00     0.045 C 
ATOM      2  C   UNL     1     -13.289 -12.192  22.154  1.00  0.00    -0.039 A 
ATOM      3  C   UNL     1     -14.545 -11.590  22.234  1.00  0.00     0.013 A 
ATOM      4  C   UNL     1     -14.887 -10.718  23.290  1.00  0.00    -0.006 A 
ATOM      5  C   UNL     1     -13.872 -10.329  24.215  1.00  0.00     0.039 A 
ATOM      6  C   UNL     1     -14.151  -9.283  25.145  1.00  0.00     0.072 A 
ATOM      7  C   UNL     1     -15.414  -8.655  25.135  1.00  0.00     0.169 A 
ATOM      8  C   UNL     1     -16.431  -9.115  24.292  1.00  0.00     0.162 A 
ATOM      9  C   UNL     1     -16.213 -10.205  23.422  1.00  0.00     0.008 A 
ATOM     10  C   UNL     1     -12.616 -11.008  24.179  1.00  0.00     0.132 A 
ATOM     11  C   UNL     1     -12.332 -11.931  23.149  1.00  0.00     0.031 A 
ENDROOT
BRANCH  11  12
ATOM     12  C   UNL     1     -11.015 -12.618  23.099  1.00  0.00     0.031 A 
ATOM     13  C   UNL     1     -10.737 -13.683  23.983  1.00  0.00     0.132 A 
ATOM     14  C   UNL     1     -10.063 -12.232  22.142  1.00  0.00    -0.039 A 
ATOM     15  C   UNL     1      -9.457 -14.315  23.972  1.00  0.00     0.039 A 
ATOM     16  C   UNL     1      -8.850 -12.916  22.063  1.00  0.00     0.013 A 
ATOM     17  C   UNL     1     -10.364 -11.144  21.140  1.00  0.00     0.045 C 
ATOM     18  C   UNL     1      -8.502 -13.930  22.984  1.00  0.00    -0.006 A 
ATOM     19  C   UNL     1      -9.119 -15.354  24.889  1.00  0.00     0.072 A 
ATOM     20  C   UNL     1      -7.241 -14.599  22.905  1.00  0.00     0.008 A 
ATOM     21  C   UNL     1      -7.946 -16.105  24.696  1.00  0.00     0.169 A 
ATOM     22  C   UNL     1      -7.057 -15.781  23.657  1.00  0.00     0.162 A 
BRANCH  13  23
ATOM     23  O   UNL     1     -11.746 -14.144  24.835  1.00  0.00    -0.507 OA
ATOM     24  H   UNL     1     -11.619 -14.887  25.511  1.00  0.00     0.293 HD
ENDBRANCH  13  23
BRANCH  19  25
ATOM     25  C   UNL     1      -9.922 -15.621  26.108  1.00  0.00     0.264 C 
ATOM     26  O   UNL     1     -10.995 -16.279  26.052  1.00  0.00    -0.298 OA
ENDBRANCH  19  25
BRANCH  20  27
ATOM     27  C   UNL     1      -6.111 -14.095  21.990  1.00  0.00     0.017 C 
ATOM     28  C   UNL     1      -6.299 -14.601  20.557  1.00  0.00     0.012 C 
ATOM     29  C   UNL     1      -4.697 -14.414  22.515  1.00  0.00     0.012 C 
ENDBRANCH  20  27
BRANCH  21  30
ATOM     30  O   UNL     1      -7.657 -17.144  25.590  1.00  0.00    -0.504 OA
ATOM     31  H   UNL     1      -7.418 -17.005  26.563  1.00  0.00     0.293 HD
ENDBRANCH  21  30
BRANCH  22  32
ATOM     32  O   UNL     1      -5.990 -16.628  23.345  1.00  0.00    -0.504 OA
ATOM     33  H   UNL     1      -5.254 -16.873  23.991  1.00  0.00     0.293 HD
ENDBRANCH  22  32
ENDBRANCH  11  12
BRANCH  10  34
ATOM     34  O   UNL     1     -11.660 -10.783  25.177  1.00  0.00    -0.507 OA
ATOM     35  H   UNL     1     -11.818 -10.200  25.989  1.00  0.00     0.293 HD
ENDBRANCH  10  34
BRANCH   9  36
ATOM     36  C   UNL     1     -17.393 -10.801  22.633  1.00  0.00     0.017 C 
ATOM     37  C   UNL     1     -17.552 -10.104  21.279  1.00  0.00     0.012 C 
ATOM     38  C   UNL     1     -18.718 -10.814  23.418  1.00  0.00     0.012 C 
ENDBRANCH   9  36
BRANCH   6  39
ATOM     39  C   UNL     1     -13.122  -8.766  26.071  1.00  0.00     0.264 C 
ATOM     40  O   UNL     1     -12.791  -7.551  26.048  1.00  0.00    -0.298 OA
ENDBRANCH   6  39
BRANCH   8  41
ATOM     41  O   UNL     1     -17.667  -8.465  24.297  1.00  0.00    -0.504 OA
ATOM     42  H   UNL     1     -18.396  -8.668  24.969  1.00  0.00     0.293 HD
ENDBRANCH   8  41
BRANCH   7  43
ATOM     43  O   UNL     1     -15.687  -7.546  25.945  1.00  0.00    -0.504 OA
ATOM     44  H   UNL     1     -15.618  -7.549  26.954  1.00  0.00     0.293 HD
ENDBRANCH   7  43
TORSDOF 11
ENDMDL
MODEL 9
REMARK VINA RESULT:    -4.162      2.274      4.310
REMARK INTER + INTRA:          -6.879
REMARK INTER:                  -6.913
REMARK INTRA:                   0.034
REMARK UNBOUND:                -0.770
REMARK SMILES Cc1cc2c(C(C)C)c(O)c(O)c(C=O)c2c(O)c1-c1c(C)cc2c(C(C)C)c(O)c(O)c(C=O)c2c1O
REMARK SMILES IDX 1 1 2 2 3 3 4 4 16 5 13 6 11 7 9 8 5 9 17 10 19 11 20 12
REMARK SMILES IDX 37 13 21 14 36 15 23 16 22 17 24 18 33 19 25 20 31 21 29 22
REMARK SMILES IDX 38 23 34 25 35 26 26 27 27 28 28 29 32 30 30 32 18 34 6 36
REMARK SMILES IDX 7 37 8 38 14 39 15 40 10 41 12 43
REMARK H PARENT 38 24 32 31 30 33 18 35 10 42 12 44
REMARK Flexibility Score: inf
ROOT
ATOM      1  C   UNL     1     -11.622 -10.844  20.738  1.00  0.00     0.045 C 
ATOM      2  C   UNL     1     -10.993 -11.742  21.776  1.00  0.00    -0.039 A 
ATOM      3  C   UNL     1      -9.714 -12.252  21.558  1.00  0.00     0.013 A 
ATOM      4  C   UNL     1      -9.079 -13.096  22.495  1.00  0.00    -0.006 A 
ATOM      5  C   UNL     1      -9.826 -13.554  23.622  1.00  0.00     0.039 A 
ATOM      6  C   UNL     1      -9.268 -14.575  24.450  1.00  0.00     0.072 A 
ATOM      7  C   UNL     1      -8.000 -15.111  24.143  1.00  0.00     0.169 A 
ATOM      8  C   UNL     1      -7.238 -14.582  23.096  1.00  0.00     0.162 A 
ATOM      9  C   UNL     1      -7.725 -13.513  22.314  1.00  0.00     0.008 A 
ATOM     10  C   UNL     1     -11.101 -12.966  23.884  1.00  0.00     0.132 A 
ATOM     11  C   UNL     1     -11.677 -12.068  22.959  1.00  0.00     0.031 A 
ENDROOT
BRANCH  11  12
ATOM     12  C   UNL     1     -13.015 -11.476  23.221  1.00  0.00     0.031 A 
ATOM     13  C   UNL     1     -13.137 -10.335  24.043  1.00  0.00     0.132 A 
ATOM     14  C   UNL     1     -14.154 -12.032  22.616  1.00  0.00    -0.039 A 
ATOM     15  C   UNL     1     -14.424  -9.791  24.337  1.00  0.00     0.039 A 
ATOM     16  C   UNL     1     -15.400 -11.441  22.822  1.00  0.00     0.013 A 
ATOM     17  C   UNL     1     -14.040 -13.210  21.678  1.00  0.00     0.045 C 
ATOM     18  C   UNL     1     -15.574 -10.349  23.702  1.00  0.00    -0.006 A 
ATOM     19  C   UNL     1     -14.592  -8.676  25.209  1.00  0.00     0.072 A 
ATOM     20  C   UNL     1     -16.864  -9.776  23.923  1.00  0.00     0.008 A 
ATOM     21  C   UNL     1     -15.837  -8.028  25.288  1.00  0.00     0.169 A 
ATOM     22  C   UNL     1     -16.944  -8.528  24.580  1.00  0.00     0.162 A 
BRANCH  13  23
ATOM     23  O   UNL     1     -11.980  -9.714  24.525  1.00  0.00    -0.507 OA
ATOM     24  H   UNL     1     -11.564  -9.915  25.425  1.00  0.00     0.293 HD
ENDBRANCH  13  23
BRANCH  19  25
ATOM     25  C   UNL     1     -13.512  -8.217  26.119  1.00  0.00     0.264 C 
ATOM     26  O   UNL     1     -12.891  -7.142  25.905  1.00  0.00    -0.298 OA
ENDBRANCH  19  25
BRANCH  20  27
ATOM     27  C   UNL     1     -18.151 -10.455  23.420  1.00  0.00     0.017 C 
ATOM     28  C   UNL     1     -18.391 -10.145  21.939  1.00  0.00     0.012 C 
ATOM     29  C   UNL     1     -19.397 -10.133  24.268  1.00  0.00     0.012 C 
ENDBRANCH  20  27
BRANCH  21  30
ATOM     30  O   UNL     1     -15.965  -6.913  26.125  1.00  0.00    -0.504 OA
ATOM     31  H   UNL     1     -15.391  -6.747  26.940  1.00  0.00     0.293 HD
ENDBRANCH  21  30
BRANCH  22  32
ATOM     32  O   UNL     1     -18.130  -7.793  24.506  1.00  0.00    -0.504 OA
ATOM     33  H   UNL     1     -19.047  -8.177  24.687  1.00  0.00     0.293 HD
ENDBRANCH  22  32
ENDBRANCH  11  12
BRANCH  10  34
ATOM     34  O   UNL     1     -11.785 -13.256  25.071  1.00  0.00    -0.507 OA
ATOM     35  H   UNL     1     -12.338 -14.091  25.214  1.00  0.00     0.293 HD
ENDBRANCH  10  34
BRANCH   9  36
ATOM     36  C   UNL     1      -6.802 -12.836  21.285  1.00  0.00     0.017 C 
ATOM     37  C   UNL     1      -7.357 -11.471  20.867  1.00  0.00     0.012 C 
ATOM     38  C   UNL     1      -6.492 -13.715  20.059  1.00  0.00     0.012 C 
ENDBRANCH   9  36
BRANCH   6  39
ATOM     39  C   UNL     1     -10.019 -15.162  25.579  1.00  0.00     0.264 C 
ATOM     40  O   UNL     1     -10.872 -16.067  25.380  1.00  0.00    -0.298 OA
ENDBRANCH   6  39
BRANCH   8  41
ATOM     41  O   UNL     1      -5.991 -15.142  22.808  1.00  0.00    -0.504 OA
ATOM     42  H   UNL     1      -5.862 -16.124  22.596  1.00  0.00     0.293 HD
ENDBRANCH   8  41
BRANCH   7  43
ATOM     43  O   UNL     1      -7.473 -16.196  24.853  1.00  0.00    -0.504 OA
ATOM     44  H   UNL     1      -7.921 -17.100  24.924  1.00  0.00     0.293 HD
ENDBRANCH   7  43
TORSDOF 11
ENDMDL
