MODEL 1
REMARK VINA RESULT:    -5.540      0.000      0.000
REMARK INTER + INTRA:          -6.411
REMARK INTER:                  -6.187
REMARK INTRA:                  -0.223
REMARK UNBOUND:                -0.223
REMARK SMILES O=C([O-])c1ccccc1C(=O)[O-]
REMARK SMILES IDX 4 1 9 2 5 3 8 4 6 5 7 6 2 7 1 8 3 9 10 10 11 11 12 12
REMARK H PARENT
REMARK Flexibility Score: inf
ROOT
ATOM      1  C   UNL     1     -13.833  -4.517  29.277  1.00  0.00     0.006 A 
ATOM      2  C   UNL     1     -14.417  -5.506  30.118  1.00  0.00     0.006 A 
ATOM      3  C   UNL     1     -14.069  -4.572  27.891  1.00  0.00     0.010 A 
ATOM      4  C   UNL     1     -15.266  -6.472  29.550  1.00  0.00     0.010 A 
ATOM      5  C   UNL     1     -14.898  -5.553  27.346  1.00  0.00     0.001 A 
ATOM      6  C   UNL     1     -15.504  -6.494  28.175  1.00  0.00     0.001 A 
ENDROOT
BRANCH   1   7
ATOM      7  C   UNL     1     -13.041  -3.383  29.806  1.00  0.00     0.072 C 
ATOM      8  O   UNL     1     -13.619  -2.331  30.192  1.00  0.00    -0.545 OA
ATOM      9  O   UNL     1     -11.662  -3.484  29.946  1.00  0.00    -0.545 OA
ENDBRANCH   1   7
BRANCH   2  10
ATOM     10  C   UNL     1     -14.117  -5.611  31.565  1.00  0.00     0.072 C 
ATOM     11  O   UNL     1     -13.240  -6.410  31.985  1.00  0.00    -0.545 OA
ATOM     12  O   UNL     1     -14.855  -4.874  32.485  1.00  0.00    -0.545 OA
ENDBRANCH   2  10
TORSDOF 2
ENDMDL
MODEL 2
REMARK VINA RESULT:    -5.530      0.050      3.151
REMARK INTER + INTRA:          -6.400
REMARK INTER:                  -6.181
REMARK INTRA:                  -0.219
REMARK UNBOUND:                -0.223
REMARK SMILES O=C([O-])c1ccccc1C(=O)[O-]
REMARK SMILES IDX 4 1 9 2 5 3 8 4 6 5 7 6 2 7 1 8 3 9 10 10 11 11 12 12
REMARK H PARENT
REMARK Flexibility Score: inf
ROOT
ATOM      1  C   UNL     1     -14.441  -5.512  30.144  1.00  0.00     0.006 A 
ATOM      2  C   UNL     1     -13.841  -4.510  29.331  1.00  0.00     0.006 A 
ATOM      3  C   UNL     1     -15.276  -6.472  29.542  1.00  0.00     0.010 A 
ATOM      4  C   UNL     1     -14.046  -4.545  27.940  1.00  0.00     0.010 A 
ATOM      5  C   UNL     1     -15.483  -6.474  28.162  1.00  0.00     0.001 A 
ATOM      6  C   UNL     1     -14.860  -5.519  27.362  1.00  0.00     0.001 A 
ENDROOT
BRANCH   1   7
ATOM      7  C   UNL     1     -14.168  -5.636  31.595  1.00  0.00     0.072 C 
ATOM      8  O   UNL     1     -13.253  -6.398  32.005  1.00  0.00    -0.545 OA
ATOM      9  O   UNL     1     -14.871  -4.869  32.516  1.00  0.00    -0.545 OA
ENDBRANCH   1   7
BRANCH   2  10
ATOM     10  C   UNL     1     -13.061  -3.381  29.889  1.00  0.00     0.072 C 
ATOM     11  O   UNL     1     -13.627  -2.305  30.214  1.00  0.00    -0.545 OA
ATOM     12  O   UNL     1     -11.677  -3.476  29.996  1.00  0.00    -0.545 OA
ENDBRANCH   2  10
TORSDOF 2
ENDMDL
MODEL 3
REMARK VINA RESULT:    -5.063      1.765      3.519
REMARK INTER + INTRA:          -5.878
REMARK INTER:                  -5.672
REMARK INTRA:                  -0.206
REMARK UNBOUND:                -0.223
REMARK SMILES O=C([O-])c1ccccc1C(=O)[O-]
REMARK SMILES IDX 4 1 9 2 5 3 8 4 6 5 7 6 2 7 1 8 3 9 10 10 11 11 12 12
REMARK H PARENT
REMARK Flexibility Score: inf
ROOT
ATOM      1  C   UNL     1     -15.235  -6.760  29.511  1.00  0.00     0.006 A 
ATOM      2  C   UNL     1     -14.558  -5.744  30.242  1.00  0.00     0.006 A 
ATOM      3  C   UNL     1     -15.510  -6.555  28.147  1.00  0.00     0.010 A 
ATOM      4  C   UNL     1     -14.125  -4.589  29.565  1.00  0.00     0.010 A 
ATOM      5  C   UNL     1     -15.090  -5.392  27.501  1.00  0.00     0.001 A 
ATOM      6  C   UNL     1     -14.388  -4.416  28.206  1.00  0.00     0.001 A 
ENDROOT
BRANCH   1   7
ATOM      7  C   UNL     1     -15.602  -8.065  30.109  1.00  0.00     0.072 C 
ATOM      8  O   UNL     1     -14.854  -9.067  29.953  1.00  0.00    -0.545 OA
ATOM      9  O   UNL     1     -16.738  -8.188  30.900  1.00  0.00    -0.545 OA
ENDBRANCH   1   7
BRANCH   2  10
ATOM     10  C   UNL     1     -14.345  -5.810  31.706  1.00  0.00     0.072 C 
ATOM     11  O   UNL     1     -13.336  -6.391  32.185  1.00  0.00    -0.545 OA
ATOM     12  O   UNL     1     -15.298  -5.286  32.573  1.00  0.00    -0.545 OA
ENDBRANCH   2  10
TORSDOF 2
ENDMDL
MODEL 4
REMARK VINA RESULT:    -5.057      1.808      3.221
REMARK INTER + INTRA:          -5.871
REMARK INTER:                  -5.660
REMARK INTRA:                  -0.211
REMARK UNBOUND:                -0.223
REMARK SMILES O=C([O-])c1ccccc1C(=O)[O-]
REMARK SMILES IDX 4 1 9 2 5 3 8 4 6 5 7 6 2 7 1 8 3 9 10 10 11 11 12 12
REMARK H PARENT
REMARK Flexibility Score: inf
ROOT
ATOM      1  C   UNL     1     -14.595  -5.817  30.303  1.00  0.00     0.006 A 
ATOM      2  C   UNL     1     -15.261  -6.832  29.561  1.00  0.00     0.006 A 
ATOM      3  C   UNL     1     -14.163  -4.654  29.638  1.00  0.00     0.010 A 
ATOM      4  C   UNL     1     -15.527  -6.618  28.196  1.00  0.00     0.010 A 
ATOM      5  C   UNL     1     -14.418  -4.473  28.278  1.00  0.00     0.001 A 
ATOM      6  C   UNL     1     -15.109  -5.448  27.562  1.00  0.00     0.001 A 
ENDROOT
BRANCH   1   7
ATOM      7  C   UNL     1     -14.398  -5.896  31.769  1.00  0.00     0.072 C 
ATOM      8  O   UNL     1     -13.376  -6.461  32.242  1.00  0.00    -0.545 OA
ATOM      9  O   UNL     1     -15.299  -5.294  32.639  1.00  0.00    -0.545 OA
ENDBRANCH   1   7
BRANCH   2  10
ATOM     10  C   UNL     1     -15.630  -8.144  30.142  1.00  0.00     0.072 C 
ATOM     11  O   UNL     1     -16.756  -8.317  30.677  1.00  0.00    -0.545 OA
ATOM     12  O   UNL     1     -14.706  -9.182  30.162  1.00  0.00    -0.545 OA
ENDBRANCH   2  10
TORSDOF 2
ENDMDL
MODEL 5
REMARK VINA RESULT:    -4.847      1.827      3.434
REMARK INTER + INTRA:          -5.637
REMARK INTER:                  -5.700
REMARK INTRA:                   0.063
REMARK UNBOUND:                -0.223
REMARK SMILES O=C([O-])c1ccccc1C(=O)[O-]
REMARK SMILES IDX 4 1 9 2 5 3 8 4 6 5 7 6 2 7 1 8 3 9 10 10 11 11 12 12
REMARK H PARENT
REMARK Flexibility Score: inf
ROOT
ATOM      1  C   UNL     1     -14.507  -5.198  29.445  1.00  0.00     0.006 A 
ATOM      2  C   UNL     1     -13.760  -4.427  30.379  1.00  0.00     0.006 A 
ATOM      3  C   UNL     1     -15.319  -6.246  29.918  1.00  0.00     0.010 A 
ATOM      4  C   UNL     1     -13.903  -4.690  31.753  1.00  0.00     0.010 A 
ATOM      5  C   UNL     1     -15.429  -6.503  31.285  1.00  0.00     0.001 A 
ATOM      6  C   UNL     1     -14.731  -5.719  32.201  1.00  0.00     0.001 A 
ENDROOT
BRANCH   1   7
ATOM      7  C   UNL     1     -14.525  -4.901  27.994  1.00  0.00     0.072 C 
ATOM      8  O   UNL     1     -14.515  -5.840  27.154  1.00  0.00    -0.545 OA
ATOM      9  O   UNL     1     -14.619  -3.591  27.540  1.00  0.00    -0.545 OA
ENDBRANCH   1   7
BRANCH   2  10
ATOM     10  C   UNL     1     -12.777  -3.397  29.969  1.00  0.00     0.072 C 
ATOM     11  O   UNL     1     -11.614  -3.721  29.614  1.00  0.00    -0.545 OA
ATOM     12  O   UNL     1     -13.110  -2.048  30.039  1.00  0.00    -0.545 OA
ENDBRANCH   2  10
TORSDOF 2
ENDMDL
MODEL 6
REMARK VINA RESULT:    -4.829      2.551      4.118
REMARK INTER + INTRA:          -5.617
REMARK INTER:                  -5.422
REMARK INTRA:                  -0.195
REMARK UNBOUND:                -0.223
REMARK SMILES O=C([O-])c1ccccc1C(=O)[O-]
REMARK SMILES IDX 4 1 9 2 5 3 8 4 6 5 7 6 2 7 1 8 3 9 10 10 11 11 12 12
REMARK H PARENT
REMARK Flexibility Score: inf
ROOT
ATOM      1  C   UNL     1     -14.946  -6.391  29.962  1.00  0.00     0.006 A 
ATOM      2  C   UNL     1     -15.275  -6.846  28.654  1.00  0.00     0.006 A 
ATOM      3  C   UNL     1     -14.418  -5.096  30.122  1.00  0.00     0.010 A 
ATOM      4  C   UNL     1     -15.125  -5.967  27.566  1.00  0.00     0.010 A 
ATOM      5  C   UNL     1     -14.257  -4.249  29.026  1.00  0.00     0.001 A 
ATOM      6  C   UNL     1     -14.621  -4.680  27.752  1.00  0.00     0.001 A 
ENDROOT
BRANCH   1   7
ATOM      7  C   UNL     1     -15.203  -7.196  31.178  1.00  0.00     0.072 C 
ATOM      8  O   UNL     1     -14.241  -7.680  31.832  1.00  0.00    -0.545 OA
ATOM      9  O   UNL     1     -16.498  -7.374  31.650  1.00  0.00    -0.545 OA
ENDBRANCH   1   7
BRANCH   2  10
ATOM     10  C   UNL     1     -15.707  -8.234  28.370  1.00  0.00     0.072 C 
ATOM     11  O   UNL     1     -14.863  -9.164  28.272  1.00  0.00    -0.545 OA
ATOM     12  O   UNL     1     -17.049  -8.514  28.139  1.00  0.00    -0.545 OA
ENDBRANCH   2  10
TORSDOF 2
ENDMDL
MODEL 7
REMARK VINA RESULT:    -4.811      1.775      3.324
REMARK INTER + INTRA:          -5.597
REMARK INTER:                  -5.670
REMARK INTRA:                   0.073
REMARK UNBOUND:                -0.223
REMARK SMILES O=C([O-])c1ccccc1C(=O)[O-]
REMARK SMILES IDX 4 1 9 2 5 3 8 4 6 5 7 6 2 7 1 8 3 9 10 10 11 11 12 12
REMARK H PARENT
REMARK Flexibility Score: inf
ROOT
ATOM      1  C   UNL     1     -13.770  -4.494  30.452  1.00  0.00     0.006 A 
ATOM      2  C   UNL     1     -14.496  -5.200  29.452  1.00  0.00     0.006 A 
ATOM      3  C   UNL     1     -13.927  -4.864  31.801  1.00  0.00     0.010 A 
ATOM      4  C   UNL     1     -15.299  -6.291  29.833  1.00  0.00     0.010 A 
ATOM      5  C   UNL     1     -14.747  -5.935  32.157  1.00  0.00     0.001 A 
ATOM      6  C   UNL     1     -15.423  -6.654  31.174  1.00  0.00     0.001 A 
ENDROOT
BRANCH   1   7
ATOM      7  C   UNL     1     -12.795  -3.426  30.129  1.00  0.00     0.072 C 
ATOM      8  O   UNL     1     -11.655  -3.723  29.682  1.00  0.00    -0.545 OA
ATOM      9  O   UNL     1     -13.144  -2.087  30.253  1.00  0.00    -0.545 OA
ENDBRANCH   1   7
BRANCH   2  10
ATOM     10  C   UNL     1     -14.502  -4.799  28.026  1.00  0.00     0.072 C 
ATOM     11  O   UNL     1     -14.632  -3.591  27.697  1.00  0.00    -0.545 OA
ATOM     12  O   UNL     1     -14.431  -5.766  27.029  1.00  0.00    -0.545 OA
ENDBRANCH   2  10
TORSDOF 2
ENDMDL
MODEL 8
REMARK VINA RESULT:    -4.633      1.692      3.714
REMARK INTER + INTRA:          -5.398
REMARK INTER:                  -5.481
REMARK INTRA:                   0.084
REMARK UNBOUND:                -0.223
REMARK SMILES O=C([O-])c1ccccc1C(=O)[O-]
REMARK SMILES IDX 4 1 9 2 5 3 8 4 6 5 7 6 2 7 1 8 3 9 10 10 11 11 12 12
REMARK H PARENT
REMARK Flexibility Score: inf
ROOT
ATOM      1  C   UNL     1     -15.429  -6.950  30.833  1.00  0.00     0.006 A 
ATOM      2  C   UNL     1     -15.137  -6.376  29.565  1.00  0.00     0.006 A 
ATOM      3  C   UNL     1     -16.198  -8.128  30.891  1.00  0.00     0.010 A 
ATOM      4  C   UNL     1     -15.569  -7.036  28.400  1.00  0.00     0.010 A 
ATOM      5  C   UNL     1     -16.636  -8.753  29.723  1.00  0.00     0.001 A 
ATOM      6  C   UNL     1     -16.312  -8.214  28.480  1.00  0.00     0.001 A 
ENDROOT
BRANCH   1   7
ATOM      7  C   UNL     1     -14.895  -6.402  32.102  1.00  0.00     0.072 C 
ATOM      8  O   UNL     1     -13.830  -6.862  32.593  1.00  0.00    -0.545 OA
ATOM      9  O   UNL     1     -15.523  -5.334  32.732  1.00  0.00    -0.545 OA
ENDBRANCH   1   7
BRANCH   2  10
ATOM     10  C   UNL     1     -14.453  -5.071  29.409  1.00  0.00     0.072 C 
ATOM     11  O   UNL     1     -14.901  -4.200  28.617  1.00  0.00    -0.545 OA
ATOM     12  O   UNL     1     -13.266  -4.820  30.088  1.00  0.00    -0.545 OA
ENDBRANCH   2  10
TORSDOF 2
ENDMDL
MODEL 9
REMARK VINA RESULT:    -4.589      1.695      2.394
REMARK INTER + INTRA:          -5.349
REMARK INTER:                  -5.491
REMARK INTRA:                   0.142
REMARK UNBOUND:                -0.223
REMARK SMILES O=C([O-])c1ccccc1C(=O)[O-]
REMARK SMILES IDX 4 1 9 2 5 3 8 4 6 5 7 6 2 7 1 8 3 9 10 10 11 11 12 12
REMARK H PARENT
REMARK Flexibility Score: inf
ROOT
ATOM      1  C   UNL     1     -15.137  -6.360  29.505  1.00  0.00     0.006 A 
ATOM      2  C   UNL     1     -15.394  -6.946  30.776  1.00  0.00     0.006 A 
ATOM      3  C   UNL     1     -15.583  -7.018  28.344  1.00  0.00     0.010 A 
ATOM      4  C   UNL     1     -16.145  -8.135  30.840  1.00  0.00     0.010 A 
ATOM      5  C   UNL     1     -16.306  -8.208  28.432  1.00  0.00     0.001 A 
ATOM      6  C   UNL     1     -16.596  -8.759  29.678  1.00  0.00     0.001 A 
ENDROOT
BRANCH   1   7
ATOM      7  C   UNL     1     -14.479  -5.042  29.351  1.00  0.00     0.072 C 
ATOM      8  O   UNL     1     -13.430  -4.777  29.997  1.00  0.00    -0.545 OA
ATOM      9  O   UNL     1     -14.968  -4.106  28.448  1.00  0.00    -0.545 OA
ENDBRANCH   1   7
BRANCH   2  10
ATOM     10  C   UNL     1     -14.849  -6.401  32.041  1.00  0.00     0.072 C 
ATOM     11  O   UNL     1     -13.792  -6.868  32.541  1.00  0.00    -0.545 OA
ATOM     12  O   UNL     1     -15.540  -5.409  32.727  1.00  0.00    -0.545 OA
ENDBRANCH   2  10
TORSDOF 2
ENDMDL
