MODEL 1
REMARK VINA RESULT:    -3.901      0.000      0.000
REMARK INTER + INTRA:          -4.472
REMARK INTER:                  -4.357
REMARK INTRA:                  -0.116
REMARK UNBOUND:                -0.116
REMARK SMILES COc1cc2ccc(=O)oc2cc1OC
REMARK SMILES IDX 3 1 13 2 12 3 11 4 5 5 4 6 6 7 7 8 8 9 9 10 10 11 2 12 1 13
REMARK SMILES IDX 14 14 15 15
REMARK H PARENT
REMARK Flexibility Score: inf
ROOT
ATOM      1  C   UNL     1      75.041  40.762  20.437  1.00  0.00     0.161 A 
ATOM      2  C   UNL     1      74.585  39.543  19.907  1.00  0.00     0.164 A 
ATOM      3  C   UNL     1      73.259  39.130  20.145  1.00  0.00     0.098 A 
ATOM      4  C   UNL     1      72.396  39.925  20.902  1.00  0.00     0.142 A 
ATOM      5  C   UNL     1      72.852  41.148  21.433  1.00  0.00     0.022 A 
ATOM      6  C   UNL     1      74.169  41.563  21.200  1.00  0.00     0.062 A 
ATOM      7  C   UNL     1      71.963  41.921  22.187  1.00  0.00     0.019 A 
ATOM      8  C   UNL     1      70.661  41.464  22.390  1.00  0.00     0.094 A 
ATOM      9  C   UNL     1      70.279  40.240  21.833  1.00  0.00     0.336 A 
ATOM     10  O   UNL     1      69.108  39.810  22.004  1.00  0.00    -0.246 OA
ATOM     11  O   UNL     1      71.145  39.525  21.120  1.00  0.00    -0.423 OA
ENDROOT
BRANCH   1  12
ATOM     12  O   UNL     1      76.368  41.143  20.181  1.00  0.00    -0.493 OA
ATOM     13  C   UNL     1      77.230  41.760  21.132  1.00  0.00     0.278 C 
ENDBRANCH   1  12
BRANCH   2  14
ATOM     14  O   UNL     1      75.481  38.770  19.152  1.00  0.00    -0.493 OA
ATOM     15  C   UNL     1      75.187  38.212  17.875  1.00  0.00     0.278 C 
ENDBRANCH   2  14
TORSDOF 2
ENDMDL
MODEL 2
REMARK VINA RESULT:    -3.750      2.655      3.890
REMARK INTER + INTRA:          -4.304
REMARK INTER:                  -4.185
REMARK INTRA:                  -0.119
REMARK UNBOUND:                -0.116
REMARK SMILES COc1cc2ccc(=O)oc2cc1OC
REMARK SMILES IDX 3 1 13 2 12 3 11 4 5 5 4 6 6 7 7 8 8 9 9 10 10 11 2 12 1 13
REMARK SMILES IDX 14 14 15 15
REMARK H PARENT
REMARK Flexibility Score: inf
ROOT
ATOM      1  C   UNL     1      76.416  41.194  19.779  1.00  0.00     0.161 A 
ATOM      2  C   UNL     1      75.989  41.144  21.117  1.00  0.00     0.164 A 
ATOM      3  C   UNL     1      74.995  40.222  21.499  1.00  0.00     0.098 A 
ATOM      4  C   UNL     1      74.433  39.356  20.558  1.00  0.00     0.142 A 
ATOM      5  C   UNL     1      74.860  39.406  19.216  1.00  0.00     0.022 A 
ATOM      6  C   UNL     1      75.847  40.321  18.830  1.00  0.00     0.062 A 
ATOM      7  C   UNL     1      74.277  38.527  18.297  1.00  0.00     0.019 A 
ATOM      8  C   UNL     1      73.297  37.634  18.731  1.00  0.00     0.094 A 
ATOM      9  C   UNL     1      72.923  37.643  20.078  1.00  0.00     0.336 A 
ATOM     10  O   UNL     1      72.041  36.844  20.490  1.00  0.00    -0.246 OA
ATOM     11  O   UNL     1      73.494  38.489  20.930  1.00  0.00    -0.423 OA
ENDROOT
BRANCH   1  12
ATOM     12  O   UNL     1      77.408  42.125  19.431  1.00  0.00    -0.493 OA
ATOM     13  C   UNL     1      78.209  42.052  18.257  1.00  0.00     0.278 C 
ENDBRANCH   1  12
BRANCH   2  14
ATOM     14  O   UNL     1      76.577  42.028  22.035  1.00  0.00    -0.493 OA
ATOM     15  C   UNL     1      77.563  41.658  22.993  1.00  0.00     0.278 C 
ENDBRANCH   2  14
TORSDOF 2
ENDMDL
MODEL 3
REMARK VINA RESULT:    -3.747      1.490      4.939
REMARK INTER + INTRA:          -4.301
REMARK INTER:                  -4.185
REMARK INTRA:                  -0.116
REMARK UNBOUND:                -0.116
REMARK SMILES COc1cc2ccc(=O)oc2cc1OC
REMARK SMILES IDX 3 1 13 2 12 3 11 4 5 5 4 6 6 7 7 8 8 9 9 10 10 11 2 12 1 13
REMARK SMILES IDX 14 14 15 15
REMARK H PARENT
REMARK Flexibility Score: inf
ROOT
ATOM      1  C   UNL     1      72.983  39.544  20.714  1.00  0.00     0.161 A 
ATOM      2  C   UNL     1      73.416  39.155  19.434  1.00  0.00     0.164 A 
ATOM      3  C   UNL     1      74.653  39.619  18.944  1.00  0.00     0.098 A 
ATOM      4  C   UNL     1      75.452  40.460  19.722  1.00  0.00     0.142 A 
ATOM      5  C   UNL     1      75.018  40.850  21.005  1.00  0.00     0.022 A 
ATOM      6  C   UNL     1      73.790  40.393  21.497  1.00  0.00     0.062 A 
ATOM      7  C   UNL     1      75.841  41.694  21.758  1.00  0.00     0.019 A 
ATOM      8  C   UNL     1      77.057  42.122  21.224  1.00  0.00     0.094 A 
ATOM      9  C   UNL     1      77.420  41.695  19.943  1.00  0.00     0.336 A 
ATOM     10  O   UNL     1      78.513  42.069  19.443  1.00  0.00    -0.246 OA
ATOM     11  O   UNL     1      76.618  40.892  19.248  1.00  0.00    -0.423 OA
ENDROOT
BRANCH   1  12
ATOM     12  O   UNL     1      71.746  39.064  21.171  1.00  0.00    -0.493 OA
ATOM     13  C   UNL     1      70.794  39.841  21.891  1.00  0.00     0.278 C 
ENDBRANCH   1  12
BRANCH   2  14
ATOM     14  O   UNL     1      72.587  38.309  18.681  1.00  0.00    -0.493 OA
ATOM     15  C   UNL     1      73.023  37.116  18.038  1.00  0.00     0.278 C 
ENDBRANCH   2  14
TORSDOF 2
ENDMDL
MODEL 4
REMARK VINA RESULT:    -3.616      1.890      5.195
REMARK INTER + INTRA:          -4.154
REMARK INTER:                  -4.054
REMARK INTRA:                  -0.100
REMARK UNBOUND:                -0.116
REMARK SMILES COc1cc2ccc(=O)oc2cc1OC
REMARK SMILES IDX 3 1 13 2 12 3 11 4 5 5 4 6 6 7 7 8 8 9 9 10 10 11 2 12 1 13
REMARK SMILES IDX 14 14 15 15
REMARK H PARENT
REMARK Flexibility Score: inf
ROOT
ATOM      1  C   UNL     1      72.847  40.818  19.437  1.00  0.00     0.161 A 
ATOM      2  C   UNL     1      72.469  40.677  20.783  1.00  0.00     0.164 A 
ATOM      3  C   UNL     1      73.430  40.843  21.800  1.00  0.00     0.098 A 
ATOM      4  C   UNL     1      74.755  41.148  21.479  1.00  0.00     0.142 A 
ATOM      5  C   UNL     1      75.134  41.290  20.129  1.00  0.00     0.022 A 
ATOM      6  C   UNL     1      74.184  41.126  19.114  1.00  0.00     0.062 A 
ATOM      7  C   UNL     1      76.468  41.596  19.840  1.00  0.00     0.019 A 
ATOM      8  C   UNL     1      77.378  41.750  20.886  1.00  0.00     0.094 A 
ATOM      9  C   UNL     1      76.929  41.593  22.201  1.00  0.00     0.336 A 
ATOM     10  O   UNL     1      77.733  41.728  23.160  1.00  0.00    -0.246 OA
ATOM     11  O   UNL     1      75.654  41.303  22.447  1.00  0.00    -0.423 OA
ENDROOT
BRANCH   1  12
ATOM     12  O   UNL     1      71.864  40.646  18.449  1.00  0.00    -0.493 OA
ATOM     13  C   UNL     1      71.098  41.702  17.878  1.00  0.00     0.278 C 
ENDBRANCH   1  12
BRANCH   2  14
ATOM     14  O   UNL     1      71.129  40.370  21.068  1.00  0.00    -0.493 OA
ATOM     15  C   UNL     1      70.537  40.465  22.360  1.00  0.00     0.278 C 
ENDBRANCH   2  14
TORSDOF 2
ENDMDL
MODEL 5
REMARK VINA RESULT:    -3.551      2.036      2.563
REMARK INTER + INTRA:          -4.082
REMARK INTER:                  -4.003
REMARK INTRA:                  -0.079
REMARK UNBOUND:                -0.116
REMARK SMILES COc1cc2ccc(=O)oc2cc1OC
REMARK SMILES IDX 3 1 13 2 12 3 11 4 5 5 4 6 6 7 7 8 8 9 9 10 10 11 2 12 1 13
REMARK SMILES IDX 14 14 15 15
REMARK H PARENT
REMARK Flexibility Score: inf
ROOT
ATOM      1  C   UNL     1      73.573  40.335  21.557  1.00  0.00     0.161 A 
ATOM      2  C   UNL     1      73.679  41.127  20.401  1.00  0.00     0.164 A 
ATOM      3  C   UNL     1      72.512  41.592  19.763  1.00  0.00     0.098 A 
ATOM      4  C   UNL     1      71.252  41.272  20.273  1.00  0.00     0.142 A 
ATOM      5  C   UNL     1      71.145  40.478  21.432  1.00  0.00     0.022 A 
ATOM      6  C   UNL     1      72.300  40.012  22.070  1.00  0.00     0.062 A 
ATOM      7  C   UNL     1      69.868  40.175  21.917  1.00  0.00     0.019 A 
ATOM      8  C   UNL     1      68.746  40.662  21.246  1.00  0.00     0.094 A 
ATOM      9  C   UNL     1      68.930  41.444  20.101  1.00  0.00     0.336 A 
ATOM     10  O   UNL     1      67.931  41.894  19.481  1.00  0.00    -0.246 OA
ATOM     11  O   UNL     1      70.156  41.717  19.662  1.00  0.00    -0.423 OA
ENDROOT
BRANCH   1  12
ATOM     12  O   UNL     1      74.756  39.888  22.168  1.00  0.00    -0.493 OA
ATOM     13  C   UNL     1      75.507  40.635  23.119  1.00  0.00     0.278 C 
ENDBRANCH   1  12
BRANCH   2  14
ATOM     14  O   UNL     1      74.962  41.428  19.918  1.00  0.00    -0.493 OA
ATOM     15  C   UNL     1      75.615  40.722  18.868  1.00  0.00     0.278 C 
ENDBRANCH   2  14
TORSDOF 2
ENDMDL
MODEL 6
REMARK VINA RESULT:    -3.468      2.030      2.736
REMARK INTER + INTRA:          -3.989
REMARK INTER:                  -3.884
REMARK INTRA:                  -0.105
REMARK UNBOUND:                -0.116
REMARK SMILES COc1cc2ccc(=O)oc2cc1OC
REMARK SMILES IDX 3 1 13 2 12 3 11 4 5 5 4 6 6 7 7 8 8 9 9 10 10 11 2 12 1 13
REMARK SMILES IDX 14 14 15 15
REMARK H PARENT
REMARK Flexibility Score: inf
ROOT
ATOM      1  C   UNL     1      75.553  41.698  21.023  1.00  0.00     0.161 A 
ATOM      2  C   UNL     1      75.399  41.113  22.292  1.00  0.00     0.164 A 
ATOM      3  C   UNL     1      74.127  40.674  22.709  1.00  0.00     0.098 A 
ATOM      4  C   UNL     1      73.019  40.815  21.870  1.00  0.00     0.142 A 
ATOM      5  C   UNL     1      73.173  41.401  20.598  1.00  0.00     0.022 A 
ATOM      6  C   UNL     1      74.434  41.840  20.178  1.00  0.00     0.062 A 
ATOM      7  C   UNL     1      72.044  41.529  19.781  1.00  0.00     0.019 A 
ATOM      8  C   UNL     1      70.808  41.076  20.245  1.00  0.00     0.094 A 
ATOM      9  C   UNL     1      70.732  40.506  21.520  1.00  0.00     0.336 A 
ATOM     10  O   UNL     1      69.627  40.090  21.957  1.00  0.00    -0.246 OA
ATOM     11  O   UNL     1      71.822  40.397  22.275  1.00  0.00    -0.423 OA
ENDROOT
BRANCH   1  12
ATOM     12  O   UNL     1      76.834  42.125  20.639  1.00  0.00    -0.493 OA
ATOM     13  C   UNL     1      77.350  42.043  19.314  1.00  0.00     0.278 C 
ENDBRANCH   1  12
BRANCH   2  14
ATOM     14  O   UNL     1      76.534  40.988  23.108  1.00  0.00    -0.493 OA
ATOM     15  C   UNL     1      76.577  40.244  24.321  1.00  0.00     0.278 C 
ENDBRANCH   2  14
TORSDOF 2
ENDMDL
MODEL 7
REMARK VINA RESULT:    -3.321      1.802      5.225
REMARK INTER + INTRA:          -3.825
REMARK INTER:                  -3.691
REMARK INTRA:                  -0.134
REMARK UNBOUND:                -0.116
REMARK SMILES COc1cc2ccc(=O)oc2cc1OC
REMARK SMILES IDX 3 1 13 2 12 3 11 4 5 5 4 6 6 7 7 8 8 9 9 10 10 11 2 12 1 13
REMARK SMILES IDX 14 14 15 15
REMARK H PARENT
REMARK Flexibility Score: inf
ROOT
ATOM      1  C   UNL     1      72.284  41.359  20.988  1.00  0.00     0.161 A 
ATOM      2  C   UNL     1      72.487  41.264  19.601  1.00  0.00     0.164 A 
ATOM      3  C   UNL     1      73.793  41.346  19.079  1.00  0.00     0.098 A 
ATOM      4  C   UNL     1      74.886  41.518  19.931  1.00  0.00     0.142 A 
ATOM      5  C   UNL     1      74.683  41.613  21.322  1.00  0.00     0.022 A 
ATOM      6  C   UNL     1      73.388  41.534  21.847  1.00  0.00     0.062 A 
ATOM      7  C   UNL     1      75.799  41.785  22.148  1.00  0.00     0.019 A 
ATOM      8  C   UNL     1      77.069  41.858  21.578  1.00  0.00     0.094 A 
ATOM      9  C   UNL     1      77.194  41.757  20.189  1.00  0.00     0.336 A 
ATOM     10  O   UNL     1      78.332  41.819  19.653  1.00  0.00    -0.246 OA
ATOM     11  O   UNL     1      76.116  41.593  19.426  1.00  0.00    -0.423 OA
ENDROOT
BRANCH   1  12
ATOM     12  O   UNL     1      70.969  41.275  21.475  1.00  0.00    -0.493 OA
ATOM     13  C   UNL     1      70.497  40.262  22.357  1.00  0.00     0.278 C 
ENDBRANCH   1  12
BRANCH   2  14
ATOM     14  O   UNL     1      71.365  41.092  18.775  1.00  0.00    -0.493 OA
ATOM     15  C   UNL     1      70.769  42.125  17.998  1.00  0.00     0.278 C 
ENDBRANCH   2  14
TORSDOF 2
ENDMDL
MODEL 8
REMARK VINA RESULT:    -3.306      2.390      2.952
REMARK INTER + INTRA:          -3.808
REMARK INTER:                  -3.703
REMARK INTRA:                  -0.105
REMARK UNBOUND:                -0.116
REMARK SMILES COc1cc2ccc(=O)oc2cc1OC
REMARK SMILES IDX 3 1 13 2 12 3 11 4 5 5 4 6 6 7 7 8 8 9 9 10 10 11 2 12 1 13
REMARK SMILES IDX 14 14 15 15
REMARK H PARENT
REMARK Flexibility Score: inf
ROOT
ATOM      1  C   UNL     1      75.639  41.323  22.188  1.00  0.00     0.161 A 
ATOM      2  C   UNL     1      76.019  41.638  20.872  1.00  0.00     0.164 A 
ATOM      3  C   UNL     1      75.034  41.769  19.873  1.00  0.00     0.098 A 
ATOM      4  C   UNL     1      73.684  41.591  20.182  1.00  0.00     0.142 A 
ATOM      5  C   UNL     1      73.302  41.275  21.502  1.00  0.00     0.022 A 
ATOM      6  C   UNL     1      74.276  41.142  22.498  1.00  0.00     0.062 A 
ATOM      7  C   UNL     1      71.942  41.101  21.779  1.00  0.00     0.019 A 
ATOM      8  C   UNL     1      71.010  41.244  20.751  1.00  0.00     0.094 A 
ATOM      9  C   UNL     1      71.463  41.558  19.466  1.00  0.00     0.336 A 
ATOM     10  O   UNL     1      70.637  41.692  18.525  1.00  0.00    -0.246 OA
ATOM     11  O   UNL     1      72.762  41.718  19.230  1.00  0.00    -0.423 OA
ENDROOT
BRANCH   1  12
ATOM     12  O   UNL     1      76.646  41.199  23.159  1.00  0.00    -0.493 OA
ATOM     13  C   UNL     1      76.622  40.265  24.233  1.00  0.00     0.278 C 
ENDBRANCH   1  12
BRANCH   2  14
ATOM     14  O   UNL     1      77.385  41.811  20.598  1.00  0.00    -0.493 OA
ATOM     15  C   UNL     1      77.917  42.121  19.314  1.00  0.00     0.278 C 
ENDBRANCH   2  14
TORSDOF 2
ENDMDL
MODEL 9
REMARK VINA RESULT:    -2.502      2.667      4.249
REMARK INTER + INTRA:          -2.910
REMARK INTER:                  -2.783
REMARK INTRA:                  -0.127
REMARK UNBOUND:                -0.116
REMARK SMILES COc1cc2ccc(=O)oc2cc1OC
REMARK SMILES IDX 3 1 13 2 12 3 11 4 5 5 4 6 6 7 7 8 8 9 9 10 10 11 2 12 1 13
REMARK SMILES IDX 14 14 15 15
REMARK H PARENT
REMARK Flexibility Score: inf
ROOT
ATOM      1  C   UNL     1      73.333  40.343  19.440  1.00  0.00     0.161 A 
ATOM      2  C   UNL     1      73.204  39.124  20.125  1.00  0.00     0.164 A 
ATOM      3  C   UNL     1      73.915  38.918  21.325  1.00  0.00     0.098 A 
ATOM      4  C   UNL     1      74.745  39.918  21.836  1.00  0.00     0.142 A 
ATOM      5  C   UNL     1      74.874  41.142  21.149  1.00  0.00     0.022 A 
ATOM      6  C   UNL     1      74.171  41.352  19.956  1.00  0.00     0.062 A 
ATOM      7  C   UNL     1      75.713  42.123  21.687  1.00  0.00     0.019 A 
ATOM      8  C   UNL     1      76.393  41.866  22.878  1.00  0.00     0.094 A 
ATOM      9  C   UNL     1      76.216  40.628  23.503  1.00  0.00     0.336 A 
ATOM     10  O   UNL     1      76.819  40.376  24.579  1.00  0.00    -0.246 OA
ATOM     11  O   UNL     1      75.411  39.713  22.970  1.00  0.00    -0.423 OA
ENDROOT
BRANCH   1  12
ATOM     12  O   UNL     1      72.611  40.515  18.247  1.00  0.00    -0.493 OA
ATOM     13  C   UNL     1      71.817  41.656  17.941  1.00  0.00     0.278 C 
ENDBRANCH   1  12
BRANCH   2  14
ATOM     14  O   UNL     1      72.362  38.141  19.582  1.00  0.00    -0.493 OA
ATOM     15  C   UNL     1      72.813  36.917  19.011  1.00  0.00     0.278 C 
ENDBRANCH   2  14
TORSDOF 2
ENDMDL
