MODEL 1
REMARK VINA RESULT:     8.772      0.000      0.000
REMARK INTER + INTRA:          15.558
REMARK INTER:                  15.950
REMARK INTRA:                  -0.392
REMARK UNBOUND:                -0.392
REMARK SMILES CCCCCCCCCCCCCC[C@H](C)C(=O)[O-]
REMARK SMILES IDX 9 1 10 2 11 3 12 4 13 5 14 6 15 7 16 8 17 9 18 10 19 11 8 12
REMARK SMILES IDX 7 13 6 14 5 15 4 16 3 17 2 18 1 19
REMARK H PARENT
REMARK Flexibility Score: inf
ROOT
ATOM      1  C   UNL     1       9.504 -31.832 -15.515  1.00  0.00     0.000 C 
ENDROOT
BRANCH   1   2
ATOM      2  C   UNL     1       9.644 -30.555 -14.661  1.00  0.00     0.000 C 
BRANCH   2   3
ATOM      3  C   UNL     1       8.423 -29.619 -14.675  1.00  0.00     0.000 C 
BRANCH   3   4
ATOM      4  C   UNL     1       7.705 -29.552 -13.318  1.00  0.00     0.000 C 
BRANCH   4   5
ATOM      5  C   UNL     1       8.676 -29.839 -12.166  1.00  0.00     0.001 C 
BRANCH   5   6
ATOM      6  C   UNL     1       8.193 -29.309 -10.799  1.00  0.00     0.009 C 
BRANCH   6   7
ATOM      7  C   UNL     1       9.250 -29.194  -9.669  1.00  0.00     0.032 C 
ATOM      8  C   UNL     1       9.538 -27.742  -9.257  1.00  0.00     0.014 C 
BRANCH   7   9
ATOM      9  C   UNL     1      10.514 -29.959  -9.966  1.00  0.00     0.044 C 
ATOM     10  O   UNL     1      10.666 -31.120  -9.502  1.00  0.00    -0.550 OA
ATOM     11  O   UNL     1      11.496 -29.421 -10.789  1.00  0.00    -0.550 OA
ENDBRANCH   7   9
ENDBRANCH   6   7
ENDBRANCH   5   6
ENDBRANCH   4   5
ENDBRANCH   3   4
ENDBRANCH   2   3
ENDBRANCH   1   2
BRANCH   1  12
ATOM     12  C   UNL     1       9.243 -31.595 -17.013  1.00  0.00     0.000 C 
BRANCH  12  13
ATOM     13  C   UNL     1       9.645 -30.183 -17.472  1.00  0.00    -0.000 C 
BRANCH  13  14
ATOM     14  C   UNL     1       8.767 -29.664 -18.623  1.00  0.00    -0.000 C 
BRANCH  14  15
ATOM     15  C   UNL     1       7.476 -28.992 -18.125  1.00  0.00    -0.000 C 
BRANCH  15  16
ATOM     16  C   UNL     1       6.479 -28.711 -19.262  1.00  0.00    -0.000 C 
BRANCH  16  17
ATOM     17  C   UNL     1       7.138 -28.759 -20.653  1.00  0.00    -0.000 C 
BRANCH  17  18
ATOM     18  C   UNL     1       6.119 -28.598 -21.792  1.00  0.00    -0.003 C 
ATOM     19  C   UNL     1       6.697 -27.869 -23.005  1.00  0.00     0.004 C 
ENDBRANCH  17  18
ENDBRANCH  16  17
ENDBRANCH  15  16
ENDBRANCH  14  15
ENDBRANCH  13  14
ENDBRANCH  12  13
ENDBRANCH   1  12
TORSDOF 14
ENDMDL
MODEL 2
REMARK VINA RESULT:     9.497      1.164      1.505
REMARK INTER + INTRA:          16.878
REMARK INTER:                  17.421
REMARK INTRA:                  -0.543
REMARK UNBOUND:                -0.392
REMARK SMILES CCCCCCCCCCCCCC[C@H](C)C(=O)[O-]
REMARK SMILES IDX 9 1 10 2 11 3 12 4 13 5 14 6 15 7 16 8 17 9 18 10 19 11 8 12
REMARK SMILES IDX 7 13 6 14 5 15 4 16 3 17 2 18 1 19
REMARK H PARENT
REMARK Flexibility Score: inf
ROOT
ATOM      1  C   UNL     1       9.603 -31.681 -15.614  1.00  0.00     0.000 C 
ENDROOT
BRANCH   1   2
ATOM      2  C   UNL     1       9.503 -30.433 -14.711  1.00  0.00     0.000 C 
BRANCH   2   3
ATOM      3  C   UNL     1       8.173 -29.664 -14.802  1.00  0.00     0.000 C 
BRANCH   3   4
ATOM      4  C   UNL     1       7.710 -29.110 -13.446  1.00  0.00     0.000 C 
BRANCH   4   5
ATOM      5  C   UNL     1       8.375 -29.861 -12.286  1.00  0.00     0.001 C 
BRANCH   5   6
ATOM      6  C   UNL     1       8.189 -29.178 -10.914  1.00  0.00     0.009 C 
BRANCH   6   7
ATOM      7  C   UNL     1       9.404 -29.183  -9.949  1.00  0.00     0.032 C 
ATOM      8  C   UNL     1       9.186 -30.065  -8.709  1.00  0.00     0.014 C 
BRANCH   7   9
ATOM      9  C   UNL     1       9.870 -27.798  -9.582  1.00  0.00     0.044 C 
ATOM     10  O   UNL     1      11.094 -27.509  -9.657  1.00  0.00    -0.550 OA
ATOM     11  O   UNL     1       8.960 -26.815  -9.210  1.00  0.00    -0.550 OA
ENDBRANCH   7   9
ENDBRANCH   6   7
ENDBRANCH   5   6
ENDBRANCH   4   5
ENDBRANCH   3   4
ENDBRANCH   2   3
ENDBRANCH   1   2
BRANCH   1  12
ATOM     12  C   UNL     1       9.284 -31.442 -17.101  1.00  0.00     0.000 C 
BRANCH  12  13
ATOM     13  C   UNL     1       9.656 -30.026 -17.571  1.00  0.00    -0.000 C 
BRANCH  13  14
ATOM     14  C   UNL     1       8.795 -29.551 -18.754  1.00  0.00    -0.000 C 
BRANCH  14  15
ATOM     15  C   UNL     1       7.355 -29.208 -18.336  1.00  0.00    -0.000 C 
BRANCH  15  16
ATOM     16  C   UNL     1       6.634 -28.326 -19.369  1.00  0.00    -0.000 C 
BRANCH  16  17
ATOM     17  C   UNL     1       6.361 -29.065 -20.692  1.00  0.00    -0.000 C 
BRANCH  17  18
ATOM     18  C   UNL     1       7.124 -28.452 -21.876  1.00  0.00    -0.003 C 
ATOM     19  C   UNL     1       6.203 -28.030 -23.020  1.00  0.00     0.004 C 
ENDBRANCH  17  18
ENDBRANCH  16  17
ENDBRANCH  15  16
ENDBRANCH  14  15
ENDBRANCH  13  14
ENDBRANCH  12  13
ENDBRANCH   1  12
TORSDOF 14
ENDMDL
MODEL 3
REMARK VINA RESULT:     9.853      3.649      5.672
REMARK INTER + INTRA:          17.525
REMARK INTER:                  17.472
REMARK INTRA:                   0.053
REMARK UNBOUND:                -0.392
REMARK SMILES CCCCCCCCCCCCCC[C@H](C)C(=O)[O-]
REMARK SMILES IDX 9 1 10 2 11 3 12 4 13 5 14 6 15 7 16 8 17 9 18 10 19 11 8 12
REMARK SMILES IDX 7 13 6 14 5 15 4 16 3 17 2 18 1 19
REMARK H PARENT
REMARK Flexibility Score: inf
ROOT
ATOM      1  C   UNL     1       7.052 -28.770 -19.113  1.00  0.00     0.000 C 
ENDROOT
BRANCH   1   2
ATOM      2  C   UNL     1       6.313 -27.910 -18.067  1.00  0.00     0.000 C 
BRANCH   2   3
ATOM      3  C   UNL     1       6.815 -28.063 -16.620  1.00  0.00     0.000 C 
BRANCH   3   4
ATOM      4  C   UNL     1       7.513 -29.408 -16.369  1.00  0.00     0.000 C 
BRANCH   4   5
ATOM      5  C   UNL     1       8.351 -29.365 -15.085  1.00  0.00     0.001 C 
BRANCH   5   6
ATOM      6  C   UNL     1       9.317 -30.560 -14.931  1.00  0.00     0.009 C 
BRANCH   6   7
ATOM      7  C   UNL     1       9.887 -31.183 -16.233  1.00  0.00     0.032 C 
ATOM      8  C   UNL     1       9.699 -30.283 -17.465  1.00  0.00     0.014 C 
BRANCH   7   9
ATOM      9  C   UNL     1       9.395 -32.586 -16.478  1.00  0.00     0.044 C 
ATOM     10  O   UNL     1       8.992 -33.285 -15.511  1.00  0.00    -0.550 OA
ATOM     11  O   UNL     1       9.333 -33.105 -17.766  1.00  0.00    -0.550 OA
ENDBRANCH   7   9
ENDBRANCH   6   7
ENDBRANCH   5   6
ENDBRANCH   4   5
ENDBRANCH   3   4
ENDBRANCH   2   3
ENDBRANCH   1   2
BRANCH   1  12
ATOM     12  C   UNL     1       6.407 -28.802 -20.511  1.00  0.00     0.000 C 
BRANCH  12  13
ATOM     13  C   UNL     1       7.406 -29.175 -21.619  1.00  0.00    -0.000 C 
BRANCH  13  14
ATOM     14  C   UNL     1       8.638 -29.920 -21.078  1.00  0.00    -0.000 C 
BRANCH  14  15
ATOM     15  C   UNL     1       8.387 -31.428 -20.904  1.00  0.00    -0.000 C 
BRANCH  15  16
ATOM     16  C   UNL     1       8.857 -32.248 -22.117  1.00  0.00    -0.000 C 
BRANCH  16  17
ATOM     17  C   UNL     1      10.194 -32.968 -21.863  1.00  0.00    -0.000 C 
BRANCH  17  18
ATOM     18  C   UNL     1      11.067 -33.051 -23.125  1.00  0.00    -0.003 C 
ATOM     19  C   UNL     1      12.353 -32.233 -23.011  1.00  0.00     0.004 C 
ENDBRANCH  17  18
ENDBRANCH  16  17
ENDBRANCH  15  16
ENDBRANCH  14  15
ENDBRANCH  13  14
ENDBRANCH  12  13
ENDBRANCH   1  12
TORSDOF 14
ENDMDL
MODEL 4
REMARK VINA RESULT:    10.145      4.311      9.339
REMARK INTER + INTRA:          18.056
REMARK INTER:                  17.309
REMARK INTRA:                   0.747
REMARK UNBOUND:                -0.392
REMARK SMILES CCCCCCCCCCCCCC[C@H](C)C(=O)[O-]
REMARK SMILES IDX 9 1 10 2 11 3 12 4 13 5 14 6 15 7 16 8 17 9 18 10 19 11 8 12
REMARK SMILES IDX 7 13 6 14 5 15 4 16 3 17 2 18 1 19
REMARK H PARENT
REMARK Flexibility Score: inf
ROOT
ATOM      1  C   UNL     1       9.563 -31.423 -16.454  1.00  0.00     0.000 C 
ENDROOT
BRANCH   1   2
ATOM      2  C   UNL     1       9.244 -30.075 -17.133  1.00  0.00     0.000 C 
BRANCH   2   3
ATOM      3  C   UNL     1       8.164 -29.229 -16.436  1.00  0.00     0.000 C 
BRANCH   3   4
ATOM      4  C   UNL     1       7.158 -28.614 -17.422  1.00  0.00     0.000 C 
BRANCH   4   5
ATOM      5  C   UNL     1       7.295 -29.243 -18.814  1.00  0.00     0.001 C 
BRANCH   5   6
ATOM      6  C   UNL     1       6.430 -28.558 -19.894  1.00  0.00     0.009 C 
BRANCH   6   7
ATOM      7  C   UNL     1       6.611 -29.039 -21.358  1.00  0.00     0.032 C 
ATOM      8  C   UNL     1       7.631 -30.179 -21.496  1.00  0.00     0.014 C 
BRANCH   7   9
ATOM      9  C   UNL     1       6.889 -27.911 -22.318  1.00  0.00     0.044 C 
ATOM     10  O   UNL     1       8.062 -27.467 -22.439  1.00  0.00    -0.550 OA
ATOM     11  O   UNL     1       5.876 -27.383 -23.111  1.00  0.00    -0.550 OA
ENDBRANCH   7   9
ENDBRANCH   6   7
ENDBRANCH   5   6
ENDBRANCH   4   5
ENDBRANCH   3   4
ENDBRANCH   2   3
ENDBRANCH   1   2
BRANCH   1  12
ATOM     12  C   UNL     1       9.533 -31.407 -14.915  1.00  0.00     0.000 C 
BRANCH  12  13
ATOM     13  C   UNL     1       8.770 -30.198 -14.347  1.00  0.00    -0.000 C 
BRANCH  13  14
ATOM     14  C   UNL     1       9.018 -29.998 -12.842  1.00  0.00    -0.000 C 
BRANCH  14  15
ATOM     15  C   UNL     1       7.716 -29.763 -12.056  1.00  0.00    -0.000 C 
BRANCH  15  16
ATOM     16  C   UNL     1       7.920 -28.848 -10.836  1.00  0.00    -0.000 C 
BRANCH  16  17
ATOM     17  C   UNL     1       8.975 -29.394  -9.856  1.00  0.00    -0.000 C 
BRANCH  17  18
ATOM     18  C   UNL     1       9.691 -28.278  -9.080  1.00  0.00    -0.003 C 
ATOM     19  C   UNL     1       9.083 -26.898  -9.332  1.00  0.00     0.004 C 
ENDBRANCH  17  18
ENDBRANCH  16  17
ENDBRANCH  15  16
ENDBRANCH  14  15
ENDBRANCH  13  14
ENDBRANCH  12  13
ENDBRANCH   1  12
TORSDOF 14
ENDMDL
MODEL 5
REMARK VINA RESULT:    10.511      3.993      8.746
REMARK INTER + INTRA:          18.721
REMARK INTER:                  17.718
REMARK INTRA:                   1.003
REMARK UNBOUND:                -0.392
REMARK SMILES CCCCCCCCCCCCCC[C@H](C)C(=O)[O-]
REMARK SMILES IDX 9 1 10 2 11 3 12 4 13 5 14 6 15 7 16 8 17 9 18 10 19 11 8 12
REMARK SMILES IDX 7 13 6 14 5 15 4 16 3 17 2 18 1 19
REMARK H PARENT
REMARK Flexibility Score: inf
ROOT
ATOM      1  C   UNL     1       9.220 -31.843 -14.647  1.00  0.00     0.000 C 
ENDROOT
BRANCH   1   2
ATOM      2  C   UNL     1       9.120 -32.667 -15.947  1.00  0.00     0.000 C 
BRANCH   2   3
ATOM      3  C   UNL     1       9.344 -31.873 -17.247  1.00  0.00     0.000 C 
BRANCH   3   4
ATOM      4  C   UNL     1       9.723 -30.406 -16.992  1.00  0.00     0.000 C 
BRANCH   4   5
ATOM      5  C   UNL     1       9.816 -29.623 -18.307  1.00  0.00     0.001 C 
BRANCH   5   6
ATOM      6  C   UNL     1       8.642 -29.889 -19.275  1.00  0.00     0.009 C 
BRANCH   6   7
ATOM      7  C   UNL     1       7.558 -28.786 -19.394  1.00  0.00     0.032 C 
ATOM      8  C   UNL     1       6.626 -28.723 -18.174  1.00  0.00     0.014 C 
BRANCH   7   9
ATOM      9  C   UNL     1       6.791 -28.852 -20.689  1.00  0.00     0.044 C 
ATOM     10  O   UNL     1       6.088 -29.865 -20.949  1.00  0.00    -0.550 OA
ATOM     11  O   UNL     1       6.807 -27.788 -21.583  1.00  0.00    -0.550 OA
ENDBRANCH   7   9
ENDBRANCH   6   7
ENDBRANCH   5   6
ENDBRANCH   4   5
ENDBRANCH   3   4
ENDBRANCH   2   3
ENDBRANCH   1   2
BRANCH   1  12
ATOM     12  C   UNL     1       9.114 -30.317 -14.827  1.00  0.00     0.000 C 
BRANCH  12  13
ATOM     13  C   UNL     1       8.128 -29.668 -13.841  1.00  0.00    -0.000 C 
BRANCH  13  14
ATOM     14  C   UNL     1       8.368 -30.112 -12.388  1.00  0.00    -0.000 C 
BRANCH  14  15
ATOM     15  C   UNL     1       7.738 -29.152 -11.365  1.00  0.00    -0.000 C 
BRANCH  15  16
ATOM     16  C   UNL     1       8.330 -29.317  -9.956  1.00  0.00    -0.000 C 
BRANCH  16  17
ATOM     17  C   UNL     1       9.799 -28.862  -9.874  1.00  0.00    -0.000 C 
BRANCH  17  18
ATOM     18  C   UNL     1       9.978 -27.606  -9.007  1.00  0.00    -0.003 C 
ATOM     19  C   UNL     1       9.032 -26.473  -9.404  1.00  0.00     0.004 C 
ENDBRANCH  17  18
ENDBRANCH  16  17
ENDBRANCH  15  16
ENDBRANCH  14  15
ENDBRANCH  13  14
ENDBRANCH  12  13
ENDBRANCH   1  12
TORSDOF 14
ENDMDL
MODEL 6
REMARK VINA RESULT:    10.590      3.623      8.793
REMARK INTER + INTRA:          18.865
REMARK INTER:                  18.650
REMARK INTRA:                   0.215
REMARK UNBOUND:                -0.392
REMARK SMILES CCCCCCCCCCCCCC[C@H](C)C(=O)[O-]
REMARK SMILES IDX 9 1 10 2 11 3 12 4 13 5 14 6 15 7 16 8 17 9 18 10 19 11 8 12
REMARK SMILES IDX 7 13 6 14 5 15 4 16 3 17 2 18 1 19
REMARK H PARENT
REMARK Flexibility Score: inf
ROOT
ATOM      1  C   UNL     1      10.017 -30.792 -16.669  1.00  0.00     0.000 C 
ENDROOT
BRANCH   1   2
ATOM      2  C   UNL     1       9.091 -29.743 -17.319  1.00  0.00     0.000 C 
BRANCH   2   3
ATOM      3  C   UNL     1       8.085 -29.075 -16.365  1.00  0.00     0.000 C 
BRANCH   3   4
ATOM      4  C   UNL     1       6.901 -28.430 -17.102  1.00  0.00     0.000 C 
BRANCH   4   5
ATOM      5  C   UNL     1       6.609 -29.157 -18.420  1.00  0.00     0.001 C 
BRANCH   5   6
ATOM      6  C   UNL     1       6.265 -28.210 -19.590  1.00  0.00     0.009 C 
BRANCH   6   7
ATOM      7  C   UNL     1       7.094 -28.363 -20.893  1.00  0.00     0.032 C 
ATOM      8  C   UNL     1       6.266 -28.130 -22.166  1.00  0.00     0.014 C 
BRANCH   7   9
ATOM      9  C   UNL     1       7.867 -29.655 -20.950  1.00  0.00     0.044 C 
ATOM     10  O   UNL     1       9.009 -29.725 -20.423  1.00  0.00    -0.550 OA
ATOM     11  O   UNL     1       7.317 -30.791 -21.534  1.00  0.00    -0.550 OA
ENDBRANCH   7   9
ENDBRANCH   6   7
ENDBRANCH   5   6
ENDBRANCH   4   5
ENDBRANCH   3   4
ENDBRANCH   2   3
ENDBRANCH   1   2
BRANCH   1  12
ATOM     12  C   UNL     1       9.297 -31.938 -15.935  1.00  0.00     0.000 C 
BRANCH  12  13
ATOM     13  C   UNL     1       9.277 -31.749 -14.409  1.00  0.00    -0.000 C 
BRANCH  13  14
ATOM     14  C   UNL     1       9.038 -30.286 -13.998  1.00  0.00    -0.000 C 
BRANCH  14  15
ATOM     15  C   UNL     1       8.877 -30.117 -12.478  1.00  0.00    -0.000 C 
BRANCH  15  16
ATOM     16  C   UNL     1      10.227 -30.017 -11.748  1.00  0.00    -0.000 C 
BRANCH  16  17
ATOM     17  C   UNL     1      10.072 -29.989 -10.217  1.00  0.00    -0.000 C 
BRANCH  17  18
ATOM     18  C   UNL     1       9.049 -28.942  -9.749  1.00  0.00    -0.003 C 
ATOM     19  C   UNL     1       9.703 -27.718  -9.110  1.00  0.00     0.004 C 
ENDBRANCH  17  18
ENDBRANCH  16  17
ENDBRANCH  15  16
ENDBRANCH  14  15
ENDBRANCH  13  14
ENDBRANCH  12  13
ENDBRANCH   1  12
TORSDOF 14
ENDMDL
MODEL 7
REMARK VINA RESULT:    10.608      4.441      7.372
REMARK INTER + INTRA:          18.897
REMARK INTER:                  19.671
REMARK INTRA:                  -0.774
REMARK UNBOUND:                -0.392
REMARK SMILES CCCCCCCCCCCCCC[C@H](C)C(=O)[O-]
REMARK SMILES IDX 9 1 10 2 11 3 12 4 13 5 14 6 15 7 16 8 17 9 18 10 19 11 8 12
REMARK SMILES IDX 7 13 6 14 5 15 4 16 3 17 2 18 1 19
REMARK H PARENT
REMARK Flexibility Score: inf
ROOT
ATOM      1  C   UNL     1       8.998 -30.636 -15.305  1.00  0.00     0.000 C 
ENDROOT
BRANCH   1   2
ATOM      2  C   UNL     1       8.714 -29.404 -16.190  1.00  0.00     0.000 C 
BRANCH   2   3
ATOM      3  C   UNL     1       7.540 -28.522 -15.728  1.00  0.00     0.000 C 
BRANCH   3   4
ATOM      4  C   UNL     1       6.612 -28.111 -16.881  1.00  0.00     0.000 C 
BRANCH   4   5
ATOM      5  C   UNL     1       6.968 -28.861 -18.170  1.00  0.00     0.001 C 
BRANCH   5   6
ATOM      6  C   UNL     1       6.275 -28.296 -19.430  1.00  0.00     0.009 C 
BRANCH   6   7
ATOM      7  C   UNL     1       7.025 -28.450 -20.780  1.00  0.00     0.032 C 
ATOM      8  C   UNL     1       6.104 -28.300 -22.001  1.00  0.00     0.014 C 
BRANCH   7   9
ATOM      9  C   UNL     1       7.859 -29.703 -20.851  1.00  0.00     0.044 C 
ATOM     10  O   UNL     1       7.509 -30.646 -21.610  1.00  0.00    -0.550 OA
ATOM     11  O   UNL     1       9.040 -29.815 -20.126  1.00  0.00    -0.550 OA
ENDBRANCH   7   9
ENDBRANCH   6   7
ENDBRANCH   5   6
ENDBRANCH   4   5
ENDBRANCH   3   4
ENDBRANCH   2   3
ENDBRANCH   1   2
BRANCH   1  12
ATOM     12  C   UNL     1       9.626 -31.838 -16.035  1.00  0.00     0.000 C 
BRANCH  12  13
ATOM     13  C   UNL     1       9.262 -31.884 -17.529  1.00  0.00    -0.000 C 
BRANCH  13  14
ATOM     14  C   UNL     1       9.846 -33.116 -18.241  1.00  0.00    -0.000 C 
BRANCH  14  15
ATOM     15  C   UNL     1       9.277 -33.304 -19.658  1.00  0.00    -0.000 C 
BRANCH  15  16
ATOM     16  C   UNL     1      10.371 -33.591 -20.701  1.00  0.00    -0.000 C 
BRANCH  16  17
ATOM     17  C   UNL     1      10.069 -32.949 -22.067  1.00  0.00    -0.000 C 
BRANCH  17  18
ATOM     18  C   UNL     1      11.165 -33.236 -23.106  1.00  0.00    -0.003 C 
ATOM     19  C   UNL     1      12.257 -32.168 -23.125  1.00  0.00     0.004 C 
ENDBRANCH  17  18
ENDBRANCH  16  17
ENDBRANCH  15  16
ENDBRANCH  14  15
ENDBRANCH  13  14
ENDBRANCH  12  13
ENDBRANCH   1  12
TORSDOF 14
ENDMDL
MODEL 8
REMARK VINA RESULT:    10.710      1.357      2.223
REMARK INTER + INTRA:          19.084
REMARK INTER:                  16.988
REMARK INTRA:                   2.096
REMARK UNBOUND:                -0.392
REMARK SMILES CCCCCCCCCCCCCC[C@H](C)C(=O)[O-]
REMARK SMILES IDX 9 1 10 2 11 3 12 4 13 5 14 6 15 7 16 8 17 9 18 10 19 11 8 12
REMARK SMILES IDX 7 13 6 14 5 15 4 16 3 17 2 18 1 19
REMARK H PARENT
REMARK Flexibility Score: inf
ROOT
ATOM      1  C   UNL     1       9.011 -29.621 -17.170  1.00  0.00     0.000 C 
ENDROOT
BRANCH   1   2
ATOM      2  C   UNL     1       9.635 -30.996 -16.850  1.00  0.00     0.000 C 
BRANCH   2   3
ATOM      3  C   UNL     1       9.341 -31.536 -15.440  1.00  0.00     0.000 C 
BRANCH   3   4
ATOM      4  C   UNL     1       9.030 -30.424 -14.427  1.00  0.00     0.000 C 
BRANCH   4   5
ATOM      5  C   UNL     1       9.900 -30.562 -13.171  1.00  0.00     0.001 C 
BRANCH   5   6
ATOM      6  C   UNL     1       9.236 -30.011 -11.890  1.00  0.00     0.009 C 
BRANCH   6   7
ATOM      7  C   UNL     1      10.176 -29.565 -10.739  1.00  0.00     0.032 C 
ATOM      8  C   UNL     1      11.107 -30.686 -10.253  1.00  0.00     0.014 C 
BRANCH   7   9
ATOM      9  C   UNL     1       9.441 -28.905  -9.601  1.00  0.00     0.044 C 
ATOM     10  O   UNL     1       8.519 -29.526  -9.009  1.00  0.00    -0.550 OA
ATOM     11  O   UNL     1       9.800 -27.636  -9.161  1.00  0.00    -0.550 OA
ENDBRANCH   7   9
ENDBRANCH   6   7
ENDBRANCH   5   6
ENDBRANCH   4   5
ENDBRANCH   3   4
ENDBRANCH   2   3
ENDBRANCH   1   2
BRANCH   1  12
ATOM     12  C   UNL     1       8.148 -29.014 -16.049  1.00  0.00     0.000 C 
BRANCH  12  13
ATOM     13  C   UNL     1       6.718 -28.687 -16.509  1.00  0.00    -0.000 C 
BRANCH  13  14
ATOM     14  C   UNL     1       6.672 -28.124 -17.940  1.00  0.00    -0.000 C 
BRANCH  14  15
ATOM     15  C   UNL     1       7.238 -29.106 -18.980  1.00  0.00    -0.000 C 
BRANCH  15  16
ATOM     16  C   UNL     1       6.511 -29.018 -20.332  1.00  0.00    -0.000 C 
BRANCH  16  17
ATOM     17  C   UNL     1       7.472 -29.133 -21.530  1.00  0.00    -0.000 C 
BRANCH  17  18
ATOM     18  C   UNL     1       6.906 -28.485 -22.803  1.00  0.00    -0.003 C 
ATOM     19  C   UNL     1       5.876 -27.396 -22.505  1.00  0.00     0.004 C 
ENDBRANCH  17  18
ENDBRANCH  16  17
ENDBRANCH  15  16
ENDBRANCH  14  15
ENDBRANCH  13  14
ENDBRANCH  12  13
ENDBRANCH   1  12
TORSDOF 14
ENDMDL
MODEL 9
REMARK VINA RESULT:    11.452      3.479      9.594
REMARK INTER + INTRA:          20.432
REMARK INTER:                  21.059
REMARK INTRA:                  -0.627
REMARK UNBOUND:                -0.392
REMARK SMILES CCCCCCCCCCCCCC[C@H](C)C(=O)[O-]
REMARK SMILES IDX 9 1 10 2 11 3 12 4 13 5 14 6 15 7 16 8 17 9 18 10 19 11 8 12
REMARK SMILES IDX 7 13 6 14 5 15 4 16 3 17 2 18 1 19
REMARK H PARENT
REMARK Flexibility Score: inf
ROOT
ATOM      1  C   UNL     1      10.194 -30.058 -11.511  1.00  0.00     0.000 C 
ENDROOT
BRANCH   1   2
ATOM      2  C   UNL     1       8.961 -30.207 -12.426  1.00  0.00     0.000 C 
BRANCH   2   3
ATOM      3  C   UNL     1       9.227 -29.986 -13.926  1.00  0.00     0.000 C 
BRANCH   3   4
ATOM      4  C   UNL     1       8.922 -31.228 -14.776  1.00  0.00     0.000 C 
BRANCH   4   5
ATOM      5  C   UNL     1       9.795 -31.262 -16.037  1.00  0.00     0.001 C 
BRANCH   5   6
ATOM      6  C   UNL     1       9.656 -30.006 -16.925  1.00  0.00     0.009 C 
BRANCH   6   7
ATOM      7  C   UNL     1       8.519 -30.007 -17.980  1.00  0.00     0.032 C 
ATOM      8  C   UNL     1       9.034 -29.876 -19.422  1.00  0.00     0.014 C 
BRANCH   7   9
ATOM      9  C   UNL     1       7.433 -29.008 -17.675  1.00  0.00     0.044 C 
ATOM     10  O   UNL     1       6.710 -28.565 -18.607  1.00  0.00    -0.550 OA
ATOM     11  O   UNL     1       7.183 -28.602 -16.369  1.00  0.00    -0.550 OA
ENDBRANCH   7   9
ENDBRANCH   6   7
ENDBRANCH   5   6
ENDBRANCH   4   5
ENDBRANCH   3   4
ENDBRANCH   2   3
ENDBRANCH   1   2
BRANCH   1  12
ATOM     12  C   UNL     1       9.887 -29.967 -10.004  1.00  0.00     0.000 C 
BRANCH  12  13
ATOM     13  C   UNL     1       9.062 -28.721  -9.639  1.00  0.00    -0.000 C 
BRANCH  13  14
ATOM     14  C   UNL     1       9.944 -27.507  -9.302  1.00  0.00    -0.000 C 
BRANCH  14  15
ATOM     15  C   UNL     1       9.120 -26.247  -8.986  1.00  0.00    -0.000 C 
BRANCH  15  16
ATOM     16  C   UNL     1       8.844 -26.083  -7.483  1.00  0.00    -0.000 C 
BRANCH  16  17
ATOM     17  C   UNL     1       8.219 -24.718  -7.141  1.00  0.00    -0.000 C 
BRANCH  17  18
ATOM     18  C   UNL     1       7.823 -24.607  -5.660  1.00  0.00    -0.003 C 
ATOM     19  C   UNL     1       6.341 -24.286  -5.465  1.00  0.00     0.004 C 
ENDBRANCH  17  18
ENDBRANCH  16  17
ENDBRANCH  15  16
ENDBRANCH  14  15
ENDBRANCH  13  14
ENDBRANCH  12  13
ENDBRANCH   1  12
TORSDOF 14
ENDMDL
