MODEL 1
REMARK VINA RESULT:    -3.592      0.000      0.000
REMARK INTER + INTRA:          -5.395
REMARK INTER:                  -5.062
REMARK INTRA:                  -0.332
REMARK UNBOUND:                -0.332
REMARK SMILES C=CCCCCCCC(=O)[O-]
REMARK SMILES IDX 6 1 7 2 8 3 9 4 10 5 11 6 5 7 4 8 3 9 2 10 1 11
REMARK H PARENT
REMARK Flexibility Score: inf
ROOT
ATOM      1  C   UNL     1      57.678  29.304  50.465  1.00  0.00     0.000 C 
ENDROOT
BRANCH   1   2
ATOM      2  C   UNL     1      58.590  29.218  49.231  1.00  0.00     0.006 C 
BRANCH   2   3
ATOM      3  C   UNL     1      60.048  28.924  49.606  1.00  0.00     0.053 C 
BRANCH   3   4
ATOM      4  C   UNL     1      60.385  27.475  49.430  1.00  0.00     0.041 C 
ATOM      5  O   UNL     1      59.472  26.627  49.252  1.00  0.00    -0.550 OA
ATOM      6  O   UNL     1      61.708  27.057  49.493  1.00  0.00    -0.550 OA
ENDBRANCH   3   4
ENDBRANCH   2   3
ENDBRANCH   1   2
BRANCH   1   7
ATOM      7  C   UNL     1      56.529  28.293  50.369  1.00  0.00     0.000 C 
BRANCH   7   8
ATOM      8  C   UNL     1      55.169  28.996  50.473  1.00  0.00     0.004 C 
BRANCH   8   9
ATOM      9  C   UNL     1      54.048  28.107  49.918  1.00  0.00     0.027 C 
BRANCH   9  10
ATOM     10  C   UNL     1      54.547  26.718  49.630  1.00  0.00    -0.035 C 
ATOM     11  C   UNL     1      53.742  25.769  49.140  1.00  0.00     0.004 C 
ENDBRANCH   9  10
ENDBRANCH   8   9
ENDBRANCH   7   8
ENDBRANCH   1   7
TORSDOF 7
ENDMDL
MODEL 2
REMARK VINA RESULT:    -3.529     12.708     14.334
REMARK INTER + INTRA:          -5.306
REMARK INTER:                  -4.957
REMARK INTRA:                  -0.349
REMARK UNBOUND:                -0.332
REMARK SMILES C=CCCCCCCC(=O)[O-]
REMARK SMILES IDX 6 1 7 2 8 3 9 4 10 5 11 6 5 7 4 8 3 9 2 10 1 11
REMARK H PARENT
REMARK Flexibility Score: inf
ROOT
ATOM      1  C   UNL     1      61.107  33.037  60.208  1.00  0.00     0.000 C 
ENDROOT
BRANCH   1   2
ATOM      2  C   UNL     1      60.786  32.091  61.375  1.00  0.00     0.006 C 
BRANCH   2   3
ATOM      3  C   UNL     1      60.907  30.615  60.976  1.00  0.00     0.053 C 
BRANCH   3   4
ATOM      4  C   UNL     1      62.107  29.969  61.597  1.00  0.00     0.041 C 
ATOM      5  O   UNL     1      63.128  30.653  61.869  1.00  0.00    -0.550 OA
ATOM      6  O   UNL     1      62.110  28.602  61.845  1.00  0.00    -0.550 OA
ENDBRANCH   3   4
ENDBRANCH   2   3
ENDBRANCH   1   2
BRANCH   1   7
ATOM      7  C   UNL     1      62.232  34.009  60.582  1.00  0.00     0.000 C 
BRANCH   7   8
ATOM      8  C   UNL     1      61.716  35.453  60.635  1.00  0.00     0.004 C 
BRANCH   8   9
ATOM      9  C   UNL     1      62.694  36.358  61.396  1.00  0.00     0.027 C 
BRANCH   9  10
ATOM     10  C   UNL     1      64.015  35.673  61.611  1.00  0.00    -0.035 C 
ATOM     11  C   UNL     1      65.160  36.359  61.684  1.00  0.00     0.004 C 
ENDBRANCH   9  10
ENDBRANCH   8   9
ENDBRANCH   7   8
ENDBRANCH   1   7
TORSDOF 7
ENDMDL
MODEL 3
REMARK VINA RESULT:    -3.401      2.850      4.983
REMARK INTER + INTRA:          -5.125
REMARK INTER:                  -4.505
REMARK INTRA:                  -0.620
REMARK UNBOUND:                -0.332
REMARK SMILES C=CCCCCCCC(=O)[O-]
REMARK SMILES IDX 6 1 7 2 8 3 9 4 10 5 11 6 5 7 4 8 3 9 2 10 1 11
REMARK H PARENT
REMARK Flexibility Score: inf
ROOT
ATOM      1  C   UNL     1      57.823  28.999  50.626  1.00  0.00     0.000 C 
ENDROOT
BRANCH   1   2
ATOM      2  C   UNL     1      56.310  28.815  50.438  1.00  0.00     0.006 C 
BRANCH   2   3
ATOM      3  C   UNL     1      55.899  27.338  50.444  1.00  0.00     0.053 C 
BRANCH   3   4
ATOM      4  C   UNL     1      54.612  27.117  49.710  1.00  0.00     0.041 C 
ATOM      5  O   UNL     1      54.370  26.006  49.171  1.00  0.00    -0.550 OA
ATOM      6  O   UNL     1      53.692  28.152  49.594  1.00  0.00    -0.550 OA
ENDBRANCH   3   4
ENDBRANCH   2   3
ENDBRANCH   1   2
BRANCH   1   7
ATOM      7  C   UNL     1      58.504  29.349  49.297  1.00  0.00     0.000 C 
BRANCH   7   8
ATOM      8  C   UNL     1      59.636  28.363  48.982  1.00  0.00     0.004 C 
BRANCH   8   9
ATOM      9  C   UNL     1      59.904  27.435  50.174  1.00  0.00     0.027 C 
BRANCH   9  10
ATOM     10  C   UNL     1      59.748  25.991  49.785  1.00  0.00    -0.035 C 
ATOM     11  C   UNL     1      58.945  25.163  50.461  1.00  0.00     0.004 C 
ENDBRANCH   9  10
ENDBRANCH   8   9
ENDBRANCH   7   8
ENDBRANCH   1   7
TORSDOF 7
ENDMDL
MODEL 4
REMARK VINA RESULT:    -3.374     13.125     14.038
REMARK INTER + INTRA:          -5.087
REMARK INTER:                  -4.647
REMARK INTRA:                  -0.440
REMARK UNBOUND:                -0.332
REMARK SMILES C=CCCCCCCC(=O)[O-]
REMARK SMILES IDX 6 1 7 2 8 3 9 4 10 5 11 6 5 7 4 8 3 9 2 10 1 11
REMARK H PARENT
REMARK Flexibility Score: inf
ROOT
ATOM      1  C   UNL     1      61.466  32.286  60.284  1.00  0.00     0.000 C 
ENDROOT
BRANCH   1   2
ATOM      2  C   UNL     1      61.620  33.792  60.544  1.00  0.00     0.006 C 
BRANCH   2   3
ATOM      3  C   UNL     1      63.084  34.246  60.477  1.00  0.00     0.053 C 
BRANCH   3   4
ATOM      4  C   UNL     1      63.337  35.432  61.356  1.00  0.00     0.041 C 
ATOM      5  O   UNL     1      62.487  36.357  61.436  1.00  0.00    -0.550 OA
ATOM      6  O   UNL     1      64.528  35.531  62.063  1.00  0.00    -0.550 OA
ENDBRANCH   3   4
ENDBRANCH   2   3
ENDBRANCH   1   2
BRANCH   1   7
ATOM      7  C   UNL     1      60.953  31.563  61.535  1.00  0.00     0.000 C 
BRANCH   7   8
ATOM      8  C   UNL     1      61.819  30.339  61.857  1.00  0.00     0.004 C 
BRANCH   8   9
ATOM      9  C   UNL     1      63.305  30.640  61.623  1.00  0.00     0.027 C 
BRANCH   9  10
ATOM     10  C   UNL     1      64.033  29.425  61.119  1.00  0.00    -0.035 C 
ATOM     11  C   UNL     1      63.431  28.237  61.014  1.00  0.00     0.004 C 
ENDBRANCH   9  10
ENDBRANCH   8   9
ENDBRANCH   7   8
ENDBRANCH   1   7
TORSDOF 7
ENDMDL
MODEL 5
REMARK VINA RESULT:    -3.311      3.492      5.578
REMARK INTER + INTRA:          -4.998
REMARK INTER:                  -4.345
REMARK INTRA:                  -0.653
REMARK UNBOUND:                -0.332
REMARK SMILES C=CCCCCCCC(=O)[O-]
REMARK SMILES IDX 6 1 7 2 8 3 9 4 10 5 11 6 5 7 4 8 3 9 2 10 1 11
REMARK H PARENT
REMARK Flexibility Score: inf
ROOT
ATOM      1  C   UNL     1      56.190  26.045  51.292  1.00  0.00     0.000 C 
ENDROOT
BRANCH   1   2
ATOM      2  C   UNL     1      55.519  26.585  50.019  1.00  0.00     0.006 C 
BRANCH   2   3
ATOM      3  C   UNL     1      55.012  28.022  50.194  1.00  0.00     0.053 C 
BRANCH   3   4
ATOM      4  C   UNL     1      53.588  28.165  49.751  1.00  0.00     0.041 C 
ATOM      5  O   UNL     1      52.986  27.194  49.224  1.00  0.00    -0.550 OA
ATOM      6  O   UNL     1      52.936  29.383  49.894  1.00  0.00    -0.550 OA
ENDBRANCH   3   4
ENDBRANCH   2   3
ENDBRANCH   1   2
BRANCH   1   7
ATOM      7  C   UNL     1      57.668  26.451  51.347  1.00  0.00     0.000 C 
BRANCH   7   8
ATOM      8  C   UNL     1      58.440  25.878  50.152  1.00  0.00     0.004 C 
BRANCH   8   9
ATOM      9  C   UNL     1      59.199  26.985  49.408  1.00  0.00     0.027 C 
BRANCH   9  10
ATOM     10  C   UNL     1      58.793  28.347  49.897  1.00  0.00    -0.035 C 
ATOM     11  C   UNL     1      58.771  29.409  49.085  1.00  0.00     0.004 C 
ENDBRANCH   9  10
ENDBRANCH   8   9
ENDBRANCH   7   8
ENDBRANCH   1   7
TORSDOF 7
ENDMDL
MODEL 6
REMARK VINA RESULT:    -3.304     12.623     13.742
REMARK INTER + INTRA:          -4.988
REMARK INTER:                  -4.546
REMARK INTRA:                  -0.442
REMARK UNBOUND:                -0.332
REMARK SMILES C=CCCCCCCC(=O)[O-]
REMARK SMILES IDX 6 1 7 2 8 3 9 4 10 5 11 6 5 7 4 8 3 9 2 10 1 11
REMARK H PARENT
REMARK Flexibility Score: inf
ROOT
ATOM      1  C   UNL     1      60.829  31.481  61.143  1.00  0.00     0.000 C 
ENDROOT
BRANCH   1   2
ATOM      2  C   UNL     1      61.977  30.781  61.887  1.00  0.00     0.006 C 
BRANCH   2   3
ATOM      3  C   UNL     1      62.040  29.280  61.576  1.00  0.00     0.053 C 
BRANCH   3   4
ATOM      4  C   UNL     1      63.424  28.852  61.192  1.00  0.00     0.041 C 
ATOM      5  O   UNL     1      63.652  27.658  60.866  1.00  0.00    -0.550 OA
ATOM      6  O   UNL     1      64.468  29.768  61.224  1.00  0.00    -0.550 OA
ENDBRANCH   3   4
ENDBRANCH   2   3
ENDBRANCH   1   2
BRANCH   1   7
ATOM      7  C   UNL     1      61.282  32.836  60.585  1.00  0.00     0.000 C 
BRANCH   7   8
ATOM      8  C   UNL     1      62.809  32.890  60.444  1.00  0.00     0.004 C 
BRANCH   8   9
ATOM      9  C   UNL     1      63.366  34.206  61.003  1.00  0.00     0.027 C 
BRANCH   9  10
ATOM     10  C   UNL     1      62.398  35.338  60.797  1.00  0.00    -0.035 C 
ATOM     11  C   UNL     1      62.576  36.530  61.374  1.00  0.00     0.004 C 
ENDBRANCH   9  10
ENDBRANCH   8   9
ENDBRANCH   7   8
ENDBRANCH   1   7
TORSDOF 7
ENDMDL
MODEL 7
REMARK VINA RESULT:    -3.292     13.461     14.315
REMARK INTER + INTRA:          -4.971
REMARK INTER:                  -4.357
REMARK INTRA:                  -0.614
REMARK UNBOUND:                -0.332
REMARK SMILES C=CCCCCCCC(=O)[O-]
REMARK SMILES IDX 6 1 7 2 8 3 9 4 10 5 11 6 5 7 4 8 3 9 2 10 1 11
REMARK H PARENT
REMARK Flexibility Score: inf
ROOT
ATOM      1  C   UNL     1      64.096  32.883  60.011  1.00  0.00     0.000 C 
ENDROOT
BRANCH   1   2
ATOM      2  C   UNL     1      63.944  33.994  61.062  1.00  0.00     0.006 C 
BRANCH   2   3
ATOM      3  C   UNL     1      62.782  34.942  60.740  1.00  0.00     0.053 C 
BRANCH   3   4
ATOM      4  C   UNL     1      62.936  36.261  61.434  1.00  0.00     0.041 C 
ATOM      5  O   UNL     1      61.994  37.097  61.427  1.00  0.00    -0.550 OA
ATOM      6  O   UNL     1      64.133  36.580  62.063  1.00  0.00    -0.550 OA
ENDBRANCH   3   4
ENDBRANCH   2   3
ENDBRANCH   1   2
BRANCH   1   7
ATOM      7  C   UNL     1      64.504  31.559  60.667  1.00  0.00     0.000 C 
BRANCH   7   8
ATOM      8  C   UNL     1      63.410  30.498  60.493  1.00  0.00     0.004 C 
BRANCH   8   9
ATOM      9  C   UNL     1      62.572  30.358  61.770  1.00  0.00     0.027 C 
BRANCH   9  10
ATOM     10  C   UNL     1      61.123  30.658  61.506  1.00  0.00    -0.035 C 
ATOM     11  C   UNL     1      60.683  31.908  61.331  1.00  0.00     0.004 C 
ENDBRANCH   9  10
ENDBRANCH   8   9
ENDBRANCH   7   8
ENDBRANCH   1   7
TORSDOF 7
ENDMDL
MODEL 8
REMARK VINA RESULT:    -3.291      1.777      2.336
REMARK INTER + INTRA:          -4.971
REMARK INTER:                  -4.545
REMARK INTRA:                  -0.425
REMARK UNBOUND:                -0.332
REMARK SMILES C=CCCCCCCC(=O)[O-]
REMARK SMILES IDX 6 1 7 2 8 3 9 4 10 5 11 6 5 7 4 8 3 9 2 10 1 11
REMARK H PARENT
REMARK Flexibility Score: inf
ROOT
ATOM      1  C   UNL     1      58.480  26.267  50.492  1.00  0.00     0.000 C 
ENDROOT
BRANCH   1   2
ATOM      2  C   UNL     1      59.362  26.761  49.335  1.00  0.00     0.006 C 
BRANCH   2   3
ATOM      3  C   UNL     1      60.393  27.800  49.792  1.00  0.00     0.053 C 
BRANCH   3   4
ATOM      4  C   UNL     1      59.919  29.199  49.541  1.00  0.00     0.041 C 
ATOM      5  O   UNL     1      60.558  30.179  50.004  1.00  0.00    -0.550 OA
ATOM      6  O   UNL     1      58.753  29.418  48.819  1.00  0.00    -0.550 OA
ENDBRANCH   3   4
ENDBRANCH   2   3
ENDBRANCH   1   2
BRANCH   1   7
ATOM      7  C   UNL     1      57.006  26.213  50.075  1.00  0.00     0.000 C 
BRANCH   7   8
ATOM      8  C   UNL     1      56.286  27.521  50.426  1.00  0.00     0.004 C 
BRANCH   8   9
ATOM      9  C   UNL     1      54.833  27.497  49.935  1.00  0.00     0.027 C 
BRANCH   9  10
ATOM     10  C   UNL     1      54.483  26.165  49.332  1.00  0.00    -0.035 C 
ATOM     11  C   UNL     1      53.239  25.875  48.939  1.00  0.00     0.004 C 
ENDBRANCH   9  10
ENDBRANCH   8   9
ENDBRANCH   7   8
ENDBRANCH   1   7
TORSDOF 7
ENDMDL
MODEL 9
REMARK VINA RESULT:    -3.213      1.337      2.108
REMARK INTER + INTRA:          -4.861
REMARK INTER:                  -4.227
REMARK INTRA:                  -0.634
REMARK UNBOUND:                -0.332
REMARK SMILES C=CCCCCCCC(=O)[O-]
REMARK SMILES IDX 6 1 7 2 8 3 9 4 10 5 11 6 5 7 4 8 3 9 2 10 1 11
REMARK H PARENT
REMARK Flexibility Score: inf
ROOT
ATOM      1  C   UNL     1      57.548  27.868  50.991  1.00  0.00     0.000 C 
ENDROOT
BRANCH   1   2
ATOM      2  C   UNL     1      57.637  29.212  50.252  1.00  0.00     0.006 C 
BRANCH   2   3
ATOM      3  C   UNL     1      58.639  29.172  49.092  1.00  0.00     0.053 C 
BRANCH   3   4
ATOM      4  C   UNL     1      60.025  28.861  49.567  1.00  0.00     0.041 C 
ATOM      5  O   UNL     1      60.612  27.817  49.179  1.00  0.00    -0.550 OA
ATOM      6  O   UNL     1      60.658  29.712  50.465  1.00  0.00    -0.550 OA
ENDBRANCH   3   4
ENDBRANCH   2   3
ENDBRANCH   1   2
BRANCH   1   7
ATOM      7  C   UNL     1      57.076  26.754  50.049  1.00  0.00     0.000 C 
BRANCH   7   8
ATOM      8  C   UNL     1      55.687  26.245  50.451  1.00  0.00     0.004 C 
BRANCH   8   9
ATOM      9  C   UNL     1      54.586  26.991  49.688  1.00  0.00     0.027 C 
BRANCH   9  10
ATOM     10  C   UNL     1      53.927  28.027  50.557  1.00  0.00    -0.035 C 
ATOM     11  C   UNL     1      53.697  29.269  50.119  1.00  0.00     0.004 C 
ENDBRANCH   9  10
ENDBRANCH   8   9
ENDBRANCH   7   8
ENDBRANCH   1   7
TORSDOF 7
ENDMDL
