MODEL 1
REMARK VINA RESULT:    -3.978      0.000      0.000
REMARK INTER + INTRA:          -5.423
REMARK INTER:                  -5.141
REMARK INTRA:                  -0.282
REMARK UNBOUND:                -0.282
REMARK SMILES CCCCCCC(=O)[O-]
REMARK SMILES IDX 5 1 6 2 7 3 8 4 9 5 4 6 3 7 2 8 1 9
REMARK H PARENT
REMARK Flexibility Score: inf
ROOT
ATOM      1  C   UNL     1      16.852 -38.035  29.515  1.00  0.00     0.006 C 
ENDROOT
BRANCH   1   2
ATOM      2  C   UNL     1      17.651 -38.967  30.436  1.00  0.00     0.053 C 
BRANCH   2   3
ATOM      3  C   UNL     1      19.120 -38.685  30.372  1.00  0.00     0.041 C 
ATOM      4  O   UNL     1      19.664 -38.398  29.274  1.00  0.00    -0.550 OA
ATOM      5  O   UNL     1      19.884 -38.704  31.533  1.00  0.00    -0.550 OA
ENDBRANCH   2   3
ENDBRANCH   1   2
BRANCH   1   6
ATOM      6  C   UNL     1      15.713 -38.773  28.790  1.00  0.00     0.000 C 
BRANCH   6   7
ATOM      7  C   UNL     1      15.912 -38.813  27.266  1.00  0.00    -0.000 C 
BRANCH   7   8
ATOM      8  C   UNL     1      16.947 -37.790  26.778  1.00  0.00    -0.003 C 
ATOM      9  C   UNL     1      18.160 -38.485  26.168  1.00  0.00     0.004 C 
ENDBRANCH   7   8
ENDBRANCH   6   7
ENDBRANCH   1   6
TORSDOF 5
ENDMDL
MODEL 2
REMARK VINA RESULT:    -3.586     10.833     11.856
REMARK INTER + INTRA:          -4.916
REMARK INTER:                  -4.709
REMARK INTRA:                  -0.207
REMARK UNBOUND:                -0.282
REMARK SMILES CCCCCCC(=O)[O-]
REMARK SMILES IDX 5 1 6 2 7 3 8 4 9 5 4 6 3 7 2 8 1 9
REMARK H PARENT
REMARK Flexibility Score: inf
ROOT
ATOM      1  C   UNL     1      13.364 -29.824  24.257  1.00  0.00     0.006 C 
ENDROOT
BRANCH   1   2
ATOM      2  C   UNL     1      12.042 -29.098  23.974  1.00  0.00     0.053 C 
BRANCH   2   3
ATOM      3  C   UNL     1      12.019 -27.729  24.583  1.00  0.00     0.041 C 
ATOM      4  O   UNL     1      11.212 -26.861  24.160  1.00  0.00    -0.550 OA
ATOM      5  O   UNL     1      12.864 -27.424  25.643  1.00  0.00    -0.550 OA
ENDBRANCH   2   3
ENDBRANCH   1   2
BRANCH   1   6
ATOM      6  C   UNL     1      13.411 -31.218  23.606  1.00  0.00     0.000 C 
BRANCH   6   7
ATOM      7  C   UNL     1      12.634 -31.278  22.281  1.00  0.00    -0.000 C 
BRANCH   7   8
ATOM      8  C   UNL     1      13.467 -31.868  21.135  1.00  0.00    -0.003 C 
ATOM      9  C   UNL     1      14.956 -31.616  21.352  1.00  0.00     0.004 C 
ENDBRANCH   7   8
ENDBRANCH   6   7
ENDBRANCH   1   6
TORSDOF 5
ENDMDL
MODEL 3
REMARK VINA RESULT:    -3.584      1.922      3.857
REMARK INTER + INTRA:          -4.913
REMARK INTER:                  -4.584
REMARK INTRA:                  -0.330
REMARK UNBOUND:                -0.282
REMARK SMILES CCCCCCC(=O)[O-]
REMARK SMILES IDX 5 1 6 2 7 3 8 4 9 5 4 6 3 7 2 8 1 9
REMARK H PARENT
REMARK Flexibility Score: inf
ROOT
ATOM      1  C   UNL     1      16.806 -37.297  27.343  1.00  0.00     0.006 C 
ENDROOT
BRANCH   1   2
ATOM      2  C   UNL     1      17.408 -37.273  25.932  1.00  0.00     0.053 C 
BRANCH   2   3
ATOM      3  C   UNL     1      18.782 -37.869  25.903  1.00  0.00     0.041 C 
ATOM      4  O   UNL     1      19.576 -37.680  26.862  1.00  0.00    -0.550 OA
ATOM      5  O   UNL     1      19.173 -38.666  24.834  1.00  0.00    -0.550 OA
ENDBRANCH   2   3
ENDBRANCH   1   2
BRANCH   1   6
ATOM      6  C   UNL     1      16.145 -38.648  27.668  1.00  0.00     0.000 C 
BRANCH   6   7
ATOM      7  C   UNL     1      16.434 -39.117  29.103  1.00  0.00    -0.000 C 
BRANCH   7   8
ATOM      8  C   UNL     1      17.268 -38.103  29.899  1.00  0.00    -0.003 C 
ATOM      9  C   UNL     1      18.588 -38.717  30.356  1.00  0.00     0.004 C 
ENDBRANCH   7   8
ENDBRANCH   6   7
ENDBRANCH   1   6
TORSDOF 5
ENDMDL
MODEL 4
REMARK VINA RESULT:    -3.575     10.243     11.687
REMARK INTER + INTRA:          -4.902
REMARK INTER:                  -4.798
REMARK INTRA:                  -0.104
REMARK UNBOUND:                -0.282
REMARK SMILES CCCCCCC(=O)[O-]
REMARK SMILES IDX 5 1 6 2 7 3 8 4 9 5 4 6 3 7 2 8 1 9
REMARK H PARENT
REMARK Flexibility Score: inf
ROOT
ATOM      1  C   UNL     1      13.070 -30.439  22.877  1.00  0.00     0.006 C 
ENDROOT
BRANCH   1   2
ATOM      2  C   UNL     1      13.569 -31.891  22.862  1.00  0.00     0.053 C 
BRANCH   2   3
ATOM      3  C   UNL     1      14.007 -32.313  21.493  1.00  0.00     0.041 C 
ATOM      4  O   UNL     1      15.159 -32.789  21.315  1.00  0.00    -0.550 OA
ATOM      5  O   UNL     1      13.130 -32.216  20.420  1.00  0.00    -0.550 OA
ENDBRANCH   2   3
ENDBRANCH   1   2
BRANCH   1   6
ATOM      6  C   UNL     1      13.133 -29.818  24.283  1.00  0.00     0.000 C 
BRANCH   6   7
ATOM      7  C   UNL     1      12.234 -28.579  24.423  1.00  0.00    -0.000 C 
BRANCH   7   8
ATOM      8  C   UNL     1      12.753 -27.589  25.476  1.00  0.00    -0.003 C 
ATOM      9  C   UNL     1      13.808 -26.661  24.883  1.00  0.00     0.004 C 
ENDBRANCH   7   8
ENDBRANCH   6   7
ENDBRANCH   1   6
TORSDOF 5
ENDMDL
MODEL 5
REMARK VINA RESULT:    -3.574      3.665      4.994
REMARK INTER + INTRA:          -4.901
REMARK INTER:                  -4.631
REMARK INTRA:                  -0.269
REMARK UNBOUND:                -0.282
REMARK SMILES CCCCCCC(=O)[O-]
REMARK SMILES IDX 5 1 6 2 7 3 8 4 9 5 4 6 3 7 2 8 1 9
REMARK H PARENT
REMARK Flexibility Score: inf
ROOT
ATOM      1  C   UNL     1      18.033 -37.590  26.052  1.00  0.00     0.006 C 
ENDROOT
BRANCH   1   2
ATOM      2  C   UNL     1      17.198 -36.315  26.236  1.00  0.00     0.053 C 
BRANCH   2   3
ATOM      3  C   UNL     1      17.020 -35.576  24.946  1.00  0.00     0.041 C 
ATOM      4  O   UNL     1      17.461 -36.061  23.871  1.00  0.00    -0.550 OA
ATOM      5  O   UNL     1      16.334 -34.368  24.924  1.00  0.00    -0.550 OA
ENDBRANCH   2   3
ENDBRANCH   1   2
BRANCH   1   6
ATOM      6  C   UNL     1      17.488 -38.766  26.881  1.00  0.00     0.000 C 
BRANCH   6   7
ATOM      7  C   UNL     1      16.022 -38.566  27.296  1.00  0.00    -0.000 C 
BRANCH   7   8
ATOM      8  C   UNL     1      15.723 -39.125  28.695  1.00  0.00    -0.003 C 
ATOM      9  C   UNL     1      16.860 -38.814  29.664  1.00  0.00     0.004 C 
ENDBRANCH   7   8
ENDBRANCH   6   7
ENDBRANCH   1   6
TORSDOF 5
ENDMDL
MODEL 6
REMARK VINA RESULT:    -3.515     14.674     15.979
REMARK INTER + INTRA:          -4.824
REMARK INTER:                  -4.667
REMARK INTRA:                  -0.158
REMARK UNBOUND:                -0.282
REMARK SMILES CCCCCCC(=O)[O-]
REMARK SMILES IDX 5 1 6 2 7 3 8 4 9 5 4 6 3 7 2 8 1 9
REMARK H PARENT
REMARK Flexibility Score: inf
ROOT
ATOM      1  C   UNL     1      22.456 -26.250  20.247  1.00  0.00     0.006 C 
ENDROOT
BRANCH   1   2
ATOM      2  C   UNL     1      23.275 -25.211  19.468  1.00  0.00     0.053 C 
BRANCH   2   3
ATOM      3  C   UNL     1      23.879 -24.186  20.377  1.00  0.00     0.041 C 
ATOM      4  O   UNL     1      24.759 -23.395  19.945  1.00  0.00    -0.550 OA
ATOM      5  O   UNL     1      23.445 -24.078  21.693  1.00  0.00    -0.550 OA
ENDBRANCH   2   3
ENDBRANCH   1   2
BRANCH   1   6
ATOM      6  C   UNL     1      20.942 -26.004  20.126  1.00  0.00     0.000 C 
BRANCH   6   7
ATOM      7  C   UNL     1      20.112 -27.020  20.928  1.00  0.00    -0.000 C 
BRANCH   7   8
ATOM      8  C   UNL     1      20.736 -28.423  20.927  1.00  0.00    -0.003 C 
ATOM      9  C   UNL     1      19.689 -29.488  21.241  1.00  0.00     0.004 C 
ENDBRANCH   7   8
ENDBRANCH   6   7
ENDBRANCH   1   6
TORSDOF 5
ENDMDL
MODEL 7
REMARK VINA RESULT:    -3.471      9.879     11.120
REMARK INTER + INTRA:          -4.767
REMARK INTER:                  -4.465
REMARK INTRA:                  -0.302
REMARK UNBOUND:                -0.282
REMARK SMILES CCCCCCC(=O)[O-]
REMARK SMILES IDX 5 1 6 2 7 3 8 4 9 5 4 6 3 7 2 8 1 9
REMARK H PARENT
REMARK Flexibility Score: inf
ROOT
ATOM      1  C   UNL     1      14.906 -30.157  22.986  1.00  0.00     0.006 C 
ENDROOT
BRANCH   1   2
ATOM      2  C   UNL     1      13.677 -30.621  23.780  1.00  0.00     0.053 C 
BRANCH   2   3
ATOM      3  C   UNL     1      12.708 -29.502  24.009  1.00  0.00     0.041 C 
ATOM      4  O   UNL     1      12.924 -28.650  24.910  1.00  0.00    -0.550 OA
ATOM      5  O   UNL     1      11.584 -29.379  23.202  1.00  0.00    -0.550 OA
ENDBRANCH   2   3
ENDBRANCH   1   2
BRANCH   1   6
ATOM      6  C   UNL     1      14.961 -30.783  21.582  1.00  0.00     0.000 C 
BRANCH   6   7
ATOM      7  C   UNL     1      13.752 -31.686  21.290  1.00  0.00    -0.000 C 
BRANCH   7   8
ATOM      8  C   UNL     1      14.161 -33.081  20.796  1.00  0.00    -0.003 C 
ATOM      9  C   UNL     1      15.024 -33.798  21.830  1.00  0.00     0.004 C 
ENDBRANCH   7   8
ENDBRANCH   6   7
ENDBRANCH   1   6
TORSDOF 5
ENDMDL
MODEL 8
REMARK VINA RESULT:    -3.448      8.384      9.907
REMARK INTER + INTRA:          -4.738
REMARK INTER:                  -4.381
REMARK INTRA:                  -0.357
REMARK UNBOUND:                -0.282
REMARK SMILES CCCCCCC(=O)[O-]
REMARK SMILES IDX 5 1 6 2 7 3 8 4 9 5 4 6 3 7 2 8 1 9
REMARK H PARENT
REMARK Flexibility Score: inf
ROOT
ATOM      1  C   UNL     1      14.938 -33.241  24.028  1.00  0.00     0.006 C 
ENDROOT
BRANCH   1   2
ATOM      2  C   UNL     1      15.549 -32.923  22.656  1.00  0.00     0.053 C 
BRANCH   2   3
ATOM      3  C   UNL     1      14.952 -33.768  21.573  1.00  0.00     0.041 C 
ATOM      4  O   UNL     1      14.147 -33.264  20.746  1.00  0.00    -0.550 OA
ATOM      5  O   UNL     1      15.313 -35.104  21.453  1.00  0.00    -0.550 OA
ENDBRANCH   2   3
ENDBRANCH   1   2
BRANCH   1   6
ATOM      6  C   UNL     1      13.846 -32.233  24.424  1.00  0.00     0.000 C 
BRANCH   6   7
ATOM      7  C   UNL     1      14.080 -30.839  23.818  1.00  0.00    -0.000 C 
BRANCH   7   8
ATOM      8  C   UNL     1      12.773 -30.145  23.411  1.00  0.00    -0.003 C 
ATOM      9  C   UNL     1      12.086 -30.893  22.271  1.00  0.00     0.004 C 
ENDBRANCH   7   8
ENDBRANCH   6   7
ENDBRANCH   1   6
TORSDOF 5
ENDMDL
MODEL 9
REMARK VINA RESULT:    -3.429     13.942     15.289
REMARK INTER + INTRA:          -4.714
REMARK INTER:                  -4.615
REMARK INTRA:                  -0.099
REMARK UNBOUND:                -0.282
REMARK SMILES CCCCCCC(=O)[O-]
REMARK SMILES IDX 5 1 6 2 7 3 8 4 9 5 4 6 3 7 2 8 1 9
REMARK H PARENT
REMARK Flexibility Score: inf
ROOT
ATOM      1  C   UNL     1      20.962 -25.958  20.142  1.00  0.00     0.006 C 
ENDROOT
BRANCH   1   2
ATOM      2  C   UNL     1      22.474 -26.223  20.136  1.00  0.00     0.053 C 
BRANCH   2   3
ATOM      3  C   UNL     1      23.262 -24.950  20.172  1.00  0.00     0.041 C 
ATOM      4  O   UNL     1      23.437 -24.342  21.260  1.00  0.00    -0.550 OA
ATOM      5  O   UNL     1      23.835 -24.453  19.007  1.00  0.00    -0.550 OA
ENDBRANCH   2   3
ENDBRANCH   1   2
BRANCH   1   6
ATOM      6  C   UNL     1      20.231 -26.793  21.207  1.00  0.00     0.000 C 
BRANCH   6   7
ATOM      7  C   UNL     1      20.197 -28.291  20.864  1.00  0.00    -0.000 C 
BRANCH   7   8
ATOM      8  C   UNL     1      18.777 -28.872  20.895  1.00  0.00    -0.003 C 
ATOM      9  C   UNL     1      18.801 -30.360  21.234  1.00  0.00     0.004 C 
ENDBRANCH   7   8
ENDBRANCH   6   7
ENDBRANCH   1   6
TORSDOF 5
ENDMDL
