MODEL 1
REMARK VINA RESULT:    -5.380      0.000      0.000
REMARK INTER + INTRA:          -8.027
REMARK INTER:                  -7.267
REMARK INTRA:                  -0.760
REMARK UNBOUND:                -0.760
REMARK SMILES CC(=O)CCC=C(C)CCC=C(C)C
REMARK SMILES IDX 7 1 6 2 8 3 9 4 10 5 11 6 13 7 12 8 14 9 5 10 4 11 2 12 3 13
REMARK SMILES IDX 1 14
REMARK H PARENT
REMARK Flexibility Score: inf
ROOT
ATOM      1  C   UNL     1      14.240 -32.460  21.359  1.00  0.00    -0.077 C 
ATOM      2  C   UNL     1      14.756 -33.627  20.905  1.00  0.00    -0.028 C 
ATOM      3  C   UNL     1      13.244 -31.740  20.485  1.00  0.00     0.039 C 
ENDROOT
BRANCH   1   4
ATOM      4  C   UNL     1      14.618 -31.842  22.692  1.00  0.00     0.034 C 
BRANCH   4   5
ATOM      5  C   UNL     1      13.375 -31.528  23.533  1.00  0.00     0.032 C 
BRANCH   5   6
ATOM      6  C   UNL     1      13.374 -30.083  23.966  1.00  0.00    -0.028 C 
ATOM      7  C   UNL     1      12.584 -27.737  24.023  1.00  0.00     0.039 C 
ATOM      8  C   UNL     1      12.473 -29.163  23.551  1.00  0.00    -0.080 C 
ATOM      9  C   UNL     1      11.317 -29.524  22.650  1.00  0.00     0.039 C 
ENDBRANCH   5   6
ENDBRANCH   4   5
ENDBRANCH   1   4
BRANCH   2  10
ATOM     10  C   UNL     1      15.738 -34.503  21.645  1.00  0.00     0.035 C 
BRANCH  10  11
ATOM     11  C   UNL     1      17.157 -34.261  21.125  1.00  0.00     0.079 C 
BRANCH  11  12
ATOM     12  C   UNL     1      17.330 -34.858  19.753  1.00  0.00     0.130 C 
ATOM     13  O   UNL     1      17.666 -34.142  18.823  1.00  0.00    -0.300 OA
ATOM     14  C   UNL     1      17.094 -36.319  19.504  1.00  0.00     0.087 C 
ENDBRANCH  11  12
ENDBRANCH  10  11
ENDBRANCH   2  10
TORSDOF 6
ENDMDL
MODEL 2
REMARK VINA RESULT:    -5.319      1.287      1.719
REMARK INTER + INTRA:          -7.945
REMARK INTER:                  -7.122
REMARK INTRA:                  -0.823
REMARK UNBOUND:                -0.760
REMARK SMILES CC(=O)CCC=C(C)CCC=C(C)C
REMARK SMILES IDX 7 1 6 2 8 3 9 4 10 5 11 6 13 7 12 8 14 9 5 10 4 11 2 12 3 13
REMARK SMILES IDX 1 14
REMARK H PARENT
REMARK Flexibility Score: inf
ROOT
ATOM      1  C   UNL     1      14.923 -32.602  23.231  1.00  0.00    -0.077 C 
ATOM      2  C   UNL     1      14.998 -33.560  22.277  1.00  0.00    -0.028 C 
ATOM      3  C   UNL     1      14.001 -32.839  24.401  1.00  0.00     0.039 C 
ENDROOT
BRANCH   1   4
ATOM      4  C   UNL     1      15.712 -31.306  23.176  1.00  0.00     0.034 C 
BRANCH   4   5
ATOM      5  C   UNL     1      14.993 -30.253  22.324  1.00  0.00     0.032 C 
BRANCH   5   6
ATOM      6  C   UNL     1      14.066 -29.421  23.174  1.00  0.00    -0.028 C 
ATOM      7  C   UNL     1      11.884 -28.590  23.998  1.00  0.00     0.039 C 
ATOM      8  C   UNL     1      12.716 -29.493  23.125  1.00  0.00    -0.080 C 
ATOM      9  C   UNL     1      11.999 -30.488  22.246  1.00  0.00     0.039 C 
ENDBRANCH   5   6
ENDBRANCH   4   5
ENDBRANCH   1   4
BRANCH   2  10
ATOM     10  C   UNL     1      15.881 -33.520  21.053  1.00  0.00     0.035 C 
BRANCH  10  11
ATOM     11  C   UNL     1      15.541 -34.684  20.119  1.00  0.00     0.079 C 
BRANCH  11  12
ATOM     12  C   UNL     1      16.796 -35.320  19.583  1.00  0.00     0.130 C 
ATOM     13  O   UNL     1      17.624 -34.627  19.011  1.00  0.00    -0.300 OA
ATOM     14  C   UNL     1      17.051 -36.791  19.733  1.00  0.00     0.087 C 
ENDBRANCH  11  12
ENDBRANCH  10  11
ENDBRANCH   2  10
TORSDOF 6
ENDMDL
MODEL 3
REMARK VINA RESULT:    -5.282      2.906      6.336
REMARK INTER + INTRA:          -7.894
REMARK INTER:                  -6.909
REMARK INTRA:                  -0.985
REMARK UNBOUND:                -0.760
REMARK SMILES CC(=O)CCC=C(C)CCC=C(C)C
REMARK SMILES IDX 7 1 6 2 8 3 9 4 10 5 11 6 13 7 12 8 14 9 5 10 4 11 2 12 3 13
REMARK SMILES IDX 1 14
REMARK H PARENT
REMARK Flexibility Score: inf
ROOT
ATOM      1  C   UNL     1      16.158 -31.626  23.425  1.00  0.00    -0.077 C 
ATOM      2  C   UNL     1      15.162 -30.716  23.306  1.00  0.00    -0.028 C 
ATOM      3  C   UNL     1      17.505 -31.280  22.843  1.00  0.00     0.039 C 
ENDROOT
BRANCH   1   4
ATOM      4  C   UNL     1      15.982 -32.972  24.104  1.00  0.00     0.034 C 
BRANCH   4   5
ATOM      5  C   UNL     1      15.053 -33.886  23.297  1.00  0.00     0.032 C 
BRANCH   5   6
ATOM      6  C   UNL     1      15.731 -34.356  22.035  1.00  0.00    -0.028 C 
ATOM      7  C   UNL     1      16.076 -34.560  19.591  1.00  0.00     0.039 C 
ATOM      8  C   UNL     1      15.345 -34.005  20.786  1.00  0.00    -0.080 C 
ATOM      9  C   UNL     1      14.219 -33.032  20.539  1.00  0.00     0.039 C 
ENDBRANCH   5   6
ENDBRANCH   4   5
ENDBRANCH   1   4
BRANCH   2  10
ATOM     10  C   UNL     1      13.760 -30.866  23.847  1.00  0.00     0.035 C 
BRANCH  10  11
ATOM     11  C   UNL     1      12.741 -30.382  22.812  1.00  0.00     0.079 C 
BRANCH  11  12
ATOM     12  C   UNL     1      11.995 -29.177  23.323  1.00  0.00     0.130 C 
ATOM     13  O   UNL     1      10.890 -28.918  22.872  1.00  0.00    -0.300 OA
ATOM     14  C   UNL     1      12.585 -28.284  24.374  1.00  0.00     0.087 C 
ENDBRANCH  11  12
ENDBRANCH  10  11
ENDBRANCH   2  10
TORSDOF 6
ENDMDL
MODEL 4
REMARK VINA RESULT:    -5.176      2.604      4.727
REMARK INTER + INTRA:          -7.752
REMARK INTER:                  -6.361
REMARK INTRA:                  -1.391
REMARK UNBOUND:                -0.760
REMARK SMILES CC(=O)CCC=C(C)CCC=C(C)C
REMARK SMILES IDX 7 1 6 2 8 3 9 4 10 5 11 6 13 7 12 8 14 9 5 10 4 11 2 12 3 13
REMARK SMILES IDX 1 14
REMARK H PARENT
REMARK Flexibility Score: inf
ROOT
ATOM      1  C   UNL     1      13.979 -30.882  22.360  1.00  0.00    -0.077 C 
ATOM      2  C   UNL     1      14.998 -30.128  21.885  1.00  0.00    -0.028 C 
ATOM      3  C   UNL     1      12.963 -31.400  21.374  1.00  0.00     0.039 C 
ENDROOT
BRANCH   1   4
ATOM      4  C   UNL     1      13.807 -31.222  23.829  1.00  0.00     0.034 C 
BRANCH   4   5
ATOM      5  C   UNL     1      13.868 -32.737  24.061  1.00  0.00     0.032 C 
BRANCH   5   6
ATOM      6  C   UNL     1      15.297 -33.198  24.201  1.00  0.00    -0.028 C 
ATOM      7  C   UNL     1      17.381 -34.351  23.523  1.00  0.00     0.039 C 
ATOM      8  C   UNL     1      15.962 -33.914  23.265  1.00  0.00    -0.080 C 
ATOM      9  C   UNL     1      15.343 -34.263  21.934  1.00  0.00     0.039 C 
ENDBRANCH   5   6
ENDBRANCH   4   5
ENDBRANCH   1   4
BRANCH   2  10
ATOM     10  C   UNL     1      16.124 -29.547  22.706  1.00  0.00     0.035 C 
BRANCH  10  11
ATOM     11  C   UNL     1      17.343 -30.472  22.659  1.00  0.00     0.079 C 
BRANCH  11  12
ATOM     12  C   UNL     1      18.081 -30.312  21.355  1.00  0.00     0.130 C 
ATOM     13  O   UNL     1      18.103 -31.238  20.559  1.00  0.00    -0.300 OA
ATOM     14  C   UNL     1      18.796 -29.037  21.016  1.00  0.00     0.087 C 
ENDBRANCH  11  12
ENDBRANCH  10  11
ENDBRANCH   2  10
TORSDOF 6
ENDMDL
MODEL 5
REMARK VINA RESULT:    -5.168      2.603      6.939
REMARK INTER + INTRA:          -7.740
REMARK INTER:                  -7.003
REMARK INTRA:                  -0.737
REMARK UNBOUND:                -0.760
REMARK SMILES CC(=O)CCC=C(C)CCC=C(C)C
REMARK SMILES IDX 7 1 6 2 8 3 9 4 10 5 11 6 13 7 12 8 14 9 5 10 4 11 2 12 3 13
REMARK SMILES IDX 1 14
REMARK H PARENT
REMARK Flexibility Score: inf
ROOT
ATOM      1  C   UNL     1      15.896 -32.536  22.743  1.00  0.00    -0.077 C 
ATOM      2  C   UNL     1      15.431 -31.428  23.367  1.00  0.00    -0.028 C 
ATOM      3  C   UNL     1      17.389 -32.706  22.620  1.00  0.00     0.039 C 
ENDROOT
BRANCH   1   4
ATOM      4  C   UNL     1      14.991 -33.604  22.156  1.00  0.00     0.034 C 
BRANCH   4   5
ATOM      5  C   UNL     1      15.193 -33.736  20.642  1.00  0.00     0.032 C 
BRANCH   5   6
ATOM      6  C   UNL     1      15.719 -35.105  20.290  1.00  0.00    -0.028 C 
ATOM      7  C   UNL     1      17.280 -36.740  19.279  1.00  0.00     0.039 C 
ATOM      8  C   UNL     1      16.864 -35.329  19.605  1.00  0.00    -0.080 C 
ATOM      9  C   UNL     1      17.777 -34.205  19.182  1.00  0.00     0.039 C 
ENDBRANCH   5   6
ENDBRANCH   4   5
ENDBRANCH   1   4
BRANCH   2  10
ATOM     10  C   UNL     1      13.979 -31.096  23.612  1.00  0.00     0.035 C 
BRANCH  10  11
ATOM     11  C   UNL     1      13.466 -30.142  22.531  1.00  0.00     0.079 C 
BRANCH  11  12
ATOM     12  C   UNL     1      12.159 -29.519  22.947  1.00  0.00     0.130 C 
ATOM     13  O   UNL     1      11.137 -29.804  22.342  1.00  0.00    -0.300 OA
ATOM     14  C   UNL     1      12.087 -28.550  24.090  1.00  0.00     0.087 C 
ENDBRANCH  11  12
ENDBRANCH  10  11
ENDBRANCH   2  10
TORSDOF 6
ENDMDL
MODEL 6
REMARK VINA RESULT:    -5.148      2.392      5.306
REMARK INTER + INTRA:          -7.713
REMARK INTER:                  -6.439
REMARK INTRA:                  -1.274
REMARK UNBOUND:                -0.760
REMARK SMILES CC(=O)CCC=C(C)CCC=C(C)C
REMARK SMILES IDX 7 1 6 2 8 3 9 4 10 5 11 6 13 7 12 8 14 9 5 10 4 11 2 12 3 13
REMARK SMILES IDX 1 14
REMARK H PARENT
REMARK Flexibility Score: inf
ROOT
ATOM      1  C   UNL     1      16.663 -35.125  19.777  1.00  0.00    -0.077 C 
ATOM      2  C   UNL     1      15.408 -34.930  20.248  1.00  0.00    -0.028 C 
ATOM      3  C   UNL     1      17.188 -36.538  19.729  1.00  0.00     0.039 C 
ENDROOT
BRANCH   1   4
ATOM      4  C   UNL     1      17.563 -33.998  19.305  1.00  0.00     0.034 C 
BRANCH   4   5
ATOM      5  C   UNL     1      18.336 -33.376  20.474  1.00  0.00     0.032 C 
BRANCH   5   6
ATOM      6  C   UNL     1      18.023 -31.906  20.600  1.00  0.00    -0.028 C 
ATOM      7  C   UNL     1      17.443 -29.808  21.780  1.00  0.00     0.039 C 
ATOM      8  C   UNL     1      17.777 -31.277  21.773  1.00  0.00    -0.080 C 
ATOM      9  C   UNL     1      17.867 -31.991  23.099  1.00  0.00     0.039 C 
ENDBRANCH   5   6
ENDBRANCH   4   5
ENDBRANCH   1   4
BRANCH   2  10
ATOM     10  C   UNL     1      14.700 -33.600  20.345  1.00  0.00     0.035 C 
BRANCH  10  11
ATOM     11  C   UNL     1      14.647 -33.135  21.802  1.00  0.00     0.079 C 
BRANCH  11  12
ATOM     12  C   UNL     1      13.895 -31.836  21.919  1.00  0.00     0.130 C 
ATOM     13  O   UNL     1      13.178 -31.471  21.000  1.00  0.00    -0.300 OA
ATOM     14  C   UNL     1      14.010 -30.975  23.143  1.00  0.00     0.087 C 
ENDBRANCH  11  12
ENDBRANCH  10  11
ENDBRANCH   2  10
TORSDOF 6
ENDMDL
MODEL 7
REMARK VINA RESULT:    -5.128      2.031      4.533
REMARK INTER + INTRA:          -7.686
REMARK INTER:                  -6.037
REMARK INTRA:                  -1.649
REMARK UNBOUND:                -0.760
REMARK SMILES CC(=O)CCC=C(C)CCC=C(C)C
REMARK SMILES IDX 7 1 6 2 8 3 9 4 10 5 11 6 13 7 12 8 14 9 5 10 4 11 2 12 3 13
REMARK SMILES IDX 1 14
REMARK H PARENT
REMARK Flexibility Score: inf
ROOT
ATOM      1  C   UNL     1      15.226 -31.097  23.416  1.00  0.00    -0.077 C 
ATOM      2  C   UNL     1      15.984 -30.186  22.761  1.00  0.00    -0.028 C 
ATOM      3  C   UNL     1      13.765 -30.786  23.621  1.00  0.00     0.039 C 
ENDROOT
BRANCH   1   4
ATOM      4  C   UNL     1      15.775 -32.404  23.958  1.00  0.00     0.034 C 
BRANCH   4   5
ATOM      5  C   UNL     1      14.921 -33.596  23.508  1.00  0.00     0.032 C 
BRANCH   5   6
ATOM      6  C   UNL     1      15.578 -34.320  22.360  1.00  0.00    -0.028 C 
ATOM      7  C   UNL     1      15.969 -34.924  19.990  1.00  0.00     0.039 C 
ATOM      8  C   UNL     1      15.271 -34.121  21.057  1.00  0.00    -0.080 C 
ATOM      9  C   UNL     1      14.270 -33.080  20.620  1.00  0.00     0.039 C 
ENDBRANCH   5   6
ENDBRANCH   4   5
ENDBRANCH   1   4
BRANCH   2  10
ATOM     10  C   UNL     1      17.451 -30.329  22.435  1.00  0.00     0.035 C 
BRANCH  10  11
ATOM     11  C   UNL     1      17.625 -31.050  21.096  1.00  0.00     0.079 C 
BRANCH  11  12
ATOM     12  C   UNL     1      18.519 -32.252  21.251  1.00  0.00     0.130 C 
ATOM     13  O   UNL     1      18.762 -32.951  20.279  1.00  0.00    -0.300 OA
ATOM     14  C   UNL     1      19.115 -32.613  22.580  1.00  0.00     0.087 C 
ENDBRANCH  11  12
ENDBRANCH  10  11
ENDBRANCH   2  10
TORSDOF 6
ENDMDL
MODEL 8
REMARK VINA RESULT:    -5.095      2.902      5.671
REMARK INTER + INTRA:          -7.642
REMARK INTER:                  -6.291
REMARK INTRA:                  -1.350
REMARK UNBOUND:                -0.760
REMARK SMILES CC(=O)CCC=C(C)CCC=C(C)C
REMARK SMILES IDX 7 1 6 2 8 3 9 4 10 5 11 6 13 7 12 8 14 9 5 10 4 11 2 12 3 13
REMARK SMILES IDX 1 14
REMARK H PARENT
REMARK Flexibility Score: inf
ROOT
ATOM      1  C   UNL     1      15.897 -34.118  23.275  1.00  0.00    -0.077 C 
ATOM      2  C   UNL     1      15.280 -33.397  24.241  1.00  0.00    -0.028 C 
ATOM      3  C   UNL     1      17.201 -34.792  23.619  1.00  0.00     0.039 C 
ENDROOT
BRANCH   1   4
ATOM      4  C   UNL     1      15.348 -34.272  21.868  1.00  0.00     0.034 C 
BRANCH   4   5
ATOM      5  C   UNL     1      16.330 -33.727  20.824  1.00  0.00     0.032 C 
BRANCH   5   6
ATOM      6  C   UNL     1      16.590 -32.259  21.050  1.00  0.00    -0.028 C 
ATOM      7  C   UNL     1      17.967 -30.229  21.385  1.00  0.00     0.039 C 
ATOM      8  C   UNL     1      17.822 -31.706  21.124  1.00  0.00    -0.080 C 
ATOM      9  C   UNL     1      19.077 -32.515  20.912  1.00  0.00     0.039 C 
ENDBRANCH   5   6
ENDBRANCH   4   5
ENDBRANCH   1   4
BRANCH   2  10
ATOM     10  C   UNL     1      13.960 -32.678  24.098  1.00  0.00     0.035 C 
BRANCH  10  11
ATOM     11  C   UNL     1      14.195 -31.218  23.700  1.00  0.00     0.079 C 
BRANCH  11  12
ATOM     12  C   UNL     1      13.158 -30.764  22.707  1.00  0.00     0.130 C 
ATOM     13  O   UNL     1      12.371 -29.884  23.020  1.00  0.00    -0.300 OA
ATOM     14  C   UNL     1      13.068 -31.375  21.340  1.00  0.00     0.087 C 
ENDBRANCH  11  12
ENDBRANCH  10  11
ENDBRANCH   2  10
TORSDOF 6
ENDMDL
MODEL 9
REMARK VINA RESULT:    -5.082      1.669      2.513
REMARK INTER + INTRA:          -7.624
REMARK INTER:                  -6.497
REMARK INTRA:                  -1.127
REMARK UNBOUND:                -0.760
REMARK SMILES CC(=O)CCC=C(C)CCC=C(C)C
REMARK SMILES IDX 7 1 6 2 8 3 9 4 10 5 11 6 13 7 12 8 14 9 5 10 4 11 2 12 3 13
REMARK SMILES IDX 1 14
REMARK H PARENT
REMARK Flexibility Score: inf
ROOT
ATOM      1  C   UNL     1      16.799 -30.983  22.237  1.00  0.00    -0.077 C 
ATOM      2  C   UNL     1      17.451 -31.630  21.242  1.00  0.00    -0.028 C 
ATOM      3  C   UNL     1      16.507 -29.515  22.055  1.00  0.00     0.039 C 
ENDROOT
BRANCH   1   4
ATOM      4  C   UNL     1      16.358 -31.659  23.523  1.00  0.00     0.034 C 
BRANCH   4   5
ATOM      5  C   UNL     1      14.977 -32.307  23.366  1.00  0.00     0.032 C 
BRANCH   5   6
ATOM      6  C   UNL     1      13.884 -31.287  23.562  1.00  0.00    -0.028 C 
ATOM      7  C   UNL     1      12.043 -29.780  22.874  1.00  0.00     0.039 C 
ATOM      8  C   UNL     1      13.086 -30.825  22.572  1.00  0.00    -0.080 C 
ATOM      9  C   UNL     1      13.173 -31.353  21.161  1.00  0.00     0.039 C 
ENDBRANCH   5   6
ENDBRANCH   4   5
ENDBRANCH   1   4
BRANCH   2  10
ATOM     10  C   UNL     1      17.805 -33.097  21.226  1.00  0.00     0.035 C 
BRANCH  10  11
ATOM     11  C   UNL     1      17.611 -33.672  19.821  1.00  0.00     0.079 C 
BRANCH  11  12
ATOM     12  C   UNL     1      16.520 -34.711  19.816  1.00  0.00     0.130 C 
ATOM     13  O   UNL     1      16.781 -35.855  19.480  1.00  0.00    -0.300 OA
ATOM     14  C   UNL     1      15.115 -34.367  20.214  1.00  0.00     0.087 C 
ENDBRANCH  11  12
ENDBRANCH  10  11
ENDBRANCH   2  10
TORSDOF 6
ENDMDL
