MODEL 1
REMARK VINA RESULT:    -3.159      0.000      0.000
REMARK INTER + INTRA:          -3.518
REMARK INTER:                  -3.344
REMARK INTRA:                  -0.174
REMARK UNBOUND:                -0.174
REMARK SMILES CC(C)[C@H]1CC[C@@H](C)CC1=O
REMARK SMILES IDX 8 1 7 2 6 3 5 4 4 5 10 6 11 7 9 8 2 9 1 10 3 11
REMARK H PARENT
REMARK Flexibility Score: inf
ROOT
ATOM      1  C   UNL     1     143.059 140.635 143.124  1.00  0.00     0.008 C 
ATOM      2  C   UNL     1     144.116 139.578 142.769  1.00  0.00    -0.007 C 
ATOM      3  C   UNL     1     144.052 139.176 141.278  1.00  0.00     0.004 C 
ATOM      4  C   UNL     1     142.816 138.319 140.934  1.00  0.00     0.012 C 
ATOM      5  C   UNL     1     142.721 137.057 141.826  1.00  0.00     0.058 C 
ATOM      6  C   UNL     1     142.815 137.513 143.273  1.00  0.00     0.136 C 
ATOM      7  O   UNL     1     141.919 137.302 144.077  1.00  0.00    -0.299 OA
ATOM      8  C   UNL     1     144.002 138.339 143.678  1.00  0.00     0.079 C 
ENDROOT
BRANCH   5   9
ATOM      9  C   UNL     1     141.447 136.195 141.542  1.00  0.00    -0.007 C 
ATOM     10  C   UNL     1     141.824 134.867 140.859  1.00  0.00     0.008 C 
ATOM     11  C   UNL     1     140.420 136.924 140.658  1.00  0.00     0.008 C 
ENDBRANCH   5   9
TORSDOF 1
ENDMDL
MODEL 2
REMARK VINA RESULT:    -3.157      2.181      2.905
REMARK INTER + INTRA:          -3.516
REMARK INTER:                  -3.341
REMARK INTRA:                  -0.174
REMARK UNBOUND:                -0.174
REMARK SMILES CC(C)[C@H]1CC[C@@H](C)CC1=O
REMARK SMILES IDX 8 1 7 2 6 3 5 4 4 5 10 6 11 7 9 8 2 9 1 10 3 11
REMARK H PARENT
REMARK Flexibility Score: inf
ROOT
ATOM      1  C   UNL     1     143.682 138.717 141.203  1.00  0.00     0.008 C 
ATOM      2  C   UNL     1     143.554 137.835 142.455  1.00  0.00    -0.007 C 
ATOM      3  C   UNL     1     142.672 136.592 142.196  1.00  0.00     0.004 C 
ATOM      4  C   UNL     1     141.173 136.930 142.059  1.00  0.00     0.012 C 
ATOM      5  C   UNL     1     140.642 137.709 143.287  1.00  0.00     0.058 C 
ATOM      6  C   UNL     1     141.561 138.900 143.505  1.00  0.00     0.136 C 
ATOM      7  O   UNL     1     141.149 140.050 143.467  1.00  0.00    -0.299 OA
ATOM      8  C   UNL     1     143.031 138.639 143.661  1.00  0.00     0.079 C 
ENDROOT
BRANCH   5   9
ATOM      9  C   UNL     1     139.137 138.118 143.155  1.00  0.00    -0.007 C 
ATOM     10  C   UNL     1     138.257 137.293 144.112  1.00  0.00     0.008 C 
ATOM     11  C   UNL     1     138.598 137.946 141.724  1.00  0.00     0.008 C 
ENDBRANCH   5   9
TORSDOF 1
ENDMDL
MODEL 3
REMARK VINA RESULT:    -3.136      2.783      5.400
REMARK INTER + INTRA:          -3.494
REMARK INTER:                  -3.315
REMARK INTRA:                  -0.178
REMARK UNBOUND:                -0.174
REMARK SMILES CC(C)[C@H]1CC[C@@H](C)CC1=O
REMARK SMILES IDX 8 1 7 2 6 3 5 4 4 5 10 6 11 7 9 8 2 9 1 10 3 11
REMARK H PARENT
REMARK Flexibility Score: inf
ROOT
ATOM      1  C   UNL     1     143.628 138.578 141.733  1.00  0.00     0.008 C 
ATOM      2  C   UNL     1     143.310 138.902 143.201  1.00  0.00    -0.007 C 
ATOM      3  C   UNL     1     142.041 139.774 143.337  1.00  0.00     0.004 C 
ATOM      4  C   UNL     1     142.253 141.229 142.872  1.00  0.00     0.012 C 
ATOM      5  C   UNL     1     143.439 141.904 143.604  1.00  0.00     0.058 C 
ATOM      6  C   UNL     1     144.645 140.991 143.457  1.00  0.00     0.136 C 
ATOM      7  O   UNL     1     145.674 141.361 142.910  1.00  0.00    -0.299 OA
ATOM      8  C   UNL     1     144.510 139.564 143.905  1.00  0.00     0.079 C 
ENDROOT
BRANCH   5   9
ATOM      9  C   UNL     1     143.718 143.363 143.114  1.00  0.00    -0.007 C 
ATOM     10  C   UNL     1     143.107 144.394 144.082  1.00  0.00     0.008 C 
ATOM     11  C   UNL     1     143.167 143.632 141.703  1.00  0.00     0.008 C 
ENDBRANCH   5   9
TORSDOF 1
ENDMDL
MODEL 4
REMARK VINA RESULT:    -3.136      4.907      5.767
REMARK INTER + INTRA:          -3.494
REMARK INTER:                  -3.317
REMARK INTRA:                  -0.177
REMARK UNBOUND:                -0.174
REMARK SMILES CC(C)[C@H]1CC[C@@H](C)CC1=O
REMARK SMILES IDX 8 1 7 2 6 3 5 4 4 5 10 6 11 7 9 8 2 9 1 10 3 11
REMARK H PARENT
REMARK Flexibility Score: inf
ROOT
ATOM      1  C   UNL     1     137.978 143.083 141.881  1.00  0.00     0.008 C 
ATOM      2  C   UNL     1     138.292 142.713 143.340  1.00  0.00    -0.007 C 
ATOM      3  C   UNL     1     139.555 141.829 143.450  1.00  0.00     0.004 C 
ATOM      4  C   UNL     1     139.333 140.390 142.943  1.00  0.00     0.012 C 
ATOM      5  C   UNL     1     138.143 139.702 143.654  1.00  0.00     0.058 C 
ATOM      6  C   UNL     1     136.943 140.627 143.533  1.00  0.00     0.136 C 
ATOM      7  O   UNL     1     135.912 140.280 142.975  1.00  0.00    -0.299 OA
ATOM      8  C   UNL     1     137.087 142.038 144.023  1.00  0.00     0.079 C 
ENDROOT
BRANCH   5   9
ATOM      9  C   UNL     1     137.855 138.259 143.122  1.00  0.00    -0.007 C 
ATOM     10  C   UNL     1     138.508 137.198 144.027  1.00  0.00     0.008 C 
ATOM     11  C   UNL     1     138.353 138.047 141.681  1.00  0.00     0.008 C 
ENDBRANCH   5   9
TORSDOF 1
ENDMDL
MODEL 5
REMARK VINA RESULT:    -3.127      4.187      5.593
REMARK INTER + INTRA:          -3.484
REMARK INTER:                  -3.310
REMARK INTRA:                  -0.174
REMARK UNBOUND:                -0.174
REMARK SMILES CC(C)[C@H]1CC[C@@H](C)CC1=O
REMARK SMILES IDX 8 1 7 2 6 3 5 4 4 5 10 6 11 7 9 8 2 9 1 10 3 11
REMARK H PARENT
REMARK Flexibility Score: inf
ROOT
ATOM      1  C   UNL     1     140.656 138.596 143.318  1.00  0.00     0.008 C 
ATOM      2  C   UNL     1     139.655 137.515 142.880  1.00  0.00    -0.007 C 
ATOM      3  C   UNL     1     139.329 137.607 141.372  1.00  0.00     0.004 C 
ATOM      4  C   UNL     1     138.449 138.823 141.017  1.00  0.00     0.012 C 
ATOM      5  C   UNL     1     137.141 138.853 141.843  1.00  0.00     0.058 C 
ATOM      6  C   UNL     1     137.524 138.733 143.309  1.00  0.00     0.136 C 
ATOM      7  O   UNL     1     137.242 139.598 144.124  1.00  0.00    -0.299 OA
ATOM      8  C   UNL     1     138.368 137.563 143.725  1.00  0.00     0.079 C 
ENDROOT
BRANCH   5   9
ATOM      9  C   UNL     1     136.251 140.105 141.548  1.00  0.00    -0.007 C 
ATOM     10  C   UNL     1     134.971 139.704 140.790  1.00  0.00     0.008 C 
ATOM     11  C   UNL     1     136.988 141.178 140.727  1.00  0.00     0.008 C 
ENDBRANCH   5   9
TORSDOF 1
ENDMDL
MODEL 6
REMARK VINA RESULT:    -3.127      4.708      6.662
REMARK INTER + INTRA:          -3.484
REMARK INTER:                  -3.307
REMARK INTRA:                  -0.177
REMARK UNBOUND:                -0.174
REMARK SMILES CC(C)[C@H]1CC[C@@H](C)CC1=O
REMARK SMILES IDX 8 1 7 2 6 3 5 4 4 5 10 6 11 7 9 8 2 9 1 10 3 11
REMARK H PARENT
REMARK Flexibility Score: inf
ROOT
ATOM      1  C   UNL     1     138.327 138.064 140.915  1.00  0.00     0.008 C 
ATOM      2  C   UNL     1     137.659 138.173 142.295  1.00  0.00    -0.007 C 
ATOM      3  C   UNL     1     136.426 139.104 142.266  1.00  0.00     0.004 C 
ATOM      4  C   UNL     1     136.796 140.595 142.126  1.00  0.00     0.012 C 
ATOM      5  C   UNL     1     137.779 141.054 143.230  1.00  0.00     0.058 C 
ATOM      6  C   UNL     1     138.953 140.088 143.226  1.00  0.00     0.136 C 
ATOM      7  O   UNL     1     140.098 140.463 143.019  1.00  0.00    -0.299 OA
ATOM      8  C   UNL     1     138.663 138.623 143.374  1.00  0.00     0.079 C 
ENDROOT
BRANCH   5   9
ATOM      9  C   UNL     1     138.220 142.548 143.083  1.00  0.00    -0.007 C 
ATOM     10  C   UNL     1     137.512 143.435 144.125  1.00  0.00     0.008 C 
ATOM     11  C   UNL     1     137.934 143.117 141.682  1.00  0.00     0.008 C 
ENDBRANCH   5   9
TORSDOF 1
ENDMDL
MODEL 7
REMARK VINA RESULT:    -3.113      2.523      4.094
REMARK INTER + INTRA:          -3.469
REMARK INTER:                  -3.294
REMARK INTRA:                  -0.175
REMARK UNBOUND:                -0.174
REMARK SMILES CC(C)[C@H]1CC[C@@H](C)CC1=O
REMARK SMILES IDX 8 1 7 2 6 3 5 4 4 5 10 6 11 7 9 8 2 9 1 10 3 11
REMARK H PARENT
REMARK Flexibility Score: inf
ROOT
ATOM      1  C   UNL     1     143.255 143.599 140.963  1.00  0.00     0.008 C 
ATOM      2  C   UNL     1     143.997 143.483 142.304  1.00  0.00    -0.007 C 
ATOM      3  C   UNL     1     145.233 142.561 142.200  1.00  0.00     0.004 C 
ATOM      4  C   UNL     1     144.866 141.068 142.066  1.00  0.00     0.012 C 
ATOM      5  C   UNL     1     143.947 140.593 143.217  1.00  0.00     0.058 C 
ATOM      6  C   UNL     1     142.769 141.550 143.285  1.00  0.00     0.136 C 
ATOM      7  O   UNL     1     141.617 141.169 143.137  1.00  0.00    -0.299 OA
ATOM      8  C   UNL     1     143.056 143.016 143.431  1.00  0.00     0.079 C 
ENDROOT
BRANCH   5   9
ATOM      9  C   UNL     1     143.509 139.097 143.082  1.00  0.00    -0.007 C 
ATOM     10  C   UNL     1     144.223 138.218 144.125  1.00  0.00     0.008 C 
ATOM     11  C   UNL     1     143.791 138.521 141.683  1.00  0.00     0.008 C 
ENDBRANCH   5   9
TORSDOF 1
ENDMDL
MODEL 8
REMARK VINA RESULT:    -3.099      4.166      5.314
REMARK INTER + INTRA:          -3.455
REMARK INTER:                  -3.286
REMARK INTRA:                  -0.169
REMARK UNBOUND:                -0.174
REMARK SMILES CC(C)[C@H]1CC[C@@H](C)CC1=O
REMARK SMILES IDX 8 1 7 2 6 3 5 4 4 5 10 6 11 7 9 8 2 9 1 10 3 11
REMARK H PARENT
REMARK Flexibility Score: inf
ROOT
ATOM      1  C   UNL     1     141.114 137.405 142.269  1.00  0.00     0.008 C 
ATOM      2  C   UNL     1     140.736 137.708 143.727  1.00  0.00    -0.007 C 
ATOM      3  C   UNL     1     139.380 137.075 144.114  1.00  0.00     0.004 C 
ATOM      4  C   UNL     1     138.173 137.782 143.463  1.00  0.00     0.012 C 
ATOM      5  C   UNL     1     138.156 139.299 143.771  1.00  0.00     0.058 C 
ATOM      6  C   UNL     1     139.519 139.857 143.395  1.00  0.00     0.136 C 
ATOM      7  O   UNL     1     139.648 140.734 142.554  1.00  0.00    -0.299 OA
ATOM      8  C   UNL     1     140.735 139.223 144.006  1.00  0.00     0.079 C 
ENDROOT
BRANCH   5   9
ATOM      9  C   UNL     1     136.976 140.057 143.079  1.00  0.00    -0.007 C 
ATOM     10  C   UNL     1     136.019 140.658 144.125  1.00  0.00     0.008 C 
ATOM     11  C   UNL     1     136.162 139.154 142.135  1.00  0.00     0.008 C 
ENDBRANCH   5   9
TORSDOF 1
ENDMDL
