MODEL 1
REMARK VINA RESULT:    -2.030      0.000      0.000
REMARK INTER + INTRA:          -2.030
REMARK INTER:                  -2.030
REMARK INTRA:                   0.000
REMARK UNBOUND:                 0.000
REMARK SMILES CC(=O)[O-]
REMARK SMILES IDX 1 1 2 2 3 3 4 4
REMARK H PARENT
REMARK Flexibility Score: inf
ROOT
ATOM      1  C   UNL     1      11.164  21.278  35.755  1.00  0.00     0.063 C 
ATOM      2  C   UNL     1      11.859  19.988  35.480  1.00  0.00     0.038 C 
ATOM      3  O   UNL     1      13.088  19.868  35.723  1.00  0.00    -0.550 OA
ATOM      4  O   UNL     1      11.163  18.932  34.905  1.00  0.00    -0.550 OA
ENDROOT
TORSDOF 0
ENDMDL
MODEL 2
REMARK VINA RESULT:    -1.952      2.028      2.251
REMARK INTER + INTRA:          -1.952
REMARK INTER:                  -1.952
REMARK INTRA:                   0.000
REMARK UNBOUND:                 0.000
REMARK SMILES CC(=O)[O-]
REMARK SMILES IDX 1 1 2 2 3 3 4 4
REMARK H PARENT
REMARK Flexibility Score: inf
ROOT
ATOM      1  C   UNL     1      12.454  20.019  35.810  1.00  0.00     0.063 C 
ATOM      2  C   UNL     1      11.188  20.755  36.091  1.00  0.00     0.038 C 
ATOM      3  O   UNL     1      10.949  21.846  35.510  1.00  0.00    -0.550 OA
ATOM      4  O   UNL     1      10.293  20.264  37.033  1.00  0.00    -0.550 OA
ENDROOT
TORSDOF 0
ENDMDL
MODEL 3
REMARK VINA RESULT:    -1.858     13.075     13.392
REMARK INTER + INTRA:          -1.858
REMARK INTER:                  -1.858
REMARK INTRA:                   0.000
REMARK UNBOUND:                 0.000
REMARK SMILES CC(=O)[O-]
REMARK SMILES IDX 1 1 2 2 3 3 4 4
REMARK H PARENT
REMARK Flexibility Score: inf
ROOT
ATOM      1  C   UNL     1      18.323  29.322  28.012  1.00  0.00     0.063 C 
ATOM      2  C   UNL     1      18.202  28.133  27.122  1.00  0.00     0.038 C 
ATOM      3  O   UNL     1      17.209  27.365  27.224  1.00  0.00    -0.550 OA
ATOM      4  O   UNL     1      19.210  27.838  26.212  1.00  0.00    -0.550 OA
ENDROOT
TORSDOF 0
ENDMDL
MODEL 4
REMARK VINA RESULT:    -1.832     11.390     11.744
REMARK INTER + INTRA:          -1.832
REMARK INTER:                  -1.832
REMARK INTRA:                   0.000
REMARK UNBOUND:                 0.000
REMARK SMILES CC(=O)[O-]
REMARK SMILES IDX 1 1 2 2 3 3 4 4
REMARK H PARENT
REMARK Flexibility Score: inf
ROOT
ATOM      1  C   UNL     1      17.547  27.497  27.261  1.00  0.00     0.063 C 
ATOM      2  C   UNL     1      18.012  27.004  28.589  1.00  0.00     0.038 C 
ATOM      3  O   UNL     1      18.380  25.808  28.726  1.00  0.00    -0.550 OA
ATOM      4  O   UNL     1      17.990  27.849  29.692  1.00  0.00    -0.550 OA
ENDROOT
TORSDOF 0
ENDMDL
MODEL 5
REMARK VINA RESULT:    -1.830     11.405     11.719
REMARK INTER + INTRA:          -1.830
REMARK INTER:                  -1.830
REMARK INTRA:                   0.000
REMARK UNBOUND:                 0.000
REMARK SMILES CC(=O)[O-]
REMARK SMILES IDX 1 1 2 2 3 3 4 4
REMARK H PARENT
REMARK Flexibility Score: inf
ROOT
ATOM      1  C   UNL     1      17.581  27.533  27.246  1.00  0.00     0.063 C 
ATOM      2  C   UNL     1      17.998  27.023  28.584  1.00  0.00     0.038 C 
ATOM      3  O   UNL     1      17.976  27.786  29.586  1.00  0.00    -0.550 OA
ATOM      4  O   UNL     1      18.461  25.721  28.719  1.00  0.00    -0.550 OA
ENDROOT
TORSDOF 0
ENDMDL
MODEL 6
REMARK VINA RESULT:    -1.824     13.336     13.586
REMARK INTER + INTRA:          -1.824
REMARK INTER:                  -1.824
REMARK INTRA:                   0.000
REMARK UNBOUND:                 0.000
REMARK SMILES CC(=O)[O-]
REMARK SMILES IDX 1 1 2 2 3 3 4 4
REMARK H PARENT
REMARK Flexibility Score: inf
ROOT
ATOM      1  C   UNL     1       7.747  33.164  32.308  1.00  0.00     0.063 C 
ATOM      2  C   UNL     1       6.689  32.113  32.335  1.00  0.00     0.038 C 
ATOM      3  O   UNL     1       6.278  31.659  33.435  1.00  0.00    -0.550 OA
ATOM      4  O   UNL     1       6.193  31.594  31.146  1.00  0.00    -0.550 OA
ENDROOT
TORSDOF 0
ENDMDL
MODEL 7
REMARK VINA RESULT:    -1.800     12.198     12.533
REMARK INTER + INTRA:          -1.800
REMARK INTER:                  -1.800
REMARK INTRA:                   0.000
REMARK UNBOUND:                 0.000
REMARK SMILES CC(=O)[O-]
REMARK SMILES IDX 1 1 2 2 3 3 4 4
REMARK H PARENT
REMARK Flexibility Score: inf
ROOT
ATOM      1  C   UNL     1      18.306  29.281  28.006  1.00  0.00     0.063 C 
ATOM      2  C   UNL     1      17.932  27.838  28.002  1.00  0.00     0.038 C 
ATOM      3  O   UNL     1      17.320  27.346  27.017  1.00  0.00    -0.550 OA
ATOM      4  O   UNL     1      18.212  27.043  29.106  1.00  0.00    -0.550 OA
ENDROOT
TORSDOF 0
ENDMDL
MODEL 8
REMARK VINA RESULT:    -1.793     11.358     11.543
REMARK INTER + INTRA:          -1.793
REMARK INTER:                  -1.793
REMARK INTRA:                   0.000
REMARK UNBOUND:                 0.000
REMARK SMILES CC(=O)[O-]
REMARK SMILES IDX 1 1 2 2 3 3 4 4
REMARK H PARENT
REMARK Flexibility Score: inf
ROOT
ATOM      1  C   UNL     1      17.821  28.972  34.850  1.00  0.00     0.063 C 
ATOM      2  C   UNL     1      16.972  30.159  34.545  1.00  0.00     0.038 C 
ATOM      3  O   UNL     1      16.544  30.887  35.479  1.00  0.00    -0.550 OA
ATOM      4  O   UNL     1      16.607  30.435  33.233  1.00  0.00    -0.550 OA
ENDROOT
TORSDOF 0
ENDMDL
MODEL 9
REMARK VINA RESULT:    -1.716     11.630     11.917
REMARK INTER + INTRA:          -1.716
REMARK INTER:                  -1.716
REMARK INTRA:                   0.000
REMARK UNBOUND:                 0.000
REMARK SMILES CC(=O)[O-]
REMARK SMILES IDX 1 1 2 2 3 3 4 4
REMARK H PARENT
REMARK Flexibility Score: inf
ROOT
ATOM      1  C   UNL     1      18.704  25.687  28.262  1.00  0.00     0.063 C 
ATOM      2  C   UNL     1      17.965  26.979  28.344  1.00  0.00     0.038 C 
ATOM      3  O   UNL     1      17.355  27.424  27.336  1.00  0.00    -0.550 OA
ATOM      4  O   UNL     1      17.992  27.722  29.517  1.00  0.00    -0.550 OA
ENDROOT
TORSDOF 0
ENDMDL
