MODEL 1
REMARK VINA RESULT:    -5.206      0.000      0.000
REMARK INTER + INTRA:         -11.435
REMARK INTER:                  -9.163
REMARK INTRA:                  -2.272
REMARK UNBOUND:                -2.272
REMARK SMILES COc1cc(-c2[o+]c3cc(O)cc(O[C@H]4O[C@H](CO)[C@H](O)[C@H](O)[C@@H]4O)c3cc2O[C@H]2O[C@H](CO)[C@H](O)[C@@H](O)[C@H]2O)ccc1O
REMARK SMILES IDX 6 1 28 2 27 3 26 4 13 5 12 6 10 7 9 8 8 9 7 10 5 11 3 12
REMARK SMILES IDX 43 13 4 14 42 15 41 16 2 17 1 18 44 19 29 21 30 22 39 23
REMARK SMILES IDX 31 24 37 25 32 26 35 27 40 28 38 30 33 32 34 33 36 35 14 37
REMARK SMILES IDX 15 38 24 39 16 40 22 41 17 42 20 43 25 44 23 46 18 48 19 49
REMARK SMILES IDX 21 51 11 53
REMARK H PARENT 44 20 40 29 38 31 34 34 36 36 25 45 23 47 19 50 21 52 11 54
REMARK Flexibility Score: inf
ROOT
ATOM      1  C   UNL     1      15.551  44.885  74.450  1.00  0.00     0.402 A 
ATOM      2  C   UNL     1      15.574  45.876  73.438  1.00  0.00     0.229 A 
ATOM      3  C   UNL     1      14.383  46.391  72.997  1.00  0.00     0.079 A 
ATOM      4  C   UNL     1      13.312  46.418  73.959  1.00  0.00     0.126 A 
ATOM      5  C   UNL     1      12.175  47.281  73.837  1.00  0.00     0.143 A 
ATOM      6  C   UNL     1      11.101  47.126  74.713  1.00  0.00     0.094 A 
ATOM      7  C   UNL     1      11.128  46.121  75.717  1.00  0.00     0.128 A 
ATOM      8  C   UNL     1      12.235  45.282  75.829  1.00  0.00     0.162 A 
ATOM      9  C   UNL     1      13.351  45.431  74.988  1.00  0.00     0.368 A 
ATOM     10  O   UNL     1      14.442  44.691  75.180  1.00  0.00    -0.202 OA
ENDROOT
BRANCH   1  11
ATOM     11  C   UNL     1      16.771  44.099  74.811  1.00  0.00     0.087 A 
ATOM     12  C   UNL     1      17.977  42.000  74.637  1.00  0.00     0.161 A 
ATOM     13  C   UNL     1      18.956  42.480  75.530  1.00  0.00     0.157 A 
ATOM     14  C   UNL     1      16.866  42.796  74.300  1.00  0.00     0.068 A 
ATOM     15  C   UNL     1      18.767  43.732  76.125  1.00  0.00     0.051 A 
ATOM     16  C   UNL     1      17.651  44.517  75.860  1.00  0.00     0.022 A 
BRANCH  12  17
ATOM     17  O   UNL     1      18.059  40.746  74.065  1.00  0.00    -0.493 OA
ATOM     18  C   UNL     1      17.141  39.690  74.420  1.00  0.00     0.278 C 
ENDBRANCH  12  17
BRANCH  13  19
ATOM     19  O   UNL     1      20.107  41.733  75.861  1.00  0.00    -0.504 OA
ATOM     20  H   UNL     1      20.269  40.869  75.367  1.00  0.00     0.293 HD
ENDBRANCH  13  19
ENDBRANCH   1  11
BRANCH   2  21
ATOM     21  O   UNL     1      16.700  46.708  73.255  1.00  0.00    -0.452 OA
BRANCH  21  22
ATOM     22  C   UNL     1      16.870  47.963  74.005  1.00  0.00     0.339 C 
ATOM     23  C   UNL     1      18.334  48.554  73.825  1.00  0.00     0.214 C 
ATOM     24  O   UNL     1      16.506  47.695  75.373  1.00  0.00    -0.332 OA
ATOM     25  C   UNL     1      18.705  49.631  74.897  1.00  0.00     0.180 C 
ATOM     26  C   UNL     1      16.998  48.630  76.382  1.00  0.00     0.179 C 
ATOM     27  C   UNL     1      18.480  48.981  76.263  1.00  0.00     0.177 C 
BRANCH  23  28
ATOM     28  O   UNL     1      19.216  47.477  73.800  1.00  0.00    -0.384 OA
ATOM     29  H   UNL     1      18.653  46.676  73.877  1.00  0.00     0.211 HD
ENDBRANCH  23  28
BRANCH  25  30
ATOM     30  O   UNL     1      20.038  50.123  74.711  1.00  0.00    -0.387 OA
ATOM     31  H   UNL     1      20.054  50.599  73.819  1.00  0.00     0.211 HD
ENDBRANCH  25  30
BRANCH  26  32
ATOM     32  C   UNL     1      16.101  49.931  76.610  1.00  0.00     0.191 C 
BRANCH  32  33
ATOM     33  O   UNL     1      15.060  49.738  77.518  1.00  0.00    -0.394 OA
ATOM     34  H   UNL     1      14.552  50.595  77.655  1.00  0.00     0.210 HD
ENDBRANCH  32  33
ENDBRANCH  26  32
BRANCH  27  35
ATOM     35  O   UNL     1      18.881  49.774  77.367  1.00  0.00    -0.387 OA
ATOM     36  H   UNL     1      18.697  49.245  78.217  1.00  0.00     0.211 HD
ENDBRANCH  27  35
ENDBRANCH  21  22
ENDBRANCH   2  21
BRANCH   5  37
ATOM     37  O   UNL     1      12.116  48.234  72.780  1.00  0.00    -0.461 OA
BRANCH  37  38
ATOM     38  C   UNL     1      11.148  48.109  71.696  1.00  0.00     0.339 C 
ATOM     39  C   UNL     1      11.948  48.143  70.333  1.00  0.00     0.214 C 
ATOM     40  O   UNL     1      10.165  49.153  71.734  1.00  0.00    -0.332 OA
ATOM     41  C   UNL     1      10.982  48.017  69.129  1.00  0.00     0.180 C 
ATOM     42  C   UNL     1       9.181  49.007  70.696  1.00  0.00     0.179 C 
ATOM     43  C   UNL     1       9.810  49.007  69.257  1.00  0.00     0.177 C 
BRANCH  39  44
ATOM     44  O   UNL     1      12.993  47.139  70.313  1.00  0.00    -0.384 OA
ATOM     45  H   UNL     1      13.848  47.651  70.133  1.00  0.00     0.211 HD
ENDBRANCH  39  44
BRANCH  41  46
ATOM     46  O   UNL     1      10.511  46.706  69.064  1.00  0.00    -0.387 OA
ATOM     47  H   UNL     1      11.108  46.186  69.676  1.00  0.00     0.211 HD
ENDBRANCH  41  46
BRANCH  42  48
ATOM     48  C   UNL     1       8.125  47.902  71.052  1.00  0.00     0.191 C 
BRANCH  48  49
ATOM     49  O   UNL     1       7.720  47.158  69.952  1.00  0.00    -0.394 OA
ATOM     50  H   UNL     1       7.755  47.766  69.148  1.00  0.00     0.210 HD
ENDBRANCH  48  49
ENDBRANCH  42  48
BRANCH  43  51
ATOM     51  O   UNL     1       8.849  48.912  68.245  1.00  0.00    -0.387 OA
ATOM     52  H   UNL     1       8.076  48.362  68.611  1.00  0.00     0.211 HD
ENDBRANCH  43  51
ENDBRANCH  37  38
ENDBRANCH   5  37
BRANCH   7  53
ATOM     53  O   UNL     1      10.123  46.036  76.653  1.00  0.00    -0.507 OA
ATOM     54  H   UNL     1       9.659  45.131  76.873  1.00  0.00     0.293 HD
ENDBRANCH   7  53
TORSDOF 18
ENDMDL
MODEL 2
REMARK VINA RESULT:    -4.817      2.703      9.306
REMARK INTER + INTRA:         -10.750
REMARK INTER:                  -9.126
REMARK INTRA:                  -1.625
REMARK UNBOUND:                -2.272
REMARK SMILES COc1cc(-c2[o+]c3cc(O)cc(O[C@H]4O[C@H](CO)[C@H](O)[C@H](O)[C@@H]4O)c3cc2O[C@H]2O[C@H](CO)[C@H](O)[C@@H](O)[C@H]2O)ccc1O
REMARK SMILES IDX 6 1 28 2 27 3 26 4 13 5 12 6 10 7 9 8 8 9 7 10 5 11 3 12
REMARK SMILES IDX 43 13 4 14 42 15 41 16 2 17 1 18 44 19 29 21 30 22 39 23
REMARK SMILES IDX 31 24 37 25 32 26 35 27 40 28 38 30 33 32 34 33 36 35 14 37
REMARK SMILES IDX 15 38 24 39 16 40 22 41 17 42 20 43 25 44 23 46 18 48 19 49
REMARK SMILES IDX 21 51 11 53
REMARK H PARENT 44 20 40 29 38 31 34 34 36 36 25 45 23 47 19 50 21 52 11 54
REMARK Flexibility Score: inf
ROOT
ATOM      1  C   UNL     1      16.594  48.449  75.215  1.00  0.00     0.402 A 
ATOM      2  C   UNL     1      17.495  47.377  74.998  1.00  0.00     0.229 A 
ATOM      3  C   UNL     1      18.494  47.165  75.913  1.00  0.00     0.079 A 
ATOM      4  C   UNL     1      18.200  47.551  77.269  1.00  0.00     0.126 A 
ATOM      5  C   UNL     1      18.909  47.029  78.400  1.00  0.00     0.143 A 
ATOM      6  C   UNL     1      18.684  47.579  79.661  1.00  0.00     0.094 A 
ATOM      7  C   UNL     1      17.764  48.649  79.828  1.00  0.00     0.128 A 
ATOM      8  C   UNL     1      17.080  49.154  78.725  1.00  0.00     0.162 A 
ATOM      9  C   UNL     1      17.253  48.603  77.444  1.00  0.00     0.368 A 
ATOM     10  O   UNL     1      16.511  49.028  76.422  1.00  0.00    -0.202 OA
ENDROOT
BRANCH   1  11
ATOM     11  C   UNL     1      15.640  48.902  74.155  1.00  0.00     0.087 A 
ATOM     12  C   UNL     1      13.447  48.672  73.144  1.00  0.00     0.161 A 
ATOM     13  C   UNL     1      13.811  49.580  72.129  1.00  0.00     0.157 A 
ATOM     14  C   UNL     1      14.371  48.307  74.141  1.00  0.00     0.068 A 
ATOM     15  C   UNL     1      15.126  50.056  72.094  1.00  0.00     0.051 A 
ATOM     16  C   UNL     1      16.079  49.669  73.029  1.00  0.00     0.022 A 
BRANCH  12  17
ATOM     17  O   UNL     1      12.189  48.106  73.203  1.00  0.00    -0.493 OA
ATOM     18  C   UNL     1      11.566  47.772  74.461  1.00  0.00     0.278 C 
ENDBRANCH  12  17
BRANCH  13  19
ATOM     19  O   UNL     1      12.904  50.006  71.135  1.00  0.00    -0.504 OA
ATOM     20  H   UNL     1      12.031  49.508  71.047  1.00  0.00     0.293 HD
ENDBRANCH  13  19
ENDBRANCH   1  11
BRANCH   2  21
ATOM     21  O   UNL     1      17.121  46.251  74.235  1.00  0.00    -0.452 OA
BRANCH  21  22
ATOM     22  C   UNL     1      16.311  45.161  74.803  1.00  0.00     0.339 C 
ATOM     23  C   UNL     1      16.821  43.739  74.309  1.00  0.00     0.214 C 
ATOM     24  O   UNL     1      14.935  45.439  74.480  1.00  0.00    -0.332 OA
ATOM     25  C   UNL     1      15.779  42.594  74.532  1.00  0.00     0.180 C 
ATOM     26  C   UNL     1      14.003  44.316  74.541  1.00  0.00     0.179 C 
ATOM     27  C   UNL     1      14.486  43.043  73.850  1.00  0.00     0.177 C 
BRANCH  23  28
ATOM     28  O   UNL     1      17.209  43.877  72.979  1.00  0.00    -0.384 OA
ATOM     29  H   UNL     1      16.984  43.021  72.552  1.00  0.00     0.211 HD
ENDBRANCH  23  28
BRANCH  25  30
ATOM     30  O   UNL     1      16.269  41.335  74.056  1.00  0.00    -0.387 OA
ATOM     31  H   UNL     1      15.904  40.624  74.674  1.00  0.00     0.211 HD
ENDBRANCH  25  30
BRANCH  26  32
ATOM     32  C   UNL     1      13.391  44.008  75.983  1.00  0.00     0.191 C 
BRANCH  32  33
ATOM     33  O   UNL     1      12.368  44.881  76.353  1.00  0.00    -0.394 OA
ATOM     34  H   UNL     1      12.384  45.038  77.347  1.00  0.00     0.210 HD
ENDBRANCH  32  33
ENDBRANCH  26  32
BRANCH  27  35
ATOM     35  O   UNL     1      13.453  42.072  73.844  1.00  0.00    -0.387 OA
ATOM     36  H   UNL     1      12.567  42.556  73.709  1.00  0.00     0.211 HD
ENDBRANCH  27  35
ENDBRANCH  21  22
ENDBRANCH   2  21
BRANCH   5  37
ATOM     37  O   UNL     1      19.888  46.012  78.217  1.00  0.00    -0.461 OA
BRANCH  37  38
ATOM     38  C   UNL     1      19.529  44.598  78.232  1.00  0.00     0.339 C 
ATOM     39  C   UNL     1      20.024  43.993  79.605  1.00  0.00     0.214 C 
ATOM     40  O   UNL     1      20.106  43.889  77.127  1.00  0.00    -0.332 OA
ATOM     41  C   UNL     1      19.679  42.485  79.693  1.00  0.00     0.180 C 
ATOM     42  C   UNL     1      19.717  42.505  77.110  1.00  0.00     0.179 C 
ATOM     43  C   UNL     1      20.124  41.742  78.420  1.00  0.00     0.177 C 
BRANCH  39  44
ATOM     44  O   UNL     1      19.506  44.747  80.729  1.00  0.00    -0.384 OA
ATOM     45  H   UNL     1      18.529  44.903  80.515  1.00  0.00     0.211 HD
ENDBRANCH  39  44
BRANCH  41  46
ATOM     46  O   UNL     1      18.305  42.347  79.885  1.00  0.00    -0.387 OA
ATOM     47  H   UNL     1      17.902  43.167  79.475  1.00  0.00     0.211 HD
ENDBRANCH  41  46
BRANCH  42  48
ATOM     48  C   UNL     1      18.259  42.322  76.558  1.00  0.00     0.191 C 
BRANCH  48  49
ATOM     49  O   UNL     1      17.892  40.990  76.416  1.00  0.00    -0.394 OA
ATOM     50  H   UNL     1      17.127  40.958  75.759  1.00  0.00     0.210 HD
ENDBRANCH  48  49
ENDBRANCH  42  48
BRANCH  43  51
ATOM     51  O   UNL     1      19.787  40.385  78.385  1.00  0.00    -0.387 OA
ATOM     52  H   UNL     1      19.904  40.018  79.327  1.00  0.00     0.211 HD
ENDBRANCH  43  51
ENDBRANCH  37  38
ENDBRANCH   5  37
BRANCH   7  53
ATOM     53  O   UNL     1      17.456  49.120  81.084  1.00  0.00    -0.507 OA
ATOM     54  H   UNL     1      16.483  49.385  81.342  1.00  0.00     0.293 HD
ENDBRANCH   7  53
TORSDOF 18
ENDMDL
MODEL 3
REMARK VINA RESULT:    -3.653      2.436      8.731
REMARK INTER + INTRA:          -8.701
REMARK INTER:                  -7.190
REMARK INTRA:                  -1.511
REMARK UNBOUND:                -2.272
REMARK SMILES COc1cc(-c2[o+]c3cc(O)cc(O[C@H]4O[C@H](CO)[C@H](O)[C@H](O)[C@@H]4O)c3cc2O[C@H]2O[C@H](CO)[C@H](O)[C@@H](O)[C@H]2O)ccc1O
REMARK SMILES IDX 6 1 28 2 27 3 26 4 13 5 12 6 10 7 9 8 8 9 7 10 5 11 3 12
REMARK SMILES IDX 43 13 4 14 42 15 41 16 2 17 1 18 44 19 29 21 30 22 39 23
REMARK SMILES IDX 31 24 37 25 32 26 35 27 40 28 38 30 33 32 34 33 36 35 14 37
REMARK SMILES IDX 15 38 24 39 16 40 22 41 17 42 20 43 25 44 23 46 18 48 19 49
REMARK SMILES IDX 21 51 11 53
REMARK H PARENT 44 20 40 29 38 31 34 34 36 36 25 45 23 47 19 50 21 52 11 54
REMARK Flexibility Score: inf
ROOT
ATOM      1  C   UNL     1      13.764  49.016  73.550  1.00  0.00     0.402 A 
ATOM      2  C   UNL     1      15.180  49.054  73.592  1.00  0.00     0.229 A 
ATOM      3  C   UNL     1      15.787  49.707  74.634  1.00  0.00     0.079 A 
ATOM      4  C   UNL     1      15.064  49.721  75.878  1.00  0.00     0.126 A 
ATOM      5  C   UNL     1      15.692  49.954  77.144  1.00  0.00     0.143 A 
ATOM      6  C   UNL     1      14.901  50.123  78.280  1.00  0.00     0.094 A 
ATOM      7  C   UNL     1      13.484  50.069  78.187  1.00  0.00     0.128 A 
ATOM      8  C   UNL     1      12.878  49.844  76.953  1.00  0.00     0.162 A 
ATOM      9  C   UNL     1      13.642  49.634  75.793  1.00  0.00     0.368 A 
ATOM     10  O   UNL     1      13.047  49.315  74.644  1.00  0.00    -0.202 OA
ENDROOT
BRANCH   1  11
ATOM     11  C   UNL     1      13.025  48.548  72.336  1.00  0.00     0.087 A 
ATOM     12  C   UNL     1      10.880  48.128  71.284  1.00  0.00     0.161 A 
ATOM     13  C   UNL     1      11.529  47.570  70.165  1.00  0.00     0.157 A 
ATOM     14  C   UNL     1      11.624  48.589  72.386  1.00  0.00     0.068 A 
ATOM     15  C   UNL     1      12.919  47.423  70.199  1.00  0.00     0.051 A 
ATOM     16  C   UNL     1      13.679  47.813  71.296  1.00  0.00     0.022 A 
BRANCH  12  17
ATOM     17  O   UNL     1       9.505  48.242  71.352  1.00  0.00    -0.493 OA
ATOM     18  C   UNL     1       8.795  49.282  70.648  1.00  0.00     0.278 C 
ENDBRANCH  12  17
BRANCH  13  19
ATOM     19  O   UNL     1      10.824  47.136  69.022  1.00  0.00    -0.504 OA
ATOM     20  H   UNL     1       9.846  46.913  69.125  1.00  0.00     0.293 HD
ENDBRANCH  13  19
ENDBRANCH   1  11
BRANCH   2  21
ATOM     21  O   UNL     1      15.957  48.059  72.963  1.00  0.00    -0.452 OA
BRANCH  21  22
ATOM     22  C   UNL     1      16.494  46.907  73.705  1.00  0.00     0.339 C 
ATOM     23  C   UNL     1      18.044  46.702  73.420  1.00  0.00     0.214 C 
ATOM     24  O   UNL     1      15.677  45.768  73.373  1.00  0.00    -0.332 OA
ATOM     25  C   UNL     1      18.570  45.288  73.834  1.00  0.00     0.180 C 
ATOM     26  C   UNL     1      16.253  44.448  73.622  1.00  0.00     0.179 C 
ATOM     27  C   UNL     1      17.684  44.268  73.119  1.00  0.00     0.177 C 
BRANCH  23  28
ATOM     28  O   UNL     1      18.261  46.996  72.076  1.00  0.00    -0.384 OA
ATOM     29  H   UNL     1      17.517  46.575  71.593  1.00  0.00     0.211 HD
ENDBRANCH  23  28
BRANCH  25  30
ATOM     30  O   UNL     1      19.965  45.139  73.542  1.00  0.00    -0.387 OA
ATOM     31  H   UNL     1      20.395  46.042  73.687  1.00  0.00     0.211 HD
ENDBRANCH  25  30
BRANCH  26  32
ATOM     32  C   UNL     1      16.074  43.888  75.106  1.00  0.00     0.191 C 
BRANCH  32  33
ATOM     33  O   UNL     1      14.881  44.282  75.710  1.00  0.00    -0.394 OA
ATOM     34  H   UNL     1      14.215  44.572  75.014  1.00  0.00     0.210 HD
ENDBRANCH  32  33
ENDBRANCH  26  32
BRANCH  27  35
ATOM     35  O   UNL     1      18.089  42.919  73.282  1.00  0.00    -0.387 OA
ATOM     36  H   UNL     1      18.878  42.751  72.660  1.00  0.00     0.211 HD
ENDBRANCH  27  35
ENDBRANCH  21  22
ENDBRANCH   2  21
BRANCH   5  37
ATOM     37  O   UNL     1      17.108  50.088  77.221  1.00  0.00    -0.461 OA
BRANCH  37  38
ATOM     38  C   UNL     1      17.890  49.352  78.209  1.00  0.00     0.339 C 
ATOM     39  C   UNL     1      17.957  47.844  77.739  1.00  0.00     0.214 C 
ATOM     40  O   UNL     1      17.320  49.449  79.521  1.00  0.00    -0.332 OA
ATOM     41  C   UNL     1      18.773  46.995  78.746  1.00  0.00     0.180 C 
ATOM     42  C   UNL     1      18.112  48.766  80.507  1.00  0.00     0.179 C 
ATOM     43  C   UNL     1      18.295  47.239  80.188  1.00  0.00     0.177 C 
BRANCH  39  44
ATOM     44  O   UNL     1      18.463  47.738  76.385  1.00  0.00    -0.384 OA
ATOM     45  H   UNL     1      17.675  47.959  75.790  1.00  0.00     0.211 HD
ENDBRANCH  39  44
BRANCH  41  46
ATOM     46  O   UNL     1      20.124  47.317  78.616  1.00  0.00    -0.387 OA
ATOM     47  H   UNL     1      20.200  48.257  78.953  1.00  0.00     0.211 HD
ENDBRANCH  41  46
BRANCH  42  48
ATOM     48  C   UNL     1      19.375  49.603  80.915  1.00  0.00     0.191 C 
BRANCH  48  49
ATOM     49  O   UNL     1      19.975  49.152  82.084  1.00  0.00    -0.394 OA
ATOM     50  H   UNL     1      20.520  49.915  82.455  1.00  0.00     0.210 HD
ENDBRANCH  48  49
ENDBRANCH  42  48
BRANCH  43  51
ATOM     51  O   UNL     1      19.026  46.564  81.170  1.00  0.00    -0.387 OA
ATOM     52  H   UNL     1      20.012  46.753  81.000  1.00  0.00     0.211 HD
ENDBRANCH  43  51
ENDBRANCH  37  38
ENDBRANCH   5  37
BRANCH   7  53
ATOM     53  O   UNL     1      12.704  50.123  79.319  1.00  0.00    -0.507 OA
ATOM     54  H   UNL     1      12.015  50.888  79.469  1.00  0.00     0.293 HD
ENDBRANCH   7  53
TORSDOF 18
ENDMDL
MODEL 4
REMARK VINA RESULT:    -3.432      3.684      5.938
REMARK INTER + INTRA:          -8.312
REMARK INTER:                  -7.040
REMARK INTRA:                  -1.273
REMARK UNBOUND:                -2.272
REMARK SMILES COc1cc(-c2[o+]c3cc(O)cc(O[C@H]4O[C@H](CO)[C@H](O)[C@H](O)[C@@H]4O)c3cc2O[C@H]2O[C@H](CO)[C@H](O)[C@@H](O)[C@H]2O)ccc1O
REMARK SMILES IDX 6 1 28 2 27 3 26 4 13 5 12 6 10 7 9 8 8 9 7 10 5 11 3 12
REMARK SMILES IDX 43 13 4 14 42 15 41 16 2 17 1 18 44 19 29 21 30 22 39 23
REMARK SMILES IDX 31 24 37 25 32 26 35 27 40 28 38 30 33 32 34 33 36 35 14 37
REMARK SMILES IDX 15 38 24 39 16 40 22 41 17 42 20 43 25 44 23 46 18 48 19 49
REMARK SMILES IDX 21 51 11 53
REMARK H PARENT 44 20 40 29 38 31 34 34 36 36 25 45 23 47 19 50 21 52 11 54
REMARK Flexibility Score: inf
ROOT
ATOM      1  C   UNL     1      17.800  42.774  75.881  1.00  0.00     0.402 A 
ATOM      2  C   UNL     1      18.461  44.012  76.081  1.00  0.00     0.229 A 
ATOM      3  C   UNL     1      17.956  45.131  75.471  1.00  0.00     0.079 A 
ATOM      4  C   UNL     1      16.534  45.142  75.249  1.00  0.00     0.126 A 
ATOM      5  C   UNL     1      15.785  46.345  75.039  1.00  0.00     0.143 A 
ATOM      6  C   UNL     1      14.446  46.261  74.660  1.00  0.00     0.094 A 
ATOM      7  C   UNL     1      13.826  44.996  74.480  1.00  0.00     0.128 A 
ATOM      8  C   UNL     1      14.558  43.828  74.682  1.00  0.00     0.162 A 
ATOM      9  C   UNL     1      15.900  43.872  75.099  1.00  0.00     0.368 A 
ATOM     10  O   UNL     1      16.552  42.747  75.390  1.00  0.00    -0.202 OA
ENDROOT
BRANCH   1  11
ATOM     11  C   UNL     1      18.415  41.476  76.298  1.00  0.00     0.087 A 
ATOM     12  C   UNL     1      18.764  39.127  75.805  1.00  0.00     0.161 A 
ATOM     13  C   UNL     1      19.413  38.955  77.044  1.00  0.00     0.157 A 
ATOM     14  C   UNL     1      18.236  40.380  75.443  1.00  0.00     0.068 A 
ATOM     15  C   UNL     1      19.462  40.034  77.932  1.00  0.00     0.051 A 
ATOM     16  C   UNL     1      18.897  41.268  77.630  1.00  0.00     0.022 A 
BRANCH  12  17
ATOM     17  O   UNL     1      18.615  38.089  74.906  1.00  0.00    -0.493 OA
ATOM     18  C   UNL     1      17.816  38.229  73.712  1.00  0.00     0.278 C 
ENDBRANCH  12  17
BRANCH  13  19
ATOM     19  O   UNL     1      19.995  37.728  77.428  1.00  0.00    -0.504 OA
ATOM     20  H   UNL     1      19.920  37.450  78.395  1.00  0.00     0.293 HD
ENDBRANCH  13  19
ENDBRANCH   1  11
BRANCH   2  21
ATOM     21  O   UNL     1      19.239  44.247  77.235  1.00  0.00    -0.452 OA
BRANCH  21  22
ATOM     22  C   UNL     1      18.780  45.137  78.313  1.00  0.00     0.339 C 
ATOM     23  C   UNL     1      18.941  46.666  77.913  1.00  0.00     0.214 C 
ATOM     24  O   UNL     1      19.491  44.761  79.508  1.00  0.00    -0.332 OA
ATOM     25  C   UNL     1      18.867  47.639  79.136  1.00  0.00     0.180 C 
ATOM     26  C   UNL     1      19.546  45.750  80.582  1.00  0.00     0.179 C 
ATOM     27  C   UNL     1      19.921  47.162  80.136  1.00  0.00     0.177 C 
BRANCH  23  28
ATOM     28  O   UNL     1      20.124  46.784  77.189  1.00  0.00    -0.384 OA
ATOM     29  H   UNL     1      20.832  46.473  77.795  1.00  0.00     0.211 HD
ENDBRANCH  23  28
BRANCH  25  30
ATOM     30  O   UNL     1      19.037  49.004  78.735  1.00  0.00    -0.387 OA
ATOM     31  H   UNL     1      19.126  49.551  79.580  1.00  0.00     0.211 HD
ENDBRANCH  25  30
BRANCH  26  32
ATOM     32  C   UNL     1      18.294  45.759  81.573  1.00  0.00     0.191 C 
BRANCH  32  33
ATOM     33  O   UNL     1      17.442  44.667  81.405  1.00  0.00    -0.394 OA
ATOM     34  H   UNL     1      16.886  44.526  82.231  1.00  0.00     0.210 HD
ENDBRANCH  32  33
ENDBRANCH  26  32
BRANCH  27  35
ATOM     35  O   UNL     1      20.084  48.001  81.267  1.00  0.00    -0.387 OA
ATOM     36  H   UNL     1      19.328  48.684  81.263  1.00  0.00     0.211 HD
ENDBRANCH  27  35
ENDBRANCH  21  22
ENDBRANCH   2  21
BRANCH   5  37
ATOM     37  O   UNL     1      16.431  47.610  75.143  1.00  0.00    -0.461 OA
BRANCH  37  38
ATOM     38  C   UNL     1      17.428  48.038  74.167  1.00  0.00     0.339 C 
ATOM     39  C   UNL     1      17.770  49.553  74.465  1.00  0.00     0.214 C 
ATOM     40  O   UNL     1      16.959  47.879  72.821  1.00  0.00    -0.332 OA
ATOM     41  C   UNL     1      18.825  50.081  73.461  1.00  0.00     0.180 C 
ATOM     42  C   UNL     1      17.954  48.254  71.854  1.00  0.00     0.179 C 
ATOM     43  C   UNL     1      18.426  49.744  72.013  1.00  0.00     0.177 C 
BRANCH  39  44
ATOM     44  O   UNL     1      18.174  49.738  75.844  1.00  0.00    -0.384 OA
ATOM     45  H   UNL     1      18.190  48.808  76.243  1.00  0.00     0.211 HD
ENDBRANCH  39  44
BRANCH  41  46
ATOM     46  O   UNL     1      20.063  49.520  73.771  1.00  0.00    -0.387 OA
ATOM     47  H   UNL     1      20.044  48.606  73.362  1.00  0.00     0.211 HD
ENDBRANCH  41  46
BRANCH  42  48
ATOM     48  C   UNL     1      19.044  47.138  71.683  1.00  0.00     0.191 C 
BRANCH  48  49
ATOM     49  O   UNL     1      18.659  45.913  72.213  1.00  0.00    -0.394 OA
ATOM     50  H   UNL     1      18.658  45.246  71.457  1.00  0.00     0.210 HD
ENDBRANCH  48  49
ENDBRANCH  42  48
BRANCH  43  51
ATOM     51  O   UNL     1      19.360  50.124  71.044  1.00  0.00    -0.387 OA
ATOM     52  H   UNL     1      20.246  49.686  71.287  1.00  0.00     0.211 HD
ENDBRANCH  43  51
ENDBRANCH  37  38
ENDBRANCH   5  37
BRANCH   7  53
ATOM     53  O   UNL     1      12.478  44.906  74.216  1.00  0.00    -0.507 OA
ATOM     54  H   UNL     1      11.929  45.732  73.903  1.00  0.00     0.293 HD
ENDBRANCH   7  53
TORSDOF 18
ENDMDL
MODEL 5
REMARK VINA RESULT:    -3.397      3.429      6.521
REMARK INTER + INTRA:          -8.251
REMARK INTER:                  -7.373
REMARK INTRA:                  -0.878
REMARK UNBOUND:                -2.272
REMARK SMILES COc1cc(-c2[o+]c3cc(O)cc(O[C@H]4O[C@H](CO)[C@H](O)[C@H](O)[C@@H]4O)c3cc2O[C@H]2O[C@H](CO)[C@H](O)[C@@H](O)[C@H]2O)ccc1O
REMARK SMILES IDX 6 1 28 2 27 3 26 4 13 5 12 6 10 7 9 8 8 9 7 10 5 11 3 12
REMARK SMILES IDX 43 13 4 14 42 15 41 16 2 17 1 18 44 19 29 21 30 22 39 23
REMARK SMILES IDX 31 24 37 25 32 26 35 27 40 28 38 30 33 32 34 33 36 35 14 37
REMARK SMILES IDX 15 38 24 39 16 40 22 41 17 42 20 43 25 44 23 46 18 48 19 49
REMARK SMILES IDX 21 51 11 53
REMARK H PARENT 44 20 40 29 38 31 34 34 36 36 25 45 23 47 19 50 21 52 11 54
REMARK Flexibility Score: inf
ROOT
ATOM      1  C   UNL     1      18.624  40.042  76.167  1.00  0.00     0.402 A 
ATOM      2  C   UNL     1      19.303  41.283  76.246  1.00  0.00     0.229 A 
ATOM      3  C   UNL     1      19.010  42.250  75.319  1.00  0.00     0.079 A 
ATOM      4  C   UNL     1      17.671  42.234  74.791  1.00  0.00     0.126 A 
ATOM      5  C   UNL     1      17.060  43.374  74.175  1.00  0.00     0.143 A 
ATOM      6  C   UNL     1      15.830  43.229  73.535  1.00  0.00     0.094 A 
ATOM      7  C   UNL     1      15.185  41.964  73.490  1.00  0.00     0.128 A 
ATOM      8  C   UNL     1      15.784  40.858  74.088  1.00  0.00     0.162 A 
ATOM      9  C   UNL     1      17.006  40.972  74.773  1.00  0.00     0.368 A 
ATOM     10  O   UNL     1      17.510  39.927  75.429  1.00  0.00    -0.202 OA
ENDROOT
BRANCH   1  11
ATOM     11  C   UNL     1      19.055  38.856  76.971  1.00  0.00     0.087 A 
ATOM     12  C   UNL     1      19.387  36.455  77.056  1.00  0.00     0.161 A 
ATOM     13  C   UNL     1      19.715  36.541  78.424  1.00  0.00     0.157 A 
ATOM     14  C   UNL     1      19.026  37.608  76.334  1.00  0.00     0.068 A 
ATOM     15  C   UNL     1      19.608  37.780  79.064  1.00  0.00     0.051 A 
ATOM     16  C   UNL     1      19.196  38.926  78.394  1.00  0.00     0.022 A 
BRANCH  12  17
ATOM     17  O   UNL     1      19.402  35.254  76.374  1.00  0.00    -0.493 OA
ATOM     18  C   UNL     1      19.360  35.202  74.932  1.00  0.00     0.278 C 
ENDBRANCH  12  17
BRANCH  13  19
ATOM     19  O   UNL     1      20.125  35.418  79.175  1.00  0.00    -0.504 OA
ATOM     20  H   UNL     1      21.090  35.131  79.109  1.00  0.00     0.293 HD
ENDBRANCH  13  19
ENDBRANCH   1  11
BRANCH   2  21
ATOM     21  O   UNL     1      19.830  41.752  77.468  1.00  0.00    -0.452 OA
BRANCH  21  22
ATOM     22  C   UNL     1      20.125  43.176  77.693  1.00  0.00     0.339 C 
ATOM     23  C   UNL     1      20.124  43.533  79.241  1.00  0.00     0.214 C 
ATOM     24  O   UNL     1      19.182  43.935  76.911  1.00  0.00    -0.332 OA
ATOM     25  C   UNL     1      20.018  45.068  79.525  1.00  0.00     0.180 C 
ATOM     26  C   UNL     1      18.979  45.330  77.295  1.00  0.00     0.179 C 
ATOM     27  C   UNL     1      18.771  45.561  78.790  1.00  0.00     0.177 C 
BRANCH  23  28
ATOM     28  O   UNL     1      19.106  42.793  79.837  1.00  0.00    -0.384 OA
ATOM     29  H   UNL     1      18.649  42.336  79.098  1.00  0.00     0.211 HD
ENDBRANCH  23  28
BRANCH  25  30
ATOM     30  O   UNL     1      20.001  45.344  80.930  1.00  0.00    -0.387 OA
ATOM     31  H   UNL     1      20.861  44.976  81.313  1.00  0.00     0.211 HD
ENDBRANCH  25  30
BRANCH  26  32
ATOM     32  C   UNL     1      20.020  46.371  76.677  1.00  0.00     0.191 C 
BRANCH  32  33
ATOM     33  O   UNL     1      19.583  47.695  76.729  1.00  0.00    -0.394 OA
ATOM     34  H   UNL     1      20.054  48.246  76.032  1.00  0.00     0.210 HD
ENDBRANCH  32  33
ENDBRANCH  26  32
BRANCH  27  35
ATOM     35  O   UNL     1      18.443  46.919  79.031  1.00  0.00    -0.387 OA
ATOM     36  H   UNL     1      17.495  47.077  78.695  1.00  0.00     0.211 HD
ENDBRANCH  27  35
ENDBRANCH  21  22
ENDBRANCH   2  21
BRANCH   5  37
ATOM     37  O   UNL     1      17.746  44.622  74.153  1.00  0.00    -0.461 OA
BRANCH  37  38
ATOM     38  C   UNL     1      17.046  45.871  73.870  1.00  0.00     0.339 C 
ATOM     39  C   UNL     1      18.136  46.971  73.556  1.00  0.00     0.214 C 
ATOM     40  O   UNL     1      16.216  46.277  74.966  1.00  0.00    -0.332 OA
ATOM     41  C   UNL     1      17.464  48.332  73.248  1.00  0.00     0.180 C 
ATOM     42  C   UNL     1      15.486  47.481  74.675  1.00  0.00     0.179 C 
ATOM     43  C   UNL     1      16.425  48.690  74.324  1.00  0.00     0.177 C 
BRANCH  39  44
ATOM     44  O   UNL     1      19.028  46.540  72.498  1.00  0.00    -0.384 OA
ATOM     45  H   UNL     1      18.707  47.023  71.668  1.00  0.00     0.211 HD
ENDBRANCH  39  44
BRANCH  41  46
ATOM     46  O   UNL     1      16.865  48.265  71.990  1.00  0.00    -0.387 OA
ATOM     47  H   UNL     1      15.982  48.723  72.099  1.00  0.00     0.211 HD
ENDBRANCH  41  46
BRANCH  42  48
ATOM     48  C   UNL     1      14.250  47.198  73.751  1.00  0.00     0.191 C 
BRANCH  48  49
ATOM     49  O   UNL     1      13.623  48.356  73.308  1.00  0.00    -0.394 OA
ATOM     50  H   UNL     1      13.721  49.048  74.035  1.00  0.00     0.210 HD
ENDBRANCH  48  49
ENDBRANCH  42  48
BRANCH  43  51
ATOM     51  O   UNL     1      15.718  49.874  74.086  1.00  0.00    -0.387 OA
ATOM     52  H   UNL     1      16.356  50.648  74.255  1.00  0.00     0.211 HD
ENDBRANCH  43  51
ENDBRANCH  37  38
ENDBRANCH   5  37
BRANCH   7  53
ATOM     53  O   UNL     1      13.922  41.839  72.959  1.00  0.00    -0.507 OA
ATOM     54  H   UNL     1      13.158  41.358  73.478  1.00  0.00     0.293 HD
ENDBRANCH   7  53
TORSDOF 18
ENDMDL
MODEL 6
REMARK VINA RESULT:    -3.227      3.208      5.415
REMARK INTER + INTRA:          -7.951
REMARK INTER:                  -7.129
REMARK INTRA:                  -0.823
REMARK UNBOUND:                -2.272
REMARK SMILES COc1cc(-c2[o+]c3cc(O)cc(O[C@H]4O[C@H](CO)[C@H](O)[C@H](O)[C@@H]4O)c3cc2O[C@H]2O[C@H](CO)[C@H](O)[C@@H](O)[C@H]2O)ccc1O
REMARK SMILES IDX 6 1 28 2 27 3 26 4 13 5 12 6 10 7 9 8 8 9 7 10 5 11 3 12
REMARK SMILES IDX 43 13 4 14 42 15 41 16 2 17 1 18 44 19 29 21 30 22 39 23
REMARK SMILES IDX 31 24 37 25 32 26 35 27 40 28 38 30 33 32 34 33 36 35 14 37
REMARK SMILES IDX 15 38 24 39 16 40 22 41 17 42 20 43 25 44 23 46 18 48 19 49
REMARK SMILES IDX 21 51 11 53
REMARK H PARENT 44 20 40 29 38 31 34 34 36 36 25 45 23 47 19 50 21 52 11 54
REMARK Flexibility Score: inf
ROOT
ATOM      1  C   UNL     1      15.104  43.987  74.301  1.00  0.00     0.402 A 
ATOM      2  C   UNL     1      15.972  45.106  74.241  1.00  0.00     0.229 A 
ATOM      3  C   UNL     1      15.424  46.353  74.085  1.00  0.00     0.079 A 
ATOM      4  C   UNL     1      14.106  46.537  74.634  1.00  0.00     0.126 A 
ATOM      5  C   UNL     1      13.565  47.825  74.953  1.00  0.00     0.143 A 
ATOM      6  C   UNL     1      12.224  47.932  75.316  1.00  0.00     0.094 A 
ATOM      7  C   UNL     1      11.395  46.779  75.369  1.00  0.00     0.128 A 
ATOM      8  C   UNL     1      11.925  45.530  75.055  1.00  0.00     0.162 A 
ATOM      9  C   UNL     1      13.281  45.376  74.719  1.00  0.00     0.368 A 
ATOM     10  O   UNL     1      13.793  44.161  74.527  1.00  0.00    -0.202 OA
ENDROOT
BRANCH   1  11
ATOM     11  C   UNL     1      15.620  42.586  74.219  1.00  0.00     0.087 A 
ATOM     12  C   UNL     1      17.549  41.122  74.069  1.00  0.00     0.161 A 
ATOM     13  C   UNL     1      16.700  40.005  73.931  1.00  0.00     0.157 A 
ATOM     14  C   UNL     1      17.011  42.418  74.181  1.00  0.00     0.068 A 
ATOM     15  C   UNL     1      15.321  40.217  73.839  1.00  0.00     0.051 A 
ATOM     16  C   UNL     1      14.762  41.489  73.887  1.00  0.00     0.022 A 
BRANCH  12  17
ATOM     17  O   UNL     1      18.923  40.998  74.096  1.00  0.00    -0.493 OA
ATOM     18  C   UNL     1      19.786  42.148  74.222  1.00  0.00     0.278 C 
ENDBRANCH  12  17
BRANCH  13  19
ATOM     19  O   UNL     1      17.195  38.685  73.859  1.00  0.00    -0.504 OA
ATOM     20  H   UNL     1      16.789  38.064  73.175  1.00  0.00     0.293 HD
ENDBRANCH  13  19
ENDBRANCH   1  11
BRANCH   2  21
ATOM     21  O   UNL     1      17.249  45.074  74.841  1.00  0.00    -0.452 OA
BRANCH  21  22
ATOM     22  C   UNL     1      17.419  44.976  76.300  1.00  0.00     0.339 C 
ATOM     23  C   UNL     1      18.540  45.973  76.822  1.00  0.00     0.214 C 
ATOM     24  O   UNL     1      17.671  43.591  76.608  1.00  0.00    -0.332 OA
ATOM     25  C   UNL     1      19.053  45.632  78.261  1.00  0.00     0.180 C 
ATOM     26  C   UNL     1      18.299  43.305  77.895  1.00  0.00     0.179 C 
ATOM     27  C   UNL     1      19.511  44.173  78.225  1.00  0.00     0.177 C 
BRANCH  23  28
ATOM     28  O   UNL     1      19.555  45.994  75.869  1.00  0.00    -0.384 OA
ATOM     29  H   UNL     1      19.947  46.893  75.925  1.00  0.00     0.211 HD
ENDBRANCH  23  28
BRANCH  25  30
ATOM     30  O   UNL     1      20.075  46.542  78.685  1.00  0.00    -0.387 OA
ATOM     31  H   UNL     1      20.904  45.991  78.863  1.00  0.00     0.211 HD
ENDBRANCH  25  30
BRANCH  26  32
ATOM     32  C   UNL     1      17.301  43.189  79.136  1.00  0.00     0.191 C 
BRANCH  32  33
ATOM     33  O   UNL     1      17.590  42.123  79.987  1.00  0.00    -0.394 OA
ATOM     34  H   UNL     1      17.415  41.248  79.523  1.00  0.00     0.210 HD
ENDBRANCH  32  33
ENDBRANCH  26  32
BRANCH  27  35
ATOM     35  O   UNL     1      20.123  43.719  79.420  1.00  0.00    -0.387 OA
ATOM     36  H   UNL     1      20.147  44.497  80.077  1.00  0.00     0.211 HD
ENDBRANCH  27  35
ENDBRANCH  21  22
ENDBRANCH   2  21
BRANCH   5  37
ATOM     37  O   UNL     1      14.376  48.988  74.822  1.00  0.00    -0.461 OA
BRANCH  37  38
ATOM     38  C   UNL     1      15.673  48.940  74.154  1.00  0.00     0.339 C 
ATOM     39  C   UNL     1      16.759  49.459  75.179  1.00  0.00     0.214 C 
ATOM     40  O   UNL     1      15.685  49.730  72.957  1.00  0.00    -0.332 OA
ATOM     41  C   UNL     1      18.168  49.441  74.536  1.00  0.00     0.180 C 
ATOM     42  C   UNL     1      16.945  49.649  72.269  1.00  0.00     0.179 C 
ATOM     43  C   UNL     1      18.153  50.121  73.155  1.00  0.00     0.177 C 
BRANCH  39  44
ATOM     44  O   UNL     1      16.706  48.716  76.421  1.00  0.00    -0.384 OA
ATOM     45  H   UNL     1      17.670  48.496  76.640  1.00  0.00     0.211 HD
ENDBRANCH  39  44
BRANCH  41  46
ATOM     46  O   UNL     1      18.596  48.118  74.427  1.00  0.00    -0.387 OA
ATOM     47  H   UNL     1      17.959  47.592  74.991  1.00  0.00     0.211 HD
ENDBRANCH  41  46
BRANCH  42  48
ATOM     48  C   UNL     1      17.081  48.306  71.469  1.00  0.00     0.191 C 
BRANCH  48  49
ATOM     49  O   UNL     1      18.328  48.146  70.878  1.00  0.00    -0.394 OA
ATOM     50  H   UNL     1      18.723  49.066  70.757  1.00  0.00     0.210 HD
ENDBRANCH  48  49
ENDBRANCH  42  48
BRANCH  43  51
ATOM     51  O   UNL     1      19.373  50.086  72.471  1.00  0.00    -0.387 OA
ATOM     52  H   UNL     1      19.526  49.126  72.171  1.00  0.00     0.211 HD
ENDBRANCH  43  51
ENDBRANCH  37  38
ENDBRANCH   5  37
BRANCH   7  53
ATOM     53  O   UNL     1      10.103  46.864  75.834  1.00  0.00    -0.507 OA
ATOM     54  H   UNL     1       9.540  47.732  75.722  1.00  0.00     0.293 HD
ENDBRANCH   7  53
TORSDOF 18
ENDMDL
MODEL 7
REMARK VINA RESULT:    -3.136      1.918      8.777
REMARK INTER + INTRA:          -7.791
REMARK INTER:                  -5.915
REMARK INTRA:                  -1.876
REMARK UNBOUND:                -2.272
REMARK SMILES COc1cc(-c2[o+]c3cc(O)cc(O[C@H]4O[C@H](CO)[C@H](O)[C@H](O)[C@@H]4O)c3cc2O[C@H]2O[C@H](CO)[C@H](O)[C@@H](O)[C@H]2O)ccc1O
REMARK SMILES IDX 6 1 28 2 27 3 26 4 13 5 12 6 10 7 9 8 8 9 7 10 5 11 3 12
REMARK SMILES IDX 43 13 4 14 42 15 41 16 2 17 1 18 44 19 29 21 30 22 39 23
REMARK SMILES IDX 31 24 37 25 32 26 35 27 40 28 38 30 33 32 34 33 36 35 14 37
REMARK SMILES IDX 15 38 24 39 16 40 22 41 17 42 20 43 25 44 23 46 18 48 19 49
REMARK SMILES IDX 21 51 11 53
REMARK H PARENT 44 20 40 29 38 31 34 34 36 36 25 45 23 47 19 50 21 52 11 54
REMARK Flexibility Score: inf
ROOT
ATOM      1  C   UNL     1      13.281  47.988  71.741  1.00  0.00     0.402 A 
ATOM      2  C   UNL     1      13.191  47.233  72.937  1.00  0.00     0.229 A 
ATOM      3  C   UNL     1      14.343  46.720  73.476  1.00  0.00     0.079 A 
ATOM      4  C   UNL     1      15.546  47.472  73.228  1.00  0.00     0.126 A 
ATOM      5  C   UNL     1      16.723  47.351  74.036  1.00  0.00     0.143 A 
ATOM      6  C   UNL     1      17.898  47.980  73.630  1.00  0.00     0.094 A 
ATOM      7  C   UNL     1      17.936  48.734  72.426  1.00  0.00     0.128 A 
ATOM      8  C   UNL     1      16.789  48.846  71.642  1.00  0.00     0.162 A 
ATOM      9  C   UNL     1      15.576  48.256  72.036  1.00  0.00     0.368 A 
ATOM     10  O   UNL     1      14.466  48.463  71.329  1.00  0.00    -0.202 OA
ENDROOT
BRANCH   1  11
ATOM     11  C   UNL     1      12.065  48.369  70.958  1.00  0.00     0.087 A 
ATOM     12  C   UNL     1      10.557  47.834  69.134  1.00  0.00     0.161 A 
ATOM     13  C   UNL     1       9.873  49.050  69.332  1.00  0.00     0.157 A 
ATOM     14  C   UNL     1      11.674  47.505  69.925  1.00  0.00     0.068 A 
ATOM     15  C   UNL     1      10.366  49.951  70.282  1.00  0.00     0.051 A 
ATOM     16  C   UNL     1      11.501  49.683  71.038  1.00  0.00     0.022 A 
BRANCH  12  17
ATOM     17  O   UNL     1      10.171  46.926  68.167  1.00  0.00    -0.493 OA
ATOM     18  C   UNL     1       8.801  46.490  68.041  1.00  0.00     0.278 C 
ENDBRANCH  12  17
BRANCH  13  19
ATOM     19  O   UNL     1       8.723  49.400  68.592  1.00  0.00    -0.504 OA
ATOM     20  H   UNL     1       8.845  49.666  67.626  1.00  0.00     0.293 HD
ENDBRANCH  13  19
ENDBRANCH   1  11
BRANCH   2  21
ATOM     21  O   UNL     1      12.129  47.425  73.845  1.00  0.00    -0.452 OA
BRANCH  21  22
ATOM     22  C   UNL     1      12.364  47.696  75.272  1.00  0.00     0.339 C 
ATOM     23  C   UNL     1      11.129  47.241  76.162  1.00  0.00     0.214 C 
ATOM     24  O   UNL     1      12.696  49.092  75.392  1.00  0.00    -0.332 OA
ATOM     25  C   UNL     1      11.135  47.863  77.597  1.00  0.00     0.180 C 
ATOM     26  C   UNL     1      12.543  49.696  76.714  1.00  0.00     0.179 C 
ATOM     27  C   UNL     1      11.224  49.379  77.414  1.00  0.00     0.177 C 
BRANCH  23  28
ATOM     28  O   UNL     1       9.972  47.530  75.444  1.00  0.00    -0.384 OA
ATOM     29  H   UNL     1       9.269  46.974  75.847  1.00  0.00     0.211 HD
ENDBRANCH  23  28
BRANCH  25  30
ATOM     30  O   UNL     1       9.996  47.444  78.358  1.00  0.00    -0.387 OA
ATOM     31  H   UNL     1       9.585  46.662  77.867  1.00  0.00     0.211 HD
ENDBRANCH  25  30
BRANCH  26  32
ATOM     32  C   UNL     1      13.789  49.523  77.697  1.00  0.00     0.191 C 
BRANCH  32  33
ATOM     33  O   UNL     1      15.009  49.391  77.033  1.00  0.00    -0.394 OA
ATOM     34  H   UNL     1      15.215  48.420  76.871  1.00  0.00     0.210 HD
ENDBRANCH  32  33
ENDBRANCH  26  32
BRANCH  27  35
ATOM     35  O   UNL     1      11.120  50.125  78.615  1.00  0.00    -0.387 OA
ATOM     36  H   UNL     1      10.541  49.596  79.265  1.00  0.00     0.211 HD
ENDBRANCH  27  35
ENDBRANCH  21  22
ENDBRANCH   2  21
BRANCH   5  37
ATOM     37  O   UNL     1      16.704  46.531  75.200  1.00  0.00    -0.461 OA
BRANCH  37  38
ATOM     38  C   UNL     1      17.150  45.142  75.159  1.00  0.00     0.339 C 
ATOM     39  C   UNL     1      18.627  45.097  75.720  1.00  0.00     0.214 C 
ATOM     40  O   UNL     1      17.095  44.603  73.831  1.00  0.00    -0.332 OA
ATOM     41  C   UNL     1      19.172  43.647  75.705  1.00  0.00     0.180 C 
ATOM     42  C   UNL     1      17.488  43.220  73.793  1.00  0.00     0.179 C 
ATOM     43  C   UNL     1      18.943  42.986  74.334  1.00  0.00     0.177 C 
BRANCH  39  44
ATOM     44  O   UNL     1      18.709  45.707  77.032  1.00  0.00    -0.384 OA
ATOM     45  H   UNL     1      19.633  45.474  77.375  1.00  0.00     0.211 HD
ENDBRANCH  39  44
BRANCH  41  46
ATOM     46  O   UNL     1      18.542  42.917  76.712  1.00  0.00    -0.387 OA
ATOM     47  H   UNL     1      19.187  42.920  77.477  1.00  0.00     0.211 HD
ENDBRANCH  41  46
BRANCH  42  48
ATOM     48  C   UNL     1      16.339  42.279  74.300  1.00  0.00     0.191 C 
BRANCH  48  49
ATOM     49  O   UNL     1      16.701  40.938  74.322  1.00  0.00    -0.394 OA
ATOM     50  H   UNL     1      16.238  40.489  73.547  1.00  0.00     0.210 HD
ENDBRANCH  48  49
ENDBRANCH  42  48
BRANCH  43  51
ATOM     51  O   UNL     1      19.344  41.648  74.254  1.00  0.00    -0.387 OA
ATOM     52  H   UNL     1      18.551  41.115  73.903  1.00  0.00     0.211 HD
ENDBRANCH  43  51
ENDBRANCH  37  38
ENDBRANCH   5  37
BRANCH   7  53
ATOM     53  O   UNL     1      19.060  49.447  72.078  1.00  0.00    -0.507 OA
ATOM     54  H   UNL     1      19.963  49.319  72.579  1.00  0.00     0.293 HD
ENDBRANCH   7  53
TORSDOF 18
ENDMDL
MODEL 8
REMARK VINA RESULT:    -3.009      3.282      5.803
REMARK INTER + INTRA:          -7.568
REMARK INTER:                  -8.080
REMARK INTRA:                   0.511
REMARK UNBOUND:                -2.272
REMARK SMILES COc1cc(-c2[o+]c3cc(O)cc(O[C@H]4O[C@H](CO)[C@H](O)[C@H](O)[C@@H]4O)c3cc2O[C@H]2O[C@H](CO)[C@H](O)[C@@H](O)[C@H]2O)ccc1O
REMARK SMILES IDX 6 1 28 2 27 3 26 4 13 5 12 6 10 7 9 8 8 9 7 10 5 11 3 12
REMARK SMILES IDX 43 13 4 14 42 15 41 16 2 17 1 18 44 19 29 21 30 22 39 23
REMARK SMILES IDX 31 24 37 25 32 26 35 27 40 28 38 30 33 32 34 33 36 35 14 37
REMARK SMILES IDX 15 38 24 39 16 40 22 41 17 42 20 43 25 44 23 46 18 48 19 49
REMARK SMILES IDX 21 51 11 53
REMARK H PARENT 44 20 40 29 38 31 34 34 36 36 25 45 23 47 19 50 21 52 11 54
REMARK Flexibility Score: inf
ROOT
ATOM      1  C   UNL     1      16.780  42.940  74.924  1.00  0.00     0.402 A 
ATOM      2  C   UNL     1      17.659  44.030  75.143  1.00  0.00     0.229 A 
ATOM      3  C   UNL     1      17.270  45.279  74.734  1.00  0.00     0.079 A 
ATOM      4  C   UNL     1      15.852  45.531  74.737  1.00  0.00     0.126 A 
ATOM      5  C   UNL     1      15.294  46.850  74.767  1.00  0.00     0.143 A 
ATOM      6  C   UNL     1      13.921  47.015  74.592  1.00  0.00     0.094 A 
ATOM      7  C   UNL     1      13.079  45.890  74.383  1.00  0.00     0.128 A 
ATOM      8  C   UNL     1      13.627  44.610  74.351  1.00  0.00     0.162 A 
ATOM      9  C   UNL     1      15.001  44.400  74.559  1.00  0.00     0.368 A 
ATOM     10  O   UNL     1      15.490  43.162  74.631  1.00  0.00    -0.202 OA
ENDROOT
BRANCH   1  11
ATOM     11  C   UNL     1      17.221  41.523  75.108  1.00  0.00     0.087 A 
ATOM     12  C   UNL     1      18.910  40.001  75.953  1.00  0.00     0.161 A 
ATOM     13  C   UNL     1      18.215  38.908  75.396  1.00  0.00     0.157 A 
ATOM     14  C   UNL     1      18.432  41.313  75.783  1.00  0.00     0.068 A 
ATOM     15  C   UNL     1      17.082  39.160  74.617  1.00  0.00     0.051 A 
ATOM     16  C   UNL     1      16.617  40.449  74.380  1.00  0.00     0.022 A 
BRANCH  12  17
ATOM     17  O   UNL     1      20.076  39.836  76.675  1.00  0.00    -0.493 OA
ATOM     18  C   UNL     1      20.081  39.847  78.118  1.00  0.00     0.278 C 
ENDBRANCH  12  17
BRANCH  13  19
ATOM     19  O   UNL     1      18.636  37.573  75.579  1.00  0.00    -0.504 OA
ATOM     20  H   UNL     1      19.502  37.287  75.149  1.00  0.00     0.293 HD
ENDBRANCH  13  19
ENDBRANCH   1  11
BRANCH   2  21
ATOM     21  O   UNL     1      18.614  44.000  76.182  1.00  0.00    -0.452 OA
BRANCH  21  22
ATOM     22  C   UNL     1      18.323  44.536  77.522  1.00  0.00     0.339 C 
ATOM     23  C   UNL     1      18.901  46.005  77.699  1.00  0.00     0.214 C 
ATOM     24  O   UNL     1      18.825  43.584  78.479  1.00  0.00    -0.332 OA
ATOM     25  C   UNL     1      18.992  46.460  79.193  1.00  0.00     0.180 C 
ATOM     26  C   UNL     1      19.054  44.073  79.837  1.00  0.00     0.179 C 
ATOM     27  C   UNL     1      19.812  45.396  79.923  1.00  0.00     0.177 C 
BRANCH  23  28
ATOM     28  O   UNL     1      20.125  46.053  77.036  1.00  0.00    -0.384 OA
ATOM     29  H   UNL     1      20.449  45.126  77.020  1.00  0.00     0.211 HD
ENDBRANCH  23  28
BRANCH  25  30
ATOM     30  O   UNL     1      19.536  47.781  79.310  1.00  0.00    -0.387 OA
ATOM     31  H   UNL     1      20.468  47.751  78.919  1.00  0.00     0.211 HD
ENDBRANCH  25  30
BRANCH  26  32
ATOM     32  C   UNL     1      17.778  44.060  80.797  1.00  0.00     0.191 C 
BRANCH  32  33
ATOM     33  O   UNL     1      17.531  45.287  81.412  1.00  0.00    -0.394 OA
ATOM     34  H   UNL     1      16.557  45.370  81.648  1.00  0.00     0.210 HD
ENDBRANCH  32  33
ENDBRANCH  26  32
BRANCH  27  35
ATOM     35  O   UNL     1      20.103  45.701  81.277  1.00  0.00    -0.387 OA
ATOM     36  H   UNL     1      19.703  44.966  81.857  1.00  0.00     0.211 HD
ENDBRANCH  27  35
ENDBRANCH  21  22
ENDBRANCH   2  21
BRANCH   5  37
ATOM     37  O   UNL     1      16.149  47.981  74.897  1.00  0.00    -0.461 OA
BRANCH  37  38
ATOM     38  C   UNL     1      17.079  48.359  73.837  1.00  0.00     0.339 C 
ATOM     39  C   UNL     1      16.306  48.248  72.462  1.00  0.00     0.214 C 
ATOM     40  O   UNL     1      18.247  47.528  73.831  1.00  0.00    -0.332 OA
ATOM     41  C   UNL     1      17.235  48.633  71.283  1.00  0.00     0.180 C 
ATOM     42  C   UNL     1      19.188  47.926  72.820  1.00  0.00     0.179 C 
ATOM     43  C   UNL     1      18.578  47.887  71.373  1.00  0.00     0.177 C 
BRANCH  39  44
ATOM     44  O   UNL     1      15.084  49.026  72.483  1.00  0.00    -0.384 OA
ATOM     45  H   UNL     1      14.514  48.605  73.206  1.00  0.00     0.211 HD
ENDBRANCH  39  44
BRANCH  41  46
ATOM     46  O   UNL     1      17.438  50.012  71.301  1.00  0.00    -0.387 OA
ATOM     47  H   UNL     1      16.707  50.375  71.881  1.00  0.00     0.211 HD
ENDBRANCH  41  46
BRANCH  42  48
ATOM     48  C   UNL     1      20.004  49.193  73.255  1.00  0.00     0.191 C 
BRANCH  48  49
ATOM     49  O   UNL     1      19.794  49.550  74.581  1.00  0.00    -0.394 OA
ATOM     50  H   UNL     1      19.524  50.521  74.592  1.00  0.00     0.210 HD
ENDBRANCH  48  49
ENDBRANCH  42  48
BRANCH  43  51
ATOM     51  O   UNL     1      19.506  48.229  70.383  1.00  0.00    -0.387 OA
ATOM     52  H   UNL     1      20.323  48.612  70.853  1.00  0.00     0.211 HD
ENDBRANCH  43  51
ENDBRANCH  37  38
ENDBRANCH   5  37
BRANCH   7  53
ATOM     53  O   UNL     1      11.712  46.038  74.322  1.00  0.00    -0.507 OA
ATOM     54  H   UNL     1      11.248  46.470  73.497  1.00  0.00     0.293 HD
ENDBRANCH   7  53
TORSDOF 18
ENDMDL
MODEL 9
REMARK VINA RESULT:    -2.965      2.532      8.708
REMARK INTER + INTRA:          -7.490
REMARK INTER:                  -5.892
REMARK INTRA:                  -1.597
REMARK UNBOUND:                -2.272
REMARK SMILES COc1cc(-c2[o+]c3cc(O)cc(O[C@H]4O[C@H](CO)[C@H](O)[C@H](O)[C@@H]4O)c3cc2O[C@H]2O[C@H](CO)[C@H](O)[C@@H](O)[C@H]2O)ccc1O
REMARK SMILES IDX 6 1 28 2 27 3 26 4 13 5 12 6 10 7 9 8 8 9 7 10 5 11 3 12
REMARK SMILES IDX 43 13 4 14 42 15 41 16 2 17 1 18 44 19 29 21 30 22 39 23
REMARK SMILES IDX 31 24 37 25 32 26 35 27 40 28 38 30 33 32 34 33 36 35 14 37
REMARK SMILES IDX 15 38 24 39 16 40 22 41 17 42 20 43 25 44 23 46 18 48 19 49
REMARK SMILES IDX 21 51 11 53
REMARK H PARENT 44 20 40 29 38 31 34 34 36 36 25 45 23 47 19 50 21 52 11 54
REMARK Flexibility Score: inf
ROOT
ATOM      1  C   UNL     1      14.829  44.537  74.967  1.00  0.00     0.402 A 
ATOM      2  C   UNL     1      15.915  45.072  75.704  1.00  0.00     0.229 A 
ATOM      3  C   UNL     1      16.858  44.210  76.202  1.00  0.00     0.079 A 
ATOM      4  C   UNL     1      17.071  43.003  75.447  1.00  0.00     0.126 A 
ATOM      5  C   UNL     1      18.266  42.219  75.549  1.00  0.00     0.143 A 
ATOM      6  C   UNL     1      18.324  40.976  74.920  1.00  0.00     0.094 A 
ATOM      7  C   UNL     1      17.211  40.486  74.186  1.00  0.00     0.128 A 
ATOM      8  C   UNL     1      16.050  41.250  74.092  1.00  0.00     0.162 A 
ATOM      9  C   UNL     1      15.966  42.523  74.683  1.00  0.00     0.368 A 
ATOM     10  O   UNL     1      14.888  43.283  74.493  1.00  0.00    -0.202 OA
ENDROOT
BRANCH   1  11
ATOM     11  C   UNL     1      13.638  45.366  74.606  1.00  0.00     0.087 A 
ATOM     12  C   UNL     1      12.775  47.296  73.416  1.00  0.00     0.161 A 
ATOM     13  C   UNL     1      11.496  47.073  73.965  1.00  0.00     0.157 A 
ATOM     14  C   UNL     1      13.856  46.462  73.759  1.00  0.00     0.068 A 
ATOM     15  C   UNL     1      11.339  46.051  74.908  1.00  0.00     0.051 A 
ATOM     16  C   UNL     1      12.399  45.249  75.314  1.00  0.00     0.022 A 
BRANCH  12  17
ATOM     17  O   UNL     1      13.022  48.328  72.533  1.00  0.00    -0.493 OA
ATOM     18  C   UNL     1      14.309  48.979  72.470  1.00  0.00     0.278 C 
ENDBRANCH  12  17
BRANCH  13  19
ATOM     19  O   UNL     1      10.376  47.857  73.615  1.00  0.00    -0.504 OA
ATOM     20  H   UNL     1       9.885  48.338  74.354  1.00  0.00     0.293 HD
ENDBRANCH  13  19
ENDBRANCH   1  11
BRANCH   2  21
ATOM     21  O   UNL     1      16.350  46.400  75.503  1.00  0.00    -0.452 OA
BRANCH  21  22
ATOM     22  C   UNL     1      17.661  46.707  74.909  1.00  0.00     0.339 C 
ATOM     23  C   UNL     1      17.955  48.268  74.925  1.00  0.00     0.214 C 
ATOM     24  O   UNL     1      17.684  46.115  73.596  1.00  0.00    -0.332 OA
ATOM     25  C   UNL     1      19.111  48.692  73.959  1.00  0.00     0.180 C 
ATOM     26  C   UNL     1      18.670  46.637  72.653  1.00  0.00     0.179 C 
ATOM     27  C   UNL     1      18.737  48.161  72.574  1.00  0.00     0.177 C 
BRANCH  23  28
ATOM     28  O   UNL     1      16.754  48.920  74.661  1.00  0.00    -0.384 OA
ATOM     29  H   UNL     1      16.894  49.392  73.811  1.00  0.00     0.211 HD
ENDBRANCH  23  28
BRANCH  25  30
ATOM     30  O   UNL     1      19.330  50.107  73.988  1.00  0.00    -0.387 OA
ATOM     31  H   UNL     1      19.007  50.437  74.888  1.00  0.00     0.211 HD
ENDBRANCH  25  30
BRANCH  26  32
ATOM     32  C   UNL     1      20.125  45.987  72.750  1.00  0.00     0.191 C 
BRANCH  32  33
ATOM     33  O   UNL     1      20.119  44.673  73.218  1.00  0.00    -0.394 OA
ATOM     34  H   UNL     1      19.218  44.252  73.066  1.00  0.00     0.210 HD
ENDBRANCH  32  33
ENDBRANCH  26  32
BRANCH  27  35
ATOM     35  O   UNL     1      19.617  48.554  71.535  1.00  0.00    -0.387 OA
ATOM     36  H   UNL     1      19.261  48.172  70.660  1.00  0.00     0.211 HD
ENDBRANCH  27  35
ENDBRANCH  21  22
ENDBRANCH   2  21
BRANCH   5  37
ATOM     37  O   UNL     1      19.350  42.677  76.351  1.00  0.00    -0.461 OA
BRANCH  37  38
ATOM     38  C   UNL     1      19.126  43.509  77.529  1.00  0.00     0.339 C 
ATOM     39  C   UNL     1      20.125  44.731  77.448  1.00  0.00     0.214 C 
ATOM     40  O   UNL     1      19.321  42.774  78.745  1.00  0.00    -0.332 OA
ATOM     41  C   UNL     1      19.948  45.662  78.674  1.00  0.00     0.180 C 
ATOM     42  C   UNL     1      19.056  43.575  79.909  1.00  0.00     0.179 C 
ATOM     43  C   UNL     1      19.962  44.855  79.985  1.00  0.00     0.177 C 
BRANCH  39  44
ATOM     44  O   UNL     1      19.989  45.438  76.191  1.00  0.00    -0.384 OA
ATOM     45  H   UNL     1      19.301  46.160  76.366  1.00  0.00     0.211 HD
ENDBRANCH  39  44
BRANCH  41  46
ATOM     46  O   UNL     1      18.748  46.360  78.541  1.00  0.00    -0.387 OA
ATOM     47  H   UNL     1      18.967  47.303  78.797  1.00  0.00     0.211 HD
ENDBRANCH  41  46
BRANCH  42  48
ATOM     48  C   UNL     1      17.515  43.730  80.165  1.00  0.00     0.191 C 
BRANCH  48  49
ATOM     49  O   UNL     1      17.222  44.396  81.348  1.00  0.00    -0.394 OA
ATOM     50  H   UNL     1      16.485  45.055  81.147  1.00  0.00     0.210 HD
ENDBRANCH  48  49
ENDBRANCH  42  48
BRANCH  43  51
ATOM     51  O   UNL     1      19.737  45.611  81.141  1.00  0.00    -0.387 OA
ATOM     52  H   UNL     1      19.660  46.585  80.857  1.00  0.00     0.211 HD
ENDBRANCH  43  51
ENDBRANCH  37  38
ENDBRANCH   5  37
BRANCH   7  53
ATOM     53  O   UNL     1      17.302  39.313  73.472  1.00  0.00    -0.507 OA
ATOM     54  H   UNL     1      18.194  39.016  73.025  1.00  0.00     0.293 HD
ENDBRANCH   7  53
TORSDOF 18
ENDMDL
