MODEL 1
REMARK VINA RESULT:    -4.747      0.000      0.000
REMARK INTER + INTRA:          -7.647
REMARK INTER:                  -6.550
REMARK INTRA:                  -1.096
REMARK UNBOUND:                -1.096
REMARK SMILES CCCCc1cccc(O)c1CCCC
REMARK SMILES IDX 5 1 11 2 9 3 8 4 7 5 6 6 4 7 3 8 2 9 1 10 12 11 13 12 14 13
REMARK SMILES IDX 15 14 10 15
REMARK H PARENT 10 16
REMARK Flexibility Score: inf
ROOT
ATOM      1  C   UNL     1     -27.620 -52.503  52.466  1.00  0.00    -0.041 A 
ATOM      2  C   UNL     1     -28.697 -53.410  52.718  1.00  0.00    -0.003 A 
ATOM      3  C   UNL     1     -29.939 -53.197  52.054  1.00  0.00     0.119 A 
ATOM      4  C   UNL     1     -30.078 -52.147  51.144  1.00  0.00     0.046 A 
ATOM      5  C   UNL     1     -29.019 -51.288  50.884  1.00  0.00     0.004 A 
ATOM      6  C   UNL     1     -27.806 -51.457  51.542  1.00  0.00     0.004 A 
ENDROOT
BRANCH   1   7
ATOM      7  C   UNL     1     -26.274 -52.576  53.170  1.00  0.00     0.036 C 
BRANCH   7   8
ATOM      8  C   UNL     1     -25.888 -51.287  53.918  1.00  0.00     0.004 C 
BRANCH   8   9
ATOM      9  C   UNL     1     -25.836 -51.430  55.449  1.00  0.00    -0.003 C 
ATOM     10  C   UNL     1     -25.269 -50.190  56.138  1.00  0.00     0.004 C 
ENDBRANCH   8   9
ENDBRANCH   7   8
ENDBRANCH   1   7
BRANCH   2  11
ATOM     11  C   UNL     1     -28.531 -54.615  53.629  1.00  0.00     0.040 C 
BRANCH  11  12
ATOM     12  C   UNL     1     -28.916 -54.270  55.078  1.00  0.00     0.005 C 
BRANCH  12  13
ATOM     13  C   UNL     1     -27.762 -54.564  56.041  1.00  0.00    -0.003 C 
ATOM     14  C   UNL     1     -26.693 -55.425  55.376  1.00  0.00     0.004 C 
ENDBRANCH  12  13
ENDBRANCH  11  12
ENDBRANCH   2  11
BRANCH   3  15
ATOM     15  O   UNL     1     -31.062 -53.999  52.275  1.00  0.00    -0.508 OA
ATOM     16  H   UNL     1     -31.956 -53.866  51.821  1.00  0.00     0.293 HD
ENDBRANCH   3  15
TORSDOF 7
ENDMDL
MODEL 2
REMARK VINA RESULT:    -4.651      2.199      5.374
REMARK INTER + INTRA:          -7.515
REMARK INTER:                  -6.496
REMARK INTRA:                  -1.019
REMARK UNBOUND:                -1.096
REMARK SMILES CCCCc1cccc(O)c1CCCC
REMARK SMILES IDX 5 1 11 2 9 3 8 4 7 5 6 6 4 7 3 8 2 9 1 10 12 11 13 12 14 13
REMARK SMILES IDX 15 14 10 15
REMARK H PARENT 10 16
REMARK Flexibility Score: inf
ROOT
ATOM      1  C   UNL     1     -27.982 -53.795  54.173  1.00  0.00    -0.041 A 
ATOM      2  C   UNL     1     -27.048 -52.774  53.813  1.00  0.00    -0.003 A 
ATOM      3  C   UNL     1     -26.248 -52.188  54.836  1.00  0.00     0.119 A 
ATOM      4  C   UNL     1     -26.349 -52.641  56.152  1.00  0.00     0.046 A 
ATOM      5  C   UNL     1     -27.239 -53.652  56.489  1.00  0.00     0.004 A 
ATOM      6  C   UNL     1     -28.053 -54.219  55.514  1.00  0.00     0.004 A 
ENDROOT
BRANCH   1   7
ATOM      7  C   UNL     1     -28.947 -54.440  53.190  1.00  0.00     0.036 C 
BRANCH   7   8
ATOM      8  C   UNL     1     -28.594 -55.895  52.831  1.00  0.00     0.004 C 
BRANCH   8   9
ATOM      9  C   UNL     1     -27.228 -56.068  52.144  1.00  0.00    -0.003 C 
ATOM     10  C   UNL     1     -26.207 -56.776  53.034  1.00  0.00     0.004 C 
ENDBRANCH   8   9
ENDBRANCH   7   8
ENDBRANCH   1   7
BRANCH   2  11
ATOM     11  C   UNL     1     -26.855 -52.339  52.369  1.00  0.00     0.040 C 
BRANCH  11  12
ATOM     12  C   UNL     1     -27.684 -51.083  52.054  1.00  0.00     0.005 C 
BRANCH  12  13
ATOM     13  C   UNL     1     -28.633 -51.329  50.876  1.00  0.00    -0.003 C 
ATOM     14  C   UNL     1     -29.784 -50.329  50.875  1.00  0.00     0.004 C 
ENDBRANCH  12  13
ENDBRANCH  11  12
ENDBRANCH   2  11
BRANCH   3  15
ATOM     15  O   UNL     1     -25.345 -51.150  54.589  1.00  0.00    -0.508 OA
ATOM     16  H   UNL     1     -24.882 -50.614  55.311  1.00  0.00     0.293 HD
ENDBRANCH   3  15
TORSDOF 7
ENDMDL
MODEL 3
REMARK VINA RESULT:    -4.626      2.017      4.148
REMARK INTER + INTRA:          -7.481
REMARK INTER:                  -6.258
REMARK INTRA:                  -1.223
REMARK UNBOUND:                -1.096
REMARK SMILES CCCCc1cccc(O)c1CCCC
REMARK SMILES IDX 5 1 11 2 9 3 8 4 7 5 6 6 4 7 3 8 2 9 1 10 12 11 13 12 14 13
REMARK SMILES IDX 15 14 10 15
REMARK H PARENT 10 16
REMARK Flexibility Score: inf
ROOT
ATOM      1  C   UNL     1     -26.883 -53.079  53.257  1.00  0.00    -0.041 A 
ATOM      2  C   UNL     1     -27.229 -53.788  54.449  1.00  0.00    -0.003 A 
ATOM      3  C   UNL     1     -26.825 -53.252  55.705  1.00  0.00     0.119 A 
ATOM      4  C   UNL     1     -26.144 -52.033  55.762  1.00  0.00     0.046 A 
ATOM      5  C   UNL     1     -25.837 -51.337  54.601  1.00  0.00     0.004 A 
ATOM      6  C   UNL     1     -26.194 -51.856  53.361  1.00  0.00     0.004 A 
ENDROOT
BRANCH   1   7
ATOM      7  C   UNL     1     -27.186 -53.587  51.856  1.00  0.00     0.036 C 
BRANCH   7   8
ATOM      8  C   UNL     1     -27.755 -52.514  50.910  1.00  0.00     0.004 C 
BRANCH   8   9
ATOM      9  C   UNL     1     -29.140 -51.979  51.315  1.00  0.00    -0.003 C 
ATOM     10  C   UNL     1     -29.325 -50.502  50.969  1.00  0.00     0.004 C 
ENDBRANCH   8   9
ENDBRANCH   7   8
ENDBRANCH   1   7
BRANCH   2  11
ATOM     11  C   UNL     1     -28.055 -55.064  54.410  1.00  0.00     0.040 C 
BRANCH  11  12
ATOM     12  C   UNL     1     -29.554 -54.758  54.569  1.00  0.00     0.005 C 
BRANCH  12  13
ATOM     13  C   UNL     1     -30.298 -54.944  53.243  1.00  0.00    -0.003 C 
ATOM     14  C   UNL     1     -29.765 -56.149  52.475  1.00  0.00     0.004 C 
ENDBRANCH  12  13
ENDBRANCH  11  12
ENDBRANCH   2  11
BRANCH   3  15
ATOM     15  O   UNL     1     -27.072 -53.898  56.920  1.00  0.00    -0.508 OA
ATOM     16  H   UNL     1     -27.422 -53.438  57.749  1.00  0.00     0.293 HD
ENDBRANCH   3  15
TORSDOF 7
ENDMDL
MODEL 4
REMARK VINA RESULT:    -4.479      2.331      4.920
REMARK INTER + INTRA:          -7.277
REMARK INTER:                  -5.963
REMARK INTRA:                  -1.314
REMARK UNBOUND:                -1.096
REMARK SMILES CCCCc1cccc(O)c1CCCC
REMARK SMILES IDX 5 1 11 2 9 3 8 4 7 5 6 6 4 7 3 8 2 9 1 10 12 11 13 12 14 13
REMARK SMILES IDX 15 14 10 15
REMARK H PARENT 10 16
REMARK Flexibility Score: inf
ROOT
ATOM      1  C   UNL     1     -27.010 -53.697  55.247  1.00  0.00    -0.041 A 
ATOM      2  C   UNL     1     -26.997 -53.082  53.957  1.00  0.00    -0.003 A 
ATOM      3  C   UNL     1     -26.429 -51.782  53.826  1.00  0.00     0.119 A 
ATOM      4  C   UNL     1     -25.857 -51.151  54.933  1.00  0.00     0.046 A 
ATOM      5  C   UNL     1     -25.849 -51.768  56.176  1.00  0.00     0.004 A 
ATOM      6  C   UNL     1     -26.426 -53.023  56.336  1.00  0.00     0.004 A 
ENDROOT
BRANCH   1   7
ATOM      7  C   UNL     1     -27.658 -55.044  55.532  1.00  0.00     0.036 C 
BRANCH   7   8
ATOM      8  C   UNL     1     -26.662 -56.217  55.595  1.00  0.00     0.004 C 
BRANCH   8   9
ATOM      9  C   UNL     1     -27.294 -57.601  55.367  1.00  0.00    -0.003 C 
ATOM     10  C   UNL     1     -28.811 -57.594  55.555  1.00  0.00     0.004 C 
ENDBRANCH   8   9
ENDBRANCH   7   8
ENDBRANCH   1   7
BRANCH   2  11
ATOM     11  C   UNL     1     -27.525 -53.796  52.723  1.00  0.00     0.040 C 
BRANCH  11  12
ATOM     12  C   UNL     1     -26.404 -54.571  52.011  1.00  0.00     0.005 C 
BRANCH  12  13
ATOM     13  C   UNL     1     -26.762 -56.054  51.868  1.00  0.00    -0.003 C 
ATOM     14  C   UNL     1     -28.262 -56.278  52.031  1.00  0.00     0.004 C 
ENDBRANCH  12  13
ENDBRANCH  11  12
ENDBRANCH   2  11
BRANCH   3  15
ATOM     15  O   UNL     1     -26.415 -51.080  52.618  1.00  0.00    -0.508 OA
ATOM     16  H   UNL     1     -27.116 -50.404  52.343  1.00  0.00     0.293 HD
ENDBRANCH   3  15
TORSDOF 7
ENDMDL
MODEL 5
REMARK VINA RESULT:    -4.446      2.036      4.153
REMARK INTER + INTRA:          -7.232
REMARK INTER:                  -6.259
REMARK INTRA:                  -0.973
REMARK UNBOUND:                -1.096
REMARK SMILES CCCCc1cccc(O)c1CCCC
REMARK SMILES IDX 5 1 11 2 9 3 8 4 7 5 6 6 4 7 3 8 2 9 1 10 12 11 13 12 14 13
REMARK SMILES IDX 15 14 10 15
REMARK H PARENT 10 16
REMARK Flexibility Score: inf
ROOT
ATOM      1  C   UNL     1     -27.046 -52.918  53.438  1.00  0.00    -0.041 A 
ATOM      2  C   UNL     1     -27.450 -53.619  54.618  1.00  0.00    -0.003 A 
ATOM      3  C   UNL     1     -26.953 -53.177  55.877  1.00  0.00     0.119 A 
ATOM      4  C   UNL     1     -26.127 -52.054  55.952  1.00  0.00     0.046 A 
ATOM      5  C   UNL     1     -25.763 -51.363  54.804  1.00  0.00     0.004 A 
ATOM      6  C   UNL     1     -26.209 -51.793  53.560  1.00  0.00     0.004 A 
ENDROOT
BRANCH   1   7
ATOM      7  C   UNL     1     -27.442 -53.340  52.031  1.00  0.00     0.036 C 
BRANCH   7   8
ATOM      8  C   UNL     1     -27.877 -52.171  51.127  1.00  0.00     0.004 C 
BRANCH   8   9
ATOM      9  C   UNL     1     -29.337 -51.726  51.321  1.00  0.00    -0.003 C 
ATOM     10  C   UNL     1     -30.269 -52.891  51.652  1.00  0.00     0.004 C 
ENDBRANCH   8   9
ENDBRANCH   7   8
ENDBRANCH   1   7
BRANCH   2  11
ATOM     11  C   UNL     1     -28.427 -54.781  54.563  1.00  0.00     0.040 C 
BRANCH  11  12
ATOM     12  C   UNL     1     -27.685 -56.125  54.475  1.00  0.00     0.005 C 
BRANCH  12  13
ATOM     13  C   UNL     1     -28.063 -57.042  55.643  1.00  0.00    -0.003 C 
ATOM     14  C   UNL     1     -29.354 -56.581  56.312  1.00  0.00     0.004 C 
ENDBRANCH  12  13
ENDBRANCH  11  12
ENDBRANCH   2  11
BRANCH   3  15
ATOM     15  O   UNL     1     -27.251 -53.828  57.078  1.00  0.00    -0.508 OA
ATOM     16  H   UNL     1     -26.567 -54.054  57.788  1.00  0.00     0.293 HD
ENDBRANCH   3  15
TORSDOF 7
ENDMDL
MODEL 6
REMARK VINA RESULT:    -4.398      2.049      3.988
REMARK INTER + INTRA:          -7.166
REMARK INTER:                  -6.193
REMARK INTRA:                  -0.973
REMARK UNBOUND:                -1.096
REMARK SMILES CCCCc1cccc(O)c1CCCC
REMARK SMILES IDX 5 1 11 2 9 3 8 4 7 5 6 6 4 7 3 8 2 9 1 10 12 11 13 12 14 13
REMARK SMILES IDX 15 14 10 15
REMARK H PARENT 10 16
REMARK Flexibility Score: inf
ROOT
ATOM      1  C   UNL     1     -28.865 -53.226  51.799  1.00  0.00    -0.041 A 
ATOM      2  C   UNL     1     -27.721 -52.925  52.601  1.00  0.00    -0.003 A 
ATOM      3  C   UNL     1     -27.157 -51.619  52.524  1.00  0.00     0.119 A 
ATOM      4  C   UNL     1     -27.746 -50.647  51.713  1.00  0.00     0.046 A 
ATOM      5  C   UNL     1     -28.874 -50.940  50.959  1.00  0.00     0.004 A 
ATOM      6  C   UNL     1     -29.424 -52.216  50.994  1.00  0.00     0.004 A 
ENDROOT
BRANCH   1   7
ATOM      7  C   UNL     1     -29.509 -54.603  51.732  1.00  0.00     0.036 C 
BRANCH   7   8
ATOM      8  C   UNL     1     -30.642 -54.814  52.753  1.00  0.00     0.004 C 
BRANCH   8   9
ATOM      9  C   UNL     1     -30.479 -56.065  53.635  1.00  0.00    -0.003 C 
ATOM     10  C   UNL     1     -30.831 -55.803  55.099  1.00  0.00     0.004 C 
ENDBRANCH   8   9
ENDBRANCH   7   8
ENDBRANCH   1   7
BRANCH   2  11
ATOM     11  C   UNL     1     -27.128 -53.942  53.563  1.00  0.00     0.040 C 
BRANCH  11  12
ATOM     12  C   UNL     1     -27.735 -53.794  54.968  1.00  0.00     0.005 C 
BRANCH  12  13
ATOM     13  C   UNL     1     -26.650 -53.854  56.048  1.00  0.00    -0.003 C 
ATOM     14  C   UNL     1     -26.114 -52.464  56.371  1.00  0.00     0.004 C 
ENDBRANCH  12  13
ENDBRANCH  11  12
ENDBRANCH   2  11
BRANCH   3  15
ATOM     15  O   UNL     1     -26.010 -51.247  53.231  1.00  0.00    -0.508 OA
ATOM     16  H   UNL     1     -25.633 -50.309  53.252  1.00  0.00     0.293 HD
ENDBRANCH   3  15
TORSDOF 7
ENDMDL
MODEL 7
REMARK VINA RESULT:    -4.334      2.013      4.693
REMARK INTER + INTRA:          -7.077
REMARK INTER:                  -5.773
REMARK INTRA:                  -1.304
REMARK UNBOUND:                -1.096
REMARK SMILES CCCCc1cccc(O)c1CCCC
REMARK SMILES IDX 5 1 11 2 9 3 8 4 7 5 6 6 4 7 3 8 2 9 1 10 12 11 13 12 14 13
REMARK SMILES IDX 15 14 10 15
REMARK H PARENT 10 16
REMARK Flexibility Score: inf
ROOT
ATOM      1  C   UNL     1     -27.054 -53.752  55.205  1.00  0.00    -0.041 A 
ATOM      2  C   UNL     1     -26.997 -53.109  53.929  1.00  0.00    -0.003 A 
ATOM      3  C   UNL     1     -26.399 -51.820  53.840  1.00  0.00     0.119 A 
ATOM      4  C   UNL     1     -25.841 -51.224  54.973  1.00  0.00     0.046 A 
ATOM      5  C   UNL     1     -25.877 -51.867  56.203  1.00  0.00     0.004 A 
ATOM      6  C   UNL     1     -26.483 -53.113  56.322  1.00  0.00     0.004 A 
ENDROOT
BRANCH   1   7
ATOM      7  C   UNL     1     -27.737 -55.090  55.444  1.00  0.00     0.036 C 
BRANCH   7   8
ATOM      8  C   UNL     1     -26.762 -56.275  55.574  1.00  0.00     0.004 C 
BRANCH   8   9
ATOM      9  C   UNL     1     -26.519 -57.045  54.264  1.00  0.00    -0.003 C 
ATOM     10  C   UNL     1     -25.243 -56.602  53.549  1.00  0.00     0.004 C 
ENDBRANCH   8   9
ENDBRANCH   7   8
ENDBRANCH   1   7
BRANCH   2  11
ATOM     11  C   UNL     1     -27.509 -53.786  52.668  1.00  0.00     0.040 C 
BRANCH  11  12
ATOM     12  C   UNL     1     -28.947 -53.345  52.348  1.00  0.00     0.005 C 
BRANCH  12  13
ATOM     13  C   UNL     1     -29.933 -54.504  52.533  1.00  0.00    -0.003 C 
ATOM     14  C   UNL     1     -29.307 -55.833  52.123  1.00  0.00     0.004 C 
ENDBRANCH  12  13
ENDBRANCH  11  12
ENDBRANCH   2  11
BRANCH   3  15
ATOM     15  O   UNL     1     -26.341 -51.092  52.648  1.00  0.00    -0.508 OA
ATOM     16  H   UNL     1     -25.649 -51.236  51.925  1.00  0.00     0.293 HD
ENDBRANCH   3  15
TORSDOF 7
ENDMDL
MODEL 8
REMARK VINA RESULT:    -4.262      1.972      5.148
REMARK INTER + INTRA:          -6.978
REMARK INTER:                  -6.118
REMARK INTRA:                  -0.860
REMARK UNBOUND:                -1.096
REMARK SMILES CCCCc1cccc(O)c1CCCC
REMARK SMILES IDX 5 1 11 2 9 3 8 4 7 5 6 6 4 7 3 8 2 9 1 10 12 11 13 12 14 13
REMARK SMILES IDX 15 14 10 15
REMARK H PARENT 10 16
REMARK Flexibility Score: inf
ROOT
ATOM      1  C   UNL     1     -27.011 -53.700  55.187  1.00  0.00    -0.041 A 
ATOM      2  C   UNL     1     -26.946 -53.101  53.891  1.00  0.00    -0.003 A 
ATOM      3  C   UNL     1     -26.369 -51.805  53.766  1.00  0.00     0.119 A 
ATOM      4  C   UNL     1     -25.838 -51.161  54.885  1.00  0.00     0.046 A 
ATOM      5  C   UNL     1     -25.880 -51.763  56.136  1.00  0.00     0.004 A 
ATOM      6  C   UNL     1     -26.466 -53.014  56.289  1.00  0.00     0.004 A 
ENDROOT
BRANCH   1   7
ATOM      7  C   UNL     1     -27.674 -55.041  55.464  1.00  0.00     0.036 C 
BRANCH   7   8
ATOM      8  C   UNL     1     -29.181 -54.944  55.767  1.00  0.00     0.004 C 
BRANCH   8   9
ATOM      9  C   UNL     1     -29.972 -56.231  55.479  1.00  0.00    -0.003 C 
ATOM     10  C   UNL     1     -31.165 -55.994  54.553  1.00  0.00     0.004 C 
ENDBRANCH   8   9
ENDBRANCH   7   8
ENDBRANCH   1   7
BRANCH   2  11
ATOM     11  C   UNL     1     -27.429 -53.829  52.647  1.00  0.00     0.040 C 
BRANCH  11  12
ATOM     12  C   UNL     1     -28.872 -53.428  52.296  1.00  0.00     0.005 C 
BRANCH  12  13
ATOM     13  C   UNL     1     -28.956 -52.860  50.875  1.00  0.00    -0.003 C 
ATOM     14  C   UNL     1     -29.378 -51.395  50.890  1.00  0.00     0.004 C 
ENDBRANCH  12  13
ENDBRANCH  11  12
ENDBRANCH   2  11
BRANCH   3  15
ATOM     15  O   UNL     1     -26.307 -51.118  52.550  1.00  0.00    -0.508 OA
ATOM     16  H   UNL     1     -26.880 -51.332  51.744  1.00  0.00     0.293 HD
ENDBRANCH   3  15
TORSDOF 7
ENDMDL
