MODEL 1
REMARK VINA RESULT:    -3.320      0.000      0.000
REMARK INTER + INTRA:          -4.956
REMARK INTER:                  -4.485
REMARK INTRA:                  -0.471
REMARK UNBOUND:                -0.471
REMARK SMILES C=C1CCC=C(C)CC[C@@H]2[C@@H]1CC2(C)C
REMARK SMILES IDX 11 1 12 2 13 3 10 4 14 5 15 6 9 7 8 8 6 9 7 10 5 11 2 13
REMARK SMILES IDX 1 14 3 15 4 16
REMARK H PARENT
REMARK Flexibility Score: 70.00
ROOT
ATOM      1  C   UNL     1      13.145   4.370  18.049  1.00  0.00     0.018 C 
ATOM      2  C   UNL     1      11.684   4.829  18.093  1.00  0.00     0.015 C 
ATOM      3  C   UNL     1      12.107   6.193  17.517  1.00  0.00    -0.031 C 
ATOM      4  C   UNL     1      13.585   5.814  17.781  1.00  0.00     0.002 C 
ATOM      5  C   UNL     1      11.611   7.385  18.353  1.00  0.00     0.011 C 
ATOM      6  C   UNL     1      11.713   6.332  16.033  1.00  0.00     0.011 C 
ENDROOT
BRANCH   4   7
ATOM      7  C   UNL     1      14.660   5.968  16.669  1.00  0.00     0.009 C 
BRANCH   7   8
ATOM      8  C   UNL     1      16.077   6.178  17.266  1.00  0.00     0.030 C 
BRANCH   8   9
ATOM      9  C   UNL     1      17.029   4.985  17.235  1.00  0.00    -0.077 C 
ATOM     10  C   UNL     1      17.953   4.851  16.046  1.00  0.00     0.039 C 
ATOM     11  C   UNL     1      17.235   4.120  18.264  1.00  0.00    -0.028 CG0
ATOM     12  G   UNL     1      16.307   3.839  19.420  1.00  0.00     0.000 G0
ENDBRANCH   8   9
ENDBRANCH   7   8
ENDBRANCH   4   7
BRANCH   1  13
ATOM     13  C   UNL     1      13.787   3.766  19.285  1.00  0.00    -0.074 C 
ATOM     14  C   UNL     1      13.137   3.744  20.459  1.00  0.00     0.008 C 
BRANCH  13  15
ATOM     15  C   UNL     1      15.074   2.972  19.109  1.00  0.00     0.035 C 
BRANCH  15  16
ATOM     16  C   UNL     1      16.311   3.841  19.427  1.00  0.00     0.032 CG0
ATOM     17  G   UNL     1      17.250   4.094  18.274  1.00  0.00     0.000 G0
ENDBRANCH  15  16
ENDBRANCH  13  15
ENDBRANCH   1  13
TORSDOF 0
ENDMDL
MODEL 2
REMARK VINA RESULT:    -3.145      2.725      5.010
REMARK INTER + INTRA:          -4.719
REMARK INTER:                  -4.296
REMARK INTRA:                  -0.423
REMARK UNBOUND:                -0.471
REMARK SMILES C=C1CCC=C(C)CC[C@@H]2[C@@H]1CC2(C)C
REMARK SMILES IDX 11 1 12 2 13 3 10 4 14 5 15 6 9 7 8 8 6 9 7 10 5 11 2 13
REMARK SMILES IDX 1 14 3 15 4 16
REMARK H PARENT
REMARK Flexibility Score: 70.00
ROOT
ATOM      1  C   UNL     1      13.740   5.005  21.291  1.00  0.00     0.018 C 
ATOM      2  C   UNL     1      14.192   4.170  22.494  1.00  0.00     0.015 C 
ATOM      3  C   UNL     1      14.141   2.904  21.620  1.00  0.00    -0.031 C 
ATOM      4  C   UNL     1      13.393   3.717  20.535  1.00  0.00     0.002 C 
ATOM      5  C   UNL     1      13.302   1.773  22.239  1.00  0.00     0.011 C 
ATOM      6  C   UNL     1      15.553   2.422  21.232  1.00  0.00     0.011 C 
ENDROOT
BRANCH   4   7
ATOM      7  C   UNL     1      13.861   3.690  19.053  1.00  0.00     0.009 C 
BRANCH   7   8
ATOM      8  C   UNL     1      12.750   4.189  18.092  1.00  0.00     0.030 C 
BRANCH   8   9
ATOM      9  C   UNL     1      12.900   5.600  17.528  1.00  0.00    -0.077 C 
ATOM     10  C   UNL     1      13.730   5.775  16.276  1.00  0.00     0.039 C 
ATOM     11  C   UNL     1      12.215   6.693  17.959  1.00  0.00    -0.028 CG0
ATOM     12  G   UNL     1      11.556   6.886  19.303  1.00  0.00     0.000 G0
ENDBRANCH   8   9
ENDBRANCH   7   8
ENDBRANCH   4   7
BRANCH   1  13
ATOM     13  C   UNL     1      12.564   5.956  21.427  1.00  0.00    -0.074 C 
ATOM     14  C   UNL     1      11.728   5.873  22.474  1.00  0.00     0.008 C 
BRANCH  13  15
ATOM     15  C   UNL     1      12.497   7.153  20.488  1.00  0.00     0.035 C 
BRANCH  15  16
ATOM     16  C   UNL     1      11.545   6.875  19.304  1.00  0.00     0.032 CG0
ATOM     17  G   UNL     1      12.206   6.690  17.960  1.00  0.00     0.000 G0
ENDBRANCH  15  16
ENDBRANCH  13  15
ENDBRANCH   1  13
TORSDOF 0
ENDMDL
MODEL 3
REMARK VINA RESULT:    -3.102      1.574      4.714
REMARK INTER + INTRA:          -4.661
REMARK INTER:                  -4.180
REMARK INTRA:                  -0.482
REMARK UNBOUND:                -0.471
REMARK SMILES C=C1CCC=C(C)CC[C@@H]2[C@@H]1CC2(C)C
REMARK SMILES IDX 11 1 12 2 13 3 10 4 14 5 15 6 9 7 8 8 6 9 7 10 5 11 2 13
REMARK SMILES IDX 1 14 3 15 4 16
REMARK H PARENT
REMARK Flexibility Score: 70.00
ROOT
ATOM      1  C   UNL     1      17.137   4.763  18.491  1.00  0.00     0.018 C 
ATOM      2  C   UNL     1      18.651   4.584  18.340  1.00  0.00     0.015 C 
ATOM      3  C   UNL     1      18.494   4.649  16.809  1.00  0.00    -0.031 C 
ATOM      4  C   UNL     1      16.962   4.510  16.988  1.00  0.00     0.002 C 
ATOM      5  C   UNL     1      19.146   3.460  16.082  1.00  0.00     0.011 C 
ATOM      6  C   UNL     1      18.977   5.999  16.244  1.00  0.00     0.011 C 
ENDROOT
BRANCH   4   7
ATOM      7  C   UNL     1      15.984   5.487  16.277  1.00  0.00     0.009 C 
BRANCH   7   8
ATOM      8  C   UNL     1      14.661   4.781  15.875  1.00  0.00     0.030 C 
BRANCH   8   9
ATOM      9  C   UNL     1      13.438   5.048  16.748  1.00  0.00    -0.077 C 
ATOM     10  C   UNL     1      12.458   6.103  16.285  1.00  0.00     0.039 C 
ATOM     11  C   UNL     1      13.064   4.305  17.824  1.00  0.00    -0.028 CG0
ATOM     12  G   UNL     1      13.941   3.404  18.659  1.00  0.00     0.000 G0
ENDBRANCH   8   9
ENDBRANCH   7   8
ENDBRANCH   4   7
BRANCH   1  13
ATOM     13  C   UNL     1      16.342   3.801  19.357  1.00  0.00    -0.074 C 
ATOM     14  C   UNL     1      16.951   2.803  20.015  1.00  0.00     0.008 C 
BRANCH  13  15
ATOM     15  C   UNL     1      14.888   4.139  19.655  1.00  0.00     0.035 C 
BRANCH  15  16
ATOM     16  C   UNL     1      13.937   3.412  18.678  1.00  0.00     0.032 CG0
ATOM     17  G   UNL     1      13.050   4.301  17.842  1.00  0.00     0.000 G0
ENDBRANCH  15  16
ENDBRANCH  13  15
ENDBRANCH   1  13
TORSDOF 0
ENDMDL
MODEL 4
REMARK VINA RESULT:    -3.011      2.372      5.222
REMARK INTER + INTRA:          -4.539
REMARK INTER:                  -4.284
REMARK INTRA:                  -0.255
REMARK UNBOUND:                -0.471
REMARK SMILES C=C1CCC=C(C)CC[C@@H]2[C@@H]1CC2(C)C
REMARK SMILES IDX 11 1 12 2 13 3 10 4 14 5 15 6 9 7 8 8 6 9 7 10 5 11 2 13
REMARK SMILES IDX 1 14 3 15 4 16
REMARK H PARENT
REMARK Flexibility Score: 70.00
ROOT
ATOM      1  C   UNL     1      13.237   4.195  17.755  1.00  0.00     0.018 C 
ATOM      2  C   UNL     1      14.384   3.825  16.810  1.00  0.00     0.015 C 
ATOM      3  C   UNL     1      15.338   3.744  18.017  1.00  0.00    -0.031 C 
ATOM      4  C   UNL     1      14.248   4.419  18.886  1.00  0.00     0.002 C 
ATOM      5  C   UNL     1      16.609   4.591  17.843  1.00  0.00     0.011 C 
ATOM      6  C   UNL     1      15.669   2.284  18.384  1.00  0.00     0.011 C 
ENDROOT
BRANCH   4   7
ATOM      7  C   UNL     1      13.832   3.814  20.256  1.00  0.00     0.009 C 
BRANCH   7   8
ATOM      8  C   UNL     1      13.798   4.891  21.372  1.00  0.00     0.030 C 
BRANCH   8   9
ATOM      9  C   UNL     1      12.441   5.503  21.709  1.00  0.00    -0.077 C 
ATOM     10  C   UNL     1      11.813   5.141  23.036  1.00  0.00     0.039 C 
ATOM     11  C   UNL     1      11.820   6.476  20.990  1.00  0.00    -0.028 CG0
ATOM     12  G   UNL     1      12.050   6.828  19.541  1.00  0.00     0.000 G0
ENDBRANCH   8   9
ENDBRANCH   7   8
ENDBRANCH   4   7
BRANCH   1  13
ATOM     13  C   UNL     1      12.381   5.416  17.467  1.00  0.00    -0.074 C 
ATOM     14  C   UNL     1      12.349   5.960  16.240  1.00  0.00     0.008 C 
BRANCH  13  15
ATOM     15  C   UNL     1      11.378   5.856  18.525  1.00  0.00     0.035 C 
BRANCH  15  16
ATOM     16  C   UNL     1      12.028   6.829  19.533  1.00  0.00     0.032 CG0
ATOM     17  G   UNL     1      11.837   6.488  20.991  1.00  0.00     0.000 G0
ENDBRANCH  15  16
ENDBRANCH  13  15
ENDBRANCH   1  13
TORSDOF 0
ENDMDL
MODEL 5
REMARK VINA RESULT:    -2.992      2.120      4.228
REMARK INTER + INTRA:          -4.513
REMARK INTER:                  -4.051
REMARK INTRA:                  -0.463
REMARK UNBOUND:                -0.471
REMARK SMILES C=C1CCC=C(C)CC[C@@H]2[C@@H]1CC2(C)C
REMARK SMILES IDX 11 1 12 2 13 3 10 4 14 5 15 6 9 7 8 8 6 9 7 10 5 11 2 13
REMARK SMILES IDX 1 14 3 15 4 16
REMARK H PARENT
REMARK Flexibility Score: 70.00
ROOT
ATOM      1  C   UNL     1      13.344   4.045  20.360  1.00  0.00     0.018 C 
ATOM      2  C   UNL     1      13.558   3.931  21.872  1.00  0.00     0.015 C 
ATOM      3  C   UNL     1      13.056   5.377  22.041  1.00  0.00    -0.031 C 
ATOM      4  C   UNL     1      13.152   5.559  20.506  1.00  0.00     0.002 C 
ATOM      5  C   UNL     1      14.026   6.267  22.836  1.00  0.00     0.011 C 
ATOM      6  C   UNL     1      11.630   5.420  22.626  1.00  0.00     0.011 C 
ENDROOT
BRANCH   4   7
ATOM      7  C   UNL     1      11.961   6.143  19.695  1.00  0.00     0.009 C 
BRANCH   7   8
ATOM      8  C   UNL     1      12.441   6.848  18.399  1.00  0.00     0.030 C 
BRANCH   8   9
ATOM      9  C   UNL     1      12.245   6.097  17.085  1.00  0.00    -0.077 C 
ATOM     10  C   UNL     1      10.965   6.341  16.317  1.00  0.00     0.039 C 
ATOM     11  C   UNL     1      13.195   5.351  16.459  1.00  0.00    -0.028 CG0
ATOM     12  G   UNL     1      14.418   4.723  17.080  1.00  0.00     0.000 G0
ENDBRANCH   8   9
ENDBRANCH   7   8
ENDBRANCH   4   7
BRANCH   1  13
ATOM     13  C   UNL     1      14.463   3.672  19.404  1.00  0.00    -0.074 C 
ATOM     14  C   UNL     1      15.679   3.337  19.865  1.00  0.00     0.008 C 
BRANCH  13  15
ATOM     15  C   UNL     1      14.113   3.448  17.940  1.00  0.00     0.035 C 
BRANCH  15  16
ATOM     16  C   UNL     1      14.404   4.713  17.101  1.00  0.00     0.032 CG0
ATOM     17  G   UNL     1      13.207   5.353  16.442  1.00  0.00     0.000 G0
ENDBRANCH  15  16
ENDBRANCH  13  15
ENDBRANCH   1  13
TORSDOF 0
ENDMDL
MODEL 6
REMARK VINA RESULT:    -2.957      1.479      1.968
REMARK INTER + INTRA:          -4.466
REMARK INTER:                  -4.500
REMARK INTRA:                   0.034
REMARK UNBOUND:                -0.471
REMARK SMILES C=C1CCC=C(C)CC[C@@H]2[C@@H]1CC2(C)C
REMARK SMILES IDX 11 1 12 2 13 3 10 4 14 5 15 6 9 7 8 8 6 9 7 10 5 11 2 13
REMARK SMILES IDX 1 14 3 15 4 16
REMARK H PARENT
REMARK Flexibility Score: 70.00
ROOT
ATOM      1  C   UNL     1      13.339   4.512  17.621  1.00  0.00     0.018 C 
ATOM      2  C   UNL     1      11.893   4.510  18.126  1.00  0.00     0.015 C 
ATOM      3  C   UNL     1      11.746   5.976  17.678  1.00  0.00    -0.031 C 
ATOM      4  C   UNL     1      13.280   6.037  17.474  1.00  0.00     0.002 C 
ATOM      5  C   UNL     1      11.229   6.902  18.792  1.00  0.00     0.011 C 
ATOM      6  C   UNL     1      10.901   6.098  16.395  1.00  0.00     0.011 C 
ENDROOT
BRANCH   4   7
ATOM      7  C   UNL     1      13.889   6.584  16.153  1.00  0.00     0.009 C 
BRANCH   7   8
ATOM      8  C   UNL     1      15.433   6.438  16.129  1.00  0.00     0.030 C 
BRANCH   8   9
ATOM      9  C   UNL     1      16.227   7.274  17.129  1.00  0.00    -0.077 C 
ATOM     10  C   UNL     1      16.624   8.675  16.719  1.00  0.00     0.039 C 
ATOM     11  C   UNL     1      16.467   6.930  18.423  1.00  0.00    -0.028 CG0
ATOM     12  G   UNL     1      16.443   5.544  19.017  1.00  0.00     0.000 G0
ENDBRANCH   8   9
ENDBRANCH   7   8
ENDBRANCH   4   7
BRANCH   1  13
ATOM     13  C   UNL     1      14.460   4.040  18.530  1.00  0.00    -0.074 C 
ATOM     14  C   UNL     1      15.051   2.851  18.334  1.00  0.00     0.008 C 
BRANCH  13  15
ATOM     15  C   UNL     1      15.061   5.040  19.508  1.00  0.00     0.035 C 
BRANCH  15  16
ATOM     16  C   UNL     1      16.438   5.538  19.016  1.00  0.00     0.032 CG0
ATOM     17  G   UNL     1      16.463   6.930  18.433  1.00  0.00     0.000 G0
ENDBRANCH  15  16
ENDBRANCH  13  15
ENDBRANCH   1  13
TORSDOF 0
ENDMDL
MODEL 7
REMARK VINA RESULT:    -2.811      3.021      5.271
REMARK INTER + INTRA:          -4.269
REMARK INTER:                  -3.800
REMARK INTRA:                  -0.469
REMARK UNBOUND:                -0.471
REMARK SMILES C=C1CCC=C(C)CC[C@@H]2[C@@H]1CC2(C)C
REMARK SMILES IDX 11 1 12 2 13 3 10 4 14 5 15 6 9 7 8 8 6 9 7 10 5 11 2 13
REMARK SMILES IDX 1 14 3 15 4 16
REMARK H PARENT
REMARK Flexibility Score: 70.00
ROOT
ATOM      1  C   UNL     1      12.194   5.842  18.343  1.00  0.00     0.018 C 
ATOM      2  C   UNL     1      12.166   4.328  18.112  1.00  0.00     0.015 C 
ATOM      3  C   UNL     1      13.533   4.207  18.810  1.00  0.00    -0.031 C 
ATOM      4  C   UNL     1      13.672   5.748  18.741  1.00  0.00     0.002 C 
ATOM      5  C   UNL     1      14.577   3.451  17.971  1.00  0.00     0.011 C 
ATOM      6  C   UNL     1      13.400   3.616  20.227  1.00  0.00     0.011 C 
ENDROOT
BRANCH   4   7
ATOM      7  C   UNL     1      14.056   6.572  20.003  1.00  0.00     0.009 C 
BRANCH   7   8
ATOM      8  C   UNL     1      14.643   7.958  19.625  1.00  0.00     0.030 C 
BRANCH   8   9
ATOM      9  C   UNL     1      13.734   9.171  19.804  1.00  0.00    -0.077 C 
ATOM     10  C   UNL     1      13.736   9.862  21.150  1.00  0.00     0.039 C 
ATOM     11  C   UNL     1      13.043   9.787  18.808  1.00  0.00    -0.028 CG0
ATOM     12  G   UNL     1      12.637   9.197  17.480  1.00  0.00     0.000 G0
ENDBRANCH   8   9
ENDBRANCH   7   8
ENDBRANCH   4   7
BRANCH   1  13
ATOM     13  C   UNL     1      11.945   6.791  17.183  1.00  0.00    -0.074 C 
ATOM     14  C   UNL     1      11.944   6.345  15.917  1.00  0.00     0.008 C 
BRANCH  13  15
ATOM     15  C   UNL     1      11.457   8.198  17.499  1.00  0.00     0.035 C 
BRANCH  15  16
ATOM     16  C   UNL     1      12.623   9.210  17.468  1.00  0.00     0.032 CG0
ATOM     17  G   UNL     1      13.035   9.778  18.804  1.00  0.00     0.000 G0
ENDBRANCH  15  16
ENDBRANCH  13  15
ENDBRANCH   1  13
TORSDOF 0
ENDMDL
MODEL 8
REMARK VINA RESULT:    -2.792      2.450      5.122
REMARK INTER + INTRA:          -4.243
REMARK INTER:                  -3.837
REMARK INTRA:                  -0.406
REMARK UNBOUND:                -0.471
REMARK SMILES C=C1CCC=C(C)CC[C@@H]2[C@@H]1CC2(C)C
REMARK SMILES IDX 11 1 12 2 13 3 10 4 14 5 15 6 9 7 8 8 6 9 7 10 5 11 2 13
REMARK SMILES IDX 1 14 3 15 4 16
REMARK H PARENT
REMARK Flexibility Score: 70.00
ROOT
ATOM      1  C   UNL     1      13.915   4.605  17.873  1.00  0.00     0.018 C 
ATOM      2  C   UNL     1      14.555   3.244  18.165  1.00  0.00     0.015 C 
ATOM      3  C   UNL     1      14.868   3.711  19.599  1.00  0.00    -0.031 C 
ATOM      4  C   UNL     1      14.506   5.156  19.176  1.00  0.00     0.002 C 
ATOM      5  C   UNL     1      16.345   3.528  19.988  1.00  0.00     0.011 C 
ATOM      6  C   UNL     1      13.920   3.065  20.628  1.00  0.00     0.011 C 
ENDROOT
BRANCH   4   7
ATOM      7  C   UNL     1      13.523   6.013  20.021  1.00  0.00     0.009 C 
BRANCH   7   8
ATOM      8  C   UNL     1      13.574   7.511  19.618  1.00  0.00     0.030 C 
BRANCH   8   9
ATOM      9  C   UNL     1      12.431   8.038  18.755  1.00  0.00    -0.077 C 
ATOM     10  C   UNL     1      11.159   8.466  19.452  1.00  0.00     0.039 C 
ATOM     11  C   UNL     1      12.515   8.313  17.425  1.00  0.00    -0.028 CG0
ATOM     12  G   UNL     1      13.514   7.759  16.440  1.00  0.00     0.000 G0
ENDBRANCH   8   9
ENDBRANCH   7   8
ENDBRANCH   4   7
BRANCH   1  13
ATOM     13  C   UNL     1      14.334   5.392  16.644  1.00  0.00    -0.074 C 
ATOM     14  C   UNL     1      15.495   5.133  16.022  1.00  0.00     0.008 C 
BRANCH  13  15
ATOM     15  C   UNL     1      13.305   6.305  15.992  1.00  0.00     0.035 C 
BRANCH  15  16
ATOM     16  C   UNL     1      13.513   7.773  16.425  1.00  0.00     0.032 CG0
ATOM     17  G   UNL     1      12.515   8.311  17.420  1.00  0.00     0.000 G0
ENDBRANCH  15  16
ENDBRANCH  13  15
ENDBRANCH   1  13
TORSDOF 0
ENDMDL
MODEL 9
REMARK VINA RESULT:    -2.762      1.969      4.879
REMARK INTER + INTRA:          -4.202
REMARK INTER:                  -3.727
REMARK INTRA:                  -0.475
REMARK UNBOUND:                -0.471
REMARK SMILES C=C1CCC=C(C)CC[C@@H]2[C@@H]1CC2(C)C
REMARK SMILES IDX 11 1 12 2 13 3 10 4 14 5 15 6 9 7 8 8 6 9 7 10 5 11 2 13
REMARK SMILES IDX 1 14 3 15 4 16
REMARK H PARENT
REMARK Flexibility Score: 70.00
ROOT
ATOM      1  C   UNL     1      15.446   3.020  19.107  1.00  0.00     0.018 C 
ATOM      2  C   UNL     1      16.285   2.433  20.246  1.00  0.00     0.015 C 
ATOM      3  C   UNL     1      15.327   3.074  21.267  1.00  0.00    -0.031 C 
ATOM      4  C   UNL     1      14.700   3.900  20.117  1.00  0.00     0.002 C 
ATOM      5  C   UNL     1      16.049   3.927  22.324  1.00  0.00     0.011 C 
ATOM      6  C   UNL     1      14.399   2.026  21.914  1.00  0.00     0.011 C 
ENDROOT
BRANCH   4   7
ATOM      7  C   UNL     1      13.159   3.950  19.918  1.00  0.00     0.009 C 
BRANCH   7   8
ATOM      8  C   UNL     1      12.698   5.320  19.354  1.00  0.00     0.030 C 
BRANCH   8   9
ATOM      9  C   UNL     1      12.342   5.377  17.870  1.00  0.00    -0.077 C 
ATOM     10  C   UNL     1      10.884   5.250  17.489  1.00  0.00     0.039 C 
ATOM     11  C   UNL     1      13.204   5.698  16.869  1.00  0.00    -0.028 CG0
ATOM     12  G   UNL     1      14.710   5.610  16.898  1.00  0.00     0.000 G0
ENDBRANCH   8   9
ENDBRANCH   7   8
ENDBRANCH   4   7
BRANCH   1  13
ATOM     13  C   UNL     1      16.119   3.815  18.002  1.00  0.00    -0.074 C 
ATOM     14  C   UNL     1      17.447   4.006  18.002  1.00  0.00     0.008 C 
BRANCH  13  15
ATOM     15  C   UNL     1      15.294   4.177  16.774  1.00  0.00     0.035 C 
BRANCH  15  16
ATOM     16  C   UNL     1      14.718   5.605  16.894  1.00  0.00     0.032 CG0
ATOM     17  G   UNL     1      13.213   5.711  16.860  1.00  0.00     0.000 G0
ENDBRANCH  15  16
ENDBRANCH  13  15
ENDBRANCH   1  13
TORSDOF 0
ENDMDL
