MODEL 1
REMARK VINA RESULT:    -6.948      0.000      0.000
REMARK INTER + INTRA:          -8.384
REMARK INTER:                  -8.166
REMARK INTRA:                  -0.218
REMARK UNBOUND:                -0.218
REMARK SMILES O=c1c(O)c(-c2ccc(O)cc2)oc2cc(O)cc(O)c12
REMARK SMILES IDX 5 1 3 2 2 3 1 4 21 5 19 6 18 7 16 8 15 9 14 10 13 11 6 12
REMARK SMILES IDX 7 13 8 14 9 15 12 16 11 17 10 18 4 20 20 22 17 24
REMARK H PARENT 10 19 4 21 20 23 17 25
REMARK Flexibility Score: inf
ROOT
ATOM      1  C   UNL     1     -21.698 -15.708 -14.092  1.00  0.00     0.180 A 
ATOM      2  C   UNL     1     -22.404 -15.024 -15.096  1.00  0.00     0.208 A 
ATOM      3  C   UNL     1     -23.716 -15.425 -15.400  1.00  0.00     0.238 A 
ATOM      4  O   UNL     1     -24.362 -14.774 -16.262  1.00  0.00    -0.285 OA
ATOM      5  C   UNL     1     -24.298 -16.514 -14.708  1.00  0.00     0.111 A 
ATOM      6  C   UNL     1     -25.605 -17.029 -14.962  1.00  0.00     0.134 A 
ATOM      7  C   UNL     1     -26.128 -18.025 -14.128  1.00  0.00     0.093 A 
ATOM      8  C   UNL     1     -25.370 -18.569 -13.092  1.00  0.00     0.123 A 
ATOM      9  C   UNL     1     -24.070 -18.113 -12.872  1.00  0.00     0.094 A 
ATOM     10  C   UNL     1     -23.533 -17.096 -13.664  1.00  0.00     0.146 A 
ATOM     11  O   UNL     1     -22.296 -16.683 -13.414  1.00  0.00    -0.452 OA
ENDROOT
BRANCH   1  12
ATOM     12  C   UNL     1     -20.304 -15.361 -13.732  1.00  0.00     0.021 A 
ATOM     13  C   UNL     1     -19.227 -16.193 -14.088  1.00  0.00     0.016 A 
ATOM     14  C   UNL     1     -17.922 -15.856 -13.716  1.00  0.00     0.047 A 
ATOM     15  C   UNL     1     -17.678 -14.695 -12.973  1.00  0.00     0.115 A 
ATOM     16  C   UNL     1     -20.054 -14.210 -12.967  1.00  0.00     0.016 A 
ATOM     17  C   UNL     1     -18.748 -13.875 -12.598  1.00  0.00     0.047 A 
BRANCH  15  18
ATOM     18  O   UNL     1     -16.382 -14.350 -12.597  1.00  0.00    -0.508 OA
ATOM     19  H   UNL     1     -16.088 -14.373 -11.628  1.00  0.00     0.293 HD
ENDBRANCH  15  18
ENDBRANCH   1  12
BRANCH   2  20
ATOM     20  O   UNL     1     -21.819 -13.938 -15.751  1.00  0.00    -0.502 OA
ATOM     21  H   UNL     1     -20.845 -13.932 -16.030  1.00  0.00     0.293 HD
ENDBRANCH   2  20
BRANCH   6  22
ATOM     22  O   UNL     1     -26.411 -16.622 -16.029  1.00  0.00    -0.507 OA
ATOM     23  H   UNL     1     -26.228 -15.821 -16.614  1.00  0.00     0.293 HD
ENDBRANCH   6  22
BRANCH   8  24
ATOM     24  O   UNL     1     -25.917 -19.569 -12.291  1.00  0.00    -0.508 OA
ATOM     25  H   UNL     1     -26.352 -19.356 -11.401  1.00  0.00     0.293 HD
ENDBRANCH   8  24
TORSDOF 5
ENDMDL
