MODEL 1
REMARK VINA RESULT:    -4.126      0.000      0.000
REMARK INTER + INTRA:          -4.247
REMARK INTER:                  -5.091
REMARK INTRA:                   0.843
REMARK UNBOUND:                 0.843
REMARK SMILES CC1=CC=CC(C)(C)CC1=O
REMARK SMILES IDX 1 1 2 2 3 3 10 4 11 5 9 6 4 8 5 9 6 10 7 11 8 12
REMARK H PARENT
REMARK Flexibility Score: 80.00
ROOT
ATOM      1  C   UNL     1     103.219 136.375  49.932  1.00  0.00     0.048 C 
ATOM      2  C   UNL     1     102.196 135.306  50.239  1.00  0.00    -0.008 C 
ATOM      3  C   UNL     1     100.922 135.521  49.843  1.00  0.00     0.007 C 
ENDROOT
BRANCH   2   4
ATOM      4  C   UNL     1     102.695 134.075  50.908  1.00  0.00     0.159 C 
ATOM      5  O   UNL     1     103.909 134.024  51.248  1.00  0.00    -0.295 OA
BRANCH   4   6
ATOM      6  C   UNL     1     101.854 132.862  51.172  1.00  0.00     0.091 CG0
ATOM      7  G   UNL     1     100.522 133.166  51.893  1.00  0.00     0.000 G0
ENDBRANCH   4   6
ENDBRANCH   2   4
BRANCH   3   8
ATOM      8  C   UNL     1      99.722 134.670  50.013  1.00  0.00    -0.003 C 
ATOM      9  C   UNL     1      99.517 133.682  50.892  1.00  0.00    -0.020 C 
BRANCH   9  10
ATOM     10  C   UNL     1     100.521 133.156  51.891  1.00  0.00    -0.010 CG0
ATOM     11  C   UNL     1     100.667 134.142  53.073  1.00  0.00     0.016 C 
ATOM     12  C   UNL     1      99.988 131.818  52.452  1.00  0.00     0.016 C 
ATOM     13  G   UNL     1     101.861 132.878  51.175  1.00  0.00     0.000 G0
ENDBRANCH   9  10
ENDBRANCH   3   8
TORSDOF 0
ENDMDL
MODEL 2
REMARK VINA RESULT:    -4.073      1.796      3.873
REMARK INTER + INTRA:          -4.183
REMARK INTER:                  -5.020
REMARK INTRA:                   0.838
REMARK UNBOUND:                 0.843
REMARK SMILES CC1=CC=CC(C)(C)CC1=O
REMARK SMILES IDX 1 1 2 2 3 3 10 4 11 5 9 6 4 8 5 9 6 10 7 11 8 12
REMARK H PARENT
REMARK Flexibility Score: 80.00
ROOT
ATOM      1  C   UNL     1      99.846 131.337  52.591  1.00  0.00     0.048 C 
ATOM      2  C   UNL     1     100.768 132.245  51.811  1.00  0.00    -0.008 C 
ATOM      3  C   UNL     1     101.898 131.708  51.300  1.00  0.00     0.007 C 
ENDROOT
BRANCH   2   4
ATOM      4  C   UNL     1     100.322 133.652  51.626  1.00  0.00     0.159 C 
ATOM      5  O   UNL     1      99.256 134.025  52.188  1.00  0.00    -0.295 OA
BRANCH   4   6
ATOM      6  C   UNL     1     101.040 134.655  50.773  1.00  0.00     0.091 CG0
ATOM      7  G   UNL     1     102.547 134.781  51.087  1.00  0.00     0.000 G0
ENDBRANCH   4   6
ENDBRANCH   2   4
BRANCH   3   8
ATOM      8  C   UNL     1     102.978 132.347  50.515  1.00  0.00    -0.003 C 
ATOM      9  C   UNL     1     103.294 133.644  50.431  1.00  0.00    -0.020 C 
BRANCH   9  10
ATOM     10  C   UNL     1     102.553 134.785  51.086  1.00  0.00    -0.010 CG0
ATOM     11  C   UNL     1     102.875 134.836  52.598  1.00  0.00     0.016 C 
ATOM     12  C   UNL     1     103.043 136.107  50.452  1.00  0.00     0.016 C 
ATOM     13  G   UNL     1     101.041 134.647  50.802  1.00  0.00     0.000 G0
ENDBRANCH   9  10
ENDBRANCH   3   8
TORSDOF 0
ENDMDL
MODEL 3
REMARK VINA RESULT:    -4.059      1.750      2.894
REMARK INTER + INTRA:          -4.165
REMARK INTER:                  -5.016
REMARK INTRA:                   0.852
REMARK UNBOUND:                 0.843
REMARK SMILES CC1=CC=CC(C)(C)CC1=O
REMARK SMILES IDX 1 1 2 2 3 3 10 4 11 5 9 6 4 8 5 9 6 10 7 11 8 12
REMARK H PARENT
REMARK Flexibility Score: 80.00
ROOT
ATOM      1  C   UNL     1     101.377 136.618  49.745  1.00  0.00     0.048 C 
ATOM      2  C   UNL     1     101.931 135.511  50.612  1.00  0.00    -0.008 C 
ATOM      3  C   UNL     1     103.199 135.636  51.060  1.00  0.00     0.007 C 
ENDROOT
BRANCH   2   4
ATOM      4  C   UNL     1     101.005 134.395  50.945  1.00  0.00     0.159 C 
ATOM      5  O   UNL     1      99.865 134.377  50.405  1.00  0.00    -0.295 OA
BRANCH   4   6
ATOM      6  C   UNL     1     101.324 133.301  51.920  1.00  0.00     0.091 CG0
ATOM      7  G   UNL     1     102.647 132.562  51.623  1.00  0.00     0.000 G0
ENDBRANCH   4   6
ENDBRANCH   2   4
BRANCH   3   8
ATOM      8  C   UNL     1     104.000 134.720  51.904  1.00  0.00    -0.003 C 
ATOM      9  C   UNL     1     103.809 133.416  52.135  1.00  0.00    -0.020 C 
BRANCH   9  10
ATOM     10  C   UNL     1     102.658 132.581  51.623  1.00  0.00    -0.010 CG0
ATOM     11  C   UNL     1     102.853 132.261  50.123  1.00  0.00     0.016 C 
ATOM     12  C   UNL     1     102.652 131.242  52.396  1.00  0.00     0.016 C 
ATOM     13  G   UNL     1     101.327 133.309  51.911  1.00  0.00     0.000 G0
ENDBRANCH   9  10
ENDBRANCH   3   8
TORSDOF 0
ENDMDL
MODEL 4
REMARK VINA RESULT:    -4.028      1.456      2.201
REMARK INTER + INTRA:          -4.126
REMARK INTER:                  -4.977
REMARK INTRA:                   0.850
REMARK UNBOUND:                 0.843
REMARK SMILES CC1=CC=CC(C)(C)CC1=O
REMARK SMILES IDX 1 1 2 2 3 3 10 4 11 5 9 6 4 8 5 9 6 10 7 11 8 12
REMARK H PARENT
REMARK Flexibility Score: 80.00
ROOT
ATOM      1  C   UNL     1     103.247 136.225  50.511  1.00  0.00     0.048 C 
ATOM      2  C   UNL     1     102.734 134.913  51.057  1.00  0.00    -0.008 C 
ATOM      3  C   UNL     1     103.088 133.780  50.412  1.00  0.00     0.007 C 
ENDROOT
BRANCH   2   4
ATOM      4  C   UNL     1     101.919 134.979  52.300  1.00  0.00     0.159 C 
ATOM      5  O   UNL     1     101.629 136.113  52.771  1.00  0.00    -0.295 OA
BRANCH   4   6
ATOM      6  C   UNL     1     101.448 133.776  53.061  1.00  0.00     0.091 CG0
ATOM      7  G   UNL     1     100.688 132.745  52.197  1.00  0.00     0.000 G0
ENDBRANCH   4   6
ENDBRANCH   2   4
BRANCH   3   8
ATOM      8  C   UNL     1     102.731 132.374  50.705  1.00  0.00    -0.003 C 
ATOM      9  C   UNL     1     101.709 131.905  51.429  1.00  0.00    -0.020 C 
BRANCH   9  10
ATOM     10  C   UNL     1     100.700 132.736  52.188  1.00  0.00    -0.010 CG0
ATOM     11  C   UNL     1      99.687 133.373  51.210  1.00  0.00     0.016 C 
ATOM     12  C   UNL     1      99.918 131.799  53.136  1.00  0.00     0.016 C 
ATOM     13  G   UNL     1     101.440 133.783  53.049  1.00  0.00     0.000 G0
ENDBRANCH   9  10
ENDBRANCH   3   8
TORSDOF 0
ENDMDL
MODEL 5
REMARK VINA RESULT:    -4.018      1.623      2.812
REMARK INTER + INTRA:          -4.114
REMARK INTER:                  -4.971
REMARK INTRA:                   0.857
REMARK UNBOUND:                 0.843
REMARK SMILES CC1=CC=CC(C)(C)CC1=O
REMARK SMILES IDX 1 1 2 2 3 3 10 4 11 5 9 6 4 8 5 9 6 10 7 11 8 12
REMARK H PARENT
REMARK Flexibility Score: 80.00
ROOT
ATOM      1  C   UNL     1     103.280 132.383  49.734  1.00  0.00     0.048 C 
ATOM      2  C   UNL     1     102.386 132.585  50.937  1.00  0.00    -0.008 C 
ATOM      3  C   UNL     1     101.975 131.487  51.607  1.00  0.00     0.007 C 
ENDROOT
BRANCH   2   4
ATOM      4  C   UNL     1     102.079 133.991  51.312  1.00  0.00     0.159 C 
ATOM      5  O   UNL     1     102.511 134.920  50.576  1.00  0.00    -0.295 OA
BRANCH   4   6
ATOM      6  C   UNL     1     101.317 134.384  52.542  1.00  0.00     0.091 CG0
ATOM      7  G   UNL     1      99.971 133.645  52.710  1.00  0.00     0.000 G0
ENDBRANCH   4   6
ENDBRANCH   2   4
BRANCH   3   8
ATOM      8  C   UNL     1     101.099 131.377  52.796  1.00  0.00    -0.003 C 
ATOM      9  C   UNL     1     100.220 132.268  53.270  1.00  0.00    -0.020 C 
BRANCH   9  10
ATOM     10  C   UNL     1      99.969 133.652  52.719  1.00  0.00    -0.010 CG0
ATOM     11  C   UNL     1      99.151 133.567  51.410  1.00  0.00     0.016 C 
ATOM     12  C   UNL     1      99.130 134.438  53.752  1.00  0.00     0.016 C 
ATOM     13  G   UNL     1     101.316 134.384  52.536  1.00  0.00     0.000 G0
ENDBRANCH   9  10
ENDBRANCH   3   8
TORSDOF 0
ENDMDL
MODEL 6
REMARK VINA RESULT:    -3.904      1.142      1.474
REMARK INTER + INTRA:          -3.974
REMARK INTER:                  -4.827
REMARK INTRA:                   0.853
REMARK UNBOUND:                 0.843
REMARK SMILES CC1=CC=CC(C)(C)CC1=O
REMARK SMILES IDX 1 1 2 2 3 3 10 4 11 5 9 6 4 8 5 9 6 10 7 11 8 12
REMARK H PARENT
REMARK Flexibility Score: 80.00
ROOT
ATOM      1  C   UNL     1     101.361 136.347  49.728  1.00  0.00     0.048 C 
ATOM      2  C   UNL     1     101.188 135.085  50.542  1.00  0.00    -0.008 C 
ATOM      3  C   UNL     1      99.972 134.497  50.542  1.00  0.00     0.007 C 
ENDROOT
BRANCH   2   4
ATOM      4  C   UNL     1     102.397 134.566  51.234  1.00  0.00     0.159 C 
ATOM      5  O   UNL     1     103.458 135.247  51.187  1.00  0.00    -0.295 OA
BRANCH   4   6
ATOM      6  C   UNL     1     102.452 133.253  51.959  1.00  0.00     0.091 CG0
ATOM      7  G   UNL     1     101.327 133.064  53.000  1.00  0.00     0.000 G0
ENDBRANCH   4   6
ENDBRANCH   2   4
BRANCH   3   8
ATOM      8  C   UNL     1      99.510 133.278  51.245  1.00  0.00    -0.003 C 
ATOM      9  C   UNL     1     100.050 132.672  52.308  1.00  0.00    -0.020 C 
BRANCH   9  10
ATOM     10  C   UNL     1     101.329 133.072  53.007  1.00  0.00    -0.010 CG0
ATOM     11  C   UNL     1     101.096 134.334  53.869  1.00  0.00     0.016 C 
ATOM     12  C   UNL     1     101.743 131.922  53.952  1.00  0.00     0.016 C 
ATOM     13  G   UNL     1     102.449 133.262  51.960  1.00  0.00     0.000 G0
ENDBRANCH   9  10
ENDBRANCH   3   8
TORSDOF 0
ENDMDL
MODEL 7
REMARK VINA RESULT:    -3.840      1.967      3.581
REMARK INTER + INTRA:          -3.895
REMARK INTER:                  -4.749
REMARK INTRA:                   0.854
REMARK UNBOUND:                 0.843
REMARK SMILES CC1=CC=CC(C)(C)CC1=O
REMARK SMILES IDX 1 1 2 2 3 3 10 4 11 5 9 6 4 8 5 9 6 10 7 11 8 12
REMARK H PARENT
REMARK Flexibility Score: 80.00
ROOT
ATOM      1  C   UNL     1      99.184 133.888  50.505  1.00  0.00     0.048 C 
ATOM      2  C   UNL     1     100.468 134.647  50.749  1.00  0.00    -0.008 C 
ATOM      3  C   UNL     1     100.910 135.469  49.772  1.00  0.00     0.007 C 
ENDROOT
BRANCH   2   4
ATOM      4  C   UNL     1     101.111 134.462  52.077  1.00  0.00     0.159 C 
ATOM      5  O   UNL     1     100.616 133.620  52.875  1.00  0.00    -0.295 OA
BRANCH   4   6
ATOM      6  C   UNL     1     102.298 135.246  52.552  1.00  0.00     0.091 CG0
ATOM      7  G   UNL     1     103.492 135.233  51.572  1.00  0.00     0.000 G0
ENDBRANCH   4   6
ENDBRANCH   2   4
BRANCH   3   8
ATOM      8  C   UNL     1     102.123 136.316  49.725  1.00  0.00    -0.003 C 
ATOM      9  C   UNL     1     103.240 136.216  50.454  1.00  0.00    -0.020 C 
BRANCH   9  10
ATOM     10  C   UNL     1     103.492 135.225  51.566  1.00  0.00    -0.010 CG0
ATOM     11  C   UNL     1     103.771 133.822  50.981  1.00  0.00     0.016 C 
ATOM     12  C   UNL     1     104.752 135.676  52.339  1.00  0.00     0.016 C 
ATOM     13  G   UNL     1     102.297 135.238  52.546  1.00  0.00     0.000 G0
ENDBRANCH   9  10
ENDBRANCH   3   8
TORSDOF 0
ENDMDL
MODEL 8
REMARK VINA RESULT:    -3.805      1.758      2.762
REMARK INTER + INTRA:          -3.851
REMARK INTER:                  -4.689
REMARK INTRA:                   0.837
REMARK UNBOUND:                 0.843
REMARK SMILES CC1=CC=CC(C)(C)CC1=O
REMARK SMILES IDX 1 1 2 2 3 3 10 4 11 5 9 6 4 8 5 9 6 10 7 11 8 12
REMARK H PARENT
REMARK Flexibility Score: 80.00
ROOT
ATOM      1  C   UNL     1     103.243 132.334  49.727  1.00  0.00     0.048 C 
ATOM      2  C   UNL     1     102.525 133.354  50.581  1.00  0.00    -0.008 C 
ATOM      3  C   UNL     1     102.975 134.627  50.553  1.00  0.00     0.007 C 
ENDROOT
BRANCH   2   4
ATOM      4  C   UNL     1     101.342 132.873  51.344  1.00  0.00     0.159 C 
ATOM      5  O   UNL     1     101.068 131.642  51.318  1.00  0.00    -0.295 OA
BRANCH   4   6
ATOM      6  C   UNL     1     100.420 133.769  52.116  1.00  0.00     0.091 CG0
ATOM      7  G   UNL     1     101.141 134.693  53.122  1.00  0.00     0.000 G0
ENDBRANCH   4   6
ENDBRANCH   2   4
BRANCH   3   8
ATOM      8  C   UNL     1     102.487 135.819  51.283  1.00  0.00    -0.003 C 
ATOM      9  C   UNL     1     101.735 135.872  52.388  1.00  0.00    -0.020 C 
BRANCH   9  10
ATOM     10  C   UNL     1     101.143 134.689  53.120  1.00  0.00    -0.010 CG0
ATOM     11  C   UNL     1     102.237 133.964  53.938  1.00  0.00     0.016 C 
ATOM     12  C   UNL     1     100.081 135.217  54.111  1.00  0.00     0.016 C 
ATOM     13  G   UNL     1     100.438 133.759  52.109  1.00  0.00     0.000 G0
ENDBRANCH   9  10
ENDBRANCH   3   8
TORSDOF 0
ENDMDL
MODEL 9
REMARK VINA RESULT:    -3.686      1.736      3.461
REMARK INTER + INTRA:          -3.705
REMARK INTER:                  -4.553
REMARK INTRA:                   0.848
REMARK UNBOUND:                 0.843
REMARK SMILES CC1=CC=CC(C)(C)CC1=O
REMARK SMILES IDX 1 1 2 2 3 3 10 4 11 5 9 6 4 8 5 9 6 10 7 11 8 12
REMARK H PARENT
REMARK Flexibility Score: 80.00
ROOT
ATOM      1  C   UNL     1     102.839 130.338  53.251  1.00  0.00     0.048 C 
ATOM      2  C   UNL     1     102.097 131.561  52.764  1.00  0.00    -0.008 C 
ATOM      3  C   UNL     1     100.841 131.392  52.297  1.00  0.00     0.007 C 
ENDROOT
BRANCH   2   4
ATOM      4  C   UNL     1     102.801 132.864  52.892  1.00  0.00     0.159 C 
ATOM      5  O   UNL     1     103.992 132.868  53.308  1.00  0.00    -0.295 OA
BRANCH   4   6
ATOM      6  C   UNL     1     102.171 134.193  52.595  1.00  0.00     0.091 CG0
ATOM      7  G   UNL     1     101.497 134.270  51.207  1.00  0.00     0.000 G0
ENDBRANCH   4   6
ENDBRANCH   2   4
BRANCH   3   8
ATOM      8  C   UNL     1      99.892 132.389  51.751  1.00  0.00    -0.003 C 
ATOM      9  C   UNL     1     100.150 133.605  51.260  1.00  0.00    -0.020 C 
BRANCH   9  10
ATOM     10  C   UNL     1     101.502 134.278  51.213  1.00  0.00    -0.010 CG0
ATOM     11  C   UNL     1     102.367 133.667  50.086  1.00  0.00     0.016 C 
ATOM     12  C   UNL     1     101.287 135.774  50.887  1.00  0.00     0.016 C 
ATOM     13  G   UNL     1     102.173 134.181  52.601  1.00  0.00     0.000 G0
ENDBRANCH   9  10
ENDBRANCH   3   8
TORSDOF 0
ENDMDL
