MODEL 1
REMARK VINA RESULT:    -6.667      0.000      0.000
REMARK INTER + INTRA:         -13.569
REMARK INTER:                 -12.124
REMARK INTRA:                  -1.445
REMARK UNBOUND:                -1.445
REMARK SMILES CCCCCC=CCC=CCCCCCCCC(=O)[O-]
REMARK SMILES IDX 11 1 12 2 13 3 14 4 15 5 16 6 17 7 18 8 19 9 20 10 10 11
REMARK SMILES IDX 9 12 8 13 7 14 6 15 5 16 4 17 3 18 2 19 1 20
REMARK H PARENT
REMARK Flexibility Score: inf
ROOT
ATOM      1  C   UNL     1       2.996  10.429  18.345  1.00  0.00     0.027 C 
ENDROOT
BRANCH   1   2
ATOM      2  C   UNL     1       3.836  11.715  18.296  1.00  0.00     0.004 C 
BRANCH   2   3
ATOM      3  C   UNL     1       5.185  11.498  17.587  1.00  0.00     0.000 C 
BRANCH   3   4
ATOM      4  C   UNL     1       5.333  12.361  16.325  1.00  0.00     0.000 C 
BRANCH   4   5
ATOM      5  C   UNL     1       3.987  12.914  15.825  1.00  0.00     0.000 C 
BRANCH   5   6
ATOM      6  C   UNL     1       3.762  12.661  14.323  1.00  0.00     0.006 C 
BRANCH   6   7
ATOM      7  C   UNL     1       2.748  11.546  14.018  1.00  0.00     0.053 C 
BRANCH   7   8
ATOM      8  C   UNL     1       3.419  10.295  13.540  1.00  0.00     0.041 C 
ATOM      9  O   UNL     1       4.610  10.051  13.869  1.00  0.00    -0.550 OA
ATOM     10  O   UNL     1       2.718   9.381  12.763  1.00  0.00    -0.550 OA
ENDBRANCH   7   8
ENDBRANCH   6   7
ENDBRANCH   5   6
ENDBRANCH   4   5
ENDBRANCH   3   4
ENDBRANCH   2   3
ENDBRANCH   1   2
BRANCH   1  11
ATOM     11  C   UNL     1       3.012   9.694  17.028  1.00  0.00    -0.031 C 
ATOM     12  C   UNL     1       2.755   8.381  16.879  1.00  0.00    -0.027 C 
BRANCH  12  13
ATOM     13  C   UNL     1       2.333   7.456  17.992  1.00  0.00     0.054 C 
BRANCH  13  14
ATOM     14  C   UNL     1       0.844   7.210  17.966  1.00  0.00    -0.027 C 
ATOM     15  C   UNL     1       0.268   5.994  17.945  1.00  0.00    -0.031 C 
BRANCH  15  16
ATOM     16  C   UNL     1       1.018   4.686  18.016  1.00  0.00     0.027 C 
BRANCH  16  17
ATOM     17  C   UNL     1       1.223   4.205  19.466  1.00  0.00     0.004 C 
BRANCH  17  18
ATOM     18  C   UNL     1       2.684   4.287  19.948  1.00  0.00     0.000 C 
BRANCH  18  19
ATOM     19  C   UNL     1       3.072   5.616  20.617  1.00  0.00    -0.003 C 
ATOM     20  C   UNL     1       3.426   5.462  22.096  1.00  0.00     0.004 C 
ENDBRANCH  18  19
ENDBRANCH  17  18
ENDBRANCH  16  17
ENDBRANCH  15  16
ENDBRANCH  13  14
ENDBRANCH  12  13
ENDBRANCH   1  11
TORSDOF 14
ENDMDL
MODEL 2
REMARK VINA RESULT:    -6.416      2.150      3.280
REMARK INTER + INTRA:         -13.112
REMARK INTER:                 -11.669
REMARK INTRA:                  -1.443
REMARK UNBOUND:                -1.445
REMARK SMILES CCCCCC=CCC=CCCCCCCCC(=O)[O-]
REMARK SMILES IDX 11 1 12 2 13 3 14 4 15 5 16 6 17 7 18 8 19 9 20 10 10 11
REMARK SMILES IDX 9 12 8 13 7 14 6 15 5 16 4 17 3 18 2 19 1 20
REMARK H PARENT
REMARK Flexibility Score: inf
ROOT
ATOM      1  C   UNL     1       3.313   9.040  15.143  1.00  0.00     0.027 C 
ENDROOT
BRANCH   1   2
ATOM      2  C   UNL     1       3.883  10.155  14.254  1.00  0.00     0.004 C 
BRANCH   2   3
ATOM      3  C   UNL     1       2.829  11.226  13.924  1.00  0.00     0.000 C 
BRANCH   3   4
ATOM      4  C   UNL     1       3.273  12.638  14.340  1.00  0.00     0.000 C 
BRANCH   4   5
ATOM      5  C   UNL     1       4.646  12.645  15.033  1.00  0.00     0.000 C 
BRANCH   5   6
ATOM      6  C   UNL     1       4.536  12.626  16.569  1.00  0.00     0.006 C 
BRANCH   6   7
ATOM      7  C   UNL     1       5.624  11.792  17.266  1.00  0.00     0.053 C 
BRANCH   7   8
ATOM      8  C   UNL     1       5.383  11.680  18.740  1.00  0.00     0.041 C 
ATOM      9  O   UNL     1       4.217  11.793  19.201  1.00  0.00    -0.550 OA
ATOM     10  O   UNL     1       6.441  11.411  19.600  1.00  0.00    -0.550 OA
ENDBRANCH   7   8
ENDBRANCH   6   7
ENDBRANCH   5   6
ENDBRANCH   4   5
ENDBRANCH   3   4
ENDBRANCH   2   3
ENDBRANCH   1   2
BRANCH   1  11
ATOM     11  C   UNL     1       3.127   9.495  16.570  1.00  0.00    -0.031 C 
ATOM     12  C   UNL     1       2.574   8.752  17.546  1.00  0.00    -0.027 C 
BRANCH  12  13
ATOM     13  C   UNL     1       2.126   7.321  17.389  1.00  0.00     0.054 C 
BRANCH  13  14
ATOM     14  C   UNL     1       0.750   7.110  17.971  1.00  0.00    -0.027 C 
ATOM     15  C   UNL     1       0.203   5.908  18.233  1.00  0.00    -0.031 C 
BRANCH  15  16
ATOM     16  C   UNL     1       0.908   4.586  18.050  1.00  0.00     0.027 C 
BRANCH  16  17
ATOM     17  C   UNL     1       1.551   4.078  19.356  1.00  0.00     0.004 C 
BRANCH  17  18
ATOM     18  C   UNL     1       2.973   4.617  19.600  1.00  0.00     0.000 C 
BRANCH  18  19
ATOM     19  C   UNL     1       3.057   5.808  20.569  1.00  0.00    -0.003 C 
ATOM     20  C   UNL     1       3.429   5.395  21.994  1.00  0.00     0.004 C 
ENDBRANCH  18  19
ENDBRANCH  17  18
ENDBRANCH  16  17
ENDBRANCH  15  16
ENDBRANCH  13  14
ENDBRANCH  12  13
ENDBRANCH   1  11
TORSDOF 14
ENDMDL
MODEL 3
REMARK VINA RESULT:    -6.415      1.383      2.644
REMARK INTER + INTRA:         -13.110
REMARK INTER:                 -11.657
REMARK INTRA:                  -1.453
REMARK UNBOUND:                -1.445
REMARK SMILES CCCCCC=CCC=CCCCCCCCC(=O)[O-]
REMARK SMILES IDX 11 1 12 2 13 3 14 4 15 5 16 6 17 7 18 8 19 9 20 10 10 11
REMARK SMILES IDX 9 12 8 13 7 14 6 15 5 16 4 17 3 18 2 19 1 20
REMARK H PARENT
REMARK Flexibility Score: inf
ROOT
ATOM      1  C   UNL     1       2.691   7.823  17.071  1.00  0.00     0.027 C 
ENDROOT
BRANCH   1   2
ATOM      2  C   UNL     1       3.294   9.197  16.742  1.00  0.00     0.004 C 
BRANCH   2   3
ATOM      3  C   UNL     1       2.902  10.264  17.778  1.00  0.00     0.000 C 
BRANCH   3   4
ATOM      4  C   UNL     1       3.951  11.380  17.901  1.00  0.00     0.000 C 
BRANCH   4   5
ATOM      5  C   UNL     1       4.992  11.341  16.769  1.00  0.00     0.000 C 
BRANCH   5   6
ATOM      6  C   UNL     1       5.070  12.665  15.988  1.00  0.00     0.006 C 
BRANCH   6   7
ATOM      7  C   UNL     1       4.555  12.573  14.542  1.00  0.00     0.053 C 
BRANCH   7   8
ATOM      8  C   UNL     1       3.059  12.605  14.476  1.00  0.00     0.041 C 
ATOM      9  O   UNL     1       2.426  13.575  14.968  1.00  0.00    -0.550 OA
ATOM     10  O   UNL     1       2.368  11.581  13.839  1.00  0.00    -0.550 OA
ENDBRANCH   7   8
ENDBRANCH   6   7
ENDBRANCH   5   6
ENDBRANCH   4   5
ENDBRANCH   3   4
ENDBRANCH   2   3
ENDBRANCH   1   2
BRANCH   1  11
ATOM     11  C   UNL     1       1.462   7.939  17.939  1.00  0.00    -0.031 C 
ATOM     12  C   UNL     1       0.559   6.959  18.126  1.00  0.00    -0.027 C 
BRANCH  12  13
ATOM     13  C   UNL     1       0.674   5.565  17.562  1.00  0.00     0.054 C 
BRANCH  13  14
ATOM     14  C   UNL     1       0.504   4.522  18.639  1.00  0.00    -0.027 C 
ATOM     15  C   UNL     1       1.488   4.090  19.450  1.00  0.00    -0.031 C 
BRANCH  15  16
ATOM     16  C   UNL     1       2.897   4.632  19.456  1.00  0.00     0.027 C 
BRANCH  16  17
ATOM     17  C   UNL     1       3.062   5.826  20.417  1.00  0.00     0.004 C 
BRANCH  17  18
ATOM     18  C   UNL     1       3.391   5.420  21.865  1.00  0.00     0.000 C 
BRANCH  18  19
ATOM     19  C   UNL     1       3.112   6.502  22.921  1.00  0.00    -0.003 C 
ATOM     20  C   UNL     1       3.521   6.081  24.333  1.00  0.00     0.004 C 
ENDBRANCH  18  19
ENDBRANCH  17  18
ENDBRANCH  16  17
ENDBRANCH  15  16
ENDBRANCH  13  14
ENDBRANCH  12  13
ENDBRANCH   1  11
TORSDOF 14
ENDMDL
MODEL 4
REMARK VINA RESULT:    -5.857      2.650      7.223
REMARK INTER + INTRA:         -12.095
REMARK INTER:                 -10.388
REMARK INTRA:                  -1.707
REMARK UNBOUND:                -1.445
REMARK SMILES CCCCCC=CCC=CCCCCCCCC(=O)[O-]
REMARK SMILES IDX 11 1 12 2 13 3 14 4 15 5 16 6 17 7 18 8 19 9 20 10 10 11
REMARK SMILES IDX 9 12 8 13 7 14 6 15 5 16 4 17 3 18 2 19 1 20
REMARK H PARENT
REMARK Flexibility Score: inf
ROOT
ATOM      1  C   UNL     1       3.178   9.395  16.321  1.00  0.00     0.027 C 
ENDROOT
BRANCH   1   2
ATOM      2  C   UNL     1       2.817   8.025  16.915  1.00  0.00     0.004 C 
BRANCH   2   3
ATOM      3  C   UNL     1       1.669   8.121  17.936  1.00  0.00     0.000 C 
BRANCH   3   4
ATOM      4  C   UNL     1       0.521   7.148  17.625  1.00  0.00     0.000 C 
BRANCH   4   5
ATOM      5  C   UNL     1       0.310   6.108  18.739  1.00  0.00     0.000 C 
BRANCH   5   6
ATOM      6  C   UNL     1       0.876   4.723  18.373  1.00  0.00     0.006 C 
BRANCH   6   7
ATOM      7  C   UNL     1       1.779   4.109  19.456  1.00  0.00     0.053 C 
BRANCH   7   8
ATOM      8  C   UNL     1       2.933   5.000  19.794  1.00  0.00     0.041 C 
ATOM      9  O   UNL     1       3.765   5.323  18.906  1.00  0.00    -0.550 OA
ATOM     10  O   UNL     1       3.069   5.506  21.081  1.00  0.00    -0.550 OA
ENDBRANCH   7   8
ENDBRANCH   6   7
ENDBRANCH   5   6
ENDBRANCH   4   5
ENDBRANCH   3   4
ENDBRANCH   2   3
ENDBRANCH   1   2
BRANCH   1  11
ATOM     11  C   UNL     1       3.748   9.274  14.929  1.00  0.00    -0.031 C 
ATOM     12  C   UNL     1       3.730  10.253  14.006  1.00  0.00    -0.027 C 
BRANCH  12  13
ATOM     13  C   UNL     1       3.210  11.648  14.241  1.00  0.00     0.054 C 
BRANCH  13  14
ATOM     14  C   UNL     1       4.266  12.529  14.862  1.00  0.00    -0.027 C 
ATOM     15  C   UNL     1       4.059  13.358  15.902  1.00  0.00    -0.031 C 
BRANCH  15  16
ATOM     16  C   UNL     1       2.757  13.484  16.655  1.00  0.00     0.027 C 
BRANCH  16  17
ATOM     17  C   UNL     1       2.926  13.231  18.166  1.00  0.00     0.004 C 
BRANCH  17  18
ATOM     18  C   UNL     1       3.489  11.838  18.506  1.00  0.00     0.000 C 
BRANCH  18  19
ATOM     19  C   UNL     1       4.844  11.846  19.233  1.00  0.00    -0.003 C 
ATOM     20  C   UNL     1       6.028  11.613  18.294  1.00  0.00     0.004 C 
ENDBRANCH  18  19
ENDBRANCH  17  18
ENDBRANCH  16  17
ENDBRANCH  15  16
ENDBRANCH  13  14
ENDBRANCH  12  13
ENDBRANCH   1  11
TORSDOF 14
ENDMDL
MODEL 5
REMARK VINA RESULT:    -5.830      2.693      7.665
REMARK INTER + INTRA:         -12.046
REMARK INTER:                 -10.340
REMARK INTRA:                  -1.706
REMARK UNBOUND:                -1.445
REMARK SMILES CCCCCC=CCC=CCCCCCCCC(=O)[O-]
REMARK SMILES IDX 11 1 12 2 13 3 14 4 15 5 16 6 17 7 18 8 19 9 20 10 10 11
REMARK SMILES IDX 9 12 8 13 7 14 6 15 5 16 4 17 3 18 2 19 1 20
REMARK H PARENT
REMARK Flexibility Score: inf
ROOT
ATOM      1  C   UNL     1       2.925   8.612  16.822  1.00  0.00     0.027 C 
ENDROOT
BRANCH   1   2
ATOM      2  C   UNL     1       2.318   7.318  17.385  1.00  0.00     0.004 C 
BRANCH   2   3
ATOM      3  C   UNL     1       0.982   7.572  18.106  1.00  0.00     0.000 C 
BRANCH   3   4
ATOM      4  C   UNL     1       0.228   6.272  18.425  1.00  0.00     0.000 C 
BRANCH   4   5
ATOM      5  C   UNL     1       0.760   5.069  17.628  1.00  0.00     0.000 C 
BRANCH   5   6
ATOM      6  C   UNL     1       1.464   4.030  18.519  1.00  0.00     0.006 C 
BRANCH   6   7
ATOM      7  C   UNL     1       1.659   4.481  19.976  1.00  0.00     0.053 C 
BRANCH   7   8
ATOM      8  C   UNL     1       3.019   5.065  20.205  1.00  0.00     0.041 C 
ATOM      9  O   UNL     1       3.841   5.142  19.254  1.00  0.00    -0.550 OA
ATOM     10  O   UNL     1       3.364   5.558  21.457  1.00  0.00    -0.550 OA
ENDBRANCH   7   8
ENDBRANCH   6   7
ENDBRANCH   5   6
ENDBRANCH   4   5
ENDBRANCH   3   4
ENDBRANCH   2   3
ENDBRANCH   1   2
BRANCH   1  11
ATOM     11  C   UNL     1       2.681   9.792  17.729  1.00  0.00    -0.031 C 
ATOM     12  C   UNL     1       3.515  10.840  17.866  1.00  0.00    -0.027 C 
BRANCH  12  13
ATOM     13  C   UNL     1       4.784  11.037  17.077  1.00  0.00     0.054 C 
BRANCH  13  14
ATOM     14  C   UNL     1       5.088  12.502  16.885  1.00  0.00    -0.027 C 
ATOM     15  C   UNL     1       5.052  13.145  15.702  1.00  0.00    -0.031 C 
BRANCH  15  16
ATOM     16  C   UNL     1       4.636  12.515  14.395  1.00  0.00     0.027 C 
BRANCH  16  17
ATOM     17  C   UNL     1       3.110  12.309  14.303  1.00  0.00     0.004 C 
BRANCH  17  18
ATOM     18  C   UNL     1       2.697  10.875  13.924  1.00  0.00     0.000 C 
BRANCH  18  19
ATOM     19  C   UNL     1       3.866   9.905  13.687  1.00  0.00    -0.003 C 
ATOM     20  C   UNL     1       3.408   8.494  13.316  1.00  0.00     0.004 C 
ENDBRANCH  18  19
ENDBRANCH  17  18
ENDBRANCH  16  17
ENDBRANCH  15  16
ENDBRANCH  13  14
ENDBRANCH  12  13
ENDBRANCH   1  11
TORSDOF 14
ENDMDL
MODEL 6
REMARK VINA RESULT:    -5.691      1.080      2.024
REMARK INTER + INTRA:         -11.793
REMARK INTER:                 -10.233
REMARK INTRA:                  -1.560
REMARK UNBOUND:                -1.445
REMARK SMILES CCCCCC=CCC=CCCCCCCCC(=O)[O-]
REMARK SMILES IDX 11 1 12 2 13 3 14 4 15 5 16 6 17 7 18 8 19 9 20 10 10 11
REMARK SMILES IDX 9 12 8 13 7 14 6 15 5 16 4 17 3 18 2 19 1 20
REMARK H PARENT
REMARK Flexibility Score: inf
ROOT
ATOM      1  C   UNL     1       5.174  11.659  18.990  1.00  0.00     0.027 C 
ENDROOT
BRANCH   1   2
ATOM      2  C   UNL     1       6.121  11.883  17.802  1.00  0.00     0.004 C 
BRANCH   2   3
ATOM      3  C   UNL     1       5.424  11.639  16.452  1.00  0.00     0.000 C 
BRANCH   3   4
ATOM      4  C   UNL     1       5.078  12.947  15.723  1.00  0.00     0.000 C 
BRANCH   4   5
ATOM      5  C   UNL     1       4.038  12.745  14.608  1.00  0.00     0.000 C 
BRANCH   5   6
ATOM      6  C   UNL     1       3.197  11.470  14.804  1.00  0.00     0.006 C 
BRANCH   6   7
ATOM      7  C   UNL     1       2.913  10.699  13.505  1.00  0.00     0.053 C 
BRANCH   7   8
ATOM      8  C   UNL     1       3.734   9.451  13.404  1.00  0.00     0.041 C 
ATOM      9  O   UNL     1       4.984   9.504  13.539  1.00  0.00    -0.550 OA
ATOM     10  O   UNL     1       3.115   8.223  13.199  1.00  0.00    -0.550 OA
ENDBRANCH   7   8
ENDBRANCH   6   7
ENDBRANCH   5   6
ENDBRANCH   4   5
ENDBRANCH   3   4
ENDBRANCH   2   3
ENDBRANCH   1   2
BRANCH   1  11
ATOM     11  C   UNL     1       3.748  12.021  18.652  1.00  0.00    -0.031 C 
ATOM     12  C   UNL     1       2.778  11.132  18.366  1.00  0.00    -0.027 C 
BRANCH  12  13
ATOM     13  C   UNL     1       2.942   9.634  18.417  1.00  0.00     0.054 C 
BRANCH  13  14
ATOM     14  C   UNL     1       3.113   9.055  17.035  1.00  0.00    -0.027 C 
ATOM     15  C   UNL     1       2.693   7.832  16.658  1.00  0.00    -0.031 C 
BRANCH  15  16
ATOM     16  C   UNL     1       1.925   6.878  17.540  1.00  0.00     0.027 C 
BRANCH  16  17
ATOM     17  C   UNL     1       2.655   5.534  17.727  1.00  0.00     0.004 C 
BRANCH  17  18
ATOM     18  C   UNL     1       3.450   5.434  19.043  1.00  0.00     0.000 C 
BRANCH  18  19
ATOM     19  C   UNL     1       2.590   5.386  20.317  1.00  0.00    -0.003 C 
ATOM     20  C   UNL     1       3.416   5.477  21.600  1.00  0.00     0.004 C 
ENDBRANCH  18  19
ENDBRANCH  17  18
ENDBRANCH  16  17
ENDBRANCH  15  16
ENDBRANCH  13  14
ENDBRANCH  12  13
ENDBRANCH   1  11
TORSDOF 14
ENDMDL
MODEL 7
REMARK VINA RESULT:    -5.647      2.120      3.668
REMARK INTER + INTRA:         -11.713
REMARK INTER:                 -10.156
REMARK INTRA:                  -1.558
REMARK UNBOUND:                -1.445
REMARK SMILES CCCCCC=CCC=CCCCCCCCC(=O)[O-]
REMARK SMILES IDX 11 1 12 2 13 3 14 4 15 5 16 6 17 7 18 8 19 9 20 10 10 11
REMARK SMILES IDX 9 12 8 13 7 14 6 15 5 16 4 17 3 18 2 19 1 20
REMARK H PARENT
REMARK Flexibility Score: inf
ROOT
ATOM      1  C   UNL     1       3.328  11.194  14.122  1.00  0.00     0.027 C 
ENDROOT
BRANCH   1   2
ATOM      2  C   UNL     1       3.121  12.696  14.368  1.00  0.00     0.004 C 
BRANCH   2   3
ATOM      3  C   UNL     1       3.751  13.157  15.694  1.00  0.00     0.000 C 
BRANCH   3   4
ATOM      4  C   UNL     1       2.725  13.797  16.642  1.00  0.00     0.000 C 
BRANCH   4   5
ATOM      5  C   UNL     1       2.965  13.421  18.114  1.00  0.00     0.000 C 
BRANCH   5   6
ATOM      6  C   UNL     1       3.317  11.933  18.297  1.00  0.00     0.006 C 
BRANCH   6   7
ATOM      7  C   UNL     1       4.248  11.650  19.488  1.00  0.00     0.053 C 
BRANCH   7   8
ATOM      8  C   UNL     1       5.691  11.670  19.088  1.00  0.00     0.041 C 
ATOM      9  O   UNL     1       6.588  11.467  19.947  1.00  0.00    -0.550 OA
ATOM     10  O   UNL     1       6.043  11.876  17.759  1.00  0.00    -0.550 OA
ENDBRANCH   7   8
ENDBRANCH   6   7
ENDBRANCH   5   6
ENDBRANCH   4   5
ENDBRANCH   3   4
ENDBRANCH   2   3
ENDBRANCH   1   2
BRANCH   1  11
ATOM     11  C   UNL     1       4.349  10.603  15.062  1.00  0.00    -0.031 C 
ATOM     12  C   UNL     1       4.090   9.647  15.974  1.00  0.00    -0.027 C 
BRANCH  12  13
ATOM     13  C   UNL     1       2.759   8.961  16.146  1.00  0.00     0.054 C 
BRANCH  13  14
ATOM     14  C   UNL     1       2.468   8.685  17.601  1.00  0.00    -0.027 C 
ATOM     15  C   UNL     1       2.021   7.511  18.085  1.00  0.00    -0.031 C 
BRANCH  15  16
ATOM     16  C   UNL     1       1.807   6.266  17.258  1.00  0.00     0.027 C 
BRANCH  16  17
ATOM     17  C   UNL     1       2.376   5.005  17.938  1.00  0.00     0.004 C 
BRANCH  17  18
ATOM     18  C   UNL     1       3.321   5.306  19.117  1.00  0.00     0.000 C 
BRANCH  18  19
ATOM     19  C   UNL     1       2.863   4.744  20.474  1.00  0.00    -0.003 C 
ATOM     20  C   UNL     1       3.348   5.578  21.660  1.00  0.00     0.004 C 
ENDBRANCH  18  19
ENDBRANCH  17  18
ENDBRANCH  16  17
ENDBRANCH  15  16
ENDBRANCH  13  14
ENDBRANCH  12  13
ENDBRANCH   1  11
TORSDOF 14
ENDMDL
MODEL 8
REMARK VINA RESULT:    -5.311      3.473      4.259
REMARK INTER + INTRA:         -11.102
REMARK INTER:                 -10.067
REMARK INTRA:                  -1.036
REMARK UNBOUND:                -1.445
REMARK SMILES CCCCCC=CCC=CCCCCCCCC(=O)[O-]
REMARK SMILES IDX 11 1 12 2 13 3 14 4 15 5 16 6 17 7 18 8 19 9 20 10 10 11
REMARK SMILES IDX 9 12 8 13 7 14 6 15 5 16 4 17 3 18 2 19 1 20
REMARK H PARENT
REMARK Flexibility Score: inf
ROOT
ATOM      1  C   UNL     1       4.582  10.730  16.310  1.00  0.00     0.027 C 
ENDROOT
BRANCH   1   2
ATOM      2  C   UNL     1       5.018  12.127  15.842  1.00  0.00     0.004 C 
BRANCH   2   3
ATOM      3  C   UNL     1       4.224  12.599  14.611  1.00  0.00     0.000 C 
BRANCH   3   4
ATOM      4  C   UNL     1       2.878  13.237  14.989  1.00  0.00     0.000 C 
BRANCH   4   5
ATOM      5  C   UNL     1       2.833  13.701  16.455  1.00  0.00     0.000 C 
BRANCH   5   6
ATOM      6  C   UNL     1       1.863  14.875  16.678  1.00  0.00     0.006 C 
BRANCH   6   7
ATOM      7  C   UNL     1       1.431  15.066  18.141  1.00  0.00     0.053 C 
BRANCH   7   8
ATOM      8  C   UNL     1       0.366  16.109  18.280  1.00  0.00     0.041 C 
ATOM      9  O   UNL     1      -0.842  15.770  18.380  1.00  0.00    -0.550 OA
ATOM     10  O   UNL     1       0.712  17.454  18.337  1.00  0.00    -0.550 OA
ENDBRANCH   7   8
ENDBRANCH   6   7
ENDBRANCH   5   6
ENDBRANCH   4   5
ENDBRANCH   3   4
ENDBRANCH   2   3
ENDBRANCH   1   2
BRANCH   1  11
ATOM     11  C   UNL     1       4.050  10.749  17.722  1.00  0.00    -0.031 C 
ATOM     12  C   UNL     1       2.950  10.092  18.136  1.00  0.00    -0.027 C 
BRANCH  12  13
ATOM     13  C   UNL     1       2.122   9.173  17.275  1.00  0.00     0.054 C 
BRANCH  13  14
ATOM     14  C   UNL     1       2.806   7.842  17.079  1.00  0.00    -0.027 C 
ATOM     15  C   UNL     1       2.235   6.645  17.312  1.00  0.00    -0.031 C 
BRANCH  15  16
ATOM     16  C   UNL     1       0.801   6.444  17.736  1.00  0.00     0.027 C 
BRANCH  16  17
ATOM     17  C   UNL     1       0.574   5.077  18.410  1.00  0.00     0.004 C 
BRANCH  17  18
ATOM     18  C   UNL     1       1.875   4.329  18.756  1.00  0.00     0.000 C 
BRANCH  18  19
ATOM     19  C   UNL     1       2.248   4.334  20.248  1.00  0.00    -0.003 C 
ATOM     20  C   UNL     1       3.141   5.513  20.636  1.00  0.00     0.004 C 
ENDBRANCH  18  19
ENDBRANCH  17  18
ENDBRANCH  16  17
ENDBRANCH  15  16
ENDBRANCH  13  14
ENDBRANCH  12  13
ENDBRANCH   1  11
TORSDOF 14
ENDMDL
MODEL 9
REMARK VINA RESULT:    -5.006      2.888      7.056
REMARK INTER + INTRA:         -10.549
REMARK INTER:                  -8.812
REMARK INTRA:                  -1.736
REMARK UNBOUND:                -1.445
REMARK SMILES CCCCCC=CCC=CCCCCCCCC(=O)[O-]
REMARK SMILES IDX 11 1 12 2 13 3 14 4 15 5 16 6 17 7 18 8 19 9 20 10 10 11
REMARK SMILES IDX 9 12 8 13 7 14 6 15 5 16 4 17 3 18 2 19 1 20
REMARK H PARENT
REMARK Flexibility Score: inf
ROOT
ATOM      1  C   UNL     1       3.130   9.166  15.342  1.00  0.00     0.027 C 
ENDROOT
BRANCH   1   2
ATOM      2  C   UNL     1       3.238   9.067  16.871  1.00  0.00     0.004 C 
BRANCH   2   3
ATOM      3  C   UNL     1       1.876   8.783  17.530  1.00  0.00     0.000 C 
BRANCH   3   4
ATOM      4  C   UNL     1       1.846   7.431  18.261  1.00  0.00     0.000 C 
BRANCH   4   5
ATOM      5  C   UNL     1       2.964   6.483  17.797  1.00  0.00     0.000 C 
BRANCH   5   6
ATOM      6  C   UNL     1       3.414   5.510  18.902  1.00  0.00     0.006 C 
BRANCH   6   7
ATOM      7  C   UNL     1       2.256   4.884  19.698  1.00  0.00     0.053 C 
BRANCH   7   8
ATOM      8  C   UNL     1       1.329   4.106  18.817  1.00  0.00     0.041 C 
ATOM      9  O   UNL     1       1.678   2.983  18.366  1.00  0.00    -0.550 OA
ATOM     10  O   UNL     1       0.064   4.603  18.525  1.00  0.00    -0.550 OA
ENDBRANCH   7   8
ENDBRANCH   6   7
ENDBRANCH   5   6
ENDBRANCH   4   5
ENDBRANCH   3   4
ENDBRANCH   2   3
ENDBRANCH   1   2
BRANCH   1  11
ATOM     11  C   UNL     1       4.270   9.955  14.746  1.00  0.00    -0.031 C 
ATOM     12  C   UNL     1       4.170  11.211  14.272  1.00  0.00    -0.027 C 
BRANCH  12  13
ATOM     13  C   UNL     1       2.923  12.056  14.335  1.00  0.00     0.054 C 
BRANCH  13  14
ATOM     14  C   UNL     1       3.181  13.361  15.047  1.00  0.00    -0.027 C 
ATOM     15  C   UNL     1       3.180  13.518  16.384  1.00  0.00    -0.031 C 
BRANCH  15  16
ATOM     16  C   UNL     1       2.992  12.400  17.381  1.00  0.00     0.027 C 
BRANCH  16  17
ATOM     17  C   UNL     1       3.595  12.735  18.759  1.00  0.00     0.004 C 
BRANCH  17  18
ATOM     18  C   UNL     1       4.842  11.902  19.114  1.00  0.00     0.000 C 
BRANCH  18  19
ATOM     19  C   UNL     1       5.578  11.294  17.909  1.00  0.00    -0.003 C 
ATOM     20  C   UNL     1       6.558  12.267  17.253  1.00  0.00     0.004 C 
ENDBRANCH  18  19
ENDBRANCH  17  18
ENDBRANCH  16  17
ENDBRANCH  15  16
ENDBRANCH  13  14
ENDBRANCH  12  13
ENDBRANCH   1  11
TORSDOF 14
ENDMDL
