MODEL 1
REMARK VINA RESULT:    -5.500      0.000      0.000
REMARK INTER + INTRA:          -6.247
REMARK INTER:                  -5.821
REMARK INTRA:                  -0.426
REMARK UNBOUND:                -0.426
REMARK SMILES CC1=CC[C@H]2[C@@H]3[C@@H](C(C)C)CC[C@@]2(C)[C@H]13
REMARK SMILES IDX 1 1 2 2 3 3 4 4 5 5 6 6 15 7 13 8 12 9 11 10 7 11 14 12 8 13
REMARK SMILES IDX 9 14 10 15
REMARK H PARENT
REMARK Flexibility Score: inf
ROOT
ATOM      1  C   UNL     1     142.080 141.936 131.063  1.00  0.00     0.039 C 
ATOM      2  C   UNL     1     140.969 142.860 131.466  1.00  0.00    -0.073 C 
ATOM      3  C   UNL     1     140.550 143.879 130.670  1.00  0.00    -0.027 C 
ATOM      4  C   UNL     1     139.402 144.773 131.156  1.00  0.00     0.031 C 
ATOM      5  C   UNL     1     138.873 144.275 132.541  1.00  0.00     0.003 C 
ATOM      6  C   UNL     1     138.707 142.740 132.452  1.00  0.00     0.004 C 
ATOM      7  C   UNL     1     140.216 142.648 132.781  1.00  0.00     0.024 C 
ATOM      8  C   UNL     1     140.038 143.999 133.521  1.00  0.00    -0.022 C 
ATOM      9  C   UNL     1     139.447 143.782 134.943  1.00  0.00     0.008 C 
ATOM     10  C   UNL     1     138.480 142.572 135.004  1.00  0.00     0.005 C 
ATOM     11  C   UNL     1     137.817 142.227 133.629  1.00  0.00    -0.005 C 
ATOM     12  C   UNL     1     141.225 144.991 133.563  1.00  0.00     0.012 C 
ENDROOT
BRANCH  11  13
ATOM     13  C   UNL     1     137.497 140.701 133.520  1.00  0.00    -0.014 C 
ATOM     14  C   UNL     1     138.330 139.854 134.501  1.00  0.00     0.007 C 
ATOM     15  C   UNL     1     137.741 140.181 132.090  1.00  0.00     0.007 C 
ENDBRANCH  11  13
TORSDOF 1
ENDMDL
MODEL 2
REMARK VINA RESULT:    -5.496      2.416      4.383
REMARK INTER + INTRA:          -6.243
REMARK INTER:                  -5.808
REMARK INTRA:                  -0.434
REMARK UNBOUND:                -0.426
REMARK SMILES CC1=CC[C@H]2[C@@H]3[C@@H](C(C)C)CC[C@@]2(C)[C@H]13
REMARK SMILES IDX 1 1 2 2 3 3 4 4 5 5 6 6 15 7 13 8 12 9 11 10 7 11 14 12 8 13
REMARK SMILES IDX 9 14 10 15
REMARK H PARENT
REMARK Flexibility Score: inf
ROOT
ATOM      1  C   UNL     1     140.403 142.156 131.249  1.00  0.00     0.039 C 
ATOM      2  C   UNL     1     139.458 141.039 131.580  1.00  0.00    -0.073 C 
ATOM      3  C   UNL     1     138.466 140.655 130.731  1.00  0.00    -0.027 C 
ATOM      4  C   UNL     1     137.547 139.498 131.144  1.00  0.00     0.031 C 
ATOM      5  C   UNL     1     137.988 138.920 132.529  1.00  0.00     0.003 C 
ATOM      6  C   UNL     1     139.525 138.745 132.492  1.00  0.00     0.004 C 
ATOM      7  C   UNL     1     139.614 140.241 132.875  1.00  0.00     0.024 C 
ATOM      8  C   UNL     1     138.235 140.048 133.558  1.00  0.00    -0.022 C 
ATOM      9  C   UNL     1     138.394 139.408 134.966  1.00  0.00     0.008 C 
ATOM     10  C   UNL     1     139.595 138.430 135.038  1.00  0.00     0.005 C 
ATOM     11  C   UNL     1     139.987 137.811 133.656  1.00  0.00    -0.005 C 
ATOM     12  C   UNL     1     137.250 141.241 133.603  1.00  0.00     0.012 C 
ENDROOT
BRANCH  11  13
ATOM     13  C   UNL     1     141.514 137.483 133.593  1.00  0.00    -0.014 C 
ATOM     14  C   UNL     1     142.338 138.329 134.583  1.00  0.00     0.007 C 
ATOM     15  C   UNL     1     142.074 137.701 132.174  1.00  0.00     0.007 C 
ENDBRANCH  11  13
TORSDOF 1
ENDMDL
MODEL 3
REMARK VINA RESULT:    -5.490      2.403      4.427
REMARK INTER + INTRA:          -6.237
REMARK INTER:                  -5.817
REMARK INTRA:                  -0.421
REMARK UNBOUND:                -0.426
REMARK SMILES CC1=CC[C@H]2[C@@H]3[C@@H](C(C)C)CC[C@@]2(C)[C@H]13
REMARK SMILES IDX 1 1 2 2 3 3 4 4 5 5 6 6 15 7 13 8 12 9 11 10 7 11 14 12 8 13
REMARK SMILES IDX 9 14 10 15
REMARK H PARENT
REMARK Flexibility Score: inf
ROOT
ATOM      1  C   UNL     1     141.923 140.089 131.080  1.00  0.00     0.039 C 
ATOM      2  C   UNL     1     142.856 141.192 131.483  1.00  0.00    -0.073 C 
ATOM      3  C   UNL     1     143.877 141.605 130.685  1.00  0.00    -0.027 C 
ATOM      4  C   UNL     1     144.780 142.745 131.171  1.00  0.00     0.031 C 
ATOM      5  C   UNL     1     144.290 143.275 132.559  1.00  0.00     0.003 C 
ATOM      6  C   UNL     1     142.756 143.452 132.474  1.00  0.00     0.004 C 
ATOM      7  C   UNL     1     142.654 141.943 132.801  1.00  0.00     0.024 C 
ATOM      8  C   UNL     1     144.008 142.110 133.537  1.00  0.00    -0.022 C 
ATOM      9  C   UNL     1     143.799 142.700 134.961  1.00  0.00     0.008 C 
ATOM     10  C   UNL     1     142.596 143.675 135.027  1.00  0.00     0.005 C 
ATOM     11  C   UNL     1     142.252 144.344 133.654  1.00  0.00    -0.005 C 
ATOM     12  C   UNL     1     144.991 140.916 133.574  1.00  0.00     0.012 C 
ENDROOT
BRANCH  11  13
ATOM     13  C   UNL     1     140.728 144.675 133.550  1.00  0.00    -0.014 C 
ATOM     14  C   UNL     1     139.880 143.860 134.545  1.00  0.00     0.007 C 
ATOM     15  C   UNL     1     140.198 144.420 132.126  1.00  0.00     0.007 C 
ENDBRANCH  11  13
TORSDOF 1
ENDMDL
MODEL 4
REMARK VINA RESULT:    -5.486      3.797      6.215
REMARK INTER + INTRA:          -6.232
REMARK INTER:                  -5.799
REMARK INTRA:                  -0.434
REMARK UNBOUND:                -0.426
REMARK SMILES CC1=CC[C@H]2[C@@H]3[C@@H](C(C)C)CC[C@@]2(C)[C@H]13
REMARK SMILES IDX 1 1 2 2 3 3 4 4 5 5 6 6 15 7 13 8 12 9 11 10 7 11 14 12 8 13
REMARK SMILES IDX 9 14 10 15
REMARK H PARENT
REMARK Flexibility Score: inf
ROOT
ATOM      1  C   UNL     1     140.041 140.412 131.318  1.00  0.00     0.039 C 
ATOM      2  C   UNL     1     141.150 139.455 131.641  1.00  0.00    -0.073 C 
ATOM      3  C   UNL     1     141.520 138.461 130.790  1.00  0.00    -0.027 C 
ATOM      4  C   UNL     1     142.670 137.531 131.195  1.00  0.00     0.031 C 
ATOM      5  C   UNL     1     143.261 137.965 132.577  1.00  0.00     0.003 C 
ATOM      6  C   UNL     1     143.450 139.500 132.541  1.00  0.00     0.004 C 
ATOM      7  C   UNL     1     141.957 139.602 132.933  1.00  0.00     0.024 C 
ATOM      8  C   UNL     1     142.140 138.220 133.612  1.00  0.00    -0.022 C 
ATOM      9  C   UNL     1     142.789 138.372 135.017  1.00  0.00     0.008 C 
ATOM     10  C   UNL     1     143.778 139.563 135.087  1.00  0.00     0.005 C 
ATOM     11  C   UNL     1     144.394 139.951 133.702  1.00  0.00    -0.005 C 
ATOM     12  C   UNL     1     140.938 137.247 133.662  1.00  0.00     0.012 C 
ENDROOT
BRANCH  11  13
ATOM     13  C   UNL     1     144.736 141.475 133.639  1.00  0.00    -0.014 C 
ATOM     14  C   UNL     1     143.909 142.305 134.640  1.00  0.00     0.007 C 
ATOM     15  C   UNL     1     144.509 142.041 132.224  1.00  0.00     0.007 C 
ENDBRANCH  11  13
TORSDOF 1
ENDMDL
MODEL 5
REMARK VINA RESULT:    -5.229      3.719      5.569
REMARK INTER + INTRA:          -5.960
REMARK INTER:                  -5.526
REMARK INTRA:                  -0.434
REMARK UNBOUND:                -0.426
REMARK SMILES CC1=CC[C@H]2[C@@H]3[C@@H](C(C)C)CC[C@@]2(C)[C@H]13
REMARK SMILES IDX 1 1 2 2 3 3 4 4 5 5 6 6 15 7 13 8 12 9 11 10 7 11 14 12 8 13
REMARK SMILES IDX 9 14 10 15
REMARK H PARENT
REMARK Flexibility Score: inf
ROOT
ATOM      1  C   UNL     1     141.213 142.708 134.534  1.00  0.00     0.039 C 
ATOM      2  C   UNL     1     142.405 141.799 134.555  1.00  0.00    -0.073 C 
ATOM      3  C   UNL     1     143.441 141.984 135.416  1.00  0.00    -0.027 C 
ATOM      4  C   UNL     1     144.619 141.002 135.377  1.00  0.00     0.031 C 
ATOM      5  C   UNL     1     144.359 139.881 134.318  1.00  0.00     0.003 C 
ATOM      6  C   UNL     1     142.908 139.381 134.517  1.00  0.00     0.004 C 
ATOM      7  C   UNL     1     142.471 140.576 133.637  1.00  0.00     0.024 C 
ATOM      8  C   UNL     1     143.871 140.477 132.976  1.00  0.00    -0.022 C 
ATOM      9  C   UNL     1     143.899 139.356 131.898  1.00  0.00     0.008 C 
ATOM     10  C   UNL     1     142.969 138.169 132.255  1.00  0.00     0.005 C 
ATOM     11  C   UNL     1     142.707 138.013 133.789  1.00  0.00    -0.005 C 
ATOM     12  C   UNL     1     144.542 141.767 132.449  1.00  0.00     0.012 C 
ENDROOT
BRANCH  11  13
ATOM     13  C   UNL     1     141.302 137.385 134.065  1.00  0.00    -0.014 C 
ATOM     14  C   UNL     1     140.286 137.709 132.953  1.00  0.00     0.007 C 
ATOM     15  C   UNL     1     140.730 137.869 135.412  1.00  0.00     0.007 C 
ENDBRANCH  11  13
TORSDOF 1
ENDMDL
MODEL 6
REMARK VINA RESULT:    -5.213      2.815      5.162
REMARK INTER + INTRA:          -5.944
REMARK INTER:                  -5.506
REMARK INTRA:                  -0.438
REMARK UNBOUND:                -0.426
REMARK SMILES CC1=CC[C@H]2[C@@H]3[C@@H](C(C)C)CC[C@@]2(C)[C@H]13
REMARK SMILES IDX 1 1 2 2 3 3 4 4 5 5 6 6 15 7 13 8 12 9 11 10 7 11 14 12 8 13
REMARK SMILES IDX 9 14 10 15
REMARK H PARENT
REMARK Flexibility Score: inf
ROOT
ATOM      1  C   UNL     1     142.714 141.049 134.579  1.00  0.00     0.039 C 
ATOM      2  C   UNL     1     141.814 139.850 134.623  1.00  0.00    -0.073 C 
ATOM      3  C   UNL     1     142.020 138.821 135.488  1.00  0.00    -0.027 C 
ATOM      4  C   UNL     1     141.046 137.636 135.472  1.00  0.00     0.031 C 
ATOM      5  C   UNL     1     139.907 137.880 134.428  1.00  0.00     0.003 C 
ATOM      6  C   UNL     1     139.399 139.328 134.625  1.00  0.00     0.004 C 
ATOM      7  C   UNL     1     140.578 139.768 133.724  1.00  0.00     0.024 C 
ATOM      8  C   UNL     1     140.479 138.363 133.074  1.00  0.00    -0.022 C 
ATOM      9  C   UNL     1     139.343 138.319 132.014  1.00  0.00     0.008 C 
ATOM     10  C   UNL     1     138.153 139.242 132.382  1.00  0.00     0.005 C 
ATOM     11  C   UNL     1     138.019 139.514 133.917  1.00  0.00    -0.005 C 
ATOM     12  C   UNL     1     141.766 137.698 132.532  1.00  0.00     0.012 C 
ENDROOT
BRANCH  11  13
ATOM     13  C   UNL     1     137.385 140.916 134.192  1.00  0.00    -0.014 C 
ATOM     14  C   UNL     1     137.640 141.912 133.045  1.00  0.00     0.007 C 
ATOM     15  C   UNL     1     137.924 141.524 135.502  1.00  0.00     0.007 C 
ENDBRANCH  11  13
TORSDOF 1
ENDMDL
MODEL 7
REMARK VINA RESULT:    -5.210      2.666      4.932
REMARK INTER + INTRA:          -5.940
REMARK INTER:                  -5.509
REMARK INTRA:                  -0.431
REMARK UNBOUND:                -0.426
REMARK SMILES CC1=CC[C@H]2[C@@H]3[C@@H](C(C)C)CC[C@@]2(C)[C@H]13
REMARK SMILES IDX 1 1 2 2 3 3 4 4 5 5 6 6 15 7 13 8 12 9 11 10 7 11 14 12 8 13
REMARK SMILES IDX 9 14 10 15
REMARK H PARENT
REMARK Flexibility Score: inf
ROOT
ATOM      1  C   UNL     1     139.479 141.208 134.381  1.00  0.00     0.039 C 
ATOM      2  C   UNL     1     140.384 142.403 134.425  1.00  0.00    -0.073 C 
ATOM      3  C   UNL     1     140.158 143.452 135.261  1.00  0.00    -0.027 C 
ATOM      4  C   UNL     1     141.137 144.632 135.247  1.00  0.00     0.031 C 
ATOM      5  C   UNL     1     142.306 144.359 134.243  1.00  0.00     0.003 C 
ATOM      6  C   UNL     1     142.800 142.914 134.487  1.00  0.00     0.004 C 
ATOM      7  C   UNL     1     141.646 142.460 133.562  1.00  0.00     0.024 C 
ATOM      8  C   UNL     1     141.771 143.849 132.884  1.00  0.00    -0.022 C 
ATOM      9  C   UNL     1     142.939 143.864 131.857  1.00  0.00     0.008 C 
ATOM     10  C   UNL     1     144.112 142.944 132.281  1.00  0.00     0.005 C 
ATOM     11  C   UNL     1     144.200 142.706 133.825  1.00  0.00    -0.005 C 
ATOM     12  C   UNL     1     140.504 144.507 132.289  1.00  0.00     0.012 C 
ENDROOT
BRANCH  11  13
ATOM     13  C   UNL     1     144.818 141.308 134.150  1.00  0.00    -0.014 C 
ATOM     14  C   UNL     1     144.510 140.262 133.061  1.00  0.00     0.007 C 
ATOM     15  C   UNL     1     144.309 140.775 135.503  1.00  0.00     0.007 C 
ENDBRANCH  11  13
TORSDOF 1
ENDMDL
MODEL 8
REMARK VINA RESULT:    -5.207      1.439      4.527
REMARK INTER + INTRA:          -5.937
REMARK INTER:                  -5.499
REMARK INTRA:                  -0.438
REMARK UNBOUND:                -0.426
REMARK SMILES CC1=CC[C@H]2[C@@H]3[C@@H](C(C)C)CC[C@@]2(C)[C@H]13
REMARK SMILES IDX 1 1 2 2 3 3 4 4 5 5 6 6 15 7 13 8 12 9 11 10 7 11 14 12 8 13
REMARK SMILES IDX 9 14 10 15
REMARK H PARENT
REMARK Flexibility Score: inf
ROOT
ATOM      1  C   UNL     1     141.018 139.523 134.691  1.00  0.00     0.039 C 
ATOM      2  C   UNL     1     139.823 140.429 134.698  1.00  0.00    -0.073 C 
ATOM      3  C   UNL     1     138.789 140.256 135.565  1.00  0.00    -0.027 C 
ATOM      4  C   UNL     1     137.608 141.233 135.510  1.00  0.00     0.031 C 
ATOM      5  C   UNL     1     137.861 142.335 134.430  1.00  0.00     0.003 C 
ATOM      6  C   UNL     1     139.310 142.844 134.616  1.00  0.00     0.004 C 
ATOM      7  C   UNL     1     139.749 141.633 133.758  1.00  0.00     0.024 C 
ATOM      8  C   UNL     1     138.348 141.715 133.098  1.00  0.00    -0.022 C 
ATOM      9  C   UNL     1     138.313 142.815 131.999  1.00  0.00     0.008 C 
ATOM     10  C   UNL     1     139.240 144.012 132.331  1.00  0.00     0.005 C 
ATOM     11  C   UNL     1     139.504 144.198 133.862  1.00  0.00    -0.005 C 
ATOM     12  C   UNL     1     137.680 140.413 132.597  1.00  0.00     0.012 C 
ENDROOT
BRANCH  11  13
ATOM     13  C   UNL     1     140.908 144.836 134.123  1.00  0.00    -0.014 C 
ATOM     14  C   UNL     1     141.897 144.569 132.972  1.00  0.00     0.007 C 
ATOM     15  C   UNL     1     141.524 144.311 135.434  1.00  0.00     0.007 C 
ENDBRANCH  11  13
TORSDOF 1
ENDMDL
MODEL 9
REMARK VINA RESULT:    -5.035      3.362      4.994
REMARK INTER + INTRA:          -5.755
REMARK INTER:                  -5.319
REMARK INTRA:                  -0.437
REMARK UNBOUND:                -0.426
REMARK SMILES CC1=CC[C@H]2[C@@H]3[C@@H](C(C)C)CC[C@@]2(C)[C@H]13
REMARK SMILES IDX 1 1 2 2 3 3 4 4 5 5 6 6 15 7 13 8 12 9 11 10 7 11 14 12 8 13
REMARK SMILES IDX 9 14 10 15
REMARK H PARENT
REMARK Flexibility Score: inf
ROOT
ATOM      1  C   UNL     1     141.663 138.871 134.080  1.00  0.00     0.039 C 
ATOM      2  C   UNL     1     142.729 139.925 134.038  1.00  0.00    -0.073 C 
ATOM      3  C   UNL     1     143.919 139.726 133.409  1.00  0.00    -0.027 C 
ATOM      4  C   UNL     1     144.952 140.860 133.406  1.00  0.00     0.031 C 
ATOM      5  C   UNL     1     144.380 142.120 134.136  1.00  0.00     0.003 C 
ATOM      6  C   UNL     1     142.943 142.349 133.611  1.00  0.00     0.004 C 
ATOM      7  C   UNL     1     142.491 141.303 134.659  1.00  0.00     0.024 C 
ATOM      8  C   UNL     1     143.728 141.741 135.486  1.00  0.00    -0.022 C 
ATOM      9  C   UNL     1     143.434 143.047 136.278  1.00  0.00     0.008 C 
ATOM     10  C   UNL     1     142.457 143.987 135.527  1.00  0.00     0.005 C 
ATOM     11  C   UNL     1     142.461 143.790 133.975  1.00  0.00    -0.005 C 
ATOM     12  C   UNL     1     144.433 140.698 136.385  1.00  0.00     0.012 C 
ENDROOT
BRANCH  11  13
ATOM     13  C   UNL     1     141.068 144.133 133.355  1.00  0.00    -0.014 C 
ATOM     14  C   UNL     1     139.919 143.980 134.370  1.00  0.00     0.007 C 
ATOM     15  C   UNL     1     140.767 143.244 132.133  1.00  0.00     0.007 C 
ENDBRANCH  11  13
TORSDOF 1
ENDMDL
