MODEL 1
REMARK VINA RESULT:    -5.767      0.000      0.000
REMARK INTER + INTRA:         -12.914
REMARK INTER:                 -10.824
REMARK INTRA:                  -2.090
REMARK UNBOUND:                -2.090
REMARK SMILES CCCCCCCCC=CCCCCCCCC(=O)[O-]
REMARK SMILES IDX 10 1 9 2 11 3 12 4 13 5 14 6 15 7 16 8 17 9 18 10 19 11
REMARK SMILES IDX 20 12 8 13 7 14 6 15 5 16 4 17 3 18 2 19 1 20
REMARK H PARENT
REMARK Flexibility Score: inf
ROOT
ATOM      1  C   UNL     1      73.967   0.085  28.085  1.00  0.00    -0.031 C 
ATOM      2  C   UNL     1      73.037   0.766  27.390  1.00  0.00    -0.031 C 
ENDROOT
BRANCH   1   3
ATOM      3  C   UNL     1      73.995  -1.417  28.240  1.00  0.00     0.027 C 
BRANCH   3   4
ATOM      4  C   UNL     1      74.884  -2.094  27.183  1.00  0.00     0.004 C 
BRANCH   4   5
ATOM      5  C   UNL     1      75.573  -1.112  26.216  1.00  0.00     0.000 C 
BRANCH   5   6
ATOM      6  C   UNL     1      75.586  -1.618  24.764  1.00  0.00     0.000 C 
BRANCH   6   7
ATOM      7  C   UNL     1      76.869  -1.227  24.013  1.00  0.00     0.000 C 
BRANCH   7   8
ATOM      8  C   UNL     1      77.113  -2.100  22.770  1.00  0.00     0.006 C 
BRANCH   8   9
ATOM      9  C   UNL     1      78.574  -2.045  22.303  1.00  0.00     0.053 C 
BRANCH   9  10
ATOM     10  C   UNL     1      78.716  -1.299  21.011  1.00  0.00     0.041 C 
ATOM     11  O   UNL     1      79.715  -1.498  20.270  1.00  0.00    -0.550 OA
ATOM     12  O   UNL     1      77.760  -0.363  20.639  1.00  0.00    -0.550 OA
ENDBRANCH   9  10
ENDBRANCH   8   9
ENDBRANCH   7   8
ENDBRANCH   6   7
ENDBRANCH   5   6
ENDBRANCH   4   5
ENDBRANCH   3   4
ENDBRANCH   1   3
BRANCH   2  13
ATOM     13  C   UNL     1      71.828   0.143  26.740  1.00  0.00     0.027 C 
BRANCH  13  14
ATOM     14  C   UNL     1      72.092  -0.129  25.251  1.00  0.00     0.004 C 
BRANCH  14  15
ATOM     15  C   UNL     1      71.382  -1.395  24.739  1.00  0.00     0.000 C 
BRANCH  15  16
ATOM     16  C   UNL     1      71.751  -2.696  25.474  1.00  0.00     0.000 C 
BRANCH  16  17
ATOM     17  C   UNL     1      70.520  -3.472  25.971  1.00  0.00    -0.000 C 
BRANCH  17  18
ATOM     18  C   UNL     1      70.575  -3.786  27.478  1.00  0.00    -0.000 C 
BRANCH  18  19
ATOM     19  C   UNL     1      70.370  -2.574  28.404  1.00  0.00    -0.003 C 
ATOM     20  C   UNL     1      69.105  -1.781  28.084  1.00  0.00     0.004 C 
ENDBRANCH  18  19
ENDBRANCH  17  18
ENDBRANCH  16  17
ENDBRANCH  15  16
ENDBRANCH  14  15
ENDBRANCH  13  14
ENDBRANCH   2  13
TORSDOF 15
ENDMDL
MODEL 2
REMARK VINA RESULT:    -5.729      3.929      7.307
REMARK INTER + INTRA:         -12.843
REMARK INTER:                 -10.583
REMARK INTRA:                  -2.259
REMARK UNBOUND:                -2.090
REMARK SMILES CCCCCCCCC=CCCCCCCCC(=O)[O-]
REMARK SMILES IDX 10 1 9 2 11 3 12 4 13 5 14 6 15 7 16 8 17 9 18 10 19 11
REMARK SMILES IDX 20 12 8 13 7 14 6 15 5 16 4 17 3 18 2 19 1 20
REMARK H PARENT
REMARK Flexibility Score: inf
ROOT
ATOM      1  C   UNL     1      73.146   0.857  27.416  1.00  0.00    -0.031 C 
ATOM      2  C   UNL     1      73.979   0.138  28.189  1.00  0.00    -0.031 C 
ENDROOT
BRANCH   1   3
ATOM      3  C   UNL     1      71.919   0.307  26.730  1.00  0.00     0.027 C 
BRANCH   3   4
ATOM      4  C   UNL     1      72.166   0.021  25.239  1.00  0.00     0.004 C 
BRANCH   4   5
ATOM      5  C   UNL     1      71.034  -0.766  24.551  1.00  0.00     0.000 C 
BRANCH   5   6
ATOM      6  C   UNL     1      71.396  -2.241  24.312  1.00  0.00     0.000 C 
BRANCH   6   7
ATOM      7  C   UNL     1      70.663  -3.193  25.271  1.00  0.00     0.000 C 
BRANCH   7   8
ATOM      8  C   UNL     1      71.350  -3.293  26.643  1.00  0.00     0.006 C 
BRANCH   8   9
ATOM      9  C   UNL     1      70.392  -3.784  27.736  1.00  0.00     0.053 C 
BRANCH   9  10
ATOM     10  C   UNL     1      69.168  -2.924  27.829  1.00  0.00     0.041 C 
ATOM     11  O   UNL     1      68.023  -3.433  27.699  1.00  0.00    -0.550 OA
ATOM     12  O   UNL     1      69.293  -1.556  28.030  1.00  0.00    -0.550 OA
ENDBRANCH   9  10
ENDBRANCH   8   9
ENDBRANCH   7   8
ENDBRANCH   6   7
ENDBRANCH   5   6
ENDBRANCH   4   5
ENDBRANCH   3   4
ENDBRANCH   1   3
BRANCH   2  13
ATOM     13  C   UNL     1      73.869  -1.349  28.413  1.00  0.00     0.027 C 
BRANCH  13  14
ATOM     14  C   UNL     1      75.028  -2.089  27.729  1.00  0.00     0.004 C 
BRANCH  14  15
ATOM     15  C   UNL     1      75.381  -1.505  26.350  1.00  0.00     0.000 C 
BRANCH  15  16
ATOM     16  C   UNL     1      74.931  -2.351  25.145  1.00  0.00     0.000 C 
BRANCH  16  17
ATOM     17  C   UNL     1      75.450  -1.806  23.804  1.00  0.00    -0.000 C 
BRANCH  17  18
ATOM     18  C   UNL     1      76.534  -0.724  23.975  1.00  0.00    -0.000 C 
BRANCH  18  19
ATOM     19  C   UNL     1      77.968  -1.183  23.663  1.00  0.00    -0.003 C 
ATOM     20  C   UNL     1      78.067  -2.022  22.390  1.00  0.00     0.004 C 
ENDBRANCH  18  19
ENDBRANCH  17  18
ENDBRANCH  16  17
ENDBRANCH  15  16
ENDBRANCH  14  15
ENDBRANCH  13  14
ENDBRANCH   2  13
TORSDOF 15
ENDMDL
MODEL 3
REMARK VINA RESULT:    -5.609      2.461      2.847
REMARK INTER + INTRA:         -12.617
REMARK INTER:                 -10.528
REMARK INTRA:                  -2.089
REMARK UNBOUND:                -2.090
REMARK SMILES CCCCCCCCC=CCCCCCCCC(=O)[O-]
REMARK SMILES IDX 10 1 9 2 11 3 12 4 13 5 14 6 15 7 16 8 17 9 18 10 19 11
REMARK SMILES IDX 20 12 8 13 7 14 6 15 5 16 4 17 3 18 2 19 1 20
REMARK H PARENT
REMARK Flexibility Score: inf
ROOT
ATOM      1  C   UNL     1      73.936   0.081  28.042  1.00  0.00    -0.031 C 
ATOM      2  C   UNL     1      72.952   0.614  27.295  1.00  0.00    -0.031 C 
ENDROOT
BRANCH   1   3
ATOM      3  C   UNL     1      74.104  -1.394  28.316  1.00  0.00     0.027 C 
BRANCH   3   4
ATOM      4  C   UNL     1      74.790  -2.128  27.151  1.00  0.00     0.004 C 
BRANCH   4   5
ATOM      5  C   UNL     1      75.560  -1.202  26.190  1.00  0.00     0.000 C 
BRANCH   5   6
ATOM      6  C   UNL     1      75.561  -1.718  24.741  1.00  0.00     0.000 C 
BRANCH   6   7
ATOM      7  C   UNL     1      74.816  -3.054  24.589  1.00  0.00     0.000 C 
BRANCH   7   8
ATOM      8  C   UNL     1      75.182  -3.789  23.289  1.00  0.00     0.006 C 
BRANCH   8   9
ATOM      9  C   UNL     1      74.064  -3.707  22.242  1.00  0.00     0.053 C 
BRANCH   9  10
ATOM     10  C   UNL     1      74.111  -4.860  21.287  1.00  0.00     0.041 C 
ATOM     11  O   UNL     1      73.638  -5.979  21.619  1.00  0.00    -0.550 OA
ATOM     12  O   UNL     1      74.702  -4.707  20.039  1.00  0.00    -0.550 OA
ENDBRANCH   9  10
ENDBRANCH   8   9
ENDBRANCH   7   8
ENDBRANCH   6   7
ENDBRANCH   5   6
ENDBRANCH   4   5
ENDBRANCH   3   4
ENDBRANCH   1   3
BRANCH   2  13
ATOM     13  C   UNL     1      71.811  -0.169  26.696  1.00  0.00     0.027 C 
BRANCH  13  14
ATOM     14  C   UNL     1      71.913  -0.190  25.164  1.00  0.00     0.004 C 
BRANCH  14  15
ATOM     15  C   UNL     1      71.265  -1.438  24.538  1.00  0.00     0.000 C 
BRANCH  15  16
ATOM     16  C   UNL     1      71.638  -2.774  25.204  1.00  0.00     0.000 C 
BRANCH  16  17
ATOM     17  C   UNL     1      70.414  -3.545  25.726  1.00  0.00    -0.000 C 
BRANCH  17  18
ATOM     18  C   UNL     1      70.377  -3.642  27.264  1.00  0.00    -0.000 C 
BRANCH  18  19
ATOM     19  C   UNL     1      69.106  -3.077  27.922  1.00  0.00    -0.003 C 
ATOM     20  C   UNL     1      69.308  -1.686  28.520  1.00  0.00     0.004 C 
ENDBRANCH  18  19
ENDBRANCH  17  18
ENDBRANCH  16  17
ENDBRANCH  15  16
ENDBRANCH  14  15
ENDBRANCH  13  14
ENDBRANCH   2  13
TORSDOF 15
ENDMDL
MODEL 4
REMARK VINA RESULT:    -5.589      2.642      6.250
REMARK INTER + INTRA:         -12.579
REMARK INTER:                 -10.463
REMARK INTRA:                  -2.116
REMARK UNBOUND:                -2.090
REMARK SMILES CCCCCCCCC=CCCCCCCCC(=O)[O-]
REMARK SMILES IDX 10 1 9 2 11 3 12 4 13 5 14 6 15 7 16 8 17 9 18 10 19 11
REMARK SMILES IDX 20 12 8 13 7 14 6 15 5 16 4 17 3 18 2 19 1 20
REMARK H PARENT
REMARK Flexibility Score: inf
ROOT
ATOM      1  C   UNL     1      73.053   0.759  27.180  1.00  0.00    -0.031 C 
ATOM      2  C   UNL     1      73.958   0.262  28.043  1.00  0.00    -0.031 C 
ENDROOT
BRANCH   1   3
ATOM      3  C   UNL     1      71.911  -0.027  26.583  1.00  0.00     0.027 C 
BRANCH   3   4
ATOM      4  C   UNL     1      70.795  -0.300  27.607  1.00  0.00     0.004 C 
BRANCH   4   5
ATOM      5  C   UNL     1      69.793  -1.387  27.173  1.00  0.00     0.000 C 
BRANCH   5   6
ATOM      6  C   UNL     1      70.176  -2.786  27.685  1.00  0.00     0.000 C 
BRANCH   6   7
ATOM      7  C   UNL     1      70.951  -3.606  26.641  1.00  0.00     0.000 C 
BRANCH   7   8
ATOM      8  C   UNL     1      70.395  -3.426  25.219  1.00  0.00     0.006 C 
BRANCH   8   9
ATOM      9  C   UNL     1      71.403  -2.742  24.286  1.00  0.00     0.053 C 
BRANCH   9  10
ATOM     10  C   UNL     1      71.352  -3.309  22.900  1.00  0.00     0.041 C 
ATOM     11  O   UNL     1      72.344  -3.198  22.132  1.00  0.00    -0.550 OA
ATOM     12  O   UNL     1      70.198  -3.936  22.448  1.00  0.00    -0.550 OA
ENDBRANCH   9  10
ENDBRANCH   8   9
ENDBRANCH   7   8
ENDBRANCH   6   7
ENDBRANCH   5   6
ENDBRANCH   4   5
ENDBRANCH   3   4
ENDBRANCH   1   3
BRANCH   2  13
ATOM     13  C   UNL     1      74.026  -1.182  28.473  1.00  0.00     0.027 C 
BRANCH  13  14
ATOM     14  C   UNL     1      75.066  -1.948  27.641  1.00  0.00     0.004 C 
BRANCH  14  15
ATOM     15  C   UNL     1      74.450  -2.672  26.431  1.00  0.00     0.000 C 
BRANCH  15  16
ATOM     16  C   UNL     1      74.860  -2.115  25.055  1.00  0.00     0.000 C 
BRANCH  16  17
ATOM     17  C   UNL     1      75.904  -0.990  25.153  1.00  0.00    -0.000 C 
BRANCH  17  18
ATOM     18  C   UNL     1      77.074  -1.171  24.166  1.00  0.00    -0.000 C 
BRANCH  18  19
ATOM     19  C   UNL     1      77.590   0.128  23.523  1.00  0.00    -0.003 C 
ATOM     20  C   UNL     1      77.413   1.353  24.417  1.00  0.00     0.004 C 
ENDBRANCH  18  19
ENDBRANCH  17  18
ENDBRANCH  16  17
ENDBRANCH  15  16
ENDBRANCH  14  15
ENDBRANCH  13  14
ENDBRANCH   2  13
TORSDOF 15
ENDMDL
MODEL 5
REMARK VINA RESULT:    -5.565      1.481      2.610
REMARK INTER + INTRA:         -12.534
REMARK INTER:                  -9.818
REMARK INTRA:                  -2.716
REMARK UNBOUND:                -2.090
REMARK SMILES CCCCCCCCC=CCCCCCCCC(=O)[O-]
REMARK SMILES IDX 10 1 9 2 11 3 12 4 13 5 14 6 15 7 16 8 17 9 18 10 19 11
REMARK SMILES IDX 20 12 8 13 7 14 6 15 5 16 4 17 3 18 2 19 1 20
REMARK H PARENT
REMARK Flexibility Score: inf
ROOT
ATOM      1  C   UNL     1      73.954  -1.375  28.529  1.00  0.00    -0.031 C 
ATOM      2  C   UNL     1      74.179  -2.425  27.719  1.00  0.00    -0.031 C 
ENDROOT
BRANCH   1   3
ATOM      3  C   UNL     1      74.178   0.069  28.148  1.00  0.00     0.027 C 
BRANCH   3   4
ATOM      4  C   UNL     1      72.959   0.676  27.432  1.00  0.00     0.004 C 
BRANCH   4   5
ATOM      5  C   UNL     1      73.281   1.308  26.064  1.00  0.00     0.000 C 
BRANCH   5   6
ATOM      6  C   UNL     1      74.791   1.473  25.827  1.00  0.00     0.000 C 
BRANCH   6   7
ATOM      7  C   UNL     1      75.273   0.750  24.559  1.00  0.00     0.000 C 
BRANCH   7   8
ATOM      8  C   UNL     1      76.788   0.487  24.570  1.00  0.00     0.006 C 
BRANCH   8   9
ATOM      9  C   UNL     1      77.140  -0.894  24.001  1.00  0.00     0.053 C 
BRANCH   9  10
ATOM     10  C   UNL     1      76.664  -1.051  22.589  1.00  0.00     0.041 C 
ATOM     11  O   UNL     1      77.036  -0.241  21.699  1.00  0.00    -0.550 OA
ATOM     12  O   UNL     1      75.785  -2.076  22.262  1.00  0.00    -0.550 OA
ENDBRANCH   9  10
ENDBRANCH   8   9
ENDBRANCH   7   8
ENDBRANCH   6   7
ENDBRANCH   5   6
ENDBRANCH   4   5
ENDBRANCH   3   4
ENDBRANCH   1   3
BRANCH   2  13
ATOM     13  C   UNL     1      74.778  -2.329  26.339  1.00  0.00     0.027 C 
BRANCH  13  14
ATOM     14  C   UNL     1      73.840  -2.954  25.295  1.00  0.00     0.004 C 
BRANCH  14  15
ATOM     15  C   UNL     1      72.549  -2.143  25.087  1.00  0.00     0.000 C 
BRANCH  15  16
ATOM     16  C   UNL     1      71.255  -2.975  25.028  1.00  0.00     0.000 C 
BRANCH  16  17
ATOM     17  C   UNL     1      70.706  -3.326  26.421  1.00  0.00    -0.000 C 
BRANCH  17  18
ATOM     18  C   UNL     1      70.470  -2.085  27.303  1.00  0.00    -0.000 C 
BRANCH  18  19
ATOM     19  C   UNL     1      69.352  -2.231  28.349  1.00  0.00    -0.003 C 
ATOM     20  C   UNL     1      68.447  -3.435  28.096  1.00  0.00     0.004 C 
ENDBRANCH  18  19
ENDBRANCH  17  18
ENDBRANCH  16  17
ENDBRANCH  15  16
ENDBRANCH  14  15
ENDBRANCH  13  14
ENDBRANCH   2  13
TORSDOF 15
ENDMDL
MODEL 6
REMARK VINA RESULT:    -5.560      3.178      4.256
REMARK INTER + INTRA:         -12.525
REMARK INTER:                 -10.084
REMARK INTRA:                  -2.441
REMARK UNBOUND:                -2.090
REMARK SMILES CCCCCCCCC=CCCCCCCCC(=O)[O-]
REMARK SMILES IDX 10 1 9 2 11 3 12 4 13 5 14 6 15 7 16 8 17 9 18 10 19 11
REMARK SMILES IDX 20 12 8 13 7 14 6 15 5 16 4 17 3 18 2 19 1 20
REMARK H PARENT
REMARK Flexibility Score: inf
ROOT
ATOM      1  C   UNL     1      74.917  -1.744  27.383  1.00  0.00    -0.031 C 
ATOM      2  C   UNL     1      74.101  -0.980  28.133  1.00  0.00    -0.031 C 
ENDROOT
BRANCH   1   3
ATOM      3  C   UNL     1      75.430  -1.367  26.014  1.00  0.00     0.027 C 
BRANCH   3   4
ATOM      4  C   UNL     1      74.959  -2.348  24.927  1.00  0.00     0.004 C 
BRANCH   4   5
ATOM      5  C   UNL     1      75.628  -2.137  23.555  1.00  0.00     0.000 C 
BRANCH   5   6
ATOM      6  C   UNL     1      74.707  -2.512  22.381  1.00  0.00     0.000 C 
BRANCH   6   7
ATOM      7  C   UNL     1      73.505  -3.363  22.821  1.00  0.00     0.000 C 
BRANCH   7   8
ATOM      8  C   UNL     1      72.229  -3.035  22.029  1.00  0.00     0.006 C 
BRANCH   8   9
ATOM      9  C   UNL     1      71.302  -4.250  21.894  1.00  0.00     0.053 C 
BRANCH   9  10
ATOM     10  C   UNL     1      71.749  -5.171  20.799  1.00  0.00     0.041 C 
ATOM     11  O   UNL     1      71.501  -4.894  19.596  1.00  0.00    -0.550 OA
ATOM     12  O   UNL     1      72.415  -6.349  21.111  1.00  0.00    -0.550 OA
ENDBRANCH   9  10
ENDBRANCH   8   9
ENDBRANCH   7   8
ENDBRANCH   6   7
ENDBRANCH   5   6
ENDBRANCH   4   5
ENDBRANCH   3   4
ENDBRANCH   1   3
BRANCH   2  13
ATOM     13  C   UNL     1      73.499   0.326  27.682  1.00  0.00     0.027 C 
BRANCH  13  14
ATOM     14  C   UNL     1      72.082   0.109  27.129  1.00  0.00     0.004 C 
BRANCH  14  15
ATOM     15  C   UNL     1      72.062  -0.126  25.608  1.00  0.00     0.000 C 
BRANCH  15  16
ATOM     16  C   UNL     1      71.197  -1.311  25.140  1.00  0.00     0.000 C 
BRANCH  16  17
ATOM     17  C   UNL     1      71.472  -2.601  25.929  1.00  0.00    -0.000 C 
BRANCH  17  18
ATOM     18  C   UNL     1      70.184  -3.346  26.329  1.00  0.00    -0.000 C 
BRANCH  18  19
ATOM     19  C   UNL     1      69.864  -3.334  27.834  1.00  0.00    -0.003 C 
ATOM     20  C   UNL     1      69.306  -1.997  28.319  1.00  0.00     0.004 C 
ENDBRANCH  18  19
ENDBRANCH  17  18
ENDBRANCH  16  17
ENDBRANCH  15  16
ENDBRANCH  14  15
ENDBRANCH  13  14
ENDBRANCH   2  13
TORSDOF 15
ENDMDL
MODEL 7
REMARK VINA RESULT:    -5.530      1.290      2.139
REMARK INTER + INTRA:         -12.469
REMARK INTER:                 -10.590
REMARK INTRA:                  -1.880
REMARK UNBOUND:                -2.090
REMARK SMILES CCCCCCCCC=CCCCCCCCC(=O)[O-]
REMARK SMILES IDX 10 1 9 2 11 3 12 4 13 5 14 6 15 7 16 8 17 9 18 10 19 11
REMARK SMILES IDX 20 12 8 13 7 14 6 15 5 16 4 17 3 18 2 19 1 20
REMARK H PARENT
REMARK Flexibility Score: inf
ROOT
ATOM      1  C   UNL     1      73.718   0.724  27.663  1.00  0.00    -0.031 C 
ATOM      2  C   UNL     1      74.080  -0.421  28.269  1.00  0.00    -0.031 C 
ENDROOT
BRANCH   1   3
ATOM      3  C   UNL     1      73.968   1.044  26.209  1.00  0.00     0.027 C 
BRANCH   3   4
ATOM      4  C   UNL     1      75.255   1.861  26.007  1.00  0.00     0.004 C 
BRANCH   4   5
ATOM      5  C   UNL     1      76.309   1.170  25.121  1.00  0.00     0.000 C 
BRANCH   5   6
ATOM      6  C   UNL     1      75.722   0.018  24.288  1.00  0.00     0.000 C 
BRANCH   6   7
ATOM      7  C   UNL     1      76.602  -1.242  24.318  1.00  0.00     0.000 C 
BRANCH   7   8
ATOM      8  C   UNL     1      77.941  -1.044  23.589  1.00  0.00     0.006 C 
BRANCH   8   9
ATOM      9  C   UNL     1      78.122  -2.036  22.432  1.00  0.00     0.053 C 
BRANCH   9  10
ATOM     10  C   UNL     1      78.079  -1.350  21.101  1.00  0.00     0.041 C 
ATOM     11  O   UNL     1      77.874  -0.109  21.031  1.00  0.00    -0.550 OA
ATOM     12  O   UNL     1      78.237  -2.087  19.934  1.00  0.00    -0.550 OA
ENDBRANCH   9  10
ENDBRANCH   8   9
ENDBRANCH   7   8
ENDBRANCH   6   7
ENDBRANCH   5   6
ENDBRANCH   4   5
ENDBRANCH   3   4
ENDBRANCH   1   3
BRANCH   2  13
ATOM     13  C   UNL     1      74.874  -1.522  27.613  1.00  0.00     0.027 C 
BRANCH  13  14
ATOM     14  C   UNL     1      73.983  -2.742  27.333  1.00  0.00     0.004 C 
BRANCH  14  15
ATOM     15  C   UNL     1      73.365  -2.723  25.924  1.00  0.00     0.000 C 
BRANCH  15  16
ATOM     16  C   UNL     1      71.980  -2.058  25.824  1.00  0.00     0.000 C 
BRANCH  16  17
ATOM     17  C   UNL     1      70.827  -3.075  25.832  1.00  0.00    -0.000 C 
BRANCH  17  18
ATOM     18  C   UNL     1      70.482  -3.579  27.247  1.00  0.00    -0.000 C 
BRANCH  18  19
ATOM     19  C   UNL     1      69.229  -2.947  27.877  1.00  0.00    -0.003 C 
ATOM     20  C   UNL     1      69.291  -1.421  27.936  1.00  0.00     0.004 C 
ENDBRANCH  18  19
ENDBRANCH  17  18
ENDBRANCH  16  17
ENDBRANCH  15  16
ENDBRANCH  14  15
ENDBRANCH  13  14
ENDBRANCH   2  13
TORSDOF 15
ENDMDL
MODEL 8
REMARK VINA RESULT:    -5.487      3.311      3.899
REMARK INTER + INTRA:         -12.388
REMARK INTER:                 -10.220
REMARK INTRA:                  -2.168
REMARK UNBOUND:                -2.090
REMARK SMILES CCCCCCCCC=CCCCCCCCC(=O)[O-]
REMARK SMILES IDX 10 1 9 2 11 3 12 4 13 5 14 6 15 7 16 8 17 9 18 10 19 11
REMARK SMILES IDX 20 12 8 13 7 14 6 15 5 16 4 17 3 18 2 19 1 20
REMARK H PARENT
REMARK Flexibility Score: inf
ROOT
ATOM      1  C   UNL     1      74.716  -1.989  27.375  1.00  0.00    -0.031 C 
ATOM      2  C   UNL     1      73.959  -1.175  28.133  1.00  0.00    -0.031 C 
ENDROOT
BRANCH   1   3
ATOM      3  C   UNL     1      75.511  -1.548  26.170  1.00  0.00     0.027 C 
BRANCH   3   4
ATOM      4  C   UNL     1      74.841  -1.962  24.849  1.00  0.00     0.004 C 
BRANCH   4   5
ATOM      5  C   UNL     1      74.548  -3.470  24.735  1.00  0.00     0.000 C 
BRANCH   5   6
ATOM      6  C   UNL     1      74.432  -3.945  23.277  1.00  0.00     0.000 C 
BRANCH   6   7
ATOM      7  C   UNL     1      75.762  -4.476  22.720  1.00  0.00     0.000 C 
BRANCH   7   8
ATOM      8  C   UNL     1      75.711  -5.980  22.403  1.00  0.00     0.006 C 
BRANCH   8   9
ATOM      9  C   UNL     1      75.576  -6.834  23.670  1.00  0.00     0.053 C 
BRANCH   9  10
ATOM     10  C   UNL     1      76.905  -7.342  24.141  1.00  0.00     0.041 C 
ATOM     11  O   UNL     1      77.021  -7.844  25.291  1.00  0.00    -0.550 OA
ATOM     12  O   UNL     1      78.021  -7.234  23.322  1.00  0.00    -0.550 OA
ENDBRANCH   9  10
ENDBRANCH   8   9
ENDBRANCH   7   8
ENDBRANCH   6   7
ENDBRANCH   5   6
ENDBRANCH   4   5
ENDBRANCH   3   4
ENDBRANCH   1   3
BRANCH   2  13
ATOM     13  C   UNL     1      73.714   0.284  27.841  1.00  0.00     0.027 C 
BRANCH  13  14
ATOM     14  C   UNL     1      72.277   0.504  27.346  1.00  0.00     0.004 C 
BRANCH  14  15
ATOM     15  C   UNL     1      72.021  -0.106  25.956  1.00  0.00     0.000 C 
BRANCH  15  16
ATOM     16  C   UNL     1      70.763  -0.986  25.848  1.00  0.00     0.000 C 
BRANCH  16  17
ATOM     17  C   UNL     1      71.089  -2.465  25.581  1.00  0.00    -0.000 C 
BRANCH  17  18
ATOM     18  C   UNL     1      71.175  -3.303  26.872  1.00  0.00    -0.000 C 
BRANCH  18  19
ATOM     19  C   UNL     1      70.251  -2.841  28.012  1.00  0.00    -0.003 C 
ATOM     20  C   UNL     1      68.814  -3.333  27.857  1.00  0.00     0.004 C 
ENDBRANCH  18  19
ENDBRANCH  17  18
ENDBRANCH  16  17
ENDBRANCH  15  16
ENDBRANCH  14  15
ENDBRANCH  13  14
ENDBRANCH   2  13
TORSDOF 15
ENDMDL
MODEL 9
REMARK VINA RESULT:    -5.460      3.560      4.647
REMARK INTER + INTRA:         -12.337
REMARK INTER:                 -10.025
REMARK INTRA:                  -2.312
REMARK UNBOUND:                -2.090
REMARK SMILES CCCCCCCCC=CCCCCCCCC(=O)[O-]
REMARK SMILES IDX 10 1 9 2 11 3 12 4 13 5 14 6 15 7 16 8 17 9 18 10 19 11
REMARK SMILES IDX 20 12 8 13 7 14 6 15 5 16 4 17 3 18 2 19 1 20
REMARK H PARENT
REMARK Flexibility Score: inf
ROOT
ATOM      1  C   UNL     1      74.012   0.709  27.245  1.00  0.00    -0.031 C 
ATOM      2  C   UNL     1      73.866  -0.310  28.110  1.00  0.00    -0.031 C 
ENDROOT
BRANCH   1   3
ATOM      3  C   UNL     1      75.053   0.768  26.153  1.00  0.00     0.027 C 
BRANCH   3   4
ATOM      4  C   UNL     1      74.427   0.693  24.749  1.00  0.00     0.004 C 
BRANCH   4   5
ATOM      5  C   UNL     1      73.861  -0.692  24.384  1.00  0.00     0.000 C 
BRANCH   5   6
ATOM      6  C   UNL     1      72.668  -0.611  23.418  1.00  0.00     0.000 C 
BRANCH   6   7
ATOM      7  C   UNL     1      72.524  -1.869  22.547  1.00  0.00     0.000 C 
BRANCH   7   8
ATOM      8  C   UNL     1      71.055  -2.251  22.299  1.00  0.00     0.006 C 
BRANCH   8   9
ATOM      9  C   UNL     1      70.813  -3.757  22.460  1.00  0.00     0.053 C 
BRANCH   9  10
ATOM     10  C   UNL     1      71.232  -4.521  21.241  1.00  0.00     0.041 C 
ATOM     11  O   UNL     1      71.207  -3.973  20.108  1.00  0.00    -0.550 OA
ATOM     12  O   UNL     1      71.622  -5.850  21.354  1.00  0.00    -0.550 OA
ENDBRANCH   9  10
ENDBRANCH   8   9
ENDBRANCH   7   8
ENDBRANCH   6   7
ENDBRANCH   5   6
ENDBRANCH   4   5
ENDBRANCH   3   4
ENDBRANCH   1   3
BRANCH   2  13
ATOM     13  C   UNL     1      74.779  -1.508  28.183  1.00  0.00     0.027 C 
BRANCH  13  14
ATOM     14  C   UNL     1      74.188  -2.689  27.398  1.00  0.00     0.004 C 
BRANCH  14  15
ATOM     15  C   UNL     1      72.654  -2.765  27.494  1.00  0.00     0.000 C 
BRANCH  15  16
ATOM     16  C   UNL     1      71.929  -3.077  26.172  1.00  0.00     0.000 C 
BRANCH  16  17
ATOM     17  C   UNL     1      70.574  -2.360  26.049  1.00  0.00    -0.000 C 
BRANCH  17  18
ATOM     18  C   UNL     1      70.264  -1.454  27.257  1.00  0.00    -0.000 C 
BRANCH  18  19
ATOM     19  C   UNL     1      69.359  -2.085  28.329  1.00  0.00    -0.003 C 
ATOM     20  C   UNL     1      68.636  -3.340  27.843  1.00  0.00     0.004 C 
ENDBRANCH  18  19
ENDBRANCH  17  18
ENDBRANCH  16  17
ENDBRANCH  15  16
ENDBRANCH  14  15
ENDBRANCH  13  14
ENDBRANCH   2  13
TORSDOF 15
ENDMDL
