MODEL 1
REMARK VINA RESULT:    -5.223      0.000      0.000
REMARK INTER + INTRA:         -10.942
REMARK INTER:                  -9.804
REMARK INTRA:                  -1.138
REMARK UNBOUND:                -1.138
REMARK SMILES CCCCCCCCC=CCCCCCCCC(=O)[O-]
REMARK SMILES IDX 10 1 9 2 11 3 12 4 13 5 14 6 15 7 16 8 17 9 18 10 19 11
REMARK SMILES IDX 20 12 8 13 7 14 6 15 5 16 4 17 3 18 2 19 1 20
REMARK H PARENT
REMARK Flexibility Score: inf
ROOT
ATOM      1  C   UNL     1     -17.630  -2.472   2.759  1.00  0.00    -0.031 C 
ATOM      2  C   UNL     1     -18.054  -1.283   3.222  1.00  0.00    -0.031 C 
ENDROOT
BRANCH   1   3
ATOM      3  C   UNL     1     -18.032  -3.809   3.335  1.00  0.00     0.027 C 
BRANCH   3   4
ATOM      4  C   UNL     1     -16.821  -4.712   3.624  1.00  0.00     0.004 C 
BRANCH   4   5
ATOM      5  C   UNL     1     -15.735  -4.066   4.510  1.00  0.00     0.000 C 
BRANCH   5   6
ATOM      6  C   UNL     1     -16.177  -3.743   5.948  1.00  0.00     0.000 C 
BRANCH   6   7
ATOM      7  C   UNL     1     -16.414  -5.005   6.797  1.00  0.00     0.000 C 
BRANCH   7   8
ATOM      8  C   UNL     1     -17.887  -5.176   7.216  1.00  0.00     0.006 C 
BRANCH   8   9
ATOM      9  C   UNL     1     -18.070  -5.882   8.570  1.00  0.00     0.053 C 
BRANCH   9  10
ATOM     10  C   UNL     1     -19.228  -5.338   9.349  1.00  0.00     0.041 C 
ATOM     11  O   UNL     1     -19.819  -4.297   8.961  1.00  0.00    -0.550 OA
ATOM     12  O   UNL     1     -19.647  -5.976  10.510  1.00  0.00    -0.550 OA
ENDBRANCH   9  10
ENDBRANCH   8   9
ENDBRANCH   7   8
ENDBRANCH   6   7
ENDBRANCH   5   6
ENDBRANCH   4   5
ENDBRANCH   3   4
ENDBRANCH   1   3
BRANCH   2  13
ATOM     13  C   UNL     1     -19.032  -1.131   4.361  1.00  0.00     0.027 C 
BRANCH  13  14
ATOM     14  C   UNL     1     -19.447   0.336   4.543  1.00  0.00     0.004 C 
BRANCH  14  15
ATOM     15  C   UNL     1     -19.505   1.096   3.201  1.00  0.00     0.000 C 
BRANCH  15  16
ATOM     16  C   UNL     1     -18.775   2.450   3.224  1.00  0.00     0.000 C 
BRANCH  16  17
ATOM     17  C   UNL     1     -19.571   3.568   2.531  1.00  0.00    -0.000 C 
BRANCH  17  18
ATOM     18  C   UNL     1     -20.347   4.456   3.523  1.00  0.00    -0.000 C 
BRANCH  18  19
ATOM     19  C   UNL     1     -20.796   5.819   2.966  1.00  0.00    -0.003 C 
ATOM     20  C   UNL     1     -19.825   6.951   3.298  1.00  0.00     0.004 C 
ENDBRANCH  18  19
ENDBRANCH  17  18
ENDBRANCH  16  17
ENDBRANCH  15  16
ENDBRANCH  14  15
ENDBRANCH  13  14
ENDBRANCH   2  13
TORSDOF 15
ENDMDL
MODEL 2
REMARK VINA RESULT:    -5.180      4.470      9.530
REMARK INTER + INTRA:         -10.860
REMARK INTER:                  -9.948
REMARK INTRA:                  -0.912
REMARK UNBOUND:                -1.138
REMARK SMILES CCCCCCCCC=CCCCCCCCC(=O)[O-]
REMARK SMILES IDX 10 1 9 2 11 3 12 4 13 5 14 6 15 7 16 8 17 9 18 10 19 11
REMARK SMILES IDX 20 12 8 13 7 14 6 15 5 16 4 17 3 18 2 19 1 20
REMARK H PARENT
REMARK Flexibility Score: inf
ROOT
ATOM      1  C   UNL     1     -16.985  -1.774   3.648  1.00  0.00    -0.031 C 
ATOM      2  C   UNL     1     -16.812  -3.099   3.501  1.00  0.00    -0.031 C 
ENDROOT
BRANCH   1   3
ATOM      3  C   UNL     1     -18.117  -0.984   3.037  1.00  0.00     0.027 C 
BRANCH   3   4
ATOM      4  C   UNL     1     -19.200  -0.618   4.066  1.00  0.00     0.004 C 
BRANCH   4   5
ATOM      5  C   UNL     1     -19.342   0.894   4.339  1.00  0.00     0.000 C 
BRANCH   5   6
ATOM      6  C   UNL     1     -18.536   1.803   3.395  1.00  0.00     0.000 C 
BRANCH   6   7
ATOM      7  C   UNL     1     -19.389   2.926   2.777  1.00  0.00     0.000 C 
BRANCH   7   8
ATOM      8  C   UNL     1     -19.358   4.225   3.604  1.00  0.00     0.006 C 
BRANCH   8   9
ATOM      9  C   UNL     1     -20.684   5.003   3.588  1.00  0.00     0.053 C 
BRANCH   9  10
ATOM     10  C   UNL     1     -20.515   6.416   3.121  1.00  0.00     0.041 C 
ATOM     11  O   UNL     1     -19.501   7.079   3.463  1.00  0.00    -0.550 OA
ATOM     12  O   UNL     1     -21.483   7.005   2.317  1.00  0.00    -0.550 OA
ENDBRANCH   9  10
ENDBRANCH   8   9
ENDBRANCH   7   8
ENDBRANCH   6   7
ENDBRANCH   5   6
ENDBRANCH   4   5
ENDBRANCH   3   4
ENDBRANCH   1   3
BRANCH   2  13
ATOM     13  C   UNL     1     -17.763  -3.985   2.734  1.00  0.00     0.027 C 
BRANCH  13  14
ATOM     14  C   UNL     1     -18.402  -5.038   3.652  1.00  0.00     0.004 C 
BRANCH  14  15
ATOM     15  C   UNL     1     -17.557  -5.297   4.917  1.00  0.00     0.000 C 
BRANCH  15  16
ATOM     16  C   UNL     1     -18.270  -4.914   6.226  1.00  0.00     0.000 C 
BRANCH  16  17
ATOM     17  C   UNL     1     -17.391  -5.131   7.469  1.00  0.00    -0.000 C 
BRANCH  17  18
ATOM     18  C   UNL     1     -18.108  -5.919   8.581  1.00  0.00    -0.000 C 
BRANCH  18  19
ATOM     19  C   UNL     1     -18.849  -5.057   9.618  1.00  0.00    -0.003 C 
ATOM     20  C   UNL     1     -19.817  -5.862  10.486  1.00  0.00     0.004 C 
ENDBRANCH  18  19
ENDBRANCH  17  18
ENDBRANCH  16  17
ENDBRANCH  15  16
ENDBRANCH  14  15
ENDBRANCH  13  14
ENDBRANCH   2  13
TORSDOF 15
ENDMDL
MODEL 3
REMARK VINA RESULT:    -5.062      3.030      3.614
REMARK INTER + INTRA:         -10.640
REMARK INTER:                  -9.532
REMARK INTRA:                  -1.107
REMARK UNBOUND:                -1.138
REMARK SMILES CCCCCCCCC=CCCCCCCCC(=O)[O-]
REMARK SMILES IDX 10 1 9 2 11 3 12 4 13 5 14 6 15 7 16 8 17 9 18 10 19 11
REMARK SMILES IDX 20 12 8 13 7 14 6 15 5 16 4 17 3 18 2 19 1 20
REMARK H PARENT
REMARK Flexibility Score: inf
ROOT
ATOM      1  C   UNL     1     -17.885  -2.738   3.658  1.00  0.00    -0.031 C 
ATOM      2  C   UNL     1     -18.122  -1.416   3.719  1.00  0.00    -0.031 C 
ENDROOT
BRANCH   1   3
ATOM      3  C   UNL     1     -18.870  -3.805   4.071  1.00  0.00     0.027 C 
BRANCH   3   4
ATOM      4  C   UNL     1     -18.218  -4.908   4.923  1.00  0.00     0.004 C 
BRANCH   4   5
ATOM      5  C   UNL     1     -16.703  -4.731   5.154  1.00  0.00     0.000 C 
BRANCH   5   6
ATOM      6  C   UNL     1     -16.300  -4.413   6.604  1.00  0.00     0.000 C 
BRANCH   6   7
ATOM      7  C   UNL     1     -15.199  -3.341   6.697  1.00  0.00     0.000 C 
BRANCH   7   8
ATOM      8  C   UNL     1     -13.851  -3.817   6.122  1.00  0.00     0.006 C 
BRANCH   8   9
ATOM      9  C   UNL     1     -13.212  -4.972   6.912  1.00  0.00     0.053 C 
BRANCH   9  10
ATOM     10  C   UNL     1     -12.219  -4.494   7.926  1.00  0.00     0.041 C 
ATOM     11  O   UNL     1     -12.141  -5.055   9.049  1.00  0.00    -0.550 OA
ATOM     12  O   UNL     1     -11.387  -3.420   7.633  1.00  0.00    -0.550 OA
ENDBRANCH   9  10
ENDBRANCH   8   9
ENDBRANCH   7   8
ENDBRANCH   6   7
ENDBRANCH   5   6
ENDBRANCH   4   5
ENDBRANCH   3   4
ENDBRANCH   1   3
BRANCH   2  13
ATOM     13  C   UNL     1     -19.433  -0.823   4.170  1.00  0.00     0.027 C 
BRANCH  13  14
ATOM     14  C   UNL     1     -19.323   0.700   4.344  1.00  0.00     0.004 C 
BRANCH  14  15
ATOM     15  C   UNL     1     -18.015   1.261   3.746  1.00  0.00     0.000 C 
BRANCH  15  16
ATOM     16  C   UNL     1     -18.239   2.232   2.573  1.00  0.00     0.000 C 
BRANCH  16  17
ATOM     17  C   UNL     1     -19.600   2.944   2.640  1.00  0.00    -0.000 C 
BRANCH  17  18
ATOM     18  C   UNL     1     -19.561   4.234   3.481  1.00  0.00    -0.000 C 
BRANCH  18  19
ATOM     19  C   UNL     1     -20.811   5.125   3.366  1.00  0.00    -0.003 C 
ATOM     20  C   UNL     1     -20.601   6.339   2.461  1.00  0.00     0.004 C 
ENDBRANCH  18  19
ENDBRANCH  17  18
ENDBRANCH  16  17
ENDBRANCH  15  16
ENDBRANCH  14  15
ENDBRANCH  13  14
ENDBRANCH   2  13
TORSDOF 15
ENDMDL
MODEL 4
REMARK VINA RESULT:    -4.980      1.558      2.121
REMARK INTER + INTRA:         -10.486
REMARK INTER:                  -9.325
REMARK INTRA:                  -1.161
REMARK UNBOUND:                -1.138
REMARK SMILES CCCCCCCCC=CCCCCCCCC(=O)[O-]
REMARK SMILES IDX 10 1 9 2 11 3 12 4 13 5 14 6 15 7 16 8 17 9 18 10 19 11
REMARK SMILES IDX 20 12 8 13 7 14 6 15 5 16 4 17 3 18 2 19 1 20
REMARK H PARENT
REMARK Flexibility Score: inf
ROOT
ATOM      1  C   UNL     1     -16.289  -1.937   4.677  1.00  0.00    -0.031 C 
ATOM      2  C   UNL     1     -16.099  -0.663   5.063  1.00  0.00    -0.031 C 
ENDROOT
BRANCH   1   3
ATOM      3  C   UNL     1     -17.355  -2.388   3.709  1.00  0.00     0.027 C 
BRANCH   3   4
ATOM      4  C   UNL     1     -18.764  -2.345   4.324  1.00  0.00     0.004 C 
BRANCH   4   5
ATOM      5  C   UNL     1     -19.185  -3.636   5.058  1.00  0.00     0.000 C 
BRANCH   5   6
ATOM      6  C   UNL     1     -18.550  -4.928   4.515  1.00  0.00     0.000 C 
BRANCH   6   7
ATOM      7  C   UNL     1     -17.831  -5.743   5.605  1.00  0.00     0.000 C 
BRANCH   7   8
ATOM      8  C   UNL     1     -17.864  -5.058   6.984  1.00  0.00     0.006 C 
BRANCH   8   9
ATOM      9  C   UNL     1     -18.213  -6.008   8.142  1.00  0.00     0.053 C 
BRANCH   9  10
ATOM     10  C   UNL     1     -18.995  -5.331   9.225  1.00  0.00     0.041 C 
ATOM     11  O   UNL     1     -19.971  -5.916   9.762  1.00  0.00    -0.550 OA
ATOM     12  O   UNL     1     -18.651  -4.048   9.634  1.00  0.00    -0.550 OA
ENDBRANCH   9  10
ENDBRANCH   8   9
ENDBRANCH   7   8
ENDBRANCH   6   7
ENDBRANCH   5   6
ENDBRANCH   4   5
ENDBRANCH   3   4
ENDBRANCH   1   3
BRANCH   2  13
ATOM     13  C   UNL     1     -16.906   0.498   4.538  1.00  0.00     0.027 C 
BRANCH  13  14
ATOM     14  C   UNL     1     -16.375   0.973   3.177  1.00  0.00     0.004 C 
BRANCH  14  15
ATOM     15  C   UNL     1     -17.302   2.020   2.523  1.00  0.00     0.000 C 
BRANCH  15  16
ATOM     16  C   UNL     1     -18.787   1.616   2.522  1.00  0.00     0.000 C 
BRANCH  16  17
ATOM     17  C   UNL     1     -19.731   2.820   2.368  1.00  0.00    -0.000 C 
BRANCH  17  18
ATOM     18  C   UNL     1     -19.449   3.938   3.389  1.00  0.00    -0.000 C 
BRANCH  18  19
ATOM     19  C   UNL     1     -20.586   4.960   3.570  1.00  0.00    -0.003 C 
ATOM     20  C   UNL     1     -20.185   6.380   3.173  1.00  0.00     0.004 C 
ENDBRANCH  18  19
ENDBRANCH  17  18
ENDBRANCH  16  17
ENDBRANCH  15  16
ENDBRANCH  14  15
ENDBRANCH  13  14
ENDBRANCH   2  13
TORSDOF 15
ENDMDL
MODEL 5
REMARK VINA RESULT:    -4.914      4.239      7.803
REMARK INTER + INTRA:         -10.360
REMARK INTER:                  -8.127
REMARK INTRA:                  -2.234
REMARK UNBOUND:                -1.138
REMARK SMILES CCCCCCCCC=CCCCCCCCC(=O)[O-]
REMARK SMILES IDX 10 1 9 2 11 3 12 4 13 5 14 6 15 7 16 8 17 9 18 10 19 11
REMARK SMILES IDX 20 12 8 13 7 14 6 15 5 16 4 17 3 18 2 19 1 20
REMARK H PARENT
REMARK Flexibility Score: inf
ROOT
ATOM      1  C   UNL     1     -15.726  -2.190   5.148  1.00  0.00    -0.031 C 
ATOM      2  C   UNL     1     -14.912  -2.848   5.992  1.00  0.00    -0.031 C 
ENDROOT
BRANCH   1   3
ATOM      3  C   UNL     1     -16.363  -2.799   3.922  1.00  0.00     0.027 C 
BRANCH   3   4
ATOM      4  C   UNL     1     -17.899  -2.718   3.956  1.00  0.00     0.004 C 
BRANCH   4   5
ATOM      5  C   UNL     1     -18.583  -3.820   4.793  1.00  0.00     0.000 C 
BRANCH   5   6
ATOM      6  C   UNL     1     -18.038  -5.241   4.565  1.00  0.00     0.000 C 
BRANCH   6   7
ATOM      7  C   UNL     1     -17.949  -6.061   5.865  1.00  0.00     0.000 C 
BRANCH   7   8
ATOM      8  C   UNL     1     -17.906  -5.179   7.127  1.00  0.00     0.006 C 
BRANCH   8   9
ATOM      9  C   UNL     1     -18.177  -5.948   8.431  1.00  0.00     0.053 C 
BRANCH   9  10
ATOM     10  C   UNL     1     -19.179  -5.259   9.306  1.00  0.00     0.041 C 
ATOM     11  O   UNL     1     -19.830  -4.274   8.869  1.00  0.00    -0.550 OA
ATOM     12  O   UNL     1     -19.385  -5.697  10.608  1.00  0.00    -0.550 OA
ENDBRANCH   9  10
ENDBRANCH   8   9
ENDBRANCH   7   8
ENDBRANCH   6   7
ENDBRANCH   5   6
ENDBRANCH   4   5
ENDBRANCH   3   4
ENDBRANCH   1   3
BRANCH   2  13
ATOM     13  C   UNL     1     -14.563  -4.309   5.846  1.00  0.00     0.027 C 
BRANCH  13  14
ATOM     14  C   UNL     1     -14.145  -4.916   7.194  1.00  0.00     0.004 C 
BRANCH  14  15
ATOM     15  C   UNL     1     -12.916  -4.203   7.798  1.00  0.00     0.000 C 
BRANCH  15  16
ATOM     16  C   UNL     1     -11.872  -5.166   8.391  1.00  0.00     0.000 C 
BRANCH  16  17
ATOM     17  C   UNL     1     -10.460  -4.933   7.829  1.00  0.00    -0.000 C 
BRANCH  17  18
ATOM     18  C   UNL     1     -10.461  -4.110   6.527  1.00  0.00    -0.000 C 
BRANCH  18  19
ATOM     19  C   UNL     1     -10.128  -4.905   5.252  1.00  0.00    -0.003 C 
ATOM     20  C   UNL     1     -11.231  -5.883   4.849  1.00  0.00     0.004 C 
ENDBRANCH  18  19
ENDBRANCH  17  18
ENDBRANCH  16  17
ENDBRANCH  15  16
ENDBRANCH  14  15
ENDBRANCH  13  14
ENDBRANCH   2  13
TORSDOF 15
ENDMDL
MODEL 6
REMARK VINA RESULT:    -4.908      4.941      7.334
REMARK INTER + INTRA:         -10.350
REMARK INTER:                  -8.277
REMARK INTRA:                  -2.073
REMARK UNBOUND:                -1.138
REMARK SMILES CCCCCCCCC=CCCCCCCCC(=O)[O-]
REMARK SMILES IDX 10 1 9 2 11 3 12 4 13 5 14 6 15 7 16 8 17 9 18 10 19 11
REMARK SMILES IDX 20 12 8 13 7 14 6 15 5 16 4 17 3 18 2 19 1 20
REMARK H PARENT
REMARK Flexibility Score: inf
ROOT
ATOM      1  C   UNL     1     -16.370  -1.922   3.281  1.00  0.00    -0.031 C 
ATOM      2  C   UNL     1     -17.623  -2.379   3.111  1.00  0.00    -0.031 C 
ENDROOT
BRANCH   1   3
ATOM      3  C   UNL     1     -15.866  -1.251   4.536  1.00  0.00     0.027 C 
BRANCH   3   4
ATOM      4  C   UNL     1     -14.531  -1.840   5.022  1.00  0.00     0.004 C 
BRANCH   4   5
ATOM      5  C   UNL     1     -14.126  -3.164   4.340  1.00  0.00     0.000 C 
BRANCH   5   6
ATOM      6  C   UNL     1     -14.452  -4.435   5.144  1.00  0.00     0.000 C 
BRANCH   6   7
ATOM      7  C   UNL     1     -14.374  -4.215   6.665  1.00  0.00     0.000 C 
BRANCH   7   8
ATOM      8  C   UNL     1     -13.325  -5.114   7.347  1.00  0.00     0.006 C 
BRANCH   8   9
ATOM      9  C   UNL     1     -12.286  -4.339   8.174  1.00  0.00     0.053 C 
BRANCH   9  10
ATOM     10  C   UNL     1     -11.057  -4.006   7.385  1.00  0.00     0.041 C 
ATOM     11  O   UNL     1      -9.976  -4.610   7.612  1.00  0.00    -0.550 OA
ATOM     12  O   UNL     1     -11.104  -3.022   6.406  1.00  0.00    -0.550 OA
ENDBRANCH   9  10
ENDBRANCH   8   9
ENDBRANCH   7   8
ENDBRANCH   6   7
ENDBRANCH   5   6
ENDBRANCH   4   5
ENDBRANCH   3   4
ENDBRANCH   1   3
BRANCH   2  13
ATOM     13  C   UNL     1     -18.686  -2.320   4.179  1.00  0.00     0.027 C 
BRANCH  13  14
ATOM     14  C   UNL     1     -19.231  -3.721   4.498  1.00  0.00     0.004 C 
BRANCH  14  15
ATOM     15  C   UNL     1     -18.204  -4.830   4.185  1.00  0.00     0.000 C 
BRANCH  15  16
ATOM     16  C   UNL     1     -17.885  -5.735   5.388  1.00  0.00     0.000 C 
BRANCH  16  17
ATOM     17  C   UNL     1     -17.960  -4.990   6.730  1.00  0.00    -0.000 C 
BRANCH  17  18
ATOM     18  C   UNL     1     -17.790  -5.922   7.944  1.00  0.00    -0.000 C 
BRANCH  18  19
ATOM     19  C   UNL     1     -18.917  -5.843   8.991  1.00  0.00    -0.003 C 
ATOM     20  C   UNL     1     -18.942  -4.514   9.746  1.00  0.00     0.004 C 
ENDBRANCH  18  19
ENDBRANCH  17  18
ENDBRANCH  16  17
ENDBRANCH  15  16
ENDBRANCH  14  15
ENDBRANCH  13  14
ENDBRANCH   2  13
TORSDOF 15
ENDMDL
MODEL 7
REMARK VINA RESULT:    -4.863      1.769      2.937
REMARK INTER + INTRA:         -10.265
REMARK INTER:                  -8.635
REMARK INTRA:                  -1.630
REMARK UNBOUND:                -1.138
REMARK SMILES CCCCCCCCC=CCCCCCCCC(=O)[O-]
REMARK SMILES IDX 10 1 9 2 11 3 12 4 13 5 14 6 15 7 16 8 17 9 18 10 19 11
REMARK SMILES IDX 20 12 8 13 7 14 6 15 5 16 4 17 3 18 2 19 1 20
REMARK H PARENT
REMARK Flexibility Score: inf
ROOT
ATOM      1  C   UNL     1     -17.900  -2.918   2.888  1.00  0.00    -0.031 C 
ATOM      2  C   UNL     1     -18.108  -1.653   3.294  1.00  0.00    -0.031 C 
ENDROOT
BRANCH   1   3
ATOM      3  C   UNL     1     -18.582  -4.130   3.477  1.00  0.00     0.027 C 
BRANCH   3   4
ATOM      4  C   UNL     1     -17.584  -5.229   3.879  1.00  0.00     0.004 C 
BRANCH   4   5
ATOM      5  C   UNL     1     -16.297  -4.712   4.556  1.00  0.00     0.000 C 
BRANCH   5   6
ATOM      6  C   UNL     1     -16.479  -4.211   5.999  1.00  0.00     0.000 C 
BRANCH   6   7
ATOM      7  C   UNL     1     -17.735  -4.788   6.678  1.00  0.00     0.000 C 
BRANCH   7   8
ATOM      8  C   UNL     1     -17.414  -5.563   7.970  1.00  0.00     0.006 C 
BRANCH   8   9
ATOM      9  C   UNL     1     -18.647  -6.197   8.636  1.00  0.00     0.053 C 
BRANCH   9  10
ATOM     10  C   UNL     1     -19.138  -5.404   9.808  1.00  0.00     0.041 C 
ATOM     11  O   UNL     1     -19.806  -5.963  10.716  1.00  0.00    -0.550 OA
ATOM     12  O   UNL     1     -18.866  -4.044   9.891  1.00  0.00    -0.550 OA
ENDBRANCH   9  10
ENDBRANCH   8   9
ENDBRANCH   7   8
ENDBRANCH   6   7
ENDBRANCH   5   6
ENDBRANCH   4   5
ENDBRANCH   3   4
ENDBRANCH   1   3
BRANCH   2  13
ATOM     13  C   UNL     1     -19.094  -1.273   4.370  1.00  0.00     0.027 C 
BRANCH  13  14
ATOM     14  C   UNL     1     -19.349   0.242   4.379  1.00  0.00     0.004 C 
BRANCH  14  15
ATOM     15  C   UNL     1     -19.454   0.823   2.953  1.00  0.00     0.000 C 
BRANCH  15  16
ATOM     16  C   UNL     1     -18.663   2.128   2.757  1.00  0.00     0.000 C 
BRANCH  16  17
ATOM     17  C   UNL     1     -17.238   2.052   3.330  1.00  0.00    -0.000 C 
BRANCH  17  18
ATOM     18  C   UNL     1     -16.154   2.006   2.236  1.00  0.00    -0.000 C 
BRANCH  18  19
ATOM     19  C   UNL     1     -16.391   0.967   1.125  1.00  0.00    -0.003 C 
ATOM     20  C   UNL     1     -15.410  -0.203   1.179  1.00  0.00     0.004 C 
ENDBRANCH  18  19
ENDBRANCH  17  18
ENDBRANCH  16  17
ENDBRANCH  15  16
ENDBRANCH  14  15
ENDBRANCH  13  14
ENDBRANCH   2  13
TORSDOF 15
ENDMDL
MODEL 8
REMARK VINA RESULT:    -4.830      3.812      8.412
REMARK INTER + INTRA:         -10.205
REMARK INTER:                  -8.401
REMARK INTRA:                  -1.803
REMARK UNBOUND:                -1.138
REMARK SMILES CCCCCCCCC=CCCCCCCCC(=O)[O-]
REMARK SMILES IDX 10 1 9 2 11 3 12 4 13 5 14 6 15 7 16 8 17 9 18 10 19 11
REMARK SMILES IDX 20 12 8 13 7 14 6 15 5 16 4 17 3 18 2 19 1 20
REMARK H PARENT
REMARK Flexibility Score: inf
ROOT
ATOM      1  C   UNL     1     -17.467  -4.395   2.183  1.00  0.00    -0.031 C 
ATOM      2  C   UNL     1     -18.397  -5.049   2.900  1.00  0.00    -0.031 C 
ENDROOT
BRANCH   1   3
ATOM      3  C   UNL     1     -16.625  -3.257   2.708  1.00  0.00     0.027 C 
BRANCH   3   4
ATOM      4  C   UNL     1     -17.366  -1.910   2.667  1.00  0.00     0.004 C 
BRANCH   4   5
ATOM      5  C   UNL     1     -17.676  -1.304   4.053  1.00  0.00     0.000 C 
BRANCH   5   6
ATOM      6  C   UNL     1     -19.156  -0.965   4.297  1.00  0.00     0.000 C 
BRANCH   6   7
ATOM      7  C   UNL     1     -19.431   0.549   4.293  1.00  0.00     0.000 C 
BRANCH   7   8
ATOM      8  C   UNL     1     -19.181   1.198   2.917  1.00  0.00     0.006 C 
BRANCH   8   9
ATOM      9  C   UNL     1     -18.289   2.449   2.974  1.00  0.00     0.053 C 
BRANCH   9  10
ATOM     10  C   UNL     1     -16.829   2.113   2.958  1.00  0.00     0.041 C 
ATOM     11  O   UNL     1     -16.337   1.471   1.994  1.00  0.00    -0.550 OA
ATOM     12  O   UNL     1     -16.014   2.501   4.015  1.00  0.00    -0.550 OA
ENDBRANCH   9  10
ENDBRANCH   8   9
ENDBRANCH   7   8
ENDBRANCH   6   7
ENDBRANCH   5   6
ENDBRANCH   4   5
ENDBRANCH   3   4
ENDBRANCH   1   3
BRANCH   2  13
ATOM     13  C   UNL     1     -18.691  -4.758   4.351  1.00  0.00     0.027 C 
BRANCH  13  14
ATOM     14  C   UNL     1     -17.714  -5.501   5.275  1.00  0.00     0.004 C 
BRANCH  14  15
ATOM     15  C   UNL     1     -17.560  -4.801   6.642  1.00  0.00     0.000 C 
BRANCH  15  16
ATOM     16  C   UNL     1     -16.114  -4.386   6.964  1.00  0.00     0.000 C 
BRANCH  16  17
ATOM     17  C   UNL     1     -15.201  -4.397   5.727  1.00  0.00    -0.000 C 
BRANCH  17  18
ATOM     18  C   UNL     1     -13.718  -4.617   6.077  1.00  0.00    -0.000 C 
BRANCH  18  19
ATOM     19  C   UNL     1     -13.421  -4.799   7.577  1.00  0.00    -0.003 C 
ATOM     20  C   UNL     1     -12.312  -5.815   7.849  1.00  0.00     0.004 C 
ENDBRANCH  18  19
ENDBRANCH  17  18
ENDBRANCH  16  17
ENDBRANCH  15  16
ENDBRANCH  14  15
ENDBRANCH  13  14
ENDBRANCH   2  13
TORSDOF 15
ENDMDL
MODEL 9
REMARK VINA RESULT:    -4.828      4.576      8.634
REMARK INTER + INTRA:         -10.199
REMARK INTER:                  -7.450
REMARK INTRA:                  -2.750
REMARK UNBOUND:                -1.138
REMARK SMILES CCCCCCCCC=CCCCCCCCC(=O)[O-]
REMARK SMILES IDX 10 1 9 2 11 3 12 4 13 5 14 6 15 7 16 8 17 9 18 10 19 11
REMARK SMILES IDX 20 12 8 13 7 14 6 15 5 16 4 17 3 18 2 19 1 20
REMARK H PARENT
REMARK Flexibility Score: inf
ROOT
ATOM      1  C   UNL     1     -17.427  -1.341   4.377  1.00  0.00    -0.031 C 
ATOM      2  C   UNL     1     -16.497  -1.758   3.500  1.00  0.00    -0.031 C 
ENDROOT
BRANCH   1   3
ATOM      3  C   UNL     1     -18.900  -1.217   4.068  1.00  0.00     0.027 C 
BRANCH   3   4
ATOM      4  C   UNL     1     -19.375   0.246   4.048  1.00  0.00     0.004 C 
BRANCH   4   5
ATOM      5  C   UNL     1     -19.434   0.884   2.644  1.00  0.00     0.000 C 
BRANCH   5   6
ATOM      6  C   UNL     1     -18.663   2.208   2.499  1.00  0.00     0.000 C 
BRANCH   6   7
ATOM      7  C   UNL     1     -17.474   2.316   3.471  1.00  0.00     0.000 C 
BRANCH   7   8
ATOM      8  C   UNL     1     -16.124   1.997   2.802  1.00  0.00     0.006 C 
BRANCH   8   9
ATOM      9  C   UNL     1     -16.255   1.415   1.385  1.00  0.00     0.053 C 
BRANCH   9  10
ATOM     10  C   UNL     1     -15.209   1.939   0.450  1.00  0.00     0.041 C 
ATOM     11  O   UNL     1     -15.251   3.135   0.059  1.00  0.00    -0.550 OA
ATOM     12  O   UNL     1     -14.194   1.103   0.001  1.00  0.00    -0.550 OA
ENDBRANCH   9  10
ENDBRANCH   8   9
ENDBRANCH   7   8
ENDBRANCH   6   7
ENDBRANCH   5   6
ENDBRANCH   4   5
ENDBRANCH   3   4
ENDBRANCH   1   3
BRANCH   2  13
ATOM     13  C   UNL     1     -16.815  -2.204   2.094  1.00  0.00     0.027 C 
BRANCH  13  14
ATOM     14  C   UNL     1     -16.669  -3.726   1.948  1.00  0.00     0.004 C 
BRANCH  14  15
ATOM     15  C   UNL     1     -17.861  -4.486   2.568  1.00  0.00     0.000 C 
BRANCH  15  16
ATOM     16  C   UNL     1     -17.455  -5.477   3.674  1.00  0.00     0.000 C 
BRANCH  16  17
ATOM     17  C   UNL     1     -18.263  -5.287   4.969  1.00  0.00    -0.000 C 
BRANCH  17  18
ATOM     18  C   UNL     1     -17.415  -4.732   6.129  1.00  0.00    -0.000 C 
BRANCH  18  19
ATOM     19  C   UNL     1     -15.911  -4.593   5.831  1.00  0.00    -0.003 C 
ATOM     20  C   UNL     1     -15.249  -3.455   6.607  1.00  0.00     0.004 C 
ENDBRANCH  18  19
ENDBRANCH  17  18
ENDBRANCH  16  17
ENDBRANCH  15  16
ENDBRANCH  14  15
ENDBRANCH  13  14
ENDBRANCH   2  13
TORSDOF 15
ENDMDL
