MODEL 1
REMARK VINA RESULT:    -2.980      0.000      0.000
REMARK INTER + INTRA:          -3.602
REMARK INTER:                  -3.590
REMARK INTRA:                  -0.012
REMARK UNBOUND:                -0.012
REMARK SMILES CCCCCO
REMARK SMILES IDX 4 1 3 2 2 3 1 4 5 5 6 6
REMARK H PARENT 6 7
REMARK Flexibility Score: inf
ROOT
ATOM      1  C   UNL     1     160.395 165.664 167.826  1.00  0.00     0.028 C 
ENDROOT
BRANCH   1   2
ATOM      2  C   UNL     1     160.664 164.277 168.430  1.00  0.00     0.002 C 
BRANCH   2   3
ATOM      3  C   UNL     1     160.729 163.173 167.364  1.00  0.00    -0.003 C 
ATOM      4  C   UNL     1     161.522 161.950 167.824  1.00  0.00     0.004 C 
ENDBRANCH   2   3
ENDBRANCH   1   2
BRANCH   1   5
ATOM      5  C   UNL     1     159.305 166.402 168.608  1.00  0.00     0.156 C 
BRANCH   5   6
ATOM      6  O   UNL     1     159.637 166.455 169.968  1.00  0.00    -0.396 OA
ATOM      7  H   UNL     1     160.523 166.019 170.061  1.00  0.00     0.210 HD
ENDBRANCH   5   6
ENDBRANCH   1   5
TORSDOF 4
ENDMDL
MODEL 2
REMARK VINA RESULT:    -2.894     13.126     13.624
REMARK INTER + INTRA:          -3.497
REMARK INTER:                  -3.421
REMARK INTRA:                  -0.077
REMARK UNBOUND:                -0.012
REMARK SMILES CCCCCO
REMARK SMILES IDX 4 1 3 2 2 3 1 4 5 5 6 6
REMARK H PARENT 6 7
REMARK Flexibility Score: inf
ROOT
ATOM      1  C   UNL     1     163.374 178.653 167.814  1.00  0.00     0.028 C 
ENDROOT
BRANCH   1   2
ATOM      2  C   UNL     1     164.685 177.952 168.203  1.00  0.00     0.002 C 
BRANCH   2   3
ATOM      3  C   UNL     1     165.158 176.954 167.135  1.00  0.00    -0.003 C 
ATOM      4  C   UNL     1     164.235 176.907 165.917  1.00  0.00     0.004 C 
ENDBRANCH   2   3
ENDBRANCH   1   2
BRANCH   1   5
ATOM      5  C   UNL     1     162.355 178.584 168.955  1.00  0.00     0.156 C 
BRANCH   5   6
ATOM      6  O   UNL     1     162.634 177.492 169.788  1.00  0.00    -0.396 OA
ATOM      7  H   UNL     1     163.572 177.599 170.092  1.00  0.00     0.210 HD
ENDBRANCH   5   6
ENDBRANCH   1   5
TORSDOF 4
ENDMDL
MODEL 3
REMARK VINA RESULT:    -2.777     13.431     14.202
REMARK INTER + INTRA:          -3.357
REMARK INTER:                  -3.258
REMARK INTRA:                  -0.099
REMARK UNBOUND:                -0.012
REMARK SMILES CCCCCO
REMARK SMILES IDX 4 1 3 2 2 3 1 4 5 5 6 6
REMARK H PARENT 6 7
REMARK Flexibility Score: inf
ROOT
ATOM      1  C   UNL     1     164.854 177.852 167.901  1.00  0.00     0.028 C 
ENDROOT
BRANCH   1   2
ATOM      2  C   UNL     1     164.168 179.225 167.841  1.00  0.00     0.002 C 
BRANCH   2   3
ATOM      3  C   UNL     1     162.672 179.151 168.186  1.00  0.00    -0.003 C 
ATOM      4  C   UNL     1     162.371 178.162 169.311  1.00  0.00     0.004 C 
ENDBRANCH   2   3
ENDBRANCH   1   2
BRANCH   1   5
ATOM      5  C   UNL     1     164.932 177.216 166.510  1.00  0.00     0.156 C 
BRANCH   5   6
ATOM      6  O   UNL     1     163.937 176.239 166.367  1.00  0.00    -0.396 OA
ATOM      7  H   UNL     1     164.292 175.410 166.780  1.00  0.00     0.210 HD
ENDBRANCH   5   6
ENDBRANCH   1   5
TORSDOF 4
ENDMDL
MODEL 4
REMARK VINA RESULT:    -2.720     13.748     14.539
REMARK INTER + INTRA:          -3.288
REMARK INTER:                  -3.278
REMARK INTRA:                  -0.010
REMARK UNBOUND:                -0.012
REMARK SMILES CCCCCO
REMARK SMILES IDX 4 1 3 2 2 3 1 4 5 5 6 6
REMARK H PARENT 6 7
REMARK Flexibility Score: inf
ROOT
ATOM      1  C   UNL     1     164.539 178.048 168.233  1.00  0.00     0.028 C 
ENDROOT
BRANCH   1   2
ATOM      2  C   UNL     1     163.064 178.447 168.073  1.00  0.00     0.002 C 
BRANCH   2   3
ATOM      3  C   UNL     1     162.292 178.393 169.400  1.00  0.00    -0.003 C 
ATOM      4  C   UNL     1     160.907 177.764 169.254  1.00  0.00     0.004 C 
ENDBRANCH   2   3
ENDBRANCH   1   2
BRANCH   1   5
ATOM      5  C   UNL     1     165.456 179.024 167.491  1.00  0.00     0.156 C 
BRANCH   5   6
ATOM      6  O   UNL     1     166.737 178.473 167.351  1.00  0.00    -0.396 OA
ATOM      7  H   UNL     1     166.993 178.119 168.242  1.00  0.00     0.210 HD
ENDBRANCH   5   6
ENDBRANCH   1   5
TORSDOF 4
ENDMDL
MODEL 5
REMARK VINA RESULT:    -2.693     12.877     13.714
REMARK INTER + INTRA:          -3.256
REMARK INTER:                  -3.211
REMARK INTRA:                  -0.045
REMARK UNBOUND:                -0.012
REMARK SMILES CCCCCO
REMARK SMILES IDX 4 1 3 2 2 3 1 4 5 5 6 6
REMARK H PARENT 6 7
REMARK Flexibility Score: inf
ROOT
ATOM      1  C   UNL     1     164.475 177.397 165.263  1.00  0.00     0.028 C 
ENDROOT
BRANCH   1   2
ATOM      2  C   UNL     1     164.926 176.754 166.583  1.00  0.00     0.002 C 
BRANCH   2   3
ATOM      3  C   UNL     1     164.947 177.755 167.748  1.00  0.00    -0.003 C 
ATOM      4  C   UNL     1     165.948 178.890 167.537  1.00  0.00     0.004 C 
ENDBRANCH   2   3
ENDBRANCH   1   2
BRANCH   1   5
ATOM      5  C   UNL     1     163.216 176.715 164.721  1.00  0.00     0.156 C 
BRANCH   5   6
ATOM      6  O   UNL     1     162.643 175.901 165.708  1.00  0.00    -0.396 OA
ATOM      7  H   UNL     1     161.870 176.403 166.076  1.00  0.00     0.210 HD
ENDBRANCH   5   6
ENDBRANCH   1   5
TORSDOF 4
ENDMDL
MODEL 6
REMARK VINA RESULT:    -2.638     10.531     11.327
REMARK INTER + INTRA:          -3.189
REMARK INTER:                  -3.149
REMARK INTRA:                  -0.040
REMARK UNBOUND:                -0.012
REMARK SMILES CCCCCO
REMARK SMILES IDX 4 1 3 2 2 3 1 4 5 5 6 6
REMARK H PARENT 6 7
REMARK Flexibility Score: inf
ROOT
ATOM      1  C   UNL     1     169.611 169.778 163.552  1.00  0.00     0.028 C 
ENDROOT
BRANCH   1   2
ATOM      2  C   UNL     1     168.718 170.627 164.469  1.00  0.00     0.002 C 
BRANCH   2   3
ATOM      3  C   UNL     1     167.575 171.314 163.705  1.00  0.00    -0.003 C 
ATOM      4  C   UNL     1     166.254 170.552 163.803  1.00  0.00     0.004 C 
ENDBRANCH   2   3
ENDBRANCH   1   2
BRANCH   1   5
ATOM      5  C   UNL     1     169.438 168.285 163.845  1.00  0.00     0.156 C 
BRANCH   5   6
ATOM      6  O   UNL     1     170.685 167.645 163.855  1.00  0.00    -0.396 OA
ATOM      7  H   UNL     1     171.276 168.185 164.441  1.00  0.00     0.210 HD
ENDBRANCH   5   6
ENDBRANCH   1   5
TORSDOF 4
ENDMDL
MODEL 7
REMARK VINA RESULT:    -2.603     10.196     10.637
REMARK INTER + INTRA:          -3.147
REMARK INTER:                  -3.122
REMARK INTRA:                  -0.025
REMARK UNBOUND:                -0.012
REMARK SMILES CCCCCO
REMARK SMILES IDX 4 1 3 2 2 3 1 4 5 5 6 6
REMARK H PARENT 6 7
REMARK Flexibility Score: inf
ROOT
ATOM      1  C   UNL     1     167.785 170.468 163.157  1.00  0.00     0.028 C 
ENDROOT
BRANCH   1   2
ATOM      2  C   UNL     1     168.880 170.313 164.224  1.00  0.00     0.002 C 
BRANCH   2   3
ATOM      3  C   UNL     1     169.995 169.351 163.788  1.00  0.00    -0.003 C 
ATOM      4  C   UNL     1     169.551 167.889 163.792  1.00  0.00     0.004 C 
ENDBRANCH   2   3
ENDBRANCH   1   2
BRANCH   1   5
ATOM      5  C   UNL     1     166.419 170.713 163.804  1.00  0.00     0.156 C 
BRANCH   5   6
ATOM      6  O   UNL     1     165.954 171.995 163.483  1.00  0.00    -0.396 OA
ATOM      7  H   UNL     1     165.398 172.295 164.248  1.00  0.00     0.210 HD
ENDBRANCH   5   6
ENDBRANCH   1   5
TORSDOF 4
ENDMDL
MODEL 8
REMARK VINA RESULT:    -2.578     10.925     11.729
REMARK INTER + INTRA:          -3.117
REMARK INTER:                  -3.095
REMARK INTRA:                  -0.022
REMARK UNBOUND:                -0.012
REMARK SMILES CCCCCO
REMARK SMILES IDX 4 1 3 2 2 3 1 4 5 5 6 6
REMARK H PARENT 6 7
REMARK Flexibility Score: inf
ROOT
ATOM      1  C   UNL     1     169.032 169.808 164.047  1.00  0.00     0.028 C 
ENDROOT
BRANCH   1   2
ATOM      2  C   UNL     1     168.739 171.315 164.080  1.00  0.00     0.002 C 
BRANCH   2   3
ATOM      3  C   UNL     1     167.348 171.656 163.524  1.00  0.00    -0.003 C 
ATOM      4  C   UNL     1     166.304 170.587 163.842  1.00  0.00     0.004 C 
ENDBRANCH   2   3
ENDBRANCH   1   2
BRANCH   1   5
ATOM      5  C   UNL     1     170.483 169.539 163.636  1.00  0.00     0.156 C 
BRANCH   5   6
ATOM      6  O   UNL     1     171.361 170.263 164.455  1.00  0.00    -0.396 OA
ATOM      7  H   UNL     1     172.227 170.305 163.974  1.00  0.00     0.210 HD
ENDBRANCH   5   6
ENDBRANCH   1   5
TORSDOF 4
ENDMDL
MODEL 9
REMARK VINA RESULT:    -2.562     13.508     14.911
REMARK INTER + INTRA:          -3.098
REMARK INTER:                  -3.053
REMARK INTRA:                  -0.045
REMARK UNBOUND:                -0.012
REMARK SMILES CCCCCO
REMARK SMILES IDX 4 1 3 2 2 3 1 4 5 5 6 6
REMARK H PARENT 6 7
REMARK Flexibility Score: inf
ROOT
ATOM      1  C   UNL     1     164.848 177.711 167.691  1.00  0.00     0.028 C 
ENDROOT
BRANCH   1   2
ATOM      2  C   UNL     1     165.941 178.779 167.540  1.00  0.00     0.002 C 
BRANCH   2   3
ATOM      3  C   UNL     1     165.442 180.033 166.806  1.00  0.00    -0.003 C 
ATOM      4  C   UNL     1     166.006 180.155 165.391  1.00  0.00     0.004 C 
ENDBRANCH   2   3
ENDBRANCH   1   2
BRANCH   1   5
ATOM      5  C   UNL     1     164.908 176.698 166.544  1.00  0.00     0.156 C 
BRANCH   5   6
ATOM      6  O   UNL     1     163.631 176.182 166.287  1.00  0.00    -0.396 OA
ATOM      7  H   UNL     1     163.554 176.092 165.302  1.00  0.00     0.210 HD
ENDBRANCH   5   6
ENDBRANCH   1   5
TORSDOF 4
ENDMDL
