MODEL 1
REMARK VINA RESULT:    -5.355      0.000      0.000
REMARK INTER + INTRA:         -15.322
REMARK INTER:                 -12.241
REMARK INTRA:                  -3.080
REMARK UNBOUND:                -3.080
REMARK SMILES CCCCCCCCCCCCCCCCCCCCCCCC(=O)[O-]
REMARK SMILES IDX 13 1 14 2 15 3 16 4 17 5 18 6 19 7 20 8 21 9 22 10 23 11
REMARK SMILES IDX 24 12 25 13 26 14 12 15 11 16 10 17 9 18 8 19 7 20 6 21 5 22
REMARK SMILES IDX 4 23 3 24 2 25 1 26
REMARK H PARENT
REMARK Flexibility Score: inf
ROOT
ATOM      1  C   UNL     1      40.585  48.002   6.680  1.00  0.00     0.000 C 
ENDROOT
BRANCH   1   2
ATOM      2  C   UNL     1      41.496  48.644   7.738  1.00  0.00     0.000 C 
BRANCH   2   3
ATOM      3  C   UNL     1      41.455  50.183   7.708  1.00  0.00     0.000 C 
BRANCH   3   4
ATOM      4  C   UNL     1      42.071  50.874   8.938  1.00  0.00     0.000 C 
BRANCH   4   5
ATOM      5  C   UNL     1      43.300  50.127   9.487  1.00  0.00     0.000 C 
BRANCH   5   6
ATOM      6  C   UNL     1      44.125  50.983  10.464  1.00  0.00     0.000 C 
BRANCH   6   7
ATOM      7  C   UNL     1      44.804  50.141  11.557  1.00  0.00     0.000 C 
BRANCH   7   8
ATOM      8  C   UNL     1      46.339  50.261  11.538  1.00  0.00     0.000 C 
BRANCH   8   9
ATOM      9  C   UNL     1      47.041  49.567  10.355  1.00  0.00     0.000 C 
BRANCH   9  10
ATOM     10  C   UNL     1      47.060  48.026  10.408  1.00  0.00     0.006 C 
BRANCH  10  11
ATOM     11  C   UNL     1      46.327  47.350   9.235  1.00  0.00     0.053 C 
BRANCH  11  12
ATOM     12  C   UNL     1      44.987  46.805   9.628  1.00  0.00     0.041 C 
ATOM     13  O   UNL     1      44.149  46.483   8.746  1.00  0.00    -0.550 OA
ATOM     14  O   UNL     1      44.651  46.685  10.970  1.00  0.00    -0.550 OA
ENDBRANCH  11  12
ENDBRANCH  10  11
ENDBRANCH   9  10
ENDBRANCH   8   9
ENDBRANCH   7   8
ENDBRANCH   6   7
ENDBRANCH   5   6
ENDBRANCH   4   5
ENDBRANCH   3   4
ENDBRANCH   2   3
ENDBRANCH   1   2
BRANCH   1  15
ATOM     15  C   UNL     1      40.378  46.507   6.970  1.00  0.00     0.000 C 
BRANCH  15  16
ATOM     16  C   UNL     1      38.897  46.127   7.148  1.00  0.00     0.000 C 
BRANCH  16  17
ATOM     17  C   UNL     1      38.511  45.633   8.555  1.00  0.00     0.000 C 
BRANCH  17  18
ATOM     18  C   UNL     1      39.717  45.522   9.504  1.00  0.00    -0.000 C 
BRANCH  18  19
ATOM     19  C   UNL     1      39.408  46.048  10.914  1.00  0.00    -0.000 C 
BRANCH  19  20
ATOM     20  C   UNL     1      40.677  46.380  11.719  1.00  0.00    -0.000 C 
BRANCH  20  21
ATOM     21  C   UNL     1      41.285  47.735  11.325  1.00  0.00    -0.000 C 
BRANCH  21  22
ATOM     22  C   UNL     1      41.501  48.659  12.535  1.00  0.00    -0.000 C 
BRANCH  22  23
ATOM     23  C   UNL     1      40.882  50.052  12.332  1.00  0.00    -0.000 C 
BRANCH  23  24
ATOM     24  C   UNL     1      39.543  50.215  13.072  1.00  0.00    -0.000 C 
BRANCH  24  25
ATOM     25  C   UNL     1      39.533  51.431  14.012  1.00  0.00    -0.003 C 
ATOM     26  C   UNL     1      40.577  51.326  15.123  1.00  0.00     0.004 C 
ENDBRANCH  24  25
ENDBRANCH  23  24
ENDBRANCH  22  23
ENDBRANCH  21  22
ENDBRANCH  20  21
ENDBRANCH  19  20
ENDBRANCH  18  19
ENDBRANCH  17  18
ENDBRANCH  16  17
ENDBRANCH  15  16
ENDBRANCH   1  15
TORSDOF 22
ENDMDL
MODEL 2
REMARK VINA RESULT:    -5.325      2.203      5.925
REMARK INTER + INTRA:         -15.254
REMARK INTER:                 -11.015
REMARK INTRA:                  -4.238
REMARK UNBOUND:                -3.080
REMARK SMILES CCCCCCCCCCCCCCCCCCCCCCCC(=O)[O-]
REMARK SMILES IDX 13 1 14 2 15 3 16 4 17 5 18 6 19 7 20 8 21 9 22 10 23 11
REMARK SMILES IDX 24 12 25 13 26 14 12 15 11 16 10 17 9 18 8 19 7 20 6 21 5 22
REMARK SMILES IDX 4 23 3 24 2 25 1 26
REMARK H PARENT
REMARK Flexibility Score: inf
ROOT
ATOM      1  C   UNL     1      42.733  49.549   9.268  1.00  0.00     0.000 C 
ENDROOT
BRANCH   1   2
ATOM      2  C   UNL     1      42.016  50.321  10.387  1.00  0.00     0.000 C 
BRANCH   2   3
ATOM      3  C   UNL     1      42.443  49.866  11.795  1.00  0.00     0.000 C 
BRANCH   3   4
ATOM      4  C   UNL     1      43.450  48.703  11.826  1.00  0.00     0.000 C 
BRANCH   4   5
ATOM      5  C   UNL     1      42.870  47.430  12.466  1.00  0.00     0.000 C 
BRANCH   5   6
ATOM      6  C   UNL     1      41.823  46.742  11.573  1.00  0.00     0.000 C 
BRANCH   6   7
ATOM      7  C   UNL     1      40.398  46.853  12.141  1.00  0.00     0.000 C 
BRANCH   7   8
ATOM      8  C   UNL     1      39.351  46.127  11.277  1.00  0.00     0.000 C 
BRANCH   8   9
ATOM      9  C   UNL     1      39.827  45.716   9.870  1.00  0.00     0.000 C 
BRANCH   9  10
ATOM     10  C   UNL     1      38.760  45.791   8.760  1.00  0.00     0.006 C 
BRANCH  10  11
ATOM     11  C   UNL     1      39.240  45.269   7.394  1.00  0.00     0.053 C 
BRANCH  11  12
ATOM     12  C   UNL     1      39.988  43.975   7.501  1.00  0.00     0.041 C 
ATOM     13  O   UNL     1      39.391  42.923   7.850  1.00  0.00    -0.550 OA
ATOM     14  O   UNL     1      41.354  43.937   7.250  1.00  0.00    -0.550 OA
ENDBRANCH  11  12
ENDBRANCH  10  11
ENDBRANCH   9  10
ENDBRANCH   8   9
ENDBRANCH   7   8
ENDBRANCH   6   7
ENDBRANCH   5   6
ENDBRANCH   4   5
ENDBRANCH   3   4
ENDBRANCH   2   3
ENDBRANCH   1   2
BRANCH   1  15
ATOM     15  C   UNL     1      41.735  48.710   8.454  1.00  0.00     0.000 C 
BRANCH  15  16
ATOM     16  C   UNL     1      42.343  47.399   7.924  1.00  0.00     0.000 C 
BRANCH  16  17
ATOM     17  C   UNL     1      43.779  47.104   8.395  1.00  0.00     0.000 C 
BRANCH  17  18
ATOM     18  C   UNL     1      43.971  45.652   8.866  1.00  0.00    -0.000 C 
BRANCH  18  19
ATOM     19  C   UNL     1      45.369  45.401   9.451  1.00  0.00    -0.000 C 
BRANCH  19  20
ATOM     20  C   UNL     1      45.840  46.535  10.380  1.00  0.00    -0.000 C 
BRANCH  20  21
ATOM     21  C   UNL     1      47.034  47.310   9.801  1.00  0.00    -0.000 C 
BRANCH  21  22
ATOM     22  C   UNL     1      47.597  48.348  10.786  1.00  0.00    -0.000 C 
BRANCH  22  23
ATOM     23  C   UNL     1      47.637  49.765  10.191  1.00  0.00    -0.000 C 
BRANCH  23  24
ATOM     24  C   UNL     1      46.244  50.273   9.782  1.00  0.00    -0.000 C 
BRANCH  24  25
ATOM     25  C   UNL     1      45.824  51.531  10.558  1.00  0.00    -0.003 C 
ATOM     26  C   UNL     1      46.083  51.413  12.060  1.00  0.00     0.004 C 
ENDBRANCH  24  25
ENDBRANCH  23  24
ENDBRANCH  22  23
ENDBRANCH  21  22
ENDBRANCH  20  21
ENDBRANCH  19  20
ENDBRANCH  18  19
ENDBRANCH  17  18
ENDBRANCH  16  17
ENDBRANCH  15  16
ENDBRANCH   1  15
TORSDOF 22
ENDMDL
MODEL 3
REMARK VINA RESULT:    -5.296      2.188      5.765
REMARK INTER + INTRA:         -15.187
REMARK INTER:                 -11.416
REMARK INTRA:                  -3.771
REMARK UNBOUND:                -3.080
REMARK SMILES CCCCCCCCCCCCCCCCCCCCCCCC(=O)[O-]
REMARK SMILES IDX 13 1 14 2 15 3 16 4 17 5 18 6 19 7 20 8 21 9 22 10 23 11
REMARK SMILES IDX 24 12 25 13 26 14 12 15 11 16 10 17 9 18 8 19 7 20 6 21 5 22
REMARK SMILES IDX 4 23 3 24 2 25 1 26
REMARK H PARENT
REMARK Flexibility Score: inf
ROOT
ATOM      1  C   UNL     1      41.428  48.717   8.136  1.00  0.00     0.000 C 
ENDROOT
BRANCH   1   2
ATOM      2  C   UNL     1      40.955  48.214   6.763  1.00  0.00     0.000 C 
BRANCH   2   3
ATOM      3  C   UNL     1      40.671  46.700   6.746  1.00  0.00     0.000 C 
BRANCH   3   4
ATOM      4  C   UNL     1      39.422  46.263   7.533  1.00  0.00     0.000 C 
BRANCH   4   5
ATOM      5  C   UNL     1      39.763  45.392   8.755  1.00  0.00     0.000 C 
BRANCH   5   6
ATOM      6  C   UNL     1      38.930  45.759   9.995  1.00  0.00     0.000 C 
BRANCH   6   7
ATOM      7  C   UNL     1      39.760  45.737  11.290  1.00  0.00     0.000 C 
BRANCH   7   8
ATOM      8  C   UNL     1      40.838  46.836  11.329  1.00  0.00     0.000 C 
BRANCH   8   9
ATOM      9  C   UNL     1      42.063  46.526  12.211  1.00  0.00     0.000 C 
BRANCH   9  10
ATOM     10  C   UNL     1      42.694  47.741  12.921  1.00  0.00     0.006 C 
BRANCH  10  11
ATOM     11  C   UNL     1      42.249  49.100  12.350  1.00  0.00     0.053 C 
BRANCH  11  12
ATOM     12  C   UNL     1      41.621  49.983  13.385  1.00  0.00     0.041 C 
ATOM     13  O   UNL     1      40.491  50.498  13.179  1.00  0.00    -0.550 OA
ATOM     14  O   UNL     1      42.300  50.267  14.563  1.00  0.00    -0.550 OA
ENDBRANCH  11  12
ENDBRANCH  10  11
ENDBRANCH   9  10
ENDBRANCH   8   9
ENDBRANCH   7   8
ENDBRANCH   6   7
ENDBRANCH   5   6
ENDBRANCH   4   5
ENDBRANCH   3   4
ENDBRANCH   2   3
ENDBRANCH   1   2
BRANCH   1  15
ATOM     15  C   UNL     1      42.959  48.832   8.179  1.00  0.00     0.000 C 
BRANCH  15  16
ATOM     16  C   UNL     1      43.613  47.820   9.139  1.00  0.00     0.000 C 
BRANCH  16  17
ATOM     17  C   UNL     1      44.157  46.543   8.473  1.00  0.00     0.000 C 
BRANCH  17  18
ATOM     18  C   UNL     1      44.575  45.467   9.490  1.00  0.00    -0.000 C 
BRANCH  18  19
ATOM     19  C   UNL     1      45.429  46.036  10.634  1.00  0.00    -0.000 C 
BRANCH  19  20
ATOM     20  C   UNL     1      46.862  46.385  10.194  1.00  0.00    -0.000 C 
BRANCH  20  21
ATOM     21  C   UNL     1      47.241  47.836  10.525  1.00  0.00    -0.000 C 
BRANCH  21  22
ATOM     22  C   UNL     1      46.916  48.808   9.379  1.00  0.00    -0.000 C 
BRANCH  22  23
ATOM     23  C   UNL     1      47.148  50.278   9.767  1.00  0.00    -0.000 C 
BRANCH  23  24
ATOM     24  C   UNL     1      45.991  51.193   9.330  1.00  0.00    -0.000 C 
BRANCH  24  25
ATOM     25  C   UNL     1      44.926  51.360  10.424  1.00  0.00    -0.003 C 
ATOM     26  C   UNL     1      45.408  50.887  11.795  1.00  0.00     0.004 C 
ENDBRANCH  24  25
ENDBRANCH  23  24
ENDBRANCH  22  23
ENDBRANCH  21  22
ENDBRANCH  20  21
ENDBRANCH  19  20
ENDBRANCH  18  19
ENDBRANCH  17  18
ENDBRANCH  16  17
ENDBRANCH  15  16
ENDBRANCH   1  15
TORSDOF 22
ENDMDL
MODEL 4
REMARK VINA RESULT:    -5.292      2.642      6.898
REMARK INTER + INTRA:         -15.178
REMARK INTER:                 -11.410
REMARK INTRA:                  -3.768
REMARK UNBOUND:                -3.080
REMARK SMILES CCCCCCCCCCCCCCCCCCCCCCCC(=O)[O-]
REMARK SMILES IDX 13 1 14 2 15 3 16 4 17 5 18 6 19 7 20 8 21 9 22 10 23 11
REMARK SMILES IDX 24 12 25 13 26 14 12 15 11 16 10 17 9 18 8 19 7 20 6 21 5 22
REMARK SMILES IDX 4 23 3 24 2 25 1 26
REMARK H PARENT
REMARK Flexibility Score: inf
ROOT
ATOM      1  C   UNL     1      46.479  49.216  10.125  1.00  0.00     0.000 C 
ENDROOT
BRANCH   1   2
ATOM      2  C   UNL     1      47.296  47.989  10.562  1.00  0.00     0.000 C 
BRANCH   2   3
ATOM      3  C   UNL     1      46.951  46.723   9.756  1.00  0.00     0.000 C 
BRANCH   3   4
ATOM      4  C   UNL     1      46.233  45.620  10.554  1.00  0.00     0.000 C 
BRANCH   4   5
ATOM      5  C   UNL     1      44.715  45.595  10.303  1.00  0.00     0.000 C 
BRANCH   5   6
ATOM      6  C   UNL     1      43.904  46.047  11.529  1.00  0.00     0.000 C 
BRANCH   6   7
ATOM      7  C   UNL     1      43.440  47.509  11.423  1.00  0.00     0.000 C 
BRANCH   7   8
ATOM      8  C   UNL     1      42.755  48.016  12.706  1.00  0.00     0.000 C 
BRANCH   8   9
ATOM      9  C   UNL     1      41.365  48.648  12.506  1.00  0.00     0.000 C 
BRANCH   9  10
ATOM     10  C   UNL     1      41.293  50.173  12.714  1.00  0.00     0.006 C 
BRANCH  10  11
ATOM     11  C   UNL     1      41.477  50.615  14.177  1.00  0.00     0.053 C 
BRANCH  11  12
ATOM     12  C   UNL     1      40.238  51.230  14.755  1.00  0.00     0.041 C 
ATOM     13  O   UNL     1      40.120  51.370  16.000  1.00  0.00    -0.550 OA
ATOM     14  O   UNL     1      39.197  51.615  13.919  1.00  0.00    -0.550 OA
ENDBRANCH  11  12
ENDBRANCH  10  11
ENDBRANCH   9  10
ENDBRANCH   8   9
ENDBRANCH   7   8
ENDBRANCH   6   7
ENDBRANCH   5   6
ENDBRANCH   4   5
ENDBRANCH   3   4
ENDBRANCH   2   3
ENDBRANCH   1   2
BRANCH   1  15
ATOM     15  C   UNL     1      46.045  50.047  11.343  1.00  0.00     0.000 C 
BRANCH  15  16
ATOM     16  C   UNL     1      44.804  50.915  11.067  1.00  0.00     0.000 C 
BRANCH  16  17
ATOM     17  C   UNL     1      44.247  50.827   9.634  1.00  0.00     0.000 C 
BRANCH  17  18
ATOM     18  C   UNL     1      42.728  51.060   9.564  1.00  0.00    -0.000 C 
BRANCH  18  19
ATOM     19  C   UNL     1      41.980  49.885   8.916  1.00  0.00    -0.000 C 
BRANCH  19  20
ATOM     20  C   UNL     1      42.921  48.906   8.189  1.00  0.00    -0.000 C 
BRANCH  20  21
ATOM     21  C   UNL     1      42.216  47.599   7.794  1.00  0.00    -0.000 C 
BRANCH  21  22
ATOM     22  C   UNL     1      41.072  47.231   8.753  1.00  0.00    -0.000 C 
BRANCH  22  23
ATOM     23  C   UNL     1      40.883  45.711   8.890  1.00  0.00    -0.000 C 
BRANCH  23  24
ATOM     24  C   UNL     1      40.319  45.070   7.610  1.00  0.00    -0.000 C 
BRANCH  24  25
ATOM     25  C   UNL     1      38.938  45.626   7.232  1.00  0.00    -0.003 C 
ATOM     26  C   UNL     1      38.441  45.106   5.883  1.00  0.00     0.004 C 
ENDBRANCH  24  25
ENDBRANCH  23  24
ENDBRANCH  22  23
ENDBRANCH  21  22
ENDBRANCH  20  21
ENDBRANCH  19  20
ENDBRANCH  18  19
ENDBRANCH  17  18
ENDBRANCH  16  17
ENDBRANCH  15  16
ENDBRANCH   1  15
TORSDOF 22
ENDMDL
MODEL 5
REMARK VINA RESULT:    -5.269      1.860      4.675
REMARK INTER + INTRA:         -15.125
REMARK INTER:                 -11.295
REMARK INTRA:                  -3.830
REMARK UNBOUND:                -3.080
REMARK SMILES CCCCCCCCCCCCCCCCCCCCCCCC(=O)[O-]
REMARK SMILES IDX 13 1 14 2 15 3 16 4 17 5 18 6 19 7 20 8 21 9 22 10 23 11
REMARK SMILES IDX 24 12 25 13 26 14 12 15 11 16 10 17 9 18 8 19 7 20 6 21 5 22
REMARK SMILES IDX 4 23 3 24 2 25 1 26
REMARK H PARENT
REMARK Flexibility Score: inf
ROOT
ATOM      1  C   UNL     1      43.717  46.434  11.042  1.00  0.00     0.000 C 
ENDROOT
BRANCH   1   2
ATOM      2  C   UNL     1      42.800  46.389  12.274  1.00  0.00     0.000 C 
BRANCH   2   3
ATOM      3  C   UNL     1      42.597  47.771  12.921  1.00  0.00     0.000 C 
BRANCH   3   4
ATOM      4  C   UNL     1      41.909  48.815  12.022  1.00  0.00     0.000 C 
BRANCH   4   5
ATOM      5  C   UNL     1      42.688  50.140  11.944  1.00  0.00     0.000 C 
BRANCH   5   6
ATOM      6  C   UNL     1      43.841  50.089  10.927  1.00  0.00     0.000 C 
BRANCH   6   7
ATOM      7  C   UNL     1      45.217  49.950  11.601  1.00  0.00     0.000 C 
BRANCH   7   8
ATOM      8  C   UNL     1      46.369  50.476  10.725  1.00  0.00     0.000 C 
BRANCH   8   9
ATOM      9  C   UNL     1      47.568  49.521  10.570  1.00  0.00     0.000 C 
BRANCH   9  10
ATOM     10  C   UNL     1      47.228  48.018  10.615  1.00  0.00     0.006 C 
BRANCH  10  11
ATOM     11  C   UNL     1      46.924  47.403   9.237  1.00  0.00     0.053 C 
BRANCH  11  12
ATOM     12  C   UNL     1      47.171  45.925   9.197  1.00  0.00     0.041 C 
ATOM     13  O   UNL     1      47.612  45.383   8.150  1.00  0.00    -0.550 OA
ATOM     14  O   UNL     1      46.882  45.140  10.306  1.00  0.00    -0.550 OA
ENDBRANCH  11  12
ENDBRANCH  10  11
ENDBRANCH   9  10
ENDBRANCH   8   9
ENDBRANCH   7   8
ENDBRANCH   6   7
ENDBRANCH   5   6
ENDBRANCH   4   5
ENDBRANCH   3   4
ENDBRANCH   2   3
ENDBRANCH   1   2
BRANCH   1  15
ATOM     15  C   UNL     1      42.894  46.452   9.745  1.00  0.00     0.000 C 
BRANCH  15  16
ATOM     16  C   UNL     1      43.669  47.030   8.547  1.00  0.00     0.000 C 
BRANCH  16  17
ATOM     17  C   UNL     1      43.056  48.295   7.918  1.00  0.00     0.000 C 
BRANCH  17  18
ATOM     18  C   UNL     1      41.545  48.421   8.174  1.00  0.00    -0.000 C 
BRANCH  18  19
ATOM     19  C   UNL     1      40.727  48.465   6.874  1.00  0.00    -0.000 C 
BRANCH  19  20
ATOM     20  C   UNL     1      40.637  47.094   6.179  1.00  0.00    -0.000 C 
BRANCH  20  21
ATOM     21  C   UNL     1      39.193  46.715   5.814  1.00  0.00    -0.000 C 
BRANCH  21  22
ATOM     22  C   UNL     1      38.626  45.608   6.718  1.00  0.00    -0.000 C 
BRANCH  22  23
ATOM     23  C   UNL     1      39.729  44.758   7.371  1.00  0.00    -0.000 C 
BRANCH  23  24
ATOM     24  C   UNL     1      39.504  44.560   8.880  1.00  0.00    -0.000 C 
BRANCH  24  25
ATOM     25  C   UNL     1      39.207  45.879   9.610  1.00  0.00    -0.003 C 
ATOM     26  C   UNL     1      39.459  45.790  11.116  1.00  0.00     0.004 C 
ENDBRANCH  24  25
ENDBRANCH  23  24
ENDBRANCH  22  23
ENDBRANCH  21  22
ENDBRANCH  20  21
ENDBRANCH  19  20
ENDBRANCH  18  19
ENDBRANCH  17  18
ENDBRANCH  16  17
ENDBRANCH  15  16
ENDBRANCH   1  15
TORSDOF 22
ENDMDL
MODEL 6
REMARK VINA RESULT:    -5.266      2.263      5.945
REMARK INTER + INTRA:         -15.119
REMARK INTER:                 -11.829
REMARK INTRA:                  -3.290
REMARK UNBOUND:                -3.080
REMARK SMILES CCCCCCCCCCCCCCCCCCCCCCCC(=O)[O-]
REMARK SMILES IDX 13 1 14 2 15 3 16 4 17 5 18 6 19 7 20 8 21 9 22 10 23 11
REMARK SMILES IDX 24 12 25 13 26 14 12 15 11 16 10 17 9 18 8 19 7 20 6 21 5 22
REMARK SMILES IDX 4 23 3 24 2 25 1 26
REMARK H PARENT
REMARK Flexibility Score: inf
ROOT
ATOM      1  C   UNL     1      45.835  46.569  10.363  1.00  0.00     0.000 C 
ENDROOT
BRANCH   1   2
ATOM      2  C   UNL     1      46.914  47.379   9.629  1.00  0.00     0.000 C 
BRANCH   2   3
ATOM      3  C   UNL     1      46.533  48.861   9.452  1.00  0.00     0.000 C 
BRANCH   3   4
ATOM      4  C   UNL     1      47.438  49.858  10.199  1.00  0.00     0.000 C 
BRANCH   4   5
ATOM      5  C   UNL     1      46.705  50.588  11.338  1.00  0.00     0.000 C 
BRANCH   5   6
ATOM      6  C   UNL     1      45.225  50.856  11.014  1.00  0.00     0.000 C 
BRANCH   6   7
ATOM      7  C   UNL     1      44.275  50.277  12.077  1.00  0.00     0.000 C 
BRANCH   7   8
ATOM      8  C   UNL     1      43.320  49.210  11.509  1.00  0.00     0.000 C 
BRANCH   8   9
ATOM      9  C   UNL     1      41.853  49.656  11.352  1.00  0.00     0.000 C 
BRANCH   9  10
ATOM     10  C   UNL     1      40.914  49.266  12.510  1.00  0.00     0.006 C 
BRANCH  10  11
ATOM     11  C   UNL     1      40.115  50.446  13.093  1.00  0.00     0.053 C 
BRANCH  11  12
ATOM     12  C   UNL     1      40.632  50.892  14.427  1.00  0.00     0.041 C 
ATOM     13  O   UNL     1      39.859  51.434  15.259  1.00  0.00    -0.550 OA
ATOM     14  O   UNL     1      41.977  50.740  14.738  1.00  0.00    -0.550 OA
ENDBRANCH  11  12
ENDBRANCH  10  11
ENDBRANCH   9  10
ENDBRANCH   8   9
ENDBRANCH   7   8
ENDBRANCH   6   7
ENDBRANCH   5   6
ENDBRANCH   4   5
ENDBRANCH   3   4
ENDBRANCH   2   3
ENDBRANCH   1   2
BRANCH   1  15
ATOM     15  C   UNL     1      45.511  45.272   9.604  1.00  0.00     0.000 C 
BRANCH  15  16
ATOM     16  C   UNL     1      44.218  45.367   8.774  1.00  0.00     0.000 C 
BRANCH  16  17
ATOM     17  C   UNL     1      43.414  46.668   8.958  1.00  0.00     0.000 C 
BRANCH  17  18
ATOM     18  C   UNL     1      43.266  47.472   7.655  1.00  0.00    -0.000 C 
BRANCH  18  19
ATOM     19  C   UNL     1      42.415  48.739   7.837  1.00  0.00    -0.000 C 
BRANCH  19  20
ATOM     20  C   UNL     1      40.993  48.590   7.266  1.00  0.00    -0.000 C 
BRANCH  20  21
ATOM     21  C   UNL     1      40.879  47.425   6.270  1.00  0.00    -0.000 C 
BRANCH  21  22
ATOM     22  C   UNL     1      39.444  46.885   6.155  1.00  0.00    -0.000 C 
BRANCH  22  23
ATOM     23  C   UNL     1      39.210  45.641   7.028  1.00  0.00    -0.000 C 
BRANCH  23  24
ATOM     24  C   UNL     1      38.451  45.967   8.326  1.00  0.00    -0.000 C 
BRANCH  24  25
ATOM     25  C   UNL     1      39.116  45.351   9.567  1.00  0.00    -0.003 C 
ATOM     26  C   UNL     1      40.167  46.270  10.191  1.00  0.00     0.004 C 
ENDBRANCH  24  25
ENDBRANCH  23  24
ENDBRANCH  22  23
ENDBRANCH  21  22
ENDBRANCH  20  21
ENDBRANCH  19  20
ENDBRANCH  18  19
ENDBRANCH  17  18
ENDBRANCH  16  17
ENDBRANCH  15  16
ENDBRANCH   1  15
TORSDOF 22
ENDMDL
MODEL 7
REMARK VINA RESULT:    -5.249      1.984      5.886
REMARK INTER + INTRA:         -15.081
REMARK INTER:                 -11.110
REMARK INTRA:                  -3.971
REMARK UNBOUND:                -3.080
REMARK SMILES CCCCCCCCCCCCCCCCCCCCCCCC(=O)[O-]
REMARK SMILES IDX 13 1 14 2 15 3 16 4 17 5 18 6 19 7 20 8 21 9 22 10 23 11
REMARK SMILES IDX 24 12 25 13 26 14 12 15 11 16 10 17 9 18 8 19 7 20 6 21 5 22
REMARK SMILES IDX 4 23 3 24 2 25 1 26
REMARK H PARENT
REMARK Flexibility Score: inf
ROOT
ATOM      1  C   UNL     1      39.966  45.756  11.372  1.00  0.00     0.000 C 
ENDROOT
BRANCH   1   2
ATOM      2  C   UNL     1      39.868  46.108   9.879  1.00  0.00     0.000 C 
BRANCH   2   3
ATOM      3  C   UNL     1      38.777  45.306   9.145  1.00  0.00     0.000 C 
BRANCH   3   4
ATOM      4  C   UNL     1      38.487  45.769   7.706  1.00  0.00     0.000 C 
BRANCH   4   5
ATOM      5  C   UNL     1      39.767  45.979   6.879  1.00  0.00     0.000 C 
BRANCH   5   6
ATOM      6  C   UNL     1      39.958  47.443   6.446  1.00  0.00     0.000 C 
BRANCH   6   7
ATOM      7  C   UNL     1      41.441  47.832   6.321  1.00  0.00     0.000 C 
BRANCH   7   8
ATOM      8  C   UNL     1      42.081  48.193   7.675  1.00  0.00     0.000 C 
BRANCH   8   9
ATOM      9  C   UNL     1      43.334  47.377   8.049  1.00  0.00     0.000 C 
BRANCH   9  10
ATOM     10  C   UNL     1      43.064  46.030   8.748  1.00  0.00     0.006 C 
BRANCH  10  11
ATOM     11  C   UNL     1      43.255  44.803   7.838  1.00  0.00     0.053 C 
BRANCH  11  12
ATOM     12  C   UNL     1      44.335  45.004   6.818  1.00  0.00     0.041 C 
ATOM     13  O   UNL     1      44.039  45.229   5.615  1.00  0.00    -0.550 OA
ATOM     14  O   UNL     1      45.670  44.907   7.189  1.00  0.00    -0.550 OA
ENDBRANCH  11  12
ENDBRANCH  10  11
ENDBRANCH   9  10
ENDBRANCH   8   9
ENDBRANCH   7   8
ENDBRANCH   6   7
ENDBRANCH   5   6
ENDBRANCH   4   5
ENDBRANCH   3   4
ENDBRANCH   2   3
ENDBRANCH   1   2
BRANCH   1  15
ATOM     15  C   UNL     1      39.775  47.007  12.244  1.00  0.00     0.000 C 
BRANCH  15  16
ATOM     16  C   UNL     1      40.970  47.975  12.178  1.00  0.00     0.000 C 
BRANCH  16  17
ATOM     17  C   UNL     1      42.346  47.339  12.451  1.00  0.00     0.000 C 
BRANCH  17  18
ATOM     18  C   UNL     1      43.494  48.053  11.717  1.00  0.00    -0.000 C 
BRANCH  18  19
ATOM     19  C   UNL     1      43.070  49.411  11.137  1.00  0.00    -0.000 C 
BRANCH  19  20
ATOM     20  C   UNL     1      44.267  50.266  10.683  1.00  0.00    -0.000 C 
BRANCH  20  21
ATOM     21  C   UNL     1      45.261  50.537  11.824  1.00  0.00    -0.000 C 
BRANCH  21  22
ATOM     22  C   UNL     1      46.720  50.571  11.339  1.00  0.00    -0.000 C 
BRANCH  22  23
ATOM     23  C   UNL     1      46.978  49.600  10.174  1.00  0.00    -0.000 C 
BRANCH  23  24
ATOM     24  C   UNL     1      47.364  48.191  10.656  1.00  0.00    -0.000 C 
BRANCH  24  25
ATOM     25  C   UNL     1      46.745  47.082   9.791  1.00  0.00    -0.003 C 
ATOM     26  C   UNL     1      46.405  45.827  10.594  1.00  0.00     0.004 C 
ENDBRANCH  24  25
ENDBRANCH  23  24
ENDBRANCH  22  23
ENDBRANCH  21  22
ENDBRANCH  20  21
ENDBRANCH  19  20
ENDBRANCH  18  19
ENDBRANCH  17  18
ENDBRANCH  16  17
ENDBRANCH  15  16
ENDBRANCH   1  15
TORSDOF 22
ENDMDL
MODEL 8
REMARK VINA RESULT:    -5.233      1.680      5.220
REMARK INTER + INTRA:         -15.043
REMARK INTER:                 -11.247
REMARK INTRA:                  -3.795
REMARK UNBOUND:                -3.080
REMARK SMILES CCCCCCCCCCCCCCCCCCCCCCCC(=O)[O-]
REMARK SMILES IDX 13 1 14 2 15 3 16 4 17 5 18 6 19 7 20 8 21 9 22 10 23 11
REMARK SMILES IDX 24 12 25 13 26 14 12 15 11 16 10 17 9 18 8 19 7 20 6 21 5 22
REMARK SMILES IDX 4 23 3 24 2 25 1 26
REMARK H PARENT
REMARK Flexibility Score: inf
ROOT
ATOM      1  C   UNL     1      45.829  49.737  11.300  1.00  0.00     0.000 C 
ENDROOT
BRANCH   1   2
ATOM      2  C   UNL     1      45.011  51.020  11.089  1.00  0.00     0.000 C 
BRANCH   2   3
ATOM      3  C   UNL     1      44.265  51.039   9.742  1.00  0.00     0.000 C 
BRANCH   3   4
ATOM      4  C   UNL     1      43.052  50.095   9.657  1.00  0.00     0.000 C 
BRANCH   4   5
ATOM      5  C   UNL     1      41.836  50.747   8.975  1.00  0.00     0.000 C 
BRANCH   5   6
ATOM      6  C   UNL     1      41.520  50.124   7.605  1.00  0.00     0.000 C 
BRANCH   6   7
ATOM      7  C   UNL     1      42.450  48.947   7.264  1.00  0.00     0.000 C 
BRANCH   7   8
ATOM      8  C   UNL     1      41.687  47.628   7.036  1.00  0.00     0.000 C 
BRANCH   8   9
ATOM      9  C   UNL     1      40.152  47.755   6.990  1.00  0.00     0.000 C 
BRANCH   9  10
ATOM     10  C   UNL     1      39.384  46.434   6.782  1.00  0.00     0.006 C 
BRANCH  10  11
ATOM     11  C   UNL     1      38.576  45.980   8.011  1.00  0.00     0.053 C 
BRANCH  11  12
ATOM     12  C   UNL     1      39.438  45.369   9.075  1.00  0.00     0.041 C 
ATOM     13  O   UNL     1      40.099  44.325   8.834  1.00  0.00    -0.550 OA
ATOM     14  O   UNL     1      39.483  45.932  10.343  1.00  0.00    -0.550 OA
ENDBRANCH  11  12
ENDBRANCH  10  11
ENDBRANCH   9  10
ENDBRANCH   8   9
ENDBRANCH   7   8
ENDBRANCH   6   7
ENDBRANCH   5   6
ENDBRANCH   4   5
ENDBRANCH   3   4
ENDBRANCH   2   3
ENDBRANCH   1   2
BRANCH   1  15
ATOM     15  C   UNL     1      46.622  49.378  10.033  1.00  0.00     0.000 C 
BRANCH  15  16
ATOM     16  C   UNL     1      46.454  47.906   9.614  1.00  0.00     0.000 C 
BRANCH  16  17
ATOM     17  C   UNL     1      45.435  47.100  10.442  1.00  0.00     0.000 C 
BRANCH  17  18
ATOM     18  C   UNL     1      44.302  46.506   9.588  1.00  0.00    -0.000 C 
BRANCH  18  19
ATOM     19  C   UNL     1      42.948  46.518  10.313  1.00  0.00    -0.000 C 
BRANCH  19  20
ATOM     20  C   UNL     1      43.085  46.736  11.831  1.00  0.00    -0.000 C 
BRANCH  20  21
ATOM     21  C   UNL     1      42.126  47.814  12.358  1.00  0.00    -0.000 C 
BRANCH  21  22
ATOM     22  C   UNL     1      42.793  48.748  13.381  1.00  0.00    -0.000 C 
BRANCH  22  23
ATOM     23  C   UNL     1      42.253  50.186  13.308  1.00  0.00    -0.000 C 
BRANCH  23  24
ATOM     24  C   UNL     1      41.724  50.687  14.663  1.00  0.00    -0.000 C 
BRANCH  24  25
ATOM     25  C   UNL     1      40.241  51.086  14.606  1.00  0.00    -0.003 C 
ATOM     26  C   UNL     1      39.671  51.038  13.189  1.00  0.00     0.004 C 
ENDBRANCH  24  25
ENDBRANCH  23  24
ENDBRANCH  22  23
ENDBRANCH  21  22
ENDBRANCH  20  21
ENDBRANCH  19  20
ENDBRANCH  18  19
ENDBRANCH  17  18
ENDBRANCH  16  17
ENDBRANCH  15  16
ENDBRANCH   1  15
TORSDOF 22
ENDMDL
MODEL 9
REMARK VINA RESULT:    -5.184      2.611      7.151
REMARK INTER + INTRA:         -14.931
REMARK INTER:                 -11.566
REMARK INTRA:                  -3.365
REMARK UNBOUND:                -3.080
REMARK SMILES CCCCCCCCCCCCCCCCCCCCCCCC(=O)[O-]
REMARK SMILES IDX 13 1 14 2 15 3 16 4 17 5 18 6 19 7 20 8 21 9 22 10 23 11
REMARK SMILES IDX 24 12 25 13 26 14 12 15 11 16 10 17 9 18 8 19 7 20 6 21 5 22
REMARK SMILES IDX 4 23 3 24 2 25 1 26
REMARK H PARENT
REMARK Flexibility Score: inf
ROOT
ATOM      1  C   UNL     1      43.250  49.019   8.488  1.00  0.00     0.000 C 
ENDROOT
BRANCH   1   2
ATOM      2  C   UNL     1      42.007  49.203   7.604  1.00  0.00     0.000 C 
BRANCH   2   3
ATOM      3  C   UNL     1      41.179  47.912   7.459  1.00  0.00     0.000 C 
BRANCH   3   4
ATOM      4  C   UNL     1      41.654  46.734   8.330  1.00  0.00     0.000 C 
BRANCH   4   5
ATOM      5  C   UNL     1      40.488  45.955   8.964  1.00  0.00     0.000 C 
BRANCH   5   6
ATOM      6  C   UNL     1      40.372  46.191  10.479  1.00  0.00     0.000 C 
BRANCH   6   7
ATOM      7  C   UNL     1      41.648  46.805  11.080  1.00  0.00     0.000 C 
BRANCH   7   8
ATOM      8  C   UNL     1      41.417  47.429  12.469  1.00  0.00     0.000 C 
BRANCH   8   9
ATOM      9  C   UNL     1      42.515  48.399  12.947  1.00  0.00     0.000 C 
BRANCH   9  10
ATOM     10  C   UNL     1      42.016  49.764  13.459  1.00  0.00     0.006 C 
BRANCH  10  11
ATOM     11  C   UNL     1      40.594  50.127  12.993  1.00  0.00     0.053 C 
BRANCH  11  12
ATOM     12  C   UNL     1      39.897  51.058  13.938  1.00  0.00     0.041 C 
ATOM     13  O   UNL     1      40.370  51.269  15.086  1.00  0.00    -0.550 OA
ATOM     14  O   UNL     1      38.705  51.665  13.565  1.00  0.00    -0.550 OA
ENDBRANCH  11  12
ENDBRANCH  10  11
ENDBRANCH   9  10
ENDBRANCH   8   9
ENDBRANCH   7   8
ENDBRANCH   6   7
ENDBRANCH   5   6
ENDBRANCH   4   5
ENDBRANCH   3   4
ENDBRANCH   2   3
ENDBRANCH   1   2
BRANCH   1  15
ATOM     15  C   UNL     1      43.139  49.858   9.771  1.00  0.00     0.000 C 
BRANCH  15  16
ATOM     16  C   UNL     1      44.384  50.727  10.031  1.00  0.00     0.000 C 
BRANCH  16  17
ATOM     17  C   UNL     1      45.022  50.558  11.423  1.00  0.00     0.000 C 
BRANCH  17  18
ATOM     18  C   UNL     1      46.499  50.984  11.462  1.00  0.00    -0.000 C 
BRANCH  18  19
ATOM     19  C   UNL     1      47.352  50.256  10.411  1.00  0.00    -0.000 C 
BRANCH  19  20
ATOM     20  C   UNL     1      47.587  48.774  10.756  1.00  0.00    -0.000 C 
BRANCH  20  21
ATOM     21  C   UNL     1      46.859  47.824   9.794  1.00  0.00    -0.000 C 
BRANCH  21  22
ATOM     22  C   UNL     1      46.295  46.582  10.504  1.00  0.00    -0.000 C 
BRANCH  22  23
ATOM     23  C   UNL     1      45.045  46.019   9.806  1.00  0.00    -0.000 C 
BRANCH  23  24
ATOM     24  C   UNL     1      45.385  45.261   8.511  1.00  0.00    -0.000 C 
BRANCH  24  25
ATOM     25  C   UNL     1      46.602  44.336   8.672  1.00  0.00    -0.003 C 
ATOM     26  C   UNL     1      46.856  43.474   7.436  1.00  0.00     0.004 C 
ENDBRANCH  24  25
ENDBRANCH  23  24
ENDBRANCH  22  23
ENDBRANCH  21  22
ENDBRANCH  20  21
ENDBRANCH  19  20
ENDBRANCH  18  19
ENDBRANCH  17  18
ENDBRANCH  16  17
ENDBRANCH  15  16
ENDBRANCH   1  15
TORSDOF 22
ENDMDL
