MODEL 1
REMARK VINA RESULT:    -3.085      0.000      0.000
REMARK INTER + INTRA:          -3.459
REMARK INTER:                  -3.446
REMARK INTRA:                  -0.013
REMARK UNBOUND:                -0.013
REMARK SMILES CCCC(=O)[O-]
REMARK SMILES IDX 3 1 4 2 5 3 6 4 2 5 1 6
REMARK H PARENT
REMARK Flexibility Score: inf
ROOT
ATOM      1  C   UNL     1      31.374  -7.199  32.792  1.00  0.00     0.052 C 
ENDROOT
BRANCH   1   2
ATOM      2  C   UNL     1      31.522  -7.946  31.503  1.00  0.00     0.041 C 
ATOM      3  O   UNL     1      30.636  -8.763  31.139  1.00  0.00    -0.550 OA
ATOM      4  O   UNL     1      32.621  -7.712  30.684  1.00  0.00    -0.550 OA
ENDBRANCH   1   2
BRANCH   1   5
ATOM      5  C   UNL     1      31.826  -8.040  33.993  1.00  0.00     0.003 C 
ATOM      6  C   UNL     1      32.872  -7.324  34.846  1.00  0.00     0.004 C 
ENDBRANCH   1   5
TORSDOF 2
ENDMDL
MODEL 2
REMARK VINA RESULT:    -3.060      2.243      3.096
REMARK INTER + INTRA:          -3.430
REMARK INTER:                  -3.402
REMARK INTRA:                  -0.028
REMARK UNBOUND:                -0.013
REMARK SMILES CCCC(=O)[O-]
REMARK SMILES IDX 3 1 4 2 5 3 6 4 2 5 1 6
REMARK H PARENT
REMARK Flexibility Score: inf
ROOT
ATOM      1  C   UNL     1      31.538  -6.709  33.033  1.00  0.00     0.052 C 
ENDROOT
BRANCH   1   2
ATOM      2  C   UNL     1      32.017  -7.681  34.065  1.00  0.00     0.041 C 
ATOM      3  O   UNL     1      31.531  -8.842  34.117  1.00  0.00    -0.550 OA
ATOM      4  O   UNL     1      33.027  -7.319  34.949  1.00  0.00    -0.550 OA
ENDBRANCH   1   2
BRANCH   1   5
ATOM      5  C   UNL     1      31.126  -7.413  31.734  1.00  0.00     0.003 C 
ATOM      6  C   UNL     1      32.331  -7.851  30.902  1.00  0.00     0.004 C 
ENDBRANCH   1   5
TORSDOF 2
ENDMDL
MODEL 3
REMARK VINA RESULT:    -3.046      0.265      1.343
REMARK INTER + INTRA:          -3.415
REMARK INTER:                  -3.403
REMARK INTRA:                  -0.012
REMARK UNBOUND:                -0.013
REMARK SMILES CCCC(=O)[O-]
REMARK SMILES IDX 3 1 4 2 5 3 6 4 2 5 1 6
REMARK H PARENT
REMARK Flexibility Score: inf
ROOT
ATOM      1  C   UNL     1      31.402  -7.105  32.993  1.00  0.00     0.052 C 
ENDROOT
BRANCH   1   2
ATOM      2  C   UNL     1      31.418  -7.829  31.682  1.00  0.00     0.041 C 
ATOM      3  O   UNL     1      32.296  -7.561  30.820  1.00  0.00    -0.550 OA
ATOM      4  O   UNL     1      30.484  -8.826  31.425  1.00  0.00    -0.550 OA
ENDBRANCH   1   2
BRANCH   1   5
ATOM      5  C   UNL     1      31.890  -7.996  34.142  1.00  0.00     0.003 C 
ATOM      6  C   UNL     1      33.014  -7.345  34.947  1.00  0.00     0.004 C 
ENDBRANCH   1   5
TORSDOF 2
ENDMDL
MODEL 4
REMARK VINA RESULT:    -2.814     15.468     16.365
REMARK INTER + INTRA:          -3.156
REMARK INTER:                  -3.148
REMARK INTRA:                  -0.008
REMARK UNBOUND:                -0.013
REMARK SMILES CCCC(=O)[O-]
REMARK SMILES IDX 3 1 4 2 5 3 6 4 2 5 1 6
REMARK H PARENT
REMARK Flexibility Score: inf
ROOT
ATOM      1  C   UNL     1      37.754   5.322  40.477  1.00  0.00     0.052 C 
ENDROOT
BRANCH   1   2
ATOM      2  C   UNL     1      36.614   6.261  40.227  1.00  0.00     0.041 C 
ATOM      3  O   UNL     1      35.471   5.811  39.952  1.00  0.00    -0.550 OA
ATOM      4  O   UNL     1      36.807   7.634  40.333  1.00  0.00    -0.550 OA
ENDBRANCH   1   2
BRANCH   1   5
ATOM      5  C   UNL     1      37.781   4.175  39.459  1.00  0.00     0.003 C 
ATOM      6  C   UNL     1      38.987   3.256  39.649  1.00  0.00     0.004 C 
ENDBRANCH   1   5
TORSDOF 2
ENDMDL
MODEL 5
REMARK VINA RESULT:    -2.767      2.212      3.111
REMARK INTER + INTRA:          -3.103
REMARK INTER:                  -3.036
REMARK INTRA:                  -0.068
REMARK UNBOUND:                -0.013
REMARK SMILES CCCC(=O)[O-]
REMARK SMILES IDX 3 1 4 2 5 3 6 4 2 5 1 6
REMARK H PARENT
REMARK Flexibility Score: inf
ROOT
ATOM      1  C   UNL     1      31.667  -7.737  31.465  1.00  0.00     0.052 C 
ENDROOT
BRANCH   1   2
ATOM      2  C   UNL     1      31.041  -7.472  32.799  1.00  0.00     0.041 C 
ATOM      3  O   UNL     1      29.988  -6.785  32.880  1.00  0.00    -0.550 OA
ATOM      4  O   UNL     1      31.599  -8.013  33.951  1.00  0.00    -0.550 OA
ENDBRANCH   1   2
BRANCH   1   5
ATOM      5  C   UNL     1      31.932  -9.232  31.247  1.00  0.00     0.003 C 
ATOM      6  C   UNL     1      30.643 -10.052  31.209  1.00  0.00     0.004 C 
ENDBRANCH   1   5
TORSDOF 2
ENDMDL
MODEL 6
REMARK VINA RESULT:    -2.751      1.268      1.613
REMARK INTER + INTRA:          -3.086
REMARK INTER:                  -3.018
REMARK INTRA:                  -0.068
REMARK UNBOUND:                -0.013
REMARK SMILES CCCC(=O)[O-]
REMARK SMILES IDX 3 1 4 2 5 3 6 4 2 5 1 6
REMARK H PARENT
REMARK Flexibility Score: inf
ROOT
ATOM      1  C   UNL     1      31.505  -7.610  31.422  1.00  0.00     0.052 C 
ENDROOT
BRANCH   1   2
ATOM      2  C   UNL     1      31.030  -9.019  31.235  1.00  0.00     0.041 C 
ATOM      3  O   UNL     1      29.798  -9.276  31.230  1.00  0.00    -0.550 OA
ATOM      4  O   UNL     1      31.948 -10.042  31.029  1.00  0.00    -0.550 OA
ENDBRANCH   1   2
BRANCH   1   5
ATOM      5  C   UNL     1      31.215  -7.095  32.837  1.00  0.00     0.003 C 
ATOM      6  C   UNL     1      31.789  -8.008  33.919  1.00  0.00     0.004 C 
ENDBRANCH   1   5
TORSDOF 2
ENDMDL
MODEL 7
REMARK VINA RESULT:    -2.689     15.557     16.141
REMARK INTER + INTRA:          -3.016
REMARK INTER:                  -2.945
REMARK INTRA:                  -0.071
REMARK UNBOUND:                -0.013
REMARK SMILES CCCC(=O)[O-]
REMARK SMILES IDX 3 1 4 2 5 3 6 4 2 5 1 6
REMARK H PARENT
REMARK Flexibility Score: inf
ROOT
ATOM      1  C   UNL     1      37.920   4.015  39.405  1.00  0.00     0.052 C 
ENDROOT
BRANCH   1   2
ATOM      2  C   UNL     1      38.234   5.452  39.121  1.00  0.00     0.041 C 
ATOM      3  O   UNL     1      38.967   5.759  38.144  1.00  0.00    -0.550 OA
ATOM      4  O   UNL     1      37.687   6.454  39.914  1.00  0.00    -0.550 OA
ENDBRANCH   1   2
BRANCH   1   5
ATOM      5  C   UNL     1      39.169   3.232  39.827  1.00  0.00     0.003 C 
ATOM      6  C   UNL     1      39.868   3.858  41.034  1.00  0.00     0.004 C 
ENDBRANCH   1   5
TORSDOF 2
ENDMDL
MODEL 8
REMARK VINA RESULT:    -2.668     14.122     14.504
REMARK INTER + INTRA:          -2.992
REMARK INTER:                  -2.965
REMARK INTRA:                  -0.027
REMARK UNBOUND:                -0.013
REMARK SMILES CCCC(=O)[O-]
REMARK SMILES IDX 3 1 4 2 5 3 6 4 2 5 1 6
REMARK H PARENT
REMARK Flexibility Score: inf
ROOT
ATOM      1  C   UNL     1      22.713  -2.011  41.740  1.00  0.00     0.052 C 
ENDROOT
BRANCH   1   2
ATOM      2  C   UNL     1      22.658  -1.525  40.325  1.00  0.00     0.041 C 
ATOM      3  O   UNL     1      23.160  -2.215  39.398  1.00  0.00    -0.550 OA
ATOM      4  O   UNL     1      22.021  -0.327  40.023  1.00  0.00    -0.550 OA
ENDBRANCH   1   2
BRANCH   1   5
ATOM      5  C   UNL     1      21.318  -2.348  42.281  1.00  0.00     0.003 C 
ATOM      6  C   UNL     1      21.001  -1.605  43.579  1.00  0.00     0.004 C 
ENDBRANCH   1   5
TORSDOF 2
ENDMDL
MODEL 9
REMARK VINA RESULT:    -2.631     14.654     15.080
REMARK INTER + INTRA:          -2.951
REMARK INTER:                  -2.922
REMARK INTRA:                  -0.029
REMARK UNBOUND:                -0.013
REMARK SMILES CCCC(=O)[O-]
REMARK SMILES IDX 3 1 4 2 5 3 6 4 2 5 1 6
REMARK H PARENT
REMARK Flexibility Score: inf
ROOT
ATOM      1  C   UNL     1      22.929  -1.996  41.425  1.00  0.00     0.052 C 
ENDROOT
BRANCH   1   2
ATOM      2  C   UNL     1      22.054  -2.250  42.614  1.00  0.00     0.041 C 
ATOM      3  O   UNL     1      20.804  -2.309  42.479  1.00  0.00    -0.550 OA
ATOM      4  O   UNL     1      22.622  -2.457  43.866  1.00  0.00    -0.550 OA
ENDBRANCH   1   2
BRANCH   1   5
ATOM      5  C   UNL     1      22.130  -1.448  40.236  1.00  0.00     0.003 C 
ATOM      6  C   UNL     1      22.044   0.078  40.246  1.00  0.00     0.004 C 
ENDBRANCH   1   5
TORSDOF 2
ENDMDL
