MODEL 1
REMARK VINA RESULT:    -3.790      0.000      0.000
REMARK INTER + INTRA:          -4.913
REMARK INTER:                  -4.676
REMARK INTRA:                  -0.237
REMARK UNBOUND:                -0.237
REMARK SMILES C=CCc1ccc(OC)c(OC)c1
REMARK SMILES IDX 7 1 10 2 13 3 4 4 5 5 6 6 8 7 9 8 11 9 12 10 3 11 2 12 1 13
REMARK H PARENT
REMARK Flexibility Score: inf
ROOT
ATOM      1  C   UNL     1     116.962 117.512 121.682  1.00  0.00     0.160 A 
ATOM      2  C   UNL     1     117.608 118.254 120.681  1.00  0.00     0.160 A 
ATOM      3  C   UNL     1     116.848 118.858 119.659  1.00  0.00     0.054 A 
ATOM      4  C   UNL     1     115.452 118.719 119.632  1.00  0.00    -0.040 A 
ATOM      5  C   UNL     1     114.814 117.986 120.642  1.00  0.00     0.008 A 
ATOM      6  C   UNL     1     115.560 117.384 121.655  1.00  0.00     0.051 A 
ENDROOT
BRANCH   1   7
ATOM      7  O   UNL     1     117.746 116.920 122.685  1.00  0.00    -0.493 OA
ATOM      8  C   UNL     1     117.609 115.573 123.125  1.00  0.00     0.278 C 
ENDBRANCH   1   7
BRANCH   2   9
ATOM      9  O   UNL     1     119.006 118.370 120.735  1.00  0.00    -0.493 OA
ATOM     10  C   UNL     1     119.885 118.056 119.660  1.00  0.00     0.278 C 
ENDBRANCH   2   9
BRANCH   4  11
ATOM     11  C   UNL     1     114.639 119.392 118.558  1.00  0.00     0.062 C 
BRANCH  11  12
ATOM     12  C   UNL     1     114.581 120.877 118.785  1.00  0.00    -0.030 C 
ATOM     13  C   UNL     1     113.974 121.697 117.921  1.00  0.00     0.004 C 
ENDBRANCH  11  12
ENDBRANCH   4  11
TORSDOF 4
ENDMDL
MODEL 2
REMARK VINA RESULT:    -3.750      3.028      4.220
REMARK INTER + INTRA:          -4.863
REMARK INTER:                  -4.618
REMARK INTRA:                  -0.245
REMARK UNBOUND:                -0.237
REMARK SMILES C=CCc1ccc(OC)c(OC)c1
REMARK SMILES IDX 7 1 10 2 13 3 4 4 5 5 6 6 8 7 9 8 11 9 12 10 3 11 2 12 1 13
REMARK H PARENT
REMARK Flexibility Score: inf
ROOT
ATOM      1  C   UNL     1     115.538 116.904 121.745  1.00  0.00     0.160 A 
ATOM      2  C   UNL     1     114.901 117.591 120.699  1.00  0.00     0.160 A 
ATOM      3  C   UNL     1     114.360 116.867 119.617  1.00  0.00     0.054 A 
ATOM      4  C   UNL     1     114.459 115.469 119.574  1.00  0.00    -0.040 A 
ATOM      5  C   UNL     1     115.088 114.790 120.627  1.00  0.00     0.008 A 
ATOM      6  C   UNL     1     115.626 115.499 121.701  1.00  0.00     0.051 A 
ENDROOT
BRANCH   1   7
ATOM      7  O   UNL     1     116.068 117.652 122.808  1.00  0.00    -0.493 OA
ATOM      8  C   UNL     1     117.454 117.733 123.124  1.00  0.00     0.278 C 
ENDBRANCH   1   7
BRANCH   2   9
ATOM      9  O   UNL     1     114.822 118.990 120.772  1.00  0.00    -0.493 OA
ATOM     10  C   UNL     1     115.178 119.875 119.715  1.00  0.00     0.278 C 
ENDBRANCH   2   9
BRANCH   4  11
ATOM     11  C   UNL     1     113.853 114.695 118.432  1.00  0.00     0.062 C 
BRANCH  11  12
ATOM     12  C   UNL     1     112.353 114.697 118.525  1.00  0.00    -0.030 C 
ATOM     13  C   UNL     1     111.610 113.770 117.911  1.00  0.00     0.004 C 
ENDBRANCH  11  12
ENDBRANCH   4  11
TORSDOF 4
ENDMDL
MODEL 3
REMARK VINA RESULT:    -3.748      2.984      4.248
REMARK INTER + INTRA:          -4.862
REMARK INTER:                  -4.623
REMARK INTRA:                  -0.238
REMARK UNBOUND:                -0.237
REMARK SMILES C=CCc1ccc(OC)c(OC)c1
REMARK SMILES IDX 7 1 10 2 13 3 4 4 5 5 6 6 8 7 9 8 11 9 12 10 3 11 2 12 1 13
REMARK H PARENT
REMARK Flexibility Score: inf
ROOT
ATOM      1  C   UNL     1     117.570 116.257 121.549  1.00  0.00     0.160 A 
ATOM      2  C   UNL     1     118.329 115.586 120.578  1.00  0.00     0.160 A 
ATOM      3  C   UNL     1     118.946 116.319 119.545  1.00  0.00     0.054 A 
ATOM      4  C   UNL     1     118.802 117.713 119.475  1.00  0.00    -0.040 A 
ATOM      5  C   UNL     1     118.050 118.376 120.454  1.00  0.00     0.008 A 
ATOM      6  C   UNL     1     117.436 117.658 121.479  1.00  0.00     0.051 A 
ENDROOT
BRANCH   1   7
ATOM      7  O   UNL     1     116.966 115.500 122.565  1.00  0.00    -0.493 OA
ATOM      8  C   UNL     1     115.629 115.683 123.021  1.00  0.00     0.278 C 
ENDBRANCH   1   7
BRANCH   2   9
ATOM      9  O   UNL     1     118.451 114.190 120.675  1.00  0.00    -0.493 OA
ATOM     10  C   UNL     1     118.004 113.270 119.686  1.00  0.00     0.278 C 
ENDBRANCH   2   9
BRANCH   4  11
ATOM     11  C   UNL     1     119.487 118.498 118.388  1.00  0.00     0.062 C 
BRANCH  11  12
ATOM     12  C   UNL     1     120.968 118.568 118.634  1.00  0.00    -0.030 C 
ATOM     13  C   UNL     1     121.768 119.345 117.897  1.00  0.00     0.004 C 
ENDBRANCH  11  12
ENDBRANCH   4  11
TORSDOF 4
ENDMDL
MODEL 4
REMARK VINA RESULT:    -3.733      3.855      5.991
REMARK INTER + INTRA:          -4.843
REMARK INTER:                  -4.595
REMARK INTRA:                  -0.248
REMARK UNBOUND:                -0.237
REMARK SMILES C=CCc1ccc(OC)c(OC)c1
REMARK SMILES IDX 7 1 10 2 13 3 4 4 5 5 6 6 8 7 9 8 11 9 12 10 3 11 2 12 1 13
REMARK H PARENT
REMARK Flexibility Score: inf
ROOT
ATOM      1  C   UNL     1     116.225 115.479 121.674  1.00  0.00     0.160 A 
ATOM      2  C   UNL     1     115.493 114.932 120.609  1.00  0.00     0.160 A 
ATOM      3  C   UNL     1     116.173 114.342 119.525  1.00  0.00     0.054 A 
ATOM      4  C   UNL     1     117.575 114.303 119.499  1.00  0.00    -0.040 A 
ATOM      5  C   UNL     1     118.298 114.842 120.571  1.00  0.00     0.008 A 
ATOM      6  C   UNL     1     117.632 115.429 121.648  1.00  0.00     0.051 A 
ENDROOT
BRANCH   1   7
ATOM      7  O   UNL     1     115.520 116.062 122.739  1.00  0.00    -0.493 OA
ATOM      8  C   UNL     1     115.545 117.450 123.059  1.00  0.00     0.278 C 
ENDBRANCH   1   7
BRANCH   2   9
ATOM      9  O   UNL     1     114.091 114.991 120.664  1.00  0.00    -0.493 OA
ATOM     10  C   UNL     1     113.252 115.314 119.560  1.00  0.00     0.278 C 
ENDBRANCH   2   9
BRANCH   4  11
ATOM     11  C   UNL     1     118.299 113.644 118.355  1.00  0.00     0.062 C 
BRANCH  11  12
ATOM     12  C   UNL     1     118.711 112.245 118.720  1.00  0.00    -0.030 C 
ATOM     13  C   UNL     1     119.020 111.338 117.788  1.00  0.00     0.004 C 
ENDBRANCH  11  12
ENDBRANCH   4  11
TORSDOF 4
ENDMDL
MODEL 5
REMARK VINA RESULT:    -3.620      2.235      2.914
REMARK INTER + INTRA:          -4.703
REMARK INTER:                  -4.387
REMARK INTRA:                  -0.316
REMARK UNBOUND:                -0.237
REMARK SMILES C=CCc1ccc(OC)c(OC)c1
REMARK SMILES IDX 7 1 10 2 13 3 4 4 5 5 6 6 8 7 9 8 11 9 12 10 3 11 2 12 1 13
REMARK H PARENT
REMARK Flexibility Score: inf
ROOT
ATOM      1  C   UNL     1     115.058 116.411 119.925  1.00  0.00     0.160 A 
ATOM      2  C   UNL     1     115.241 117.231 121.050  1.00  0.00     0.160 A 
ATOM      3  C   UNL     1     115.160 118.631 120.912  1.00  0.00     0.054 A 
ATOM      4  C   UNL     1     114.904 119.211 119.661  1.00  0.00    -0.040 A 
ATOM      5  C   UNL     1     114.712 118.385 118.546  1.00  0.00     0.008 A 
ATOM      6  C   UNL     1     114.792 116.998 118.673  1.00  0.00     0.051 A 
ENDROOT
BRANCH   1   7
ATOM      7  O   UNL     1     115.147 115.020 120.093  1.00  0.00    -0.493 OA
ATOM      8  C   UNL     1     116.296 114.241 119.774  1.00  0.00     0.278 C 
ENDBRANCH   1   7
BRANCH   2   9
ATOM      9  O   UNL     1     115.499 116.618 122.286  1.00  0.00    -0.493 OA
ATOM     10  C   UNL     1     116.677 116.825 123.060  1.00  0.00     0.278 C 
ENDBRANCH   2   9
BRANCH   4  11
ATOM     11  C   UNL     1     114.786 120.706 119.522  1.00  0.00     0.062 C 
BRANCH  11  12
ATOM     12  C   UNL     1     114.426 121.084 118.113  1.00  0.00    -0.030 C 
ATOM     13  C   UNL     1     113.447 121.954 117.846  1.00  0.00     0.004 C 
ENDBRANCH  11  12
ENDBRANCH   4  11
TORSDOF 4
ENDMDL
MODEL 6
REMARK VINA RESULT:    -3.604      3.184      4.314
REMARK INTER + INTRA:          -4.684
REMARK INTER:                  -4.457
REMARK INTRA:                  -0.227
REMARK UNBOUND:                -0.237
REMARK SMILES C=CCc1ccc(OC)c(OC)c1
REMARK SMILES IDX 7 1 10 2 13 3 4 4 5 5 6 6 8 7 9 8 11 9 12 10 3 11 2 12 1 13
REMARK H PARENT
REMARK Flexibility Score: inf
ROOT
ATOM      1  C   UNL     1     116.853 116.556 120.425  1.00  0.00     0.160 A 
ATOM      2  C   UNL     1     116.633 115.178 120.276  1.00  0.00     0.160 A 
ATOM      3  C   UNL     1     115.326 114.701 120.048  1.00  0.00     0.054 A 
ATOM      4  C   UNL     1     114.245 115.591 119.976  1.00  0.00    -0.040 A 
ATOM      5  C   UNL     1     114.475 116.966 120.115  1.00  0.00     0.008 A 
ATOM      6  C   UNL     1     115.765 117.446 120.342  1.00  0.00     0.051 A 
ENDROOT
BRANCH   1   7
ATOM      7  O   UNL     1     118.165 117.001 120.653  1.00  0.00    -0.493 OA
ATOM      8  C   UNL     1     118.530 118.362 120.861  1.00  0.00     0.278 C 
ENDBRANCH   1   7
BRANCH   2   9
ATOM      9  O   UNL     1     117.737 114.314 120.357  1.00  0.00    -0.493 OA
ATOM     10  C   UNL     1     117.928 113.168 119.534  1.00  0.00     0.278 C 
ENDBRANCH   2   9
BRANCH   4  11
ATOM     11  C   UNL     1     112.854 115.082 119.701  1.00  0.00     0.062 C 
BRANCH  11  12
ATOM     12  C   UNL     1     112.705 114.695 118.256  1.00  0.00    -0.030 C 
ATOM     13  C   UNL     1     111.691 113.933 117.834  1.00  0.00     0.004 C 
ENDBRANCH  11  12
ENDBRANCH   4  11
TORSDOF 4
ENDMDL
MODEL 7
REMARK VINA RESULT:    -3.600      3.017      4.579
REMARK INTER + INTRA:          -4.678
REMARK INTER:                  -4.413
REMARK INTRA:                  -0.265
REMARK UNBOUND:                -0.237
REMARK SMILES C=CCc1ccc(OC)c(OC)c1
REMARK SMILES IDX 7 1 10 2 13 3 4 4 5 5 6 6 8 7 9 8 11 9 12 10 3 11 2 12 1 13
REMARK H PARENT
REMARK Flexibility Score: inf
ROOT
ATOM      1  C   UNL     1     116.608 115.859 120.366  1.00  0.00     0.160 A 
ATOM      2  C   UNL     1     116.722 117.149 120.905  1.00  0.00     0.160 A 
ATOM      3  C   UNL     1     117.906 117.887 120.704  1.00  0.00     0.054 A 
ATOM      4  C   UNL     1     118.972 117.340 119.975  1.00  0.00    -0.040 A 
ATOM      5  C   UNL     1     118.846 116.055 119.431  1.00  0.00     0.008 A 
ATOM      6  C   UNL     1     117.678 115.317 119.627  1.00  0.00     0.051 A 
ENDROOT
BRANCH   1   7
ATOM      7  O   UNL     1     115.418 115.147 120.584  1.00  0.00    -0.493 OA
ATOM      8  C   UNL     1     114.358 115.037 119.638  1.00  0.00     0.278 C 
ENDBRANCH   1   7
BRANCH   2   9
ATOM      9  O   UNL     1     115.638 117.665 121.632  1.00  0.00    -0.493 OA
ATOM     10  C   UNL     1     115.570 117.718 123.054  1.00  0.00     0.278 C 
ENDBRANCH   2   9
BRANCH   4  11
ATOM     11  C   UNL     1     120.224 118.142 119.735  1.00  0.00     0.062 C 
BRANCH  11  12
ATOM     12  C   UNL     1     120.357 118.498 118.281  1.00  0.00    -0.030 C 
ATOM     13  C   UNL     1     121.413 119.174 117.817  1.00  0.00     0.004 C 
ENDBRANCH  11  12
ENDBRANCH   4  11
TORSDOF 4
ENDMDL
MODEL 8
REMARK VINA RESULT:    -3.585      3.472      5.324
REMARK INTER + INTRA:          -4.660
REMARK INTER:                  -4.428
REMARK INTRA:                  -0.232
REMARK UNBOUND:                -0.237
REMARK SMILES C=CCc1ccc(OC)c(OC)c1
REMARK SMILES IDX 7 1 10 2 13 3 4 4 5 5 6 6 8 7 9 8 11 9 12 10 3 11 2 12 1 13
REMARK H PARENT
REMARK Flexibility Score: inf
ROOT
ATOM      1  C   UNL     1     116.397 116.811 120.098  1.00  0.00     0.160 A 
ATOM      2  C   UNL     1     117.790 116.644 120.127  1.00  0.00     0.160 A 
ATOM      3  C   UNL     1     118.340 115.352 119.996  1.00  0.00     0.054 A 
ATOM      4  C   UNL     1     117.507 114.235 119.842  1.00  0.00    -0.040 A 
ATOM      5  C   UNL     1     116.117 114.412 119.803  1.00  0.00     0.008 A 
ATOM      6  C   UNL     1     115.565 115.687 119.934  1.00  0.00     0.051 A 
ENDROOT
BRANCH   1   7
ATOM      7  O   UNL     1     115.878 118.109 120.234  1.00  0.00    -0.493 OA
ATOM      8  C   UNL     1     114.778 118.454 121.070  1.00  0.00     0.278 C 
ENDBRANCH   1   7
BRANCH   2   9
ATOM      9  O   UNL     1     118.595 117.783 120.286  1.00  0.00    -0.493 OA
ATOM     10  C   UNL     1     119.766 118.056 119.525  1.00  0.00     0.278 C 
ENDBRANCH   2   9
BRANCH   4  11
ATOM     11  C   UNL     1     118.097 112.860 119.669  1.00  0.00     0.062 C 
BRANCH  11  12
ATOM     12  C   UNL     1     118.530 112.641 118.247  1.00  0.00    -0.030 C 
ATOM     13  C   UNL     1     119.198 111.544 117.877  1.00  0.00     0.004 C 
ENDBRANCH  11  12
ENDBRANCH   4  11
TORSDOF 4
ENDMDL
MODEL 9
REMARK VINA RESULT:    -3.558      2.127      3.204
REMARK INTER + INTRA:          -4.627
REMARK INTER:                  -4.391
REMARK INTRA:                  -0.237
REMARK UNBOUND:                -0.237
REMARK SMILES C=CCc1ccc(OC)c(OC)c1
REMARK SMILES IDX 7 1 10 2 13 3 4 4 5 5 6 6 8 7 9 8 11 9 12 10 3 11 2 12 1 13
REMARK H PARENT
REMARK Flexibility Score: inf
ROOT
ATOM      1  C   UNL     1     116.676 116.330 120.442  1.00  0.00     0.160 A 
ATOM      2  C   UNL     1     115.289 116.517 120.345  1.00  0.00     0.160 A 
ATOM      3  C   UNL     1     114.773 117.808 120.112  1.00  0.00     0.054 A 
ATOM      4  C   UNL     1     115.635 118.907 119.982  1.00  0.00    -0.040 A 
ATOM      5  C   UNL     1     117.019 118.710 120.070  1.00  0.00     0.008 A 
ATOM      6  C   UNL     1     117.538 117.436 120.301  1.00  0.00     0.051 A 
ENDROOT
BRANCH   1   7
ATOM      7  O   UNL     1     117.160 115.034 120.676  1.00  0.00    -0.493 OA
ATOM      8  C   UNL     1     118.089 114.355 119.836  1.00  0.00     0.278 C 
ENDBRANCH   1   7
BRANCH   2   9
ATOM      9  O   UNL     1     114.454 115.397 120.484  1.00  0.00    -0.493 OA
ATOM     10  C   UNL     1     113.310 115.137 119.677  1.00  0.00     0.278 C 
ENDBRANCH   2   9
BRANCH   4  11
ATOM     11  C   UNL     1     115.084 120.280 119.702  1.00  0.00     0.062 C 
BRANCH  11  12
ATOM     12  C   UNL     1     114.588 120.377 118.286  1.00  0.00    -0.030 C 
ATOM     13  C   UNL     1     113.927 121.451 117.844  1.00  0.00     0.004 C 
ENDBRANCH  11  12
ENDBRANCH   4  11
TORSDOF 4
ENDMDL
