MODEL 1
REMARK VINA RESULT:    -7.819      0.000      0.000
REMARK INTER + INTRA:          -9.359
REMARK INTER:                  -8.504
REMARK INTRA:                  -0.855
REMARK UNBOUND:                -0.855
REMARK SMILES C=C(C)[C@@H]1CC[C@]2(C)CC[C@@]3(C)[C@H](CC[C@H]4[C@@]5(C)CC[C@H](O)C(C)(C)[C@@H]5CC[C@]43C)[C@@H]12
REMARK SMILES IDX 4 1 5 2 6 3 7 4 31 5 13 6 14 7 15 8 16 9 17 10 19 11 20 12
REMARK SMILES IDX 21 13 23 14 26 15 27 16 28 17 29 18 11 19 10 20 9 21 12 22
REMARK SMILES IDX 30 23 24 24 25 25 18 26 8 27 2 28 3 29 1 30 22 31
REMARK H PARENT 22 32
REMARK Flexibility Score: inf
ROOT
ATOM      1  C   UNL     1     112.955 117.359 128.572  1.00  0.00     0.018 C 
ATOM      2  C   UNL     1     112.207 117.409 129.933  1.00  0.00     0.009 C 
ATOM      3  C   UNL     1     113.285 117.362 131.040  1.00  0.00     0.008 C 
ATOM      4  C   UNL     1     114.526 116.785 130.346  1.00  0.00    -0.029 C 
ATOM      5  C   UNL     1     114.427 117.505 128.981  1.00  0.00     0.006 C 
ATOM      6  C   UNL     1     115.619 117.078 128.098  1.00  0.00    -0.000 C 
ATOM      7  C   UNL     1     115.436 117.142 126.590  1.00  0.00     0.005 C 
ATOM      8  C   UNL     1     115.698 118.507 126.017  1.00  0.00     0.005 C 
ATOM      9  C   UNL     1     117.166 118.975 126.249  1.00  0.00     0.002 C 
ATOM     10  C   UNL     1     117.508 120.300 125.390  1.00  0.00    -0.026 C 
ATOM     11  C   UNL     1     117.017 120.178 123.904  1.00  0.00     0.010 C 
ATOM     12  C   UNL     1     117.173 121.468 123.080  1.00  0.00     0.033 C 
ATOM     13  C   UNL     1     116.410 122.631 123.723  1.00  0.00     0.120 C 
ATOM     14  C   UNL     1     116.838 122.895 125.204  1.00  0.00    -0.006 C 
ATOM     15  C   UNL     1     116.760 121.533 126.023  1.00  0.00     0.003 C 
ATOM     16  C   UNL     1     117.065 121.672 127.528  1.00  0.00     0.005 C 
ATOM     17  C   UNL     1     116.755 120.393 128.330  1.00  0.00     0.008 C 
ATOM     18  C   UNL     1     117.450 119.077 127.824  1.00  0.00    -0.024 C 
ATOM     19  C   UNL     1     116.966 117.725 128.640  1.00  0.00    -0.024 C 
ATOM     20  C   UNL     1     116.831 118.022 130.208  1.00  0.00     0.008 C 
ATOM     21  C   UNL     1     115.903 117.086 131.024  1.00  0.00     0.007 C 
ATOM     22  C   UNL     1     118.037 116.589 128.503  1.00  0.00     0.012 C 
ATOM     23  C   UNL     1     118.977 119.257 128.122  1.00  0.00     0.012 C 
ATOM     24  C   UNL     1     115.822 123.913 125.796  1.00  0.00     0.014 C 
ATOM     25  C   UNL     1     118.233 123.574 125.253  1.00  0.00     0.014 C 
ATOM     26  C   UNL     1     119.065 120.475 125.331  1.00  0.00     0.012 C 
ATOM     27  C   UNL     1     114.347 115.230 130.290  1.00  0.00     0.011 C 
ENDROOT
BRANCH   1  28
ATOM     28  C   UNL     1     112.465 118.434 127.600  1.00  0.00    -0.077 C 
ATOM     29  C   UNL     1     112.824 119.879 127.832  1.00  0.00     0.039 C 
ATOM     30  C   UNL     1     111.739 118.125 126.510  1.00  0.00     0.008 C 
ENDBRANCH   1  28
BRANCH  13  31
ATOM     31  O   UNL     1     116.604 123.781 122.930  1.00  0.00    -0.393 OA
ATOM     32  H   UNL     1     117.582 123.898 122.807  1.00  0.00     0.210 HD
ENDBRANCH  13  31
TORSDOF 2
ENDMDL
MODEL 2
REMARK VINA RESULT:    -7.645      2.500      3.749
REMARK INTER + INTRA:          -9.170
REMARK INTER:                  -8.318
REMARK INTRA:                  -0.852
REMARK UNBOUND:                -0.855
REMARK SMILES C=C(C)[C@@H]1CC[C@]2(C)CC[C@@]3(C)[C@H](CC[C@H]4[C@@]5(C)CC[C@H](O)C(C)(C)[C@@H]5CC[C@]43C)[C@@H]12
REMARK SMILES IDX 4 1 5 2 6 3 7 4 31 5 13 6 14 7 15 8 16 9 17 10 19 11 20 12
REMARK SMILES IDX 21 13 23 14 26 15 27 16 28 17 29 18 11 19 10 20 9 21 12 22
REMARK SMILES IDX 30 23 24 24 25 25 18 26 8 27 2 28 3 29 1 30 22 31
REMARK H PARENT 22 32
REMARK Flexibility Score: inf
ROOT
ATOM      1  C   UNL     1     111.777 117.958 125.714  1.00  0.00     0.018 C 
ATOM      2  C   UNL     1     110.875 118.999 126.433  1.00  0.00     0.009 C 
ATOM      3  C   UNL     1     111.510 119.264 127.817  1.00  0.00     0.008 C 
ATOM      4  C   UNL     1     112.415 118.050 128.065  1.00  0.00    -0.029 C 
ATOM      5  C   UNL     1     112.993 117.854 126.645  1.00  0.00     0.006 C 
ATOM      6  C   UNL     1     113.974 116.662 126.660  1.00  0.00    -0.000 C 
ATOM      7  C   UNL     1     114.186 115.908 125.357  1.00  0.00     0.005 C 
ATOM      8  C   UNL     1     115.214 116.544 124.464  1.00  0.00     0.005 C 
ATOM      9  C   UNL     1     116.626 116.587 125.120  1.00  0.00     0.002 C 
ATOM     10  C   UNL     1     117.764 117.006 124.053  1.00  0.00    -0.026 C 
ATOM     11  C   UNL     1     117.621 116.216 122.703  1.00  0.00     0.010 C 
ATOM     12  C   UNL     1     118.577 116.684 121.593  1.00  0.00     0.033 C 
ATOM     13  C   UNL     1     118.376 118.171 121.280  1.00  0.00     0.120 C 
ATOM     14  C   UNL     1     118.539 119.085 122.540  1.00  0.00    -0.006 C 
ATOM     15  C   UNL     1     117.613 118.535 123.710  1.00  0.00     0.003 C 
ATOM     16  C   UNL     1     117.605 119.405 124.983  1.00  0.00     0.005 C 
ATOM     17  C   UNL     1     116.530 118.979 126.001  1.00  0.00     0.008 C 
ATOM     18  C   UNL     1     116.567 117.474 126.454  1.00  0.00    -0.024 C 
ATOM     19  C   UNL     1     115.306 117.054 127.435  1.00  0.00    -0.024 C 
ATOM     20  C   UNL     1     114.994 118.215 128.494  1.00  0.00     0.008 C 
ATOM     21  C   UNL     1     113.569 118.246 129.103  1.00  0.00     0.007 C 
ATOM     22  C   UNL     1     115.666 115.782 128.277  1.00  0.00     0.012 C 
ATOM     23  C   UNL     1     117.869 117.316 127.308  1.00  0.00     0.012 C 
ATOM     24  C   UNL     1     118.065 120.509 122.131  1.00  0.00     0.014 C 
ATOM     25  C   UNL     1     120.036 119.206 122.932  1.00  0.00     0.014 C 
ATOM     26  C   UNL     1     119.169 116.631 124.639  1.00  0.00     0.012 C 
ATOM     27  C   UNL     1     111.500 116.886 128.577  1.00  0.00     0.011 C 
ENDROOT
BRANCH   1  28
ATOM     28  C   UNL     1     112.119 118.374 124.282  1.00  0.00    -0.077 C 
ATOM     29  C   UNL     1     113.038 119.543 124.037  1.00  0.00     0.039 C 
ATOM     30  C   UNL     1     111.643 117.704 123.217  1.00  0.00     0.008 C 
ENDBRANCH   1  28
BRANCH  13  31
ATOM     31  O   UNL     1     119.288 118.539 120.270  1.00  0.00    -0.393 OA
ATOM     32  H   UNL     1     119.568 119.475 120.446  1.00  0.00     0.210 HD
ENDBRANCH  13  31
TORSDOF 2
ENDMDL
MODEL 3
REMARK VINA RESULT:    -7.597      1.589      4.147
REMARK INTER + INTRA:          -9.118
REMARK INTER:                  -8.349
REMARK INTRA:                  -0.769
REMARK UNBOUND:                -0.855
REMARK SMILES C=C(C)[C@@H]1CC[C@]2(C)CC[C@@]3(C)[C@H](CC[C@H]4[C@@]5(C)CC[C@H](O)C(C)(C)[C@@H]5CC[C@]43C)[C@@H]12
REMARK SMILES IDX 4 1 5 2 6 3 7 4 31 5 13 6 14 7 15 8 16 9 17 10 19 11 20 12
REMARK SMILES IDX 21 13 23 14 26 15 27 16 28 17 29 18 11 19 10 20 9 21 12 22
REMARK SMILES IDX 30 23 24 24 25 25 18 26 8 27 2 28 3 29 1 30 22 31
REMARK H PARENT 22 32
REMARK Flexibility Score: inf
ROOT
ATOM      1  C   UNL     1     115.079 117.476 130.295  1.00  0.00     0.018 C 
ATOM      2  C   UNL     1     114.920 116.028 130.833  1.00  0.00     0.009 C 
ATOM      3  C   UNL     1     113.792 115.364 130.011  1.00  0.00     0.008 C 
ATOM      4  C   UNL     1     113.009 116.539 129.411  1.00  0.00    -0.029 C 
ATOM      5  C   UNL     1     114.179 117.483 129.051  1.00  0.00     0.006 C 
ATOM      6  C   UNL     1     113.613 118.761 128.397  1.00  0.00    -0.000 C 
ATOM      7  C   UNL     1     114.434 120.035 128.515  1.00  0.00     0.005 C 
ATOM      8  C   UNL     1     115.501 120.154 127.462  1.00  0.00     0.005 C 
ATOM      9  C   UNL     1     114.909 120.207 126.022  1.00  0.00     0.002 C 
ATOM     10  C   UNL     1     116.031 120.617 124.934  1.00  0.00    -0.026 C 
ATOM     11  C   UNL     1     116.884 121.848 125.408  1.00  0.00     0.010 C 
ATOM     12  C   UNL     1     118.070 122.186 124.489  1.00  0.00     0.033 C 
ATOM     13  C   UNL     1     119.021 120.992 124.350  1.00  0.00     0.120 C 
ATOM     14  C   UNL     1     118.304 119.700 123.836  1.00  0.00    -0.006 C 
ATOM     15  C   UNL     1     117.027 119.414 124.740  1.00  0.00     0.003 C 
ATOM     16  C   UNL     1     116.282 118.107 124.401  1.00  0.00     0.005 C 
ATOM     17  C   UNL     1     115.199 117.741 125.434  1.00  0.00     0.008 C 
ATOM     18  C   UNL     1     114.118 118.845 125.720  1.00  0.00    -0.024 C 
ATOM     19  C   UNL     1     113.074 118.441 126.936  1.00  0.00    -0.024 C 
ATOM     20  C   UNL     1     112.656 116.898 126.840  1.00  0.00     0.008 C 
ATOM     21  C   UNL     1     112.150 116.224 128.141  1.00  0.00     0.007 C 
ATOM     22  C   UNL     1     111.745 119.261 126.812  1.00  0.00     0.012 C 
ATOM     23  C   UNL     1     113.261 118.955 124.415  1.00  0.00     0.012 C 
ATOM     24  C   UNL     1     119.317 118.529 123.986  1.00  0.00     0.014 C 
ATOM     25  C   UNL     1     117.982 119.823 122.322  1.00  0.00     0.014 C 
ATOM     26  C   UNL     1     115.315 121.057 123.611  1.00  0.00     0.012 C 
ATOM     27  C   UNL     1     112.044 117.072 130.524  1.00  0.00     0.011 C 
ENDROOT
BRANCH   1  28
ATOM     28  C   UNL     1     116.538 117.836 130.014  1.00  0.00    -0.077 C 
ATOM     29  C   UNL     1     117.164 117.466 128.694  1.00  0.00     0.039 C 
ATOM     30  C   UNL     1     117.287 118.509 130.908  1.00  0.00     0.008 C 
ENDBRANCH   1  28
BRANCH  13  31
ATOM     31  O   UNL     1     120.073 121.361 123.487  1.00  0.00    -0.393 OA
ATOM     32  H   UNL     1     119.843 122.243 123.093  1.00  0.00     0.210 HD
ENDBRANCH  13  31
TORSDOF 2
ENDMDL
MODEL 4
REMARK VINA RESULT:    -7.436      2.108      4.734
REMARK INTER + INTRA:          -8.942
REMARK INTER:                  -8.094
REMARK INTRA:                  -0.848
REMARK UNBOUND:                -0.855
REMARK SMILES C=C(C)[C@@H]1CC[C@]2(C)CC[C@@]3(C)[C@H](CC[C@H]4[C@@]5(C)CC[C@H](O)C(C)(C)[C@@H]5CC[C@]43C)[C@@H]12
REMARK SMILES IDX 4 1 5 2 6 3 7 4 31 5 13 6 14 7 15 8 16 9 17 10 19 11 20 12
REMARK SMILES IDX 21 13 23 14 26 15 27 16 28 17 29 18 11 19 10 20 9 21 12 22
REMARK SMILES IDX 30 23 24 24 25 25 18 26 8 27 2 28 3 29 1 30 22 31
REMARK H PARENT 22 32
REMARK Flexibility Score: inf
ROOT
ATOM      1  C   UNL     1     113.565 117.692 128.137  1.00  0.00     0.018 C 
ATOM      2  C   UNL     1     112.813 116.377 127.791  1.00  0.00     0.009 C 
ATOM      3  C   UNL     1     112.175 116.578 126.397  1.00  0.00     0.008 C 
ATOM      4  C   UNL     1     112.128 118.100 126.209  1.00  0.00    -0.029 C 
ATOM      5  C   UNL     1     113.493 118.486 126.825  1.00  0.00     0.006 C 
ATOM      6  C   UNL     1     113.675 120.015 126.726  1.00  0.00    -0.000 C 
ATOM      7  C   UNL     1     114.578 120.685 127.750  1.00  0.00     0.005 C 
ATOM      8  C   UNL     1     116.033 120.642 127.377  1.00  0.00     0.005 C 
ATOM      9  C   UNL     1     116.327 121.399 126.048  1.00  0.00     0.002 C 
ATOM     10  C   UNL     1     117.915 121.588 125.811  1.00  0.00    -0.026 C 
ATOM     11  C   UNL     1     118.644 122.094 127.106  1.00  0.00     0.010 C 
ATOM     12  C   UNL     1     120.177 122.141 126.990  1.00  0.00     0.033 C 
ATOM     13  C   UNL     1     120.749 120.761 126.649  1.00  0.00     0.120 C 
ATOM     14  C   UNL     1     120.137 120.154 125.343  1.00  0.00    -0.006 C 
ATOM     15  C   UNL     1     118.550 120.196 125.439  1.00  0.00     0.003 C 
ATOM     16  C   UNL     1     117.819 119.536 124.252  1.00  0.00     0.005 C 
ATOM     17  C   UNL     1     116.303 119.384 124.483  1.00  0.00     0.008 C 
ATOM     18  C   UNL     1     115.526 120.701 124.847  1.00  0.00    -0.024 C 
ATOM     19  C   UNL     1     113.937 120.444 125.218  1.00  0.00    -0.024 C 
ATOM     20  C   UNL     1     113.288 119.363 124.229  1.00  0.00     0.008 C 
ATOM     21  C   UNL     1     112.029 118.614 124.735  1.00  0.00     0.007 C 
ATOM     22  C   UNL     1     113.109 121.761 125.027  1.00  0.00     0.012 C 
ATOM     23  C   UNL     1     115.546 121.583 123.554  1.00  0.00     0.012 C 
ATOM     24  C   UNL     1     120.612 118.674 125.264  1.00  0.00     0.014 C 
ATOM     25  C   UNL     1     120.706 120.874 124.091  1.00  0.00     0.014 C 
ATOM     26  C   UNL     1     118.135 122.689 124.718  1.00  0.00     0.012 C 
ATOM     27  C   UNL     1     110.875 118.626 126.988  1.00  0.00     0.011 C 
ENDROOT
BRANCH   1  28
ATOM     28  C   UNL     1     114.987 117.435 128.636  1.00  0.00    -0.077 C 
ATOM     29  C   UNL     1     116.070 117.055 127.660  1.00  0.00     0.039 C 
ATOM     30  C   UNL     1     115.317 117.568 129.934  1.00  0.00     0.008 C 
ENDBRANCH   1  28
BRANCH  13  31
ATOM     31  O   UNL     1     122.150 120.874 126.542  1.00  0.00    -0.393 OA
ATOM     32  H   UNL     1     122.378 120.884 125.576  1.00  0.00     0.210 HD
ENDBRANCH  13  31
TORSDOF 2
ENDMDL
MODEL 5
REMARK VINA RESULT:    -7.361      2.422      6.927
REMARK INTER + INTRA:          -8.862
REMARK INTER:                  -8.009
REMARK INTRA:                  -0.852
REMARK UNBOUND:                -0.855
REMARK SMILES C=C(C)[C@@H]1CC[C@]2(C)CC[C@@]3(C)[C@H](CC[C@H]4[C@@]5(C)CC[C@H](O)C(C)(C)[C@@H]5CC[C@]43C)[C@@H]12
REMARK SMILES IDX 4 1 5 2 6 3 7 4 31 5 13 6 14 7 15 8 16 9 17 10 19 11 20 12
REMARK SMILES IDX 21 13 23 14 26 15 27 16 28 17 29 18 11 19 10 20 9 21 12 22
REMARK SMILES IDX 30 23 24 24 25 25 18 26 8 27 2 28 3 29 1 30 22 31
REMARK H PARENT 22 32
REMARK Flexibility Score: inf
ROOT
ATOM      1  C   UNL     1     116.799 122.781 125.353  1.00  0.00     0.018 C 
ATOM      2  C   UNL     1     116.458 123.501 124.019  1.00  0.00     0.009 C 
ATOM      3  C   UNL     1     116.783 122.510 122.879  1.00  0.00     0.008 C 
ATOM      4  C   UNL     1     117.745 121.495 123.510  1.00  0.00    -0.029 C 
ATOM      5  C   UNL     1     117.094 121.343 124.904  1.00  0.00     0.006 C 
ATOM      6  C   UNL     1     117.907 120.326 125.732  1.00  0.00    -0.000 C 
ATOM      7  C   UNL     1     117.862 120.453 127.246  1.00  0.00     0.005 C 
ATOM      8  C   UNL     1     116.672 119.772 127.864  1.00  0.00     0.005 C 
ATOM      9  C   UNL     1     116.667 118.236 127.604  1.00  0.00     0.002 C 
ATOM     10  C   UNL     1     115.554 117.486 128.503  1.00  0.00    -0.026 C 
ATOM     11  C   UNL     1     115.589 117.964 129.999  1.00  0.00     0.010 C 
ATOM     12  C   UNL     1     114.450 117.404 130.867  1.00  0.00     0.033 C 
ATOM     13  C   UNL     1     113.080 117.782 130.295  1.00  0.00     0.120 C 
ATOM     14  C   UNL     1     112.890 117.320 128.812  1.00  0.00    -0.006 C 
ATOM     15  C   UNL     1     114.122 117.828 127.943  1.00  0.00     0.003 C 
ATOM     16  C   UNL     1     114.013 117.523 126.436  1.00  0.00     0.005 C 
ATOM     17  C   UNL     1     115.095 118.226 125.595  1.00  0.00     0.008 C 
ATOM     18  C   UNL     1     116.584 117.962 126.027  1.00  0.00    -0.024 C 
ATOM     19  C   UNL     1     117.682 118.854 125.174  1.00  0.00    -0.024 C 
ATOM     20  C   UNL     1     117.284 118.919 123.623  1.00  0.00     0.008 C 
ATOM     21  C   UNL     1     117.850 120.105 122.801  1.00  0.00     0.007 C 
ATOM     22  C   UNL     1     119.097 118.183 125.232  1.00  0.00     0.012 C 
ATOM     23  C   UNL     1     116.869 116.460 125.688  1.00  0.00     0.012 C 
ATOM     24  C   UNL     1     111.583 117.983 128.293  1.00  0.00     0.014 C 
ATOM     25  C   UNL     1     112.672 115.785 128.746  1.00  0.00     0.014 C 
ATOM     26  C   UNL     1     115.869 115.951 128.520  1.00  0.00     0.012 C 
ATOM     27  C   UNL     1     119.171 122.145 123.510  1.00  0.00     0.011 C 
ENDROOT
BRANCH   1  28
ATOM     28  C   UNL     1     115.674 122.898 126.382  1.00  0.00    -0.077 C 
ATOM     29  C   UNL     1     114.376 122.162 126.165  1.00  0.00     0.039 C 
ATOM     30  C   UNL     1     115.814 123.622 127.507  1.00  0.00     0.008 C 
ENDBRANCH   1  28
BRANCH  13  31
ATOM     31  O   UNL     1     112.083 117.229 131.125  1.00  0.00    -0.393 OA
ATOM     32  H   UNL     1     111.345 117.889 131.188  1.00  0.00     0.210 HD
ENDBRANCH  13  31
TORSDOF 2
ENDMDL
MODEL 6
REMARK VINA RESULT:    -7.213      2.632      7.192
REMARK INTER + INTRA:          -8.701
REMARK INTER:                  -7.952
REMARK INTRA:                  -0.749
REMARK UNBOUND:                -0.855
REMARK SMILES C=C(C)[C@@H]1CC[C@]2(C)CC[C@@]3(C)[C@H](CC[C@H]4[C@@]5(C)CC[C@H](O)C(C)(C)[C@@H]5CC[C@]43C)[C@@H]12
REMARK SMILES IDX 4 1 5 2 6 3 7 4 31 5 13 6 14 7 15 8 16 9 17 10 19 11 20 12
REMARK SMILES IDX 21 13 23 14 26 15 27 16 28 17 29 18 11 19 10 20 9 21 12 22
REMARK SMILES IDX 30 23 24 24 25 25 18 26 8 27 2 28 3 29 1 30 22 31
REMARK H PARENT 22 32
REMARK Flexibility Score: inf
ROOT
ATOM      1  C   UNL     1     117.882 122.625 126.061  1.00  0.00     0.018 C 
ATOM      2  C   UNL     1     117.794 124.131 126.432  1.00  0.00     0.009 C 
ATOM      3  C   UNL     1     116.359 124.595 126.089  1.00  0.00     0.008 C 
ATOM      4  C   UNL     1     115.843 123.547 125.095  1.00  0.00    -0.029 C 
ATOM      5  C   UNL     1     116.427 122.265 125.730  1.00  0.00     0.006 C 
ATOM      6  C   UNL     1     116.007 121.046 124.883  1.00  0.00    -0.000 C 
ATOM      7  C   UNL     1     116.905 119.819 124.920  1.00  0.00     0.005 C 
ATOM      8  C   UNL     1     116.623 118.912 126.086  1.00  0.00     0.005 C 
ATOM      9  C   UNL     1     115.177 118.333 126.050  1.00  0.00     0.002 C 
ATOM     10  C   UNL     1     114.985 117.152 127.136  1.00  0.00    -0.026 C 
ATOM     11  C   UNL     1     116.174 116.126 127.102  1.00  0.00     0.010 C 
ATOM     12  C   UNL     1     116.127 115.069 128.219  1.00  0.00     0.033 C 
ATOM     13  C   UNL     1     116.124 115.726 129.603  1.00  0.00     0.120 C 
ATOM     14  C   UNL     1     114.952 116.746 129.791  1.00  0.00    -0.006 C 
ATOM     15  C   UNL     1     114.957 117.778 128.580  1.00  0.00     0.003 C 
ATOM     16  C   UNL     1     113.908 118.902 128.693  1.00  0.00     0.005 C 
ATOM     17  C   UNL     1     114.090 120.009 127.637  1.00  0.00     0.008 C 
ATOM     18  C   UNL     1     114.119 119.534 126.139  1.00  0.00    -0.024 C 
ATOM     19  C   UNL     1     114.457 120.750 125.072  1.00  0.00    -0.024 C 
ATOM     20  C   UNL     1     113.696 122.098 125.484  1.00  0.00     0.008 C 
ATOM     21  C   UNL     1     114.289 123.429 124.956  1.00  0.00     0.007 C 
ATOM     22  C   UNL     1     113.943 120.380 123.639  1.00  0.00     0.012 C 
ATOM     23  C   UNL     1     112.667 119.046 125.815  1.00  0.00     0.012 C 
ATOM     24  C   UNL     1     115.221 117.507 131.121  1.00  0.00     0.014 C 
ATOM     25  C   UNL     1     113.604 115.997 129.968  1.00  0.00     0.014 C 
ATOM     26  C   UNL     1     113.691 116.343 126.779  1.00  0.00     0.012 C 
ATOM     27  C   UNL     1     116.425 123.916 123.687  1.00  0.00     0.011 C 
ENDROOT
BRANCH   1  28
ATOM     28  C   UNL     1     118.497 121.785 127.182  1.00  0.00    -0.077 C 
ATOM     29  C   UNL     1     117.623 121.251 128.288  1.00  0.00     0.039 C 
ATOM     30  C   UNL     1     119.806 121.475 127.199  1.00  0.00     0.008 C 
ENDBRANCH   1  28
BRANCH  13  31
ATOM     31  O   UNL     1     116.066 114.708 130.577  1.00  0.00    -0.393 OA
ATOM     32  H   UNL     1     116.098 115.144 131.469  1.00  0.00     0.210 HD
ENDBRANCH  13  31
TORSDOF 2
ENDMDL
MODEL 7
REMARK VINA RESULT:    -7.198      2.613      5.461
REMARK INTER + INTRA:          -8.684
REMARK INTER:                  -7.868
REMARK INTRA:                  -0.817
REMARK UNBOUND:                -0.855
REMARK SMILES C=C(C)[C@@H]1CC[C@]2(C)CC[C@@]3(C)[C@H](CC[C@H]4[C@@]5(C)CC[C@H](O)C(C)(C)[C@@H]5CC[C@]43C)[C@@H]12
REMARK SMILES IDX 4 1 5 2 6 3 7 4 31 5 13 6 14 7 15 8 16 9 17 10 19 11 20 12
REMARK SMILES IDX 21 13 23 14 26 15 27 16 28 17 29 18 11 19 10 20 9 21 12 22
REMARK SMILES IDX 30 23 24 24 25 25 18 26 8 27 2 28 3 29 1 30 22 31
REMARK H PARENT 22 32
REMARK Flexibility Score: inf
ROOT
ATOM      1  C   UNL     1     117.681 116.302 123.674  1.00  0.00     0.018 C 
ATOM      2  C   UNL     1     117.593 115.590 122.296  1.00  0.00     0.009 C 
ATOM      3  C   UNL     1     116.123 115.152 122.110  1.00  0.00     0.008 C 
ATOM      4  C   UNL     1     115.538 115.149 123.528  1.00  0.00    -0.029 C 
ATOM      5  C   UNL     1     116.210 116.420 124.096  1.00  0.00     0.006 C 
ATOM      6  C   UNL     1     115.739 116.632 125.551  1.00  0.00    -0.000 C 
ATOM      7  C   UNL     1     116.664 117.394 126.487  1.00  0.00     0.005 C 
ATOM      8  C   UNL     1     116.516 118.886 126.384  1.00  0.00     0.005 C 
ATOM      9  C   UNL     1     115.087 119.368 126.775  1.00  0.00     0.002 C 
ATOM     10  C   UNL     1     115.027 120.975 126.934  1.00  0.00    -0.026 C 
ATOM     11  C   UNL     1     116.230 121.526 127.780  1.00  0.00     0.010 C 
ATOM     12  C   UNL     1     116.314 123.061 127.833  1.00  0.00     0.033 C 
ATOM     13  C   UNL     1     116.428 123.658 126.426  1.00  0.00     0.120 C 
ATOM     14  C   UNL     1     115.257 123.224 125.484  1.00  0.00    -0.006 C 
ATOM     15  C   UNL     1     115.122 121.639 125.510  1.00  0.00     0.003 C 
ATOM     16  C   UNL     1     114.063 121.070 124.545  1.00  0.00     0.005 C 
ATOM     17  C   UNL     1     114.118 119.535 124.421  1.00  0.00     0.008 C 
ATOM     18  C   UNL     1     114.015 118.731 125.768  1.00  0.00    -0.024 C 
ATOM     19  C   UNL     1     114.221 117.103 125.576  1.00  0.00    -0.024 C 
ATOM     20  C   UNL     1     113.472 116.584 124.259  1.00  0.00     0.008 C 
ATOM     21  C   UNL     1     113.981 115.259 123.636  1.00  0.00     0.007 C 
ATOM     22  C   UNL     1     113.581 116.325 126.776  1.00  0.00     0.012 C 
ATOM     23  C   UNL     1     112.550 118.939 126.281  1.00  0.00     0.012 C 
ATOM     24  C   UNL     1     115.634 123.688 124.048  1.00  0.00     0.014 C 
ATOM     25  C   UNL     1     113.949 123.968 125.866  1.00  0.00     0.014 C 
ATOM     26  C   UNL     1     113.723 121.356 127.717  1.00  0.00     0.012 C 
ATOM     27  C   UNL     1     115.974 113.807 124.208  1.00  0.00     0.011 C 
ENDROOT
BRANCH   1  28
ATOM     28  C   UNL     1     118.419 117.640 123.593  1.00  0.00    -0.077 C 
ATOM     29  C   UNL     1     119.765 117.798 124.251  1.00  0.00     0.039 C 
ATOM     30  C   UNL     1     117.913 118.687 122.917  1.00  0.00     0.008 C 
ENDBRANCH   1  28
BRANCH  13  31
ATOM     31  O   UNL     1     116.487 125.061 126.543  1.00  0.00    -0.393 OA
ATOM     32  H   UNL     1     117.215 125.382 125.949  1.00  0.00     0.210 HD
ENDBRANCH  13  31
TORSDOF 2
ENDMDL
MODEL 8
REMARK VINA RESULT:    -7.093      2.875      6.716
REMARK INTER + INTRA:          -8.570
REMARK INTER:                  -8.007
REMARK INTRA:                  -0.563
REMARK UNBOUND:                -0.855
REMARK SMILES C=C(C)[C@@H]1CC[C@]2(C)CC[C@@]3(C)[C@H](CC[C@H]4[C@@]5(C)CC[C@H](O)C(C)(C)[C@@H]5CC[C@]43C)[C@@H]12
REMARK SMILES IDX 4 1 5 2 6 3 7 4 31 5 13 6 14 7 15 8 16 9 17 10 19 11 20 12
REMARK SMILES IDX 21 13 23 14 26 15 27 16 28 17 29 18 11 19 10 20 9 21 12 22
REMARK SMILES IDX 30 23 24 24 25 25 18 26 8 27 2 28 3 29 1 30 22 31
REMARK H PARENT 22 32
REMARK Flexibility Score: inf
ROOT
ATOM      1  C   UNL     1     118.708 121.474 124.371  1.00  0.00     0.018 C 
ATOM      2  C   UNL     1     120.168 121.142 124.786  1.00  0.00     0.009 C 
ATOM      3  C   UNL     1     120.160 120.917 126.315  1.00  0.00     0.008 C 
ATOM      4  C   UNL     1     118.877 121.604 126.800  1.00  0.00    -0.029 C 
ATOM      5  C   UNL     1     117.914 121.206 125.657  1.00  0.00     0.006 C 
ATOM      6  C   UNL     1     116.516 121.789 125.950  1.00  0.00    -0.000 C 
ATOM      7  C   UNL     1     115.605 122.065 124.765  1.00  0.00     0.005 C 
ATOM      8  C   UNL     1     114.837 120.856 124.311  1.00  0.00     0.005 C 
ATOM      9  C   UNL     1     113.880 120.313 125.415  1.00  0.00     0.002 C 
ATOM     10  C   UNL     1     112.865 119.202 124.826  1.00  0.00    -0.026 C 
ATOM     11  C   UNL     1     112.215 119.662 123.472  1.00  0.00     0.010 C 
ATOM     12  C   UNL     1     111.362 118.584 122.783  1.00  0.00     0.033 C 
ATOM     13  C   UNL     1     112.187 117.326 122.494  1.00  0.00     0.120 C 
ATOM     14  C   UNL     1     112.859 116.730 123.776  1.00  0.00    -0.006 C 
ATOM     15  C   UNL     1     113.663 117.879 124.528  1.00  0.00     0.003 C 
ATOM     16  C   UNL     1     114.456 117.402 125.761  1.00  0.00     0.005 C 
ATOM     17  C   UNL     1     115.403 118.479 126.325  1.00  0.00     0.008 C 
ATOM     18  C   UNL     1     114.741 119.858 126.689  1.00  0.00    -0.024 C 
ATOM     19  C   UNL     1     115.832 121.007 127.154  1.00  0.00    -0.024 C 
ATOM     20  C   UNL     1     116.962 120.373 128.097  1.00  0.00     0.008 C 
ATOM     21  C   UNL     1     118.314 121.127 128.180  1.00  0.00     0.007 C 
ATOM     22  C   UNL     1     115.129 122.119 128.005  1.00  0.00     0.012 C 
ATOM     23  C   UNL     1     113.828 119.581 127.930  1.00  0.00     0.012 C 
ATOM     24  C   UNL     1     113.851 115.631 123.299  1.00  0.00     0.014 C 
ATOM     25  C   UNL     1     111.800 116.025 124.665  1.00  0.00     0.014 C 
ATOM     26  C   UNL     1     111.686 119.008 125.840  1.00  0.00     0.012 C 
ATOM     27  C   UNL     1     119.182 123.137 126.908  1.00  0.00     0.011 C 
ENDROOT
BRANCH   1  28
ATOM     28  C   UNL     1     118.244 120.653 123.166  1.00  0.00    -0.077 C 
ATOM     29  C   UNL     1     118.433 119.158 123.156  1.00  0.00     0.039 C 
ATOM     30  C   UNL     1     117.637 121.226 122.111  1.00  0.00     0.008 C 
ENDBRANCH   1  28
BRANCH  13  31
ATOM     31  O   UNL     1     111.348 116.376 121.878  1.00  0.00    -0.393 OA
ATOM     32  H   UNL     1     110.440 116.482 122.266  1.00  0.00     0.210 HD
ENDBRANCH  13  31
TORSDOF 2
ENDMDL
MODEL 9
REMARK VINA RESULT:    -7.010      2.600      5.355
REMARK INTER + INTRA:          -8.479
REMARK INTER:                  -7.623
REMARK INTRA:                  -0.856
REMARK UNBOUND:                -0.855
REMARK SMILES C=C(C)[C@@H]1CC[C@]2(C)CC[C@@]3(C)[C@H](CC[C@H]4[C@@]5(C)CC[C@H](O)C(C)(C)[C@@H]5CC[C@]43C)[C@@H]12
REMARK SMILES IDX 4 1 5 2 6 3 7 4 31 5 13 6 14 7 15 8 16 9 17 10 19 11 20 12
REMARK SMILES IDX 21 13 23 14 26 15 27 16 28 17 29 18 11 19 10 20 9 21 12 22
REMARK SMILES IDX 30 23 24 24 25 25 18 26 8 27 2 28 3 29 1 30 22 31
REMARK H PARENT 22 32
REMARK Flexibility Score: inf
ROOT
ATOM      1  C   UNL     1     116.509 115.527 124.195  1.00  0.00     0.018 C 
ATOM      2  C   UNL     1     116.437 114.733 122.862  1.00  0.00     0.009 C 
ATOM      3  C   UNL     1     114.987 114.858 122.342  1.00  0.00     0.008 C 
ATOM      4  C   UNL     1     114.167 115.253 123.576  1.00  0.00    -0.029 C 
ATOM      5  C   UNL     1     115.151 116.240 124.245  1.00  0.00     0.006 C 
ATOM      6  C   UNL     1     114.510 116.794 125.535  1.00  0.00    -0.000 C 
ATOM      7  C   UNL     1     115.442 117.264 126.640  1.00  0.00     0.005 C 
ATOM      8  C   UNL     1     115.919 118.678 126.453  1.00  0.00     0.005 C 
ATOM      9  C   UNL     1     114.748 119.705 126.472  1.00  0.00     0.002 C 
ATOM     10  C   UNL     1     115.293 121.224 126.557  1.00  0.00    -0.026 C 
ATOM     11  C   UNL     1     116.412 121.385 127.648  1.00  0.00     0.010 C 
ATOM     12  C   UNL     1     117.080 122.770 127.667  1.00  0.00     0.033 C 
ATOM     13  C   UNL     1     117.711 123.099 126.309  1.00  0.00     0.120 C 
ATOM     14  C   UNL     1     116.687 123.022 125.128  1.00  0.00    -0.006 C 
ATOM     15  C   UNL     1     115.937 121.619 125.175  1.00  0.00     0.003 C 
ATOM     16  C   UNL     1     114.966 121.372 124.003  1.00  0.00     0.005 C 
ATOM     17  C   UNL     1     114.437 119.926 123.949  1.00  0.00     0.008 C 
ATOM     18  C   UNL     1     113.747 119.395 125.258  1.00  0.00    -0.024 C 
ATOM     19  C   UNL     1     113.331 117.799 125.178  1.00  0.00    -0.024 C 
ATOM     20  C   UNL     1     112.730 117.437 123.738  1.00  0.00     0.008 C 
ATOM     21  C   UNL     1     112.793 115.951 123.303  1.00  0.00     0.007 C 
ATOM     22  C   UNL     1     112.201 117.474 126.215  1.00  0.00     0.012 C 
ATOM     23  C   UNL     1     112.411 120.200 125.396  1.00  0.00     0.012 C 
ATOM     24  C   UNL     1     117.507 123.126 123.810  1.00  0.00     0.014 C 
ATOM     25  C   UNL     1     115.730 124.243 125.158  1.00  0.00     0.014 C 
ATOM     26  C   UNL     1     114.114 122.161 126.989  1.00  0.00     0.012 C 
ATOM     27  C   UNL     1     113.887 113.942 124.387  1.00  0.00     0.011 C 
ENDROOT
BRANCH   1  28
ATOM     28  C   UNL     1     117.713 116.469 124.247  1.00  0.00    -0.077 C 
ATOM     29  C   UNL     1     117.733 117.713 123.396  1.00  0.00     0.039 C 
ATOM     30  C   UNL     1     118.759 116.237 125.061  1.00  0.00     0.008 C 
ENDBRANCH   1  28
BRANCH  13  31
ATOM     31  O   UNL     1     118.291 124.381 126.388  1.00  0.00    -0.393 OA
ATOM     32  H   UNL     1     117.668 125.020 125.953  1.00  0.00     0.210 HD
ENDBRANCH  13  31
TORSDOF 2
ENDMDL
