MODEL 1
REMARK VINA RESULT:    -4.216      0.000      0.000
REMARK INTER + INTRA:          -6.605
REMARK INTER:                  -5.942
REMARK INTRA:                  -0.663
REMARK UNBOUND:                -0.663
REMARK SMILES C=CCCCCCCC(=O)[O-]
REMARK SMILES IDX 6 1 7 2 8 3 9 4 10 5 11 6 5 7 4 8 3 9 2 10 1 11
REMARK H PARENT
REMARK Flexibility Score: inf
ROOT
ATOM      1  C   UNL     1     -40.488  38.506  46.734  1.00  0.00     0.000 C 
ENDROOT
BRANCH   1   2
ATOM      2  C   UNL     1     -40.169  37.884  48.105  1.00  0.00     0.006 C 
BRANCH   2   3
ATOM      3  C   UNL     1     -40.290  36.351  48.152  1.00  0.00     0.053 C 
BRANCH   3   4
ATOM      4  C   UNL     1     -40.798  35.868  49.477  1.00  0.00     0.041 C 
ATOM      5  O   UNL     1     -40.459  34.736  49.910  1.00  0.00    -0.550 OA
ATOM      6  O   UNL     1     -41.619  36.684  50.245  1.00  0.00    -0.550 OA
ENDBRANCH   3   4
ENDBRANCH   2   3
ENDBRANCH   1   2
BRANCH   1   7
ATOM      7  C   UNL     1     -39.225  38.925  45.962  1.00  0.00     0.000 C 
BRANCH   7   8
ATOM      8  C   UNL     1     -38.028  39.191  46.889  1.00  0.00     0.004 C 
BRANCH   8   9
ATOM      9  C   UNL     1     -36.864  38.216  46.650  1.00  0.00     0.027 C 
BRANCH   9  10
ATOM     10  C   UNL     1     -37.303  37.039  45.824  1.00  0.00    -0.035 C 
ATOM     11  C   UNL     1     -37.096  35.781  46.225  1.00  0.00     0.004 C 
ENDBRANCH   9  10
ENDBRANCH   8   9
ENDBRANCH   7   8
ENDBRANCH   1   7
TORSDOF 7
ENDMDL
MODEL 2
REMARK VINA RESULT:    -4.080     11.814     13.053
REMARK INTER + INTRA:          -6.412
REMARK INTER:                  -6.067
REMARK INTRA:                  -0.345
REMARK UNBOUND:                -0.663
REMARK SMILES C=CCCCCCCC(=O)[O-]
REMARK SMILES IDX 6 1 7 2 8 3 9 4 10 5 11 6 5 7 4 8 3 9 2 10 1 11
REMARK H PARENT
REMARK Flexibility Score: inf
ROOT
ATOM      1  C   UNL     1     -34.605  43.340  39.874  1.00  0.00     0.000 C 
ENDROOT
BRANCH   1   2
ATOM      2  C   UNL     1     -34.151  44.144  38.643  1.00  0.00     0.006 C 
BRANCH   2   3
ATOM      3  C   UNL     1     -32.849  44.937  38.846  1.00  0.00     0.053 C 
BRANCH   3   4
ATOM      4  C   UNL     1     -32.360  45.550  37.569  1.00  0.00     0.041 C 
ATOM      5  O   UNL     1     -33.090  46.354  36.932  1.00  0.00    -0.550 OA
ATOM      6  O   UNL     1     -31.085  45.258  37.101  1.00  0.00    -0.550 OA
ENDBRANCH   3   4
ENDBRANCH   2   3
ENDBRANCH   1   2
BRANCH   1   7
ATOM      7  C   UNL     1     -33.880  41.989  40.003  1.00  0.00     0.000 C 
BRANCH   7   8
ATOM      8  C   UNL     1     -32.969  41.924  41.239  1.00  0.00     0.004 C 
BRANCH   8   9
ATOM      9  C   UNL     1     -31.482  41.789  40.875  1.00  0.00     0.027 C 
BRANCH   9  10
ATOM     10  C   UNL     1     -30.651  41.481  42.090  1.00  0.00    -0.035 C 
ATOM     11  C   UNL     1     -31.187  41.426  43.313  1.00  0.00     0.004 C 
ENDBRANCH   9  10
ENDBRANCH   8   9
ENDBRANCH   7   8
ENDBRANCH   1   7
TORSDOF 7
ENDMDL
MODEL 3
REMARK VINA RESULT:    -4.049     11.582     12.988
REMARK INTER + INTRA:          -6.368
REMARK INTER:                  -5.975
REMARK INTRA:                  -0.393
REMARK UNBOUND:                -0.663
REMARK SMILES C=CCCCCCCC(=O)[O-]
REMARK SMILES IDX 6 1 7 2 8 3 9 4 10 5 11 6 5 7 4 8 3 9 2 10 1 11
REMARK H PARENT
REMARK Flexibility Score: inf
ROOT
ATOM      1  C   UNL     1     -34.714  44.803  39.983  1.00  0.00     0.000 C 
ENDROOT
BRANCH   1   2
ATOM      2  C   UNL     1     -34.838  45.575  38.658  1.00  0.00     0.006 C 
BRANCH   2   3
ATOM      3  C   UNL     1     -34.123  44.914  37.467  1.00  0.00     0.053 C 
BRANCH   3   4
ATOM      4  C   UNL     1     -33.069  45.803  36.881  1.00  0.00     0.041 C 
ATOM      5  O   UNL     1     -31.853  45.597  37.134  1.00  0.00    -0.550 OA
ATOM      6  O   UNL     1     -33.430  46.838  36.027  1.00  0.00    -0.550 OA
ENDBRANCH   3   4
ENDBRANCH   2   3
ENDBRANCH   1   2
BRANCH   1   7
ATOM      7  C   UNL     1     -34.237  43.354  39.786  1.00  0.00     0.000 C 
BRANCH   7   8
ATOM      8  C   UNL     1     -35.007  42.354  40.664  1.00  0.00     0.004 C 
BRANCH   8   9
ATOM      9  C   UNL     1     -34.145  41.773  41.796  1.00  0.00     0.027 C 
BRANCH   9  10
ATOM     10  C   UNL     1     -34.687  42.161  43.144  1.00  0.00    -0.035 C 
ATOM     11  C   UNL     1     -35.548  43.172  43.292  1.00  0.00     0.004 C 
ENDBRANCH   9  10
ENDBRANCH   8   9
ENDBRANCH   7   8
ENDBRANCH   1   7
TORSDOF 7
ENDMDL
MODEL 4
REMARK VINA RESULT:    -4.035      1.705      2.745
REMARK INTER + INTRA:          -6.348
REMARK INTER:                  -6.023
REMARK INTRA:                  -0.326
REMARK UNBOUND:                -0.663
REMARK SMILES C=CCCCCCCC(=O)[O-]
REMARK SMILES IDX 6 1 7 2 8 3 9 4 10 5 11 6 5 7 4 8 3 9 2 10 1 11
REMARK H PARENT
REMARK Flexibility Score: inf
ROOT
ATOM      1  C   UNL     1     -38.342  37.345  47.022  1.00  0.00     0.000 C 
ENDROOT
BRANCH   1   2
ATOM      2  C   UNL     1     -39.766  37.398  47.602  1.00  0.00     0.006 C 
BRANCH   2   3
ATOM      3  C   UNL     1     -40.356  36.025  47.966  1.00  0.00     0.053 C 
BRANCH   3   4
ATOM      4  C   UNL     1     -40.609  35.895  49.437  1.00  0.00     0.041 C 
ATOM      5  O   UNL     1     -40.695  34.756  49.967  1.00  0.00    -0.550 OA
ATOM      6  O   UNL     1     -40.718  37.033  50.227  1.00  0.00    -0.550 OA
ENDBRANCH   3   4
ENDBRANCH   2   3
ENDBRANCH   1   2
BRANCH   1   7
ATOM      7  C   UNL     1     -38.136  38.329  45.857  1.00  0.00     0.000 C 
BRANCH   7   8
ATOM      8  C   UNL     1     -39.383  39.184  45.580  1.00  0.00     0.004 C 
BRANCH   8   9
ATOM      9  C   UNL     1     -39.458  39.670  44.124  1.00  0.00     0.027 C 
BRANCH   9  10
ATOM     10  C   UNL     1     -38.126  40.189  43.656  1.00  0.00    -0.035 C 
ATOM     11  C   UNL     1     -37.819  41.489  43.709  1.00  0.00     0.004 C 
ENDBRANCH   9  10
ENDBRANCH   8   9
ENDBRANCH   7   8
ENDBRANCH   1   7
TORSDOF 7
ENDMDL
MODEL 5
REMARK VINA RESULT:    -4.024      2.663      4.780
REMARK INTER + INTRA:          -6.333
REMARK INTER:                  -5.755
REMARK INTRA:                  -0.578
REMARK UNBOUND:                -0.663
REMARK SMILES C=CCCCCCCC(=O)[O-]
REMARK SMILES IDX 6 1 7 2 8 3 9 4 10 5 11 6 5 7 4 8 3 9 2 10 1 11
REMARK H PARENT
REMARK Flexibility Score: inf
ROOT
ATOM      1  C   UNL     1     -39.273  38.432  46.733  1.00  0.00     0.000 C 
ENDROOT
BRANCH   1   2
ATOM      2  C   UNL     1     -38.018  38.239  47.602  1.00  0.00     0.006 C 
BRANCH   2   3
ATOM      3  C   UNL     1     -36.768  37.793  46.825  1.00  0.00     0.053 C 
BRANCH   3   4
ATOM      4  C   UNL     1     -37.064  36.665  45.884  1.00  0.00     0.041 C 
ATOM      5  O   UNL     1     -37.040  36.855  44.640  1.00  0.00    -0.550 OA
ATOM      6  O   UNL     1     -37.336  35.397  46.383  1.00  0.00    -0.550 OA
ENDBRANCH   3   4
ENDBRANCH   2   3
ENDBRANCH   1   2
BRANCH   1   7
ATOM      7  C   UNL     1     -40.536  37.823  47.366  1.00  0.00     0.000 C 
BRANCH   7   8
ATOM      8  C   UNL     1     -40.351  36.346  47.747  1.00  0.00     0.004 C 
BRANCH   8   9
ATOM      9  C   UNL     1     -40.929  36.013  49.131  1.00  0.00     0.027 C 
BRANCH   9  10
ATOM     10  C   UNL     1     -40.674  37.127  50.108  1.00  0.00    -0.035 C 
ATOM     11  C   UNL     1     -41.642  37.611  50.892  1.00  0.00     0.004 C 
ENDBRANCH   9  10
ENDBRANCH   8   9
ENDBRANCH   7   8
ENDBRANCH   1   7
TORSDOF 7
ENDMDL
MODEL 6
REMARK VINA RESULT:    -3.976     11.514     12.829
REMARK INTER + INTRA:          -6.266
REMARK INTER:                  -5.845
REMARK INTRA:                  -0.420
REMARK UNBOUND:                -0.663
REMARK SMILES C=CCCCCCCC(=O)[O-]
REMARK SMILES IDX 6 1 7 2 8 3 9 4 10 5 11 6 5 7 4 8 3 9 2 10 1 11
REMARK H PARENT
REMARK Flexibility Score: inf
ROOT
ATOM      1  C   UNL     1     -34.696  43.991  40.243  1.00  0.00     0.000 C 
ENDROOT
BRANCH   1   2
ATOM      2  C   UNL     1     -34.349  44.124  38.749  1.00  0.00     0.006 C 
BRANCH   2   3
ATOM      3  C   UNL     1     -34.539  45.539  38.176  1.00  0.00     0.053 C 
BRANCH   3   4
ATOM      4  C   UNL     1     -33.371  45.969  37.342  1.00  0.00     0.041 C 
ATOM      5  O   UNL     1     -32.203  45.621  37.660  1.00  0.00    -0.550 OA
ATOM      6  O   UNL     1     -33.576  46.727  36.196  1.00  0.00    -0.550 OA
ENDBRANCH   3   4
ENDBRANCH   2   3
ENDBRANCH   1   2
BRANCH   1   7
ATOM      7  C   UNL     1     -34.531  42.554  40.766  1.00  0.00     0.000 C 
BRANCH   7   8
ATOM      8  C   UNL     1     -33.057  42.138  40.895  1.00  0.00     0.004 C 
BRANCH   8   9
ATOM      9  C   UNL     1     -32.764  40.780  40.237  1.00  0.00     0.027 C 
BRANCH   9  10
ATOM     10  C   UNL     1     -33.934  40.309  39.419  1.00  0.00    -0.035 C 
ATOM     11  C   UNL     1     -34.349  39.039  39.450  1.00  0.00     0.004 C 
ENDBRANCH   9  10
ENDBRANCH   8   9
ENDBRANCH   7   8
ENDBRANCH   1   7
TORSDOF 7
ENDMDL
MODEL 7
REMARK VINA RESULT:    -3.971      1.492      2.598
REMARK INTER + INTRA:          -6.259
REMARK INTER:                  -5.771
REMARK INTRA:                  -0.489
REMARK UNBOUND:                -0.663
REMARK SMILES C=CCCCCCCC(=O)[O-]
REMARK SMILES IDX 6 1 7 2 8 3 9 4 10 5 11 6 5 7 4 8 3 9 2 10 1 11
REMARK H PARENT
REMARK Flexibility Score: inf
ROOT
ATOM      1  C   UNL     1     -38.117  37.898  46.157  1.00  0.00     0.000 C 
ENDROOT
BRANCH   1   2
ATOM      2  C   UNL     1     -39.109  38.798  46.914  1.00  0.00     0.006 C 
BRANCH   2   3
ATOM      3  C   UNL     1     -40.369  38.074  47.418  1.00  0.00     0.053 C 
BRANCH   3   4
ATOM      4  C   UNL     1     -40.330  37.842  48.898  1.00  0.00     0.041 C 
ATOM      5  O   UNL     1     -39.254  37.989  49.534  1.00  0.00    -0.550 OA
ATOM      6  O   UNL     1     -41.491  37.495  49.578  1.00  0.00    -0.550 OA
ENDBRANCH   3   4
ENDBRANCH   2   3
ENDBRANCH   1   2
BRANCH   1   7
ATOM      7  C   UNL     1     -36.824  37.640  46.949  1.00  0.00     0.000 C 
BRANCH   7   8
ATOM      8  C   UNL     1     -36.086  36.376  46.479  1.00  0.00     0.004 C 
BRANCH   8   9
ATOM      9  C   UNL     1     -37.033  35.188  46.248  1.00  0.00     0.027 C 
BRANCH   9  10
ATOM     10  C   UNL     1     -36.784  34.548  44.910  1.00  0.00    -0.035 C 
ATOM     11  C   UNL     1     -36.599  35.275  43.805  1.00  0.00     0.004 C 
ENDBRANCH   9  10
ENDBRANCH   8   9
ENDBRANCH   7   8
ENDBRANCH   1   7
TORSDOF 7
ENDMDL
MODEL 8
REMARK VINA RESULT:    -3.909     10.872     12.272
REMARK INTER + INTRA:          -6.171
REMARK INTER:                  -5.765
REMARK INTRA:                  -0.406
REMARK UNBOUND:                -0.663
REMARK SMILES C=CCCCCCCC(=O)[O-]
REMARK SMILES IDX 6 1 7 2 8 3 9 4 10 5 11 6 5 7 4 8 3 9 2 10 1 11
REMARK H PARENT
REMARK Flexibility Score: inf
ROOT
ATOM      1  C   UNL     1     -33.827  42.491  40.902  1.00  0.00     0.000 C 
ENDROOT
BRANCH   1   2
ATOM      2  C   UNL     1     -32.750  41.397  40.789  1.00  0.00     0.006 C 
BRANCH   2   3
ATOM      3  C   UNL     1     -31.305  41.923  40.800  1.00  0.00     0.053 C 
BRANCH   3   4
ATOM      4  C   UNL     1     -30.514  41.370  41.946  1.00  0.00     0.041 C 
ATOM      5  O   UNL     1     -29.448  40.737  41.733  1.00  0.00    -0.550 OA
ATOM      6  O   UNL     1     -30.940  41.585  43.251  1.00  0.00    -0.550 OA
ENDBRANCH   3   4
ENDBRANCH   2   3
ENDBRANCH   1   2
BRANCH   1   7
ATOM      7  C   UNL     1     -34.179  43.121  39.544  1.00  0.00     0.000 C 
BRANCH   7   8
ATOM      8  C   UNL     1     -33.875  44.627  39.496  1.00  0.00     0.004 C 
BRANCH   8   9
ATOM      9  C   UNL     1     -32.428  44.927  39.074  1.00  0.00     0.027 C 
BRANCH   9  10
ATOM     10  C   UNL     1     -32.382  45.571  37.716  1.00  0.00    -0.035 C 
ATOM     11  C   UNL     1     -33.481  46.049  37.125  1.00  0.00     0.004 C 
ENDBRANCH   9  10
ENDBRANCH   8   9
ENDBRANCH   7   8
ENDBRANCH   1   7
TORSDOF 7
ENDMDL
MODEL 9
REMARK VINA RESULT:    -3.900      9.917     11.262
REMARK INTER + INTRA:          -6.159
REMARK INTER:                  -5.729
REMARK INTRA:                  -0.430
REMARK UNBOUND:                -0.663
REMARK SMILES C=CCCCCCCC(=O)[O-]
REMARK SMILES IDX 6 1 7 2 8 3 9 4 10 5 11 6 5 7 4 8 3 9 2 10 1 11
REMARK H PARENT
REMARK Flexibility Score: inf
ROOT
ATOM      1  C   UNL     1     -35.123  42.932  41.428  1.00  0.00     0.000 C 
ENDROOT
BRANCH   1   2
ATOM      2  C   UNL     1     -34.113  42.559  40.329  1.00  0.00     0.006 C 
BRANCH   2   3
ATOM      3  C   UNL     1     -34.343  43.272  38.986  1.00  0.00     0.053 C 
BRANCH   3   4
ATOM      4  C   UNL     1     -34.022  44.733  39.063  1.00  0.00     0.041 C 
ATOM      5  O   UNL     1     -32.825  45.117  39.116  1.00  0.00    -0.550 OA
ATOM      6  O   UNL     1     -35.047  45.672  39.044  1.00  0.00    -0.550 OA
ENDBRANCH   3   4
ENDBRANCH   2   3
ENDBRANCH   1   2
BRANCH   1   7
ATOM      7  C   UNL     1     -34.820  42.248  42.773  1.00  0.00     0.000 C 
BRANCH   7   8
ATOM      8  C   UNL     1     -33.505  41.453  42.746  1.00  0.00     0.004 C 
BRANCH   8   9
ATOM      9  C   UNL     1     -32.667  41.649  44.020  1.00  0.00     0.027 C 
BRANCH   9  10
ATOM     10  C   UNL     1     -31.200  41.475  43.737  1.00  0.00    -0.035 C 
ATOM     11  C   UNL     1     -30.725  41.426  42.489  1.00  0.00     0.004 C 
ENDBRANCH   9  10
ENDBRANCH   8   9
ENDBRANCH   7   8
ENDBRANCH   1   7
TORSDOF 7
ENDMDL
