MODEL 1
REMARK VINA RESULT:    -2.499      0.000      0.000
REMARK INTER + INTRA:          -2.846
REMARK INTER:                  -2.792
REMARK INTRA:                  -0.055
REMARK UNBOUND:                -0.055
REMARK SMILES CCCC(=O)[O-]
REMARK SMILES IDX 3 1 4 2 5 3 6 4 2 5 1 6
REMARK H PARENT
REMARK Flexibility Score: inf
ROOT
ATOM      1  C   UNL     1      -7.952  20.709  15.891  1.00  0.00     0.052 C 
ENDROOT
BRANCH   1   2
ATOM      2  C   UNL     1      -7.708  21.507  17.133  1.00  0.00     0.041 C 
ATOM      3  O   UNL     1      -8.299  22.606  17.306  1.00  0.00    -0.550 OA
ATOM      4  O   UNL     1      -6.867  21.014  18.123  1.00  0.00    -0.550 OA
ENDBRANCH   1   2
BRANCH   1   5
ATOM      5  C   UNL     1      -7.203  21.322  14.705  1.00  0.00     0.003 C 
ATOM      6  C   UNL     1      -5.731  20.917  14.714  1.00  0.00     0.004 C 
ENDBRANCH   1   5
TORSDOF 2
ENDMDL
MODEL 2
REMARK VINA RESULT:    -2.487      0.090      1.325
REMARK INTER + INTRA:          -2.832
REMARK INTER:                  -2.786
REMARK INTRA:                  -0.046
REMARK UNBOUND:                -0.055
REMARK SMILES CCCC(=O)[O-]
REMARK SMILES IDX 3 1 4 2 5 3 6 4 2 5 1 6
REMARK H PARENT
REMARK Flexibility Score: inf
ROOT
ATOM      1  C   UNL     1      -7.877  20.650  15.863  1.00  0.00     0.052 C 
ENDROOT
BRANCH   1   2
ATOM      2  C   UNL     1      -7.674  21.407  17.138  1.00  0.00     0.041 C 
ATOM      3  O   UNL     1      -6.895  20.961  18.021  1.00  0.00    -0.550 OA
ATOM      4  O   UNL     1      -8.306  22.629  17.329  1.00  0.00    -0.550 OA
ENDBRANCH   1   2
BRANCH   1   5
ATOM      5  C   UNL     1      -7.128  21.327  14.713  1.00  0.00     0.003 C 
ATOM      6  C   UNL     1      -5.652  20.940  14.712  1.00  0.00     0.004 C 
ENDBRANCH   1   5
TORSDOF 2
ENDMDL
MODEL 3
REMARK VINA RESULT:    -2.282      1.927      3.018
REMARK INTER + INTRA:          -2.603
REMARK INTER:                  -2.614
REMARK INTRA:                   0.010
REMARK UNBOUND:                -0.055
REMARK SMILES CCCC(=O)[O-]
REMARK SMILES IDX 3 1 4 2 5 3 6 4 2 5 1 6
REMARK H PARENT
REMARK Flexibility Score: inf
ROOT
ATOM      1  C   UNL     1      -5.654  21.002  14.860  1.00  0.00     0.052 C 
ENDROOT
BRANCH   1   2
ATOM      2  C   UNL     1      -4.949  20.402  16.037  1.00  0.00     0.041 C 
ATOM      3  O   UNL     1      -3.723  20.126  15.967  1.00  0.00    -0.550 OA
ATOM      4  O   UNL     1      -5.636  20.195  17.227  1.00  0.00    -0.550 OA
ENDBRANCH   1   2
BRANCH   1   5
ATOM      5  C   UNL     1      -7.036  21.517  15.269  1.00  0.00     0.003 C 
ATOM      6  C   UNL     1      -8.120  20.488  14.963  1.00  0.00     0.004 C 
ENDBRANCH   1   5
TORSDOF 2
ENDMDL
MODEL 4
REMARK VINA RESULT:    -2.233      2.067      3.084
REMARK INTER + INTRA:          -2.548
REMARK INTER:                  -2.531
REMARK INTRA:                  -0.017
REMARK UNBOUND:                -0.055
REMARK SMILES CCCC(=O)[O-]
REMARK SMILES IDX 3 1 4 2 5 3 6 4 2 5 1 6
REMARK H PARENT
REMARK Flexibility Score: inf
ROOT
ATOM      1  C   UNL     1      -7.489  21.450  15.709  1.00  0.00     0.052 C 
ENDROOT
BRANCH   1   2
ATOM      2  C   UNL     1      -6.148  20.852  15.421  1.00  0.00     0.041 C 
ATOM      3  O   UNL     1      -5.646  20.948  14.270  1.00  0.00    -0.550 OA
ATOM      4  O   UNL     1      -5.429  20.234  16.437  1.00  0.00    -0.550 OA
ENDBRANCH   1   2
BRANCH   1   5
ATOM      5  C   UNL     1      -7.779  21.418  17.211  1.00  0.00     0.003 C 
ATOM      6  C   UNL     1      -8.450  22.710  17.671  1.00  0.00     0.004 C 
ENDBRANCH   1   5
TORSDOF 2
ENDMDL
MODEL 5
REMARK VINA RESULT:    -2.176      2.399      3.063
REMARK INTER + INTRA:          -2.485
REMARK INTER:                  -2.480
REMARK INTRA:                  -0.005
REMARK UNBOUND:                -0.055
REMARK SMILES CCCC(=O)[O-]
REMARK SMILES IDX 3 1 4 2 5 3 6 4 2 5 1 6
REMARK H PARENT
REMARK Flexibility Score: inf
ROOT
ATOM      1  C   UNL     1      -5.063  20.944  15.101  1.00  0.00     0.052 C 
ENDROOT
BRANCH   1   2
ATOM      2  C   UNL     1      -6.557  21.019  15.136  1.00  0.00     0.041 C 
ATOM      3  O   UNL     1      -7.246  20.302  14.364  1.00  0.00    -0.550 OA
ATOM      4  O   UNL     1      -7.191  21.844  16.057  1.00  0.00    -0.550 OA
ENDBRANCH   1   2
BRANCH   1   5
ATOM      5  C   UNL     1      -4.539  20.146  16.297  1.00  0.00     0.003 C 
ATOM      6  C   UNL     1      -3.014  20.089  16.295  1.00  0.00     0.004 C 
ENDBRANCH   1   5
TORSDOF 2
ENDMDL
MODEL 6
REMARK VINA RESULT:    -2.132      3.547      4.403
REMARK INTER + INTRA:          -2.436
REMARK INTER:                  -2.426
REMARK INTRA:                  -0.009
REMARK UNBOUND:                -0.055
REMARK SMILES CCCC(=O)[O-]
REMARK SMILES IDX 3 1 4 2 5 3 6 4 2 5 1 6
REMARK H PARENT
REMARK Flexibility Score: inf
ROOT
ATOM      1  C   UNL     1      -7.952  22.242  19.908  1.00  0.00     0.052 C 
ENDROOT
BRANCH   1   2
ATOM      2  C   UNL     1      -7.941  23.103  21.132  1.00  0.00     0.041 C 
ATOM      3  O   UNL     1      -7.266  24.166  21.152  1.00  0.00    -0.550 OA
ATOM      4  O   UNL     1      -8.716  22.758  22.232  1.00  0.00    -0.550 OA
ENDBRANCH   1   2
BRANCH   1   5
ATOM      5  C   UNL     1      -8.720  22.929  18.777  1.00  0.00     0.003 C 
ATOM      6  C   UNL     1      -8.320  22.365  17.417  1.00  0.00     0.004 C 
ENDBRANCH   1   5
TORSDOF 2
ENDMDL
MODEL 7
REMARK VINA RESULT:    -2.059      3.847      4.445
REMARK INTER + INTRA:          -2.354
REMARK INTER:                  -2.292
REMARK INTRA:                  -0.062
REMARK UNBOUND:                -0.055
REMARK SMILES CCCC(=O)[O-]
REMARK SMILES IDX 3 1 4 2 5 3 6 4 2 5 1 6
REMARK H PARENT
REMARK Flexibility Score: inf
ROOT
ATOM      1  C   UNL     1      -7.520  21.965  19.975  1.00  0.00     0.052 C 
ENDROOT
BRANCH   1   2
ATOM      2  C   UNL     1      -7.973  22.943  21.013  1.00  0.00     0.041 C 
ATOM      3  O   UNL     1      -8.925  22.653  21.784  1.00  0.00    -0.550 OA
ATOM      4  O   UNL     1      -7.311  24.155  21.162  1.00  0.00    -0.550 OA
ENDBRANCH   1   2
BRANCH   1   5
ATOM      5  C   UNL     1      -8.621  21.736  18.938  1.00  0.00     0.003 C 
ATOM      6  C   UNL     1      -8.689  22.890  17.942  1.00  0.00     0.004 C 
ENDBRANCH   1   5
TORSDOF 2
ENDMDL
MODEL 8
REMARK VINA RESULT:    -2.057      4.973      6.315
REMARK INTER + INTRA:          -2.352
REMARK INTER:                  -2.309
REMARK INTRA:                  -0.043
REMARK UNBOUND:                -0.055
REMARK SMILES CCCC(=O)[O-]
REMARK SMILES IDX 3 1 4 2 5 3 6 4 2 5 1 6
REMARK H PARENT
REMARK Flexibility Score: inf
ROOT
ATOM      1  C   UNL     1      -8.956  22.514  21.893  1.00  0.00     0.052 C 
ENDROOT
BRANCH   1   2
ATOM      2  C   UNL     1      -8.015  23.092  20.883  1.00  0.00     0.041 C 
ATOM      3  O   UNL     1      -7.318  24.100  21.171  1.00  0.00    -0.550 OA
ATOM      4  O   UNL     1      -7.870  22.487  19.641  1.00  0.00    -0.550 OA
ENDBRANCH   1   2
BRANCH   1   5
ATOM      5  C   UNL     1      -8.321  22.527  23.286  1.00  0.00     0.003 C 
ATOM      6  C   UNL     1      -7.620  21.204  23.584  1.00  0.00     0.004 C 
ENDBRANCH   1   5
TORSDOF 2
ENDMDL
MODEL 9
REMARK VINA RESULT:    -2.028      3.244      4.924
REMARK INTER + INTRA:          -2.319
REMARK INTER:                  -2.285
REMARK INTRA:                  -0.035
REMARK UNBOUND:                -0.055
REMARK SMILES CCCC(=O)[O-]
REMARK SMILES IDX 3 1 4 2 5 3 6 4 2 5 1 6
REMARK H PARENT
REMARK Flexibility Score: inf
ROOT
ATOM      1  C   UNL     1      -8.783  23.354  19.802  1.00  0.00     0.052 C 
ENDROOT
BRANCH   1   2
ATOM      2  C   UNL     1      -8.361  22.379  18.749  1.00  0.00     0.041 C 
ATOM      3  O   UNL     1      -8.033  21.205  19.068  1.00  0.00    -0.550 OA
ATOM      4  O   UNL     1      -8.377  22.749  17.411  1.00  0.00    -0.550 OA
ENDBRANCH   1   2
BRANCH   1   5
ATOM      5  C   UNL     1      -7.673  23.537  20.840  1.00  0.00     0.003 C 
ATOM      6  C   UNL     1      -8.055  22.902  22.174  1.00  0.00     0.004 C 
ENDBRANCH   1   5
TORSDOF 2
ENDMDL
