MODEL 1
REMARK VINA RESULT:    -3.857      0.000      0.000
REMARK INTER + INTRA:          -4.227
REMARK INTER:                  -4.195
REMARK INTRA:                  -0.032
REMARK UNBOUND:                -0.032
REMARK SMILES O=C([O-])c1ccc(O)cc1
REMARK SMILES IDX 4 1 5 2 10 3 6 4 9 5 7 6 2 7 1 8 3 9 8 10
REMARK H PARENT 8 11
REMARK Flexibility Score: inf
ROOT
ATOM      1  C   UNL     1      18.303 -12.512 186.858  1.00  0.00    -0.003 A 
ATOM      2  C   UNL     1      17.465 -11.610 186.178  1.00  0.00     0.014 A 
ATOM      3  C   UNL     1      19.461 -12.025 187.489  1.00  0.00     0.014 A 
ATOM      4  C   UNL     1      17.780 -10.248 186.133  1.00  0.00     0.047 A 
ATOM      5  C   UNL     1      19.773 -10.663 187.442  1.00  0.00     0.047 A 
ATOM      6  C   UNL     1      18.933  -9.770 186.764  1.00  0.00     0.115 A 
ENDROOT
BRANCH   1   7
ATOM      7  C   UNL     1      17.975 -13.955 186.909  1.00  0.00     0.071 C 
ATOM      8  O   UNL     1      16.780 -14.336 187.022  1.00  0.00    -0.545 OA
ATOM      9  O   UNL     1      18.983 -14.909 186.833  1.00  0.00    -0.545 OA
ENDBRANCH   1   7
BRANCH   6  10
ATOM     10  O   UNL     1      19.234  -8.411 186.710  1.00  0.00    -0.508 OA
ATOM     11  H   UNL     1      18.646  -7.721 187.162  1.00  0.00     0.293 HD
ENDBRANCH   6  10
TORSDOF 2
ENDMDL
MODEL 2
REMARK VINA RESULT:    -3.850      0.036      1.532
REMARK INTER + INTRA:          -4.220
REMARK INTER:                  -4.188
REMARK INTRA:                  -0.032
REMARK UNBOUND:                -0.032
REMARK SMILES O=C([O-])c1ccc(O)cc1
REMARK SMILES IDX 4 1 5 2 10 3 6 4 9 5 7 6 2 7 1 8 3 9 8 10
REMARK H PARENT 8 11
REMARK Flexibility Score: inf
ROOT
ATOM      1  C   UNL     1      18.296 -12.514 186.871  1.00  0.00    -0.003 A 
ATOM      2  C   UNL     1      19.460 -12.007 187.478  1.00  0.00     0.014 A 
ATOM      3  C   UNL     1      17.438 -11.628 186.197  1.00  0.00     0.014 A 
ATOM      4  C   UNL     1      19.756 -10.642 187.411  1.00  0.00     0.047 A 
ATOM      5  C   UNL     1      17.737 -10.263 186.132  1.00  0.00     0.047 A 
ATOM      6  C   UNL     1      18.898  -9.767 186.738  1.00  0.00     0.115 A 
ENDROOT
BRANCH   1   7
ATOM      7  C   UNL     1      17.977 -13.958 186.938  1.00  0.00     0.071 C 
ATOM      8  O   UNL     1      16.785 -14.345 187.060  1.00  0.00    -0.545 OA
ATOM      9  O   UNL     1      18.991 -14.906 186.868  1.00  0.00    -0.545 OA
ENDBRANCH   1   7
BRANCH   6  10
ATOM     10  O   UNL     1      19.206  -8.409 186.680  1.00  0.00    -0.508 OA
ATOM     11  H   UNL     1      20.058  -8.043 187.087  1.00  0.00     0.293 HD
ENDBRANCH   6  10
TORSDOF 2
ENDMDL
MODEL 3
REMARK VINA RESULT:    -3.828      1.141      4.139
REMARK INTER + INTRA:          -4.196
REMARK INTER:                  -4.167
REMARK INTRA:                  -0.029
REMARK UNBOUND:                -0.032
REMARK SMILES O=C([O-])c1ccc(O)cc1
REMARK SMILES IDX 4 1 5 2 10 3 6 4 9 5 7 6 2 7 1 8 3 9 8 10
REMARK H PARENT 8 11
REMARK Flexibility Score: inf
ROOT
ATOM      1  C   UNL     1      18.858 -10.722 186.933  1.00  0.00    -0.003 A 
ATOM      2  C   UNL     1      17.680 -10.636 186.167  1.00  0.00     0.014 A 
ATOM      3  C   UNL     1      19.318 -11.988 187.335  1.00  0.00     0.014 A 
ATOM      4  C   UNL     1      16.980 -11.793 185.813  1.00  0.00     0.047 A 
ATOM      5  C   UNL     1      18.616 -13.143 186.979  1.00  0.00     0.047 A 
ATOM      6  C   UNL     1      17.445 -13.049 186.216  1.00  0.00     0.115 A 
ENDROOT
BRANCH   1   7
ATOM      7  C   UNL     1      19.603  -9.500 187.311  1.00  0.00     0.071 C 
ATOM      8  O   UNL     1      20.122  -8.768 186.427  1.00  0.00    -0.545 OA
ATOM      9  O   UNL     1      19.740  -9.145 188.647  1.00  0.00    -0.545 OA
ENDBRANCH   1   7
BRANCH   6  10
ATOM     10  O   UNL     1      16.736 -14.193 185.856  1.00  0.00    -0.508 OA
ATOM     11  H   UNL     1      16.776 -14.565 184.915  1.00  0.00     0.293 HD
ENDBRANCH   6  10
TORSDOF 2
ENDMDL
MODEL 4
REMARK VINA RESULT:    -3.810      1.141      4.393
REMARK INTER + INTRA:          -4.176
REMARK INTER:                  -4.148
REMARK INTRA:                  -0.029
REMARK UNBOUND:                -0.032
REMARK SMILES O=C([O-])c1ccc(O)cc1
REMARK SMILES IDX 4 1 5 2 10 3 6 4 9 5 7 6 2 7 1 8 3 9 8 10
REMARK H PARENT 8 11
REMARK Flexibility Score: inf
ROOT
ATOM      1  C   UNL     1      18.849 -10.694 186.923  1.00  0.00    -0.003 A 
ATOM      2  C   UNL     1      19.310 -11.966 187.311  1.00  0.00     0.014 A 
ATOM      3  C   UNL     1      17.663 -10.598 186.174  1.00  0.00     0.014 A 
ATOM      4  C   UNL     1      18.597 -13.115 186.956  1.00  0.00     0.047 A 
ATOM      5  C   UNL     1      16.953 -11.750 185.822  1.00  0.00     0.047 A 
ATOM      6  C   UNL     1      17.418 -13.012 186.212  1.00  0.00     0.115 A 
ENDROOT
BRANCH   1   7
ATOM      7  C   UNL     1      19.599  -9.473 187.295  1.00  0.00     0.071 C 
ATOM      8  O   UNL     1      20.101  -8.735 186.407  1.00  0.00    -0.545 OA
ATOM      9  O   UNL     1      19.758  -9.125 188.631  1.00  0.00    -0.545 OA
ENDBRANCH   1   7
BRANCH   6  10
ATOM     10  O   UNL     1      16.719 -14.167 185.866  1.00  0.00    -0.508 OA
ATOM     11  H   UNL     1      15.827 -14.391 186.290  1.00  0.00     0.293 HD
ENDBRANCH   6  10
TORSDOF 2
ENDMDL
MODEL 5
REMARK VINA RESULT:    -3.624      1.921      4.440
REMARK INTER + INTRA:          -3.974
REMARK INTER:                  -3.945
REMARK INTRA:                  -0.029
REMARK UNBOUND:                -0.032
REMARK SMILES O=C([O-])c1ccc(O)cc1
REMARK SMILES IDX 4 1 5 2 10 3 6 4 9 5 7 6 2 7 1 8 3 9 8 10
REMARK H PARENT 8 11
REMARK Flexibility Score: inf
ROOT
ATOM      1  C   UNL     1      18.749  -9.906 188.400  1.00  0.00    -0.003 A 
ATOM      2  C   UNL     1      17.414 -10.142 188.025  1.00  0.00     0.014 A 
ATOM      3  C   UNL     1      19.742 -10.817 187.999  1.00  0.00     0.014 A 
ATOM      4  C   UNL     1      17.081 -11.266 187.264  1.00  0.00     0.047 A 
ATOM      5  C   UNL     1      19.405 -11.940 187.238  1.00  0.00     0.047 A 
ATOM      6  C   UNL     1      18.073 -12.168 186.868  1.00  0.00     0.115 A 
ENDROOT
BRANCH   1   7
ATOM      7  C   UNL     1      19.108  -8.717 189.206  1.00  0.00     0.071 C 
ATOM      8  O   UNL     1      19.689  -8.847 190.316  1.00  0.00    -0.545 OA
ATOM      9  O   UNL     1      18.808  -7.439 188.748  1.00  0.00    -0.545 OA
ENDBRANCH   1   7
BRANCH   6  10
ATOM     10  O   UNL     1      17.726 -13.284 186.110  1.00  0.00    -0.508 OA
ATOM     11  H   UNL     1      16.879 -13.807 186.296  1.00  0.00     0.293 HD
ENDBRANCH   6  10
TORSDOF 2
ENDMDL
MODEL 6
REMARK VINA RESULT:    -3.549     16.501     17.094
REMARK INTER + INTRA:          -3.892
REMARK INTER:                  -3.858
REMARK INTRA:                  -0.034
REMARK UNBOUND:                -0.032
REMARK SMILES O=C([O-])c1ccc(O)cc1
REMARK SMILES IDX 4 1 5 2 10 3 6 4 9 5 7 6 2 7 1 8 3 9 8 10
REMARK H PARENT 8 11
REMARK Flexibility Score: inf
ROOT
ATOM      1  C   UNL     1      16.881 -10.943 203.349  1.00  0.00    -0.003 A 
ATOM      2  C   UNL     1      16.357 -12.232 203.143  1.00  0.00     0.014 A 
ATOM      3  C   UNL     1      18.227 -10.808 203.731  1.00  0.00     0.014 A 
ATOM      4  C   UNL     1      17.164 -13.361 203.315  1.00  0.00     0.047 A 
ATOM      5  C   UNL     1      19.031 -11.939 203.903  1.00  0.00     0.047 A 
ATOM      6  C   UNL     1      18.502 -13.218 203.695  1.00  0.00     0.115 A 
ENDROOT
BRANCH   1   7
ATOM      7  C   UNL     1      16.032  -9.745 203.167  1.00  0.00     0.071 C 
ATOM      8  O   UNL     1      15.042  -9.774 202.389  1.00  0.00    -0.545 OA
ATOM      9  O   UNL     1      16.315  -8.570 203.855  1.00  0.00    -0.545 OA
ENDBRANCH   1   7
BRANCH   6  10
ATOM     10  O   UNL     1      19.294 -14.352 203.864  1.00  0.00    -0.508 OA
ATOM     11  H   UNL     1      19.297 -15.101 203.182  1.00  0.00     0.293 HD
ENDBRANCH   6  10
TORSDOF 2
ENDMDL
MODEL 7
REMARK VINA RESULT:    -3.535      2.570      4.583
REMARK INTER + INTRA:          -3.878
REMARK INTER:                  -3.842
REMARK INTRA:                  -0.036
REMARK UNBOUND:                -0.032
REMARK SMILES O=C([O-])c1ccc(O)cc1
REMARK SMILES IDX 4 1 5 2 10 3 6 4 9 5 7 6 2 7 1 8 3 9 8 10
REMARK H PARENT 8 11
REMARK Flexibility Score: inf
ROOT
ATOM      1  C   UNL     1      16.663 -13.293 186.178  1.00  0.00    -0.003 A 
ATOM      2  C   UNL     1      17.938 -12.883 186.608  1.00  0.00     0.014 A 
ATOM      3  C   UNL     1      16.364 -14.666 186.142  1.00  0.00     0.014 A 
ATOM      4  C   UNL     1      18.892 -13.829 186.995  1.00  0.00     0.047 A 
ATOM      5  C   UNL     1      17.321 -15.609 186.530  1.00  0.00     0.047 A 
ATOM      6  C   UNL     1      18.588 -15.193 186.957  1.00  0.00     0.115 A 
ENDROOT
BRANCH   1   7
ATOM      7  C   UNL     1      15.648 -12.296 185.767  1.00  0.00     0.071 C 
ATOM      8  O   UNL     1      15.848 -11.066 185.951  1.00  0.00    -0.545 OA
ATOM      9  O   UNL     1      14.460 -12.705 185.173  1.00  0.00    -0.545 OA
ENDBRANCH   1   7
BRANCH   6  10
ATOM     10  O   UNL     1      19.549 -16.124 187.345  1.00  0.00    -0.508 OA
ATOM     11  H   UNL     1      20.476 -15.836 187.637  1.00  0.00     0.293 HD
ENDBRANCH   6  10
TORSDOF 2
ENDMDL
MODEL 8
REMARK VINA RESULT:    -3.526      1.571      1.988
REMARK INTER + INTRA:          -3.868
REMARK INTER:                  -3.836
REMARK INTRA:                  -0.032
REMARK UNBOUND:                -0.032
REMARK SMILES O=C([O-])c1ccc(O)cc1
REMARK SMILES IDX 4 1 5 2 10 3 6 4 9 5 7 6 2 7 1 8 3 9 8 10
REMARK H PARENT 8 11
REMARK Flexibility Score: inf
ROOT
ATOM      1  C   UNL     1      17.376 -12.340 186.819  1.00  0.00    -0.003 A 
ATOM      2  C   UNL     1      16.813 -11.182 187.386  1.00  0.00     0.014 A 
ATOM      3  C   UNL     1      18.762 -12.549 186.930  1.00  0.00     0.014 A 
ATOM      4  C   UNL     1      17.622 -10.255 188.051  1.00  0.00     0.047 A 
ATOM      5  C   UNL     1      19.567 -11.620 187.596  1.00  0.00     0.047 A 
ATOM      6  C   UNL     1      18.999 -10.470 188.159  1.00  0.00     0.115 A 
ENDROOT
BRANCH   1   7
ATOM      7  C   UNL     1      16.526 -13.325 186.114  1.00  0.00     0.071 C 
ATOM      8  O   UNL     1      16.712 -14.561 186.272  1.00  0.00    -0.545 OA
ATOM      9  O   UNL     1      15.508 -12.899 185.268  1.00  0.00    -0.545 OA
ENDBRANCH   1   7
BRANCH   6  10
ATOM     10  O   UNL     1      19.792  -9.537 188.823  1.00  0.00    -0.508 OA
ATOM     11  H   UNL     1      20.479  -8.980 188.330  1.00  0.00     0.293 HD
ENDBRANCH   6  10
TORSDOF 2
ENDMDL
MODEL 9
REMARK VINA RESULT:    -3.494      1.934      4.472
REMARK INTER + INTRA:          -3.833
REMARK INTER:                  -3.797
REMARK INTRA:                  -0.036
REMARK UNBOUND:                -0.032
REMARK SMILES O=C([O-])c1ccc(O)cc1
REMARK SMILES IDX 4 1 5 2 10 3 6 4 9 5 7 6 2 7 1 8 3 9 8 10
REMARK H PARENT 8 11
REMARK Flexibility Score: inf
ROOT
ATOM      1  C   UNL     1      17.898 -12.671 186.544  1.00  0.00    -0.003 A 
ATOM      2  C   UNL     1      16.674 -12.506 185.871  1.00  0.00     0.014 A 
ATOM      3  C   UNL     1      18.294 -13.963 186.932  1.00  0.00     0.014 A 
ATOM      4  C   UNL     1      15.864 -13.611 185.593  1.00  0.00     0.047 A 
ATOM      5  C   UNL     1      17.482 -15.066 186.652  1.00  0.00     0.047 A 
ATOM      6  C   UNL     1      16.265 -14.893 185.981  1.00  0.00     0.115 A 
ENDROOT
BRANCH   1   7
ATOM      7  C   UNL     1      18.760 -11.504 186.841  1.00  0.00     0.071 C 
ATOM      8  O   UNL     1      19.785 -11.633 187.561  1.00  0.00    -0.545 OA
ATOM      9  O   UNL     1      18.448 -10.251 186.327  1.00  0.00    -0.545 OA
ENDBRANCH   1   7
BRANCH   6  10
ATOM     10  O   UNL     1      15.447 -15.986 185.698  1.00  0.00    -0.508 OA
ATOM     11  H   UNL     1      15.797 -16.935 185.751  1.00  0.00     0.293 HD
ENDBRANCH   6  10
TORSDOF 2
ENDMDL
