MODEL 1
REMARK VINA RESULT:    -3.864      0.000      0.000
REMARK INTER + INTRA:          -4.248
REMARK INTER:                  -4.203
REMARK INTRA:                  -0.046
REMARK UNBOUND:                -0.046
REMARK SMILES COc1ccccc1O
REMARK SMILES IDX 3 1 4 2 5 3 6 4 7 5 8 6 2 7 1 8 9 9
REMARK H PARENT 9 10
REMARK Flexibility Score: inf
ROOT
ATOM      1  C   UNL     1      16.540 -45.342  28.727  1.00  0.00     0.160 A 
ATOM      2  C   UNL     1      15.135 -45.414  28.825  1.00  0.00     0.050 A 
ATOM      3  C   UNL     1      14.504 -45.250  30.061  1.00  0.00     0.004 A 
ATOM      4  C   UNL     1      15.262 -45.016  31.209  1.00  0.00     0.004 A 
ATOM      5  C   UNL     1      16.654 -44.944  31.125  1.00  0.00     0.050 A 
ATOM      6  C   UNL     1      17.296 -45.105  29.892  1.00  0.00     0.157 A 
ENDROOT
BRANCH   1   7
ATOM      7  O   UNL     1      17.209 -45.500  27.503  1.00  0.00    -0.493 OA
ATOM      8  C   UNL     1      17.272 -44.507  26.485  1.00  0.00     0.278 C 
ENDBRANCH   1   7
BRANCH   6   9
ATOM      9  O   UNL     1      18.689 -45.026  29.842  1.00  0.00    -0.504 OA
ATOM     10  H   UNL     1      19.221 -45.382  29.058  1.00  0.00     0.293 HD
ENDBRANCH   6   9
TORSDOF 2
ENDMDL
MODEL 2
REMARK VINA RESULT:    -3.811      1.225      3.128
REMARK INTER + INTRA:          -4.191
REMARK INTER:                  -4.145
REMARK INTRA:                  -0.046
REMARK UNBOUND:                -0.046
REMARK SMILES COc1ccccc1O
REMARK SMILES IDX 3 1 4 2 5 3 6 4 7 5 8 6 2 7 1 8 9 9
REMARK H PARENT 9 10
REMARK Flexibility Score: inf
ROOT
ATOM      1  C   UNL     1      16.601 -45.010  31.139  1.00  0.00     0.160 A 
ATOM      2  C   UNL     1      15.200 -45.064  31.288  1.00  0.00     0.050 A 
ATOM      3  C   UNL     1      14.377 -45.234  30.171  1.00  0.00     0.004 A 
ATOM      4  C   UNL     1      14.938 -45.350  28.899  1.00  0.00     0.004 A 
ATOM      5  C   UNL     1      16.324 -45.297  28.739  1.00  0.00     0.050 A 
ATOM      6  C   UNL     1      17.158 -45.129  29.851  1.00  0.00     0.157 A 
ENDROOT
BRANCH   1   7
ATOM      7  O   UNL     1      17.459 -44.843  32.237  1.00  0.00    -0.493 OA
ATOM      8  C   UNL     1      17.765 -43.588  32.838  1.00  0.00     0.278 C 
ENDBRANCH   1   7
BRANCH   6   9
ATOM      9  O   UNL     1      18.539 -45.081  29.656  1.00  0.00    -0.504 OA
ATOM     10  H   UNL     1      18.981 -45.468  28.832  1.00  0.00     0.293 HD
ENDBRANCH   6   9
TORSDOF 2
ENDMDL
MODEL 3
REMARK VINA RESULT:    -3.783      2.222      3.219
REMARK INTER + INTRA:          -4.161
REMARK INTER:                  -4.119
REMARK INTRA:                  -0.042
REMARK UNBOUND:                -0.046
REMARK SMILES COc1ccccc1O
REMARK SMILES IDX 3 1 4 2 5 3 6 4 7 5 8 6 2 7 1 8 9 9
REMARK H PARENT 9 10
REMARK Flexibility Score: inf
ROOT
ATOM      1  C   UNL     1      18.096 -44.721  30.950  1.00  0.00     0.160 A 
ATOM      2  C   UNL     1      17.036 -44.316  31.787  1.00  0.00     0.050 A 
ATOM      3  C   UNL     1      17.281 -43.488  32.886  1.00  0.00     0.004 A 
ATOM      4  C   UNL     1      18.578 -43.057  33.163  1.00  0.00     0.004 A 
ATOM      5  C   UNL     1      19.636 -43.452  32.342  1.00  0.00     0.050 A 
ATOM      6  C   UNL     1      19.402 -44.279  31.237  1.00  0.00     0.157 A 
ENDROOT
BRANCH   1   7
ATOM      7  O   UNL     1      17.889 -45.550  29.836  1.00  0.00    -0.493 OA
ATOM      8  C   UNL     1      17.138 -45.180  28.684  1.00  0.00     0.278 C 
ENDBRANCH   1   7
BRANCH   6   9
ATOM      9  O   UNL     1      20.482 -44.655  30.436  1.00  0.00    -0.504 OA
ATOM     10  H   UNL     1      21.291 -45.134  30.811  1.00  0.00     0.293 HD
ENDBRANCH   6   9
TORSDOF 2
ENDMDL
MODEL 4
REMARK VINA RESULT:    -3.705      2.161      4.387
REMARK INTER + INTRA:          -4.075
REMARK INTER:                  -4.031
REMARK INTRA:                  -0.044
REMARK UNBOUND:                -0.046
REMARK SMILES COc1ccccc1O
REMARK SMILES IDX 3 1 4 2 5 3 6 4 7 5 8 6 2 7 1 8 9 9
REMARK H PARENT 9 10
REMARK Flexibility Score: inf
ROOT
ATOM      1  C   UNL     1      17.455 -43.567  28.142  1.00  0.00     0.160 A 
ATOM      2  C   UNL     1      18.108 -42.467  27.551  1.00  0.00     0.050 A 
ATOM      3  C   UNL     1      18.450 -42.493  26.196  1.00  0.00     0.004 A 
ATOM      4  C   UNL     1      18.148 -43.612  25.419  1.00  0.00     0.004 A 
ATOM      5  C   UNL     1      17.502 -44.709  25.994  1.00  0.00     0.050 A 
ATOM      6  C   UNL     1      17.154 -44.692  27.350  1.00  0.00     0.157 A 
ENDROOT
BRANCH   1   7
ATOM      7  O   UNL     1      17.095 -43.577  29.499  1.00  0.00    -0.493 OA
ATOM      8  C   UNL     1      16.040 -42.801  30.059  1.00  0.00     0.278 C 
ENDBRANCH   1   7
BRANCH   6   9
ATOM      9  O   UNL     1      16.509 -45.804  27.893  1.00  0.00    -0.504 OA
ATOM     10  H   UNL     1      15.686 -46.212  27.467  1.00  0.00     0.293 HD
ENDBRANCH   6   9
TORSDOF 2
ENDMDL
MODEL 5
REMARK VINA RESULT:    -3.638      1.776      2.441
REMARK INTER + INTRA:          -4.002
REMARK INTER:                  -3.976
REMARK INTRA:                  -0.026
REMARK UNBOUND:                -0.046
REMARK SMILES COc1ccccc1O
REMARK SMILES IDX 3 1 4 2 5 3 6 4 7 5 8 6 2 7 1 8 9 9
REMARK H PARENT 9 10
REMARK Flexibility Score: inf
ROOT
ATOM      1  C   UNL     1      16.121 -45.101  30.456  1.00  0.00     0.160 A 
ATOM      2  C   UNL     1      15.326 -45.113  31.621  1.00  0.00     0.050 A 
ATOM      3  C   UNL     1      15.922 -45.172  32.883  1.00  0.00     0.004 A 
ATOM      4  C   UNL     1      17.312 -45.222  32.999  1.00  0.00     0.004 A 
ATOM      5  C   UNL     1      18.110 -45.212  31.853  1.00  0.00     0.050 A 
ATOM      6  C   UNL     1      17.523 -45.151  30.584  1.00  0.00     0.157 A 
ENDROOT
BRANCH   1   7
ATOM      7  O   UNL     1      15.558 -45.041  29.172  1.00  0.00    -0.493 OA
ATOM      8  C   UNL     1      14.219 -45.415  28.859  1.00  0.00     0.278 C 
ENDBRANCH   1   7
BRANCH   6   9
ATOM      9  O   UNL     1      18.349 -45.142  29.459  1.00  0.00    -0.504 OA
ATOM     10  H   UNL     1      18.026 -44.821  28.555  1.00  0.00     0.293 HD
ENDBRANCH   6   9
TORSDOF 2
ENDMDL
MODEL 6
REMARK VINA RESULT:    -3.627      4.246      4.942
REMARK INTER + INTRA:          -3.991
REMARK INTER:                  -3.966
REMARK INTRA:                  -0.025
REMARK UNBOUND:                -0.046
REMARK SMILES COc1ccccc1O
REMARK SMILES IDX 3 1 4 2 5 3 6 4 7 5 8 6 2 7 1 8 9 9
REMARK H PARENT 9 10
REMARK Flexibility Score: inf
ROOT
ATOM      1  C   UNL     1      16.181 -43.175  32.726  1.00  0.00     0.160 A 
ATOM      2  C   UNL     1      16.392 -44.564  32.601  1.00  0.00     0.050 A 
ATOM      3  C   UNL     1      17.676 -45.098  32.737  1.00  0.00     0.004 A 
ATOM      4  C   UNL     1      18.760 -44.259  32.996  1.00  0.00     0.004 A 
ATOM      5  C   UNL     1      18.564 -42.882  33.121  1.00  0.00     0.050 A 
ATOM      6  C   UNL     1      17.282 -42.336  32.988  1.00  0.00     0.157 A 
ENDROOT
BRANCH   1   7
ATOM      7  O   UNL     1      14.906 -42.602  32.597  1.00  0.00    -0.493 OA
ATOM      8  C   UNL     1      13.692 -43.344  32.523  1.00  0.00     0.278 C 
ENDBRANCH   1   7
BRANCH   6   9
ATOM      9  O   UNL     1      17.120 -40.956  33.120  1.00  0.00    -0.504 OA
ATOM     10  H   UNL     1      17.529 -40.301  32.466  1.00  0.00     0.293 HD
ENDBRANCH   6   9
TORSDOF 2
ENDMDL
MODEL 7
REMARK VINA RESULT:    -3.627      5.610      7.093
REMARK INTER + INTRA:          -3.991
REMARK INTER:                  -3.948
REMARK INTRA:                  -0.042
REMARK UNBOUND:                -0.046
REMARK SMILES COc1ccccc1O
REMARK SMILES IDX 3 1 4 2 5 3 6 4 7 5 8 6 2 7 1 8 9 9
REMARK H PARENT 9 10
REMARK Flexibility Score: inf
ROOT
ATOM      1  C   UNL     1      18.387 -39.833  26.682  1.00  0.00     0.160 A 
ATOM      2  C   UNL     1      18.419 -41.166  27.140  1.00  0.00     0.050 A 
ATOM      3  C   UNL     1      18.465 -42.225  26.230  1.00  0.00     0.004 A 
ATOM      4  C   UNL     1      18.480 -41.970  24.859  1.00  0.00     0.004 A 
ATOM      5  C   UNL     1      18.448 -40.654  24.392  1.00  0.00     0.050 A 
ATOM      6  C   UNL     1      18.403 -39.586  25.295  1.00  0.00     0.157 A 
ENDROOT
BRANCH   1   7
ATOM      7  O   UNL     1      18.342 -38.744  27.566  1.00  0.00    -0.493 OA
ATOM      8  C   UNL     1      19.401 -38.372  28.442  1.00  0.00     0.278 C 
ENDBRANCH   1   7
BRANCH   6   9
ATOM      9  O   UNL     1      18.373 -38.283  24.796  1.00  0.00    -0.504 OA
ATOM     10  H   UNL     1      19.088 -37.602  25.021  1.00  0.00     0.293 HD
ENDBRANCH   6   9
TORSDOF 2
ENDMDL
MODEL 8
REMARK VINA RESULT:    -3.611      2.075      4.346
REMARK INTER + INTRA:          -3.974
REMARK INTER:                  -3.931
REMARK INTRA:                  -0.042
REMARK UNBOUND:                -0.046
REMARK SMILES COc1ccccc1O
REMARK SMILES IDX 3 1 4 2 5 3 6 4 7 5 8 6 2 7 1 8 9 9
REMARK H PARENT 9 10
REMARK Flexibility Score: inf
ROOT
ATOM      1  C   UNL     1      17.387 -43.742  27.885  1.00  0.00     0.160 A 
ATOM      2  C   UNL     1      17.216 -44.702  26.866  1.00  0.00     0.050 A 
ATOM      3  C   UNL     1      17.706 -44.459  25.579  1.00  0.00     0.004 A 
ATOM      4  C   UNL     1      18.366 -43.264  25.294  1.00  0.00     0.004 A 
ATOM      5  C   UNL     1      18.540 -42.306  26.296  1.00  0.00     0.050 A 
ATOM      6  C   UNL     1      18.056 -42.539  27.588  1.00  0.00     0.157 A 
ENDROOT
BRANCH   1   7
ATOM      7  O   UNL     1      16.910 -43.951  29.189  1.00  0.00    -0.493 OA
ATOM      8  C   UNL     1      17.421 -44.930  30.087  1.00  0.00     0.278 C 
ENDBRANCH   1   7
BRANCH   6   9
ATOM      9  O   UNL     1      18.247 -41.561  28.565  1.00  0.00    -0.504 OA
ATOM     10  H   UNL     1      19.136 -41.430  29.030  1.00  0.00     0.293 HD
ENDBRANCH   6   9
TORSDOF 2
ENDMDL
MODEL 9
REMARK VINA RESULT:    -3.593      3.776      4.243
REMARK INTER + INTRA:          -3.954
REMARK INTER:                  -3.909
REMARK INTRA:                  -0.045
REMARK UNBOUND:                -0.046
REMARK SMILES COc1ccccc1O
REMARK SMILES IDX 3 1 4 2 5 3 6 4 7 5 8 6 2 7 1 8 9 9
REMARK H PARENT 9 10
REMARK Flexibility Score: inf
ROOT
ATOM      1  C   UNL     1      17.686 -44.159  32.829  1.00  0.00     0.160 A 
ATOM      2  C   UNL     1      16.937 -45.350  32.740  1.00  0.00     0.050 A 
ATOM      3  C   UNL     1      15.548 -45.323  32.882  1.00  0.00     0.004 A 
ATOM      4  C   UNL     1      14.891 -44.115  33.115  1.00  0.00     0.004 A 
ATOM      5  C   UNL     1      15.622 -42.928  33.207  1.00  0.00     0.050 A 
ATOM      6  C   UNL     1      17.014 -42.943  33.064  1.00  0.00     0.157 A 
ENDROOT
BRANCH   1   7
ATOM      7  O   UNL     1      19.083 -44.146  32.690  1.00  0.00    -0.493 OA
ATOM      8  C   UNL     1      19.772 -44.310  31.455  1.00  0.00     0.278 C 
ENDBRANCH   1   7
BRANCH   6   9
ATOM      9  O   UNL     1      17.714 -41.740  33.160  1.00  0.00    -0.504 OA
ATOM     10  H   UNL     1      18.124 -41.288  32.352  1.00  0.00     0.293 HD
ENDBRANCH   6   9
TORSDOF 2
ENDMDL
