MODEL 1
REMARK VINA RESULT:    -5.575      0.000      0.000
REMARK INTER + INTRA:          -6.891
REMARK INTER:                  -6.715
REMARK INTRA:                  -0.175
REMARK UNBOUND:                -0.175
REMARK SMILES O=c1c(O)c(-c2ccc(O)c(O)c2)oc2cc(O)cc(O)c12
REMARK SMILES IDX 5 1 3 2 2 3 1 4 22 5 20 6 19 7 17 8 16 9 15 10 14 11 6 12
REMARK SMILES IDX 7 13 8 14 9 15 13 16 11 17 10 18 12 20 4 22 21 24 18 26
REMARK H PARENT 10 19 12 21 4 23 21 25 18 27
REMARK Flexibility Score: inf
ROOT
ATOM      1  C   UNL     1      80.081  -5.933  29.055  1.00  0.00     0.180 A 
ATOM      2  C   UNL     1      79.372  -5.294  28.024  1.00  0.00     0.208 A 
ATOM      3  C   UNL     1      78.110  -5.788  27.657  1.00  0.00     0.238 A 
ATOM      4  O   UNL     1      77.456  -5.178  26.772  1.00  0.00    -0.285 OA
ATOM      5  C   UNL     1      77.580  -6.924  28.316  1.00  0.00     0.111 A 
ATOM      6  C   UNL     1      76.329  -7.534  28.000  1.00  0.00     0.134 A 
ATOM      7  C   UNL     1      75.846  -8.574  28.802  1.00  0.00     0.093 A 
ATOM      8  C   UNL     1      76.597  -9.069  29.871  1.00  0.00     0.123 A 
ATOM      9  C   UNL     1      77.846  -8.519  30.151  1.00  0.00     0.094 A 
ATOM     10  C   UNL     1      78.340  -7.457  29.390  1.00  0.00     0.146 A 
ATOM     11  O   UNL     1      79.530  -6.955  29.698  1.00  0.00    -0.452 OA
ENDROOT
BRANCH   1  12
ATOM     12  C   UNL     1      81.428  -5.485  29.479  1.00  0.00     0.025 A 
ATOM     13  C   UNL     1      81.644  -4.910  30.743  1.00  0.00     0.016 A 
ATOM     14  C   UNL     1      82.919  -4.474  31.111  1.00  0.00     0.051 A 
ATOM     15  C   UNL     1      83.993  -4.592  30.220  1.00  0.00     0.157 A 
ATOM     16  C   UNL     1      82.503  -5.583  28.580  1.00  0.00     0.062 A 
ATOM     17  C   UNL     1      83.782  -5.147  28.947  1.00  0.00     0.158 A 
BRANCH  15  18
ATOM     18  O   UNL     1      85.264  -4.158  30.591  1.00  0.00    -0.504 OA
ATOM     19  H   UNL     1      85.792  -3.509  30.018  1.00  0.00     0.293 HD
ENDBRANCH  15  18
BRANCH  17  20
ATOM     20  O   UNL     1      84.828  -5.273  28.033  1.00  0.00    -0.504 OA
ATOM     21  H   UNL     1      84.677  -5.593  27.084  1.00  0.00     0.293 HD
ENDBRANCH  17  20
ENDBRANCH   1  12
BRANCH   2  22
ATOM     22  O   UNL     1      79.904  -4.160  27.401  1.00  0.00    -0.502 OA
ATOM     23  H   UNL     1      80.080  -3.298  27.902  1.00  0.00     0.293 HD
ENDBRANCH   2  22
BRANCH   6  24
ATOM     24  O   UNL     1      75.543  -7.178  26.900  1.00  0.00    -0.507 OA
ATOM     25  H   UNL     1      75.769  -7.388  25.939  1.00  0.00     0.293 HD
ENDBRANCH   6  24
BRANCH   8  26
ATOM     26  O   UNL     1      76.116 -10.115  30.656  1.00  0.00    -0.508 OA
ATOM     27  H   UNL     1      76.449 -10.266  31.601  1.00  0.00     0.293 HD
ENDBRANCH   8  26
TORSDOF 6
ENDMDL
MODEL 2
REMARK VINA RESULT:    -5.516      2.125      6.632
REMARK INTER + INTRA:          -6.820
REMARK INTER:                  -6.696
REMARK INTRA:                  -0.123
REMARK UNBOUND:                -0.175
REMARK SMILES O=c1c(O)c(-c2ccc(O)c(O)c2)oc2cc(O)cc(O)c12
REMARK SMILES IDX 5 1 3 2 2 3 1 4 22 5 20 6 19 7 17 8 16 9 15 10 14 11 6 12
REMARK SMILES IDX 7 13 8 14 9 15 13 16 11 17 10 18 12 20 4 22 21 24 18 26
REMARK H PARENT 10 19 12 21 4 23 21 25 18 27
REMARK Flexibility Score: inf
ROOT
ATOM      1  C   UNL     1      80.039  -6.479  28.374  1.00  0.00     0.180 A 
ATOM      2  C   UNL     1      80.687  -5.289  27.999  1.00  0.00     0.208 A 
ATOM      3  C   UNL     1      82.090  -5.264  27.948  1.00  0.00     0.238 A 
ATOM      4  O   UNL     1      82.662  -4.213  27.558  1.00  0.00    -0.285 OA
ATOM      5  C   UNL     1      82.828  -6.423  28.289  1.00  0.00     0.111 A 
ATOM      6  C   UNL     1      84.252  -6.500  28.312  1.00  0.00     0.134 A 
ATOM      7  C   UNL     1      84.875  -7.733  28.537  1.00  0.00     0.093 A 
ATOM      8  C   UNL     1      84.124  -8.881  28.805  1.00  0.00     0.123 A 
ATOM      9  C   UNL     1      82.733  -8.804  28.844  1.00  0.00     0.094 A 
ATOM     10  C   UNL     1      82.083  -7.594  28.588  1.00  0.00     0.146 A 
ATOM     11  O   UNL     1      80.756  -7.568  28.624  1.00  0.00    -0.452 OA
ENDROOT
BRANCH   1  12
ATOM     12  C   UNL     1      78.565  -6.575  28.475  1.00  0.00     0.025 A 
ATOM     13  C   UNL     1      77.739  -6.364  27.358  1.00  0.00     0.016 A 
ATOM     14  C   UNL     1      76.350  -6.436  27.483  1.00  0.00     0.051 A 
ATOM     15  C   UNL     1      75.763  -6.706  28.726  1.00  0.00     0.157 A 
ATOM     16  C   UNL     1      77.972  -6.824  29.724  1.00  0.00     0.062 A 
ATOM     17  C   UNL     1      76.581  -6.898  29.853  1.00  0.00     0.158 A 
BRANCH  15  18
ATOM     18  O   UNL     1      74.377  -6.779  28.847  1.00  0.00    -0.504 OA
ATOM     19  H   UNL     1      73.919  -7.609  29.208  1.00  0.00     0.293 HD
ENDBRANCH  15  18
BRANCH  17  20
ATOM     20  O   UNL     1      76.030  -7.161  31.106  1.00  0.00    -0.504 OA
ATOM     21  H   UNL     1      75.571  -6.443  31.654  1.00  0.00     0.293 HD
ENDBRANCH  17  20
ENDBRANCH   1  12
BRANCH   2  22
ATOM     22  O   UNL     1      79.939  -4.162  27.645  1.00  0.00    -0.502 OA
ATOM     23  H   UNL     1      79.249  -4.179  26.905  1.00  0.00     0.293 HD
ENDBRANCH   2  22
BRANCH   6  24
ATOM     24  O   UNL     1      85.096  -5.397  28.148  1.00  0.00    -0.507 OA
ATOM     25  H   UNL     1      84.948  -4.492  28.570  1.00  0.00     0.293 HD
ENDBRANCH   6  24
BRANCH   8  26
ATOM     26  O   UNL     1      84.751 -10.102  29.045  1.00  0.00    -0.508 OA
ATOM     27  H   UNL     1      84.220 -10.956  29.167  1.00  0.00     0.293 HD
ENDBRANCH   8  26
TORSDOF 6
ENDMDL
MODEL 3
REMARK VINA RESULT:    -5.502      2.126      3.090
REMARK INTER + INTRA:          -6.803
REMARK INTER:                  -6.558
REMARK INTRA:                  -0.245
REMARK UNBOUND:                -0.175
REMARK SMILES O=c1c(O)c(-c2ccc(O)c(O)c2)oc2cc(O)cc(O)c12
REMARK SMILES IDX 5 1 3 2 2 3 1 4 22 5 20 6 19 7 17 8 16 9 15 10 14 11 6 12
REMARK SMILES IDX 7 13 8 14 9 15 13 16 11 17 10 18 12 20 4 22 21 24 18 26
REMARK H PARENT 10 19 12 21 4 23 21 25 18 27
REMARK Flexibility Score: inf
ROOT
ATOM      1  C   UNL     1      80.037  -6.703  28.077  1.00  0.00     0.180 A 
ATOM      2  C   UNL     1      79.217  -6.593  29.213  1.00  0.00     0.208 A 
ATOM      3  C   UNL     1      77.827  -6.723  29.065  1.00  0.00     0.238 A 
ATOM      4  O   UNL     1      77.102  -6.679  30.093  1.00  0.00    -0.285 OA
ATOM      5  C   UNL     1      77.272  -6.945  27.781  1.00  0.00     0.111 A 
ATOM      6  C   UNL     1      75.876  -7.052  27.508  1.00  0.00     0.134 A 
ATOM      7  C   UNL     1      75.448  -7.401  26.222  1.00  0.00     0.093 A 
ATOM      8  C   UNL     1      76.364  -7.584  25.182  1.00  0.00     0.123 A 
ATOM      9  C   UNL     1      77.726  -7.424  25.426  1.00  0.00     0.094 A 
ATOM     10  C   UNL     1      78.186  -7.110  26.707  1.00  0.00     0.146 A 
ATOM     11  O   UNL     1      79.493  -6.977  26.897  1.00  0.00    -0.452 OA
ENDROOT
BRANCH   1  12
ATOM     12  C   UNL     1      81.508  -6.553  28.150  1.00  0.00     0.025 A 
ATOM     13  C   UNL     1      82.320  -7.553  28.712  1.00  0.00     0.016 A 
ATOM     14  C   UNL     1      83.703  -7.378  28.791  1.00  0.00     0.051 A 
ATOM     15  C   UNL     1      84.296  -6.197  28.325  1.00  0.00     0.157 A 
ATOM     16  C   UNL     1      82.104  -5.361  27.703  1.00  0.00     0.062 A 
ATOM     17  C   UNL     1      83.490  -5.183  27.780  1.00  0.00     0.158 A 
BRANCH  15  18
ATOM     18  O   UNL     1      85.677  -6.027  28.404  1.00  0.00    -0.504 OA
ATOM     19  H   UNL     1      86.200  -5.586  27.656  1.00  0.00     0.293 HD
ENDBRANCH  15  18
BRANCH  17  20
ATOM     20  O   UNL     1      84.046  -3.993  27.314  1.00  0.00    -0.504 OA
ATOM     21  H   UNL     1      84.340  -3.877  26.351  1.00  0.00     0.293 HD
ENDBRANCH  17  20
ENDBRANCH   1  12
BRANCH   2  22
ATOM     22  O   UNL     1      79.786  -6.396  30.475  1.00  0.00    -0.502 OA
ATOM     23  H   UNL     1      79.304  -6.638  31.332  1.00  0.00     0.293 HD
ENDBRANCH   2  22
BRANCH   6  24
ATOM     24  O   UNL     1      74.875  -6.799  28.451  1.00  0.00    -0.507 OA
ATOM     25  H   UNL     1      74.156  -6.099  28.352  1.00  0.00     0.293 HD
ENDBRANCH   6  24
BRANCH   8  26
ATOM     26  O   UNL     1      75.929  -7.916  23.901  1.00  0.00    -0.508 OA
ATOM     27  H   UNL     1      75.980  -7.254  23.136  1.00  0.00     0.293 HD
ENDBRANCH   8  26
TORSDOF 6
ENDMDL
MODEL 4
REMARK VINA RESULT:    -5.415      2.556      4.171
REMARK INTER + INTRA:          -6.698
REMARK INTER:                  -6.411
REMARK INTRA:                  -0.287
REMARK UNBOUND:                -0.175
REMARK SMILES O=c1c(O)c(-c2ccc(O)c(O)c2)oc2cc(O)cc(O)c12
REMARK SMILES IDX 5 1 3 2 2 3 1 4 22 5 20 6 19 7 17 8 16 9 15 10 14 11 6 12
REMARK SMILES IDX 7 13 8 14 9 15 13 16 11 17 10 18 12 20 4 22 21 24 18 26
REMARK H PARENT 10 19 12 21 4 23 21 25 18 27
REMARK Flexibility Score: inf
ROOT
ATOM      1  C   UNL     1      83.512  -6.130  29.797  1.00  0.00     0.180 A 
ATOM      2  C   UNL     1      83.340  -5.374  28.625  1.00  0.00     0.208 A 
ATOM      3  C   UNL     1      82.042  -5.021  28.225  1.00  0.00     0.238 A 
ATOM      4  O   UNL     1      81.899  -4.297  27.205  1.00  0.00    -0.285 OA
ATOM      5  C   UNL     1      80.929  -5.443  28.992  1.00  0.00     0.111 A 
ATOM      6  C   UNL     1      79.568  -5.178  28.659  1.00  0.00     0.134 A 
ATOM      7  C   UNL     1      78.555  -5.531  29.559  1.00  0.00     0.093 A 
ATOM      8  C   UNL     1      78.850  -6.198  30.751  1.00  0.00     0.123 A 
ATOM      9  C   UNL     1      80.172  -6.514  31.057  1.00  0.00     0.094 A 
ATOM     10  C   UNL     1      81.207  -6.143  30.195  1.00  0.00     0.146 A 
ATOM     11  O   UNL     1      82.454  -6.455  30.531  1.00  0.00    -0.452 OA
ENDROOT
BRANCH   1  12
ATOM     12  C   UNL     1      84.847  -6.561  30.269  1.00  0.00     0.025 A 
ATOM     13  C   UNL     1      85.300  -7.879  30.082  1.00  0.00     0.016 A 
ATOM     14  C   UNL     1      86.554  -8.268  30.557  1.00  0.00     0.051 A 
ATOM     15  C   UNL     1      87.370  -7.354  31.237  1.00  0.00     0.157 A 
ATOM     16  C   UNL     1      85.659  -5.654  30.969  1.00  0.00     0.062 A 
ATOM     17  C   UNL     1      86.917  -6.041  31.446  1.00  0.00     0.158 A 
BRANCH  15  18
ATOM     18  O   UNL     1      88.622  -7.746  31.708  1.00  0.00    -0.504 OA
ATOM     19  H   UNL     1      89.255  -7.085  32.144  1.00  0.00     0.293 HD
ENDBRANCH  15  18
BRANCH  17  20
ATOM     20  O   UNL     1      87.700  -5.108  32.125  1.00  0.00    -0.504 OA
ATOM     21  H   UNL     1      88.712  -5.111  32.067  1.00  0.00     0.293 HD
ENDBRANCH  17  20
ENDBRANCH   1  12
BRANCH   2  22
ATOM     22  O   UNL     1      84.454  -4.949  27.894  1.00  0.00    -0.502 OA
ATOM     23  H   UNL     1      85.191  -5.582  27.609  1.00  0.00     0.293 HD
ENDBRANCH   2  22
BRANCH   6  24
ATOM     24  O   UNL     1      79.157  -4.600  27.454  1.00  0.00    -0.507 OA
ATOM     25  H   UNL     1      79.637  -3.846  26.985  1.00  0.00     0.293 HD
ENDBRANCH   6  24
BRANCH   8  26
ATOM     26  O   UNL     1      77.835  -6.561  31.634  1.00  0.00    -0.508 OA
ATOM     27  H   UNL     1      76.892  -6.202  31.533  1.00  0.00     0.293 HD
ENDBRANCH   8  26
TORSDOF 6
ENDMDL
MODEL 5
REMARK VINA RESULT:    -5.335      1.705      6.977
REMARK INTER + INTRA:          -6.602
REMARK INTER:                  -6.551
REMARK INTRA:                  -0.051
REMARK UNBOUND:                -0.175
REMARK SMILES O=c1c(O)c(-c2ccc(O)c(O)c2)oc2cc(O)cc(O)c12
REMARK SMILES IDX 5 1 3 2 2 3 1 4 22 5 20 6 19 7 17 8 16 9 15 10 14 11 6 12
REMARK SMILES IDX 7 13 8 14 9 15 13 16 11 17 10 18 12 20 4 22 21 24 18 26
REMARK H PARENT 10 19 12 21 4 23 21 25 18 27
REMARK Flexibility Score: inf
ROOT
ATOM      1  C   UNL     1      80.232  -6.369  28.710  1.00  0.00     0.180 A 
ATOM      2  C   UNL     1      81.045  -6.996  27.750  1.00  0.00     0.208 A 
ATOM      3  C   UNL     1      82.436  -6.817  27.812  1.00  0.00     0.238 A 
ATOM      4  O   UNL     1      83.162  -7.426  26.984  1.00  0.00    -0.285 OA
ATOM      5  C   UNL     1      82.996  -6.001  28.824  1.00  0.00     0.111 A 
ATOM      6  C   UNL     1      84.388  -5.718  28.959  1.00  0.00     0.134 A 
ATOM      7  C   UNL     1      84.843  -5.004  30.075  1.00  0.00     0.093 A 
ATOM      8  C   UNL     1      83.949  -4.507  31.027  1.00  0.00     0.123 A 
ATOM      9  C   UNL     1      82.582  -4.728  30.872  1.00  0.00     0.094 A 
ATOM     10  C   UNL     1      82.101  -5.467  29.788  1.00  0.00     0.146 A 
ATOM     11  O   UNL     1      80.792  -5.663  29.685  1.00  0.00    -0.452 OA
ENDROOT
BRANCH   1  12
ATOM     12  C   UNL     1      78.757  -6.489  28.693  1.00  0.00     0.025 A 
ATOM     13  C   UNL     1      78.011  -6.205  27.536  1.00  0.00     0.016 A 
ATOM     14  C   UNL     1      76.618  -6.303  27.551  1.00  0.00     0.051 A 
ATOM     15  C   UNL     1      75.947  -6.672  28.723  1.00  0.00     0.157 A 
ATOM     16  C   UNL     1      78.078  -6.838  29.873  1.00  0.00     0.062 A 
ATOM     17  C   UNL     1      76.682  -6.938  29.891  1.00  0.00     0.158 A 
BRANCH  15  18
ATOM     18  O   UNL     1      74.557  -6.771  28.735  1.00  0.00    -0.504 OA
ATOM     19  H   UNL     1      74.056  -7.119  29.544  1.00  0.00     0.293 HD
ENDBRANCH  15  18
BRANCH  17  20
ATOM     20  O   UNL     1      76.045  -7.300  31.077  1.00  0.00    -0.504 OA
ATOM     21  H   UNL     1      75.259  -6.779  31.446  1.00  0.00     0.293 HD
ENDBRANCH  17  20
ENDBRANCH   1  12
BRANCH   2  22
ATOM     22  O   UNL     1      80.473  -7.816  26.772  1.00  0.00    -0.502 OA
ATOM     23  H   UNL     1      79.850  -7.457  26.058  1.00  0.00     0.293 HD
ENDBRANCH   2  22
BRANCH   6  24
ATOM     24  O   UNL     1      85.355  -6.088  28.019  1.00  0.00    -0.507 OA
ATOM     25  H   UNL     1      85.272  -6.870  27.388  1.00  0.00     0.293 HD
ENDBRANCH   6  24
BRANCH   8  26
ATOM     26  O   UNL     1      84.408  -3.784  32.125  1.00  0.00    -0.508 OA
ATOM     27  H   UNL     1      84.785  -2.848  32.024  1.00  0.00     0.293 HD
ENDBRANCH   8  26
TORSDOF 6
ENDMDL
MODEL 6
REMARK VINA RESULT:    -5.274      1.835      7.048
REMARK INTER + INTRA:          -6.529
REMARK INTER:                  -6.296
REMARK INTRA:                  -0.233
REMARK UNBOUND:                -0.175
REMARK SMILES O=c1c(O)c(-c2ccc(O)c(O)c2)oc2cc(O)cc(O)c12
REMARK SMILES IDX 5 1 3 2 2 3 1 4 22 5 20 6 19 7 17 8 16 9 15 10 14 11 6 12
REMARK SMILES IDX 7 13 8 14 9 15 13 16 11 17 10 18 12 20 4 22 21 24 18 26
REMARK H PARENT 10 19 12 21 4 23 21 25 18 27
REMARK Flexibility Score: inf
ROOT
ATOM      1  C   UNL     1      79.068  -6.408  28.416  1.00  0.00     0.180 A 
ATOM      2  C   UNL     1      78.835  -6.014  29.745  1.00  0.00     0.208 A 
ATOM      3  C   UNL     1      79.923  -5.628  30.542  1.00  0.00     0.238 A 
ATOM      4  O   UNL     1      79.702  -5.223  31.713  1.00  0.00    -0.285 OA
ATOM      5  C   UNL     1      81.234  -5.655  30.006  1.00  0.00     0.111 A 
ATOM      6  C   UNL     1      82.415  -5.323  30.735  1.00  0.00     0.134 A 
ATOM      7  C   UNL     1      83.644  -5.259  30.067  1.00  0.00     0.093 A 
ATOM      8  C   UNL     1      83.745  -5.579  28.711  1.00  0.00     0.123 A 
ATOM      9  C   UNL     1      82.606  -5.962  28.005  1.00  0.00     0.094 A 
ATOM     10  C   UNL     1      81.360  -6.000  28.635  1.00  0.00     0.146 A 
ATOM     11  O   UNL     1      80.299  -6.360  27.922  1.00  0.00    -0.452 OA
ENDROOT
BRANCH   1  12
ATOM     12  C   UNL     1      77.974  -6.853  27.522  1.00  0.00     0.025 A 
ATOM     13  C   UNL     1      77.501  -6.037  26.480  1.00  0.00     0.016 A 
ATOM     14  C   UNL     1      76.452  -6.468  25.666  1.00  0.00     0.051 A 
ATOM     15  C   UNL     1      75.850  -7.713  25.886  1.00  0.00     0.157 A 
ATOM     16  C   UNL     1      77.353  -8.092  27.754  1.00  0.00     0.062 A 
ATOM     17  C   UNL     1      76.302  -8.528  26.939  1.00  0.00     0.158 A 
BRANCH  15  18
ATOM     18  O   UNL     1      74.805  -8.142  25.071  1.00  0.00    -0.504 OA
ATOM     19  H   UNL     1      73.836  -8.034  25.349  1.00  0.00     0.293 HD
ENDBRANCH  15  18
BRANCH  17  20
ATOM     20  O   UNL     1      75.720  -9.769  27.191  1.00  0.00    -0.504 OA
ATOM     21  H   UNL     1      75.837 -10.556  26.563  1.00  0.00     0.293 HD
ENDBRANCH  17  20
ENDBRANCH   1  12
BRANCH   2  22
ATOM     22  O   UNL     1      77.531  -5.973  30.247  1.00  0.00    -0.502 OA
ATOM     23  H   UNL     1      77.260  -6.455  31.096  1.00  0.00     0.293 HD
ENDBRANCH   2  22
BRANCH   6  24
ATOM     24  O   UNL     1      82.439  -5.076  32.111  1.00  0.00    -0.507 OA
ATOM     25  H   UNL     1      82.384  -4.161  32.532  1.00  0.00     0.293 HD
ENDBRANCH   6  24
BRANCH   8  26
ATOM     26  O   UNL     1      84.974  -5.529  28.057  1.00  0.00    -0.508 OA
ATOM     27  H   UNL     1      85.820  -5.248  28.540  1.00  0.00     0.293 HD
ENDBRANCH   8  26
TORSDOF 6
ENDMDL
MODEL 7
REMARK VINA RESULT:    -5.267      2.134      2.320
REMARK INTER + INTRA:          -6.520
REMARK INTER:                  -6.220
REMARK INTRA:                  -0.301
REMARK UNBOUND:                -0.175
REMARK SMILES O=c1c(O)c(-c2ccc(O)c(O)c2)oc2cc(O)cc(O)c12
REMARK SMILES IDX 5 1 3 2 2 3 1 4 22 5 20 6 19 7 17 8 16 9 15 10 14 11 6 12
REMARK SMILES IDX 7 13 8 14 9 15 13 16 11 17 10 18 12 20 4 22 21 24 18 26
REMARK H PARENT 10 19 12 21 4 23 21 25 18 27
REMARK Flexibility Score: inf
ROOT
ATOM      1  C   UNL     1      80.416  -7.306  28.091  1.00  0.00     0.180 A 
ATOM      2  C   UNL     1      79.820  -7.744  26.897  1.00  0.00     0.208 A 
ATOM      3  C   UNL     1      78.452  -8.059  26.893  1.00  0.00     0.238 A 
ATOM      4  O   UNL     1      77.912  -8.398  25.808  1.00  0.00    -0.285 OA
ATOM      5  C   UNL     1      77.701  -7.948  28.088  1.00  0.00     0.111 A 
ATOM      6  C   UNL     1      76.318  -8.279  28.210  1.00  0.00     0.134 A 
ATOM      7  C   UNL     1      75.646  -8.007  29.407  1.00  0.00     0.093 A 
ATOM      8  C   UNL     1      76.321  -7.475  30.509  1.00  0.00     0.123 A 
ATOM      9  C   UNL     1      77.684  -7.204  30.418  1.00  0.00     0.094 A 
ATOM     10  C   UNL     1      78.375  -7.431  29.225  1.00  0.00     0.146 A 
ATOM     11  O   UNL     1      79.672  -7.149  29.179  1.00  0.00    -0.452 OA
ENDROOT
BRANCH   1  12
ATOM     12  C   UNL     1      81.858  -6.979  28.179  1.00  0.00     0.025 A 
ATOM     13  C   UNL     1      82.783  -7.889  28.719  1.00  0.00     0.016 A 
ATOM     14  C   UNL     1      84.135  -7.549  28.813  1.00  0.00     0.051 A 
ATOM     15  C   UNL     1      84.581  -6.293  28.383  1.00  0.00     0.157 A 
ATOM     16  C   UNL     1      82.306  -5.713  27.768  1.00  0.00     0.062 A 
ATOM     17  C   UNL     1      83.660  -5.370  27.860  1.00  0.00     0.158 A 
BRANCH  15  18
ATOM     18  O   UNL     1      85.931  -5.958  28.477  1.00  0.00    -0.504 OA
ATOM     19  H   UNL     1      86.653  -6.552  28.087  1.00  0.00     0.293 HD
ENDBRANCH  15  18
BRANCH  17  20
ATOM     20  O   UNL     1      84.069  -4.108  27.430  1.00  0.00    -0.504 OA
ATOM     21  H   UNL     1      84.455  -3.954  26.507  1.00  0.00     0.293 HD
ENDBRANCH  17  20
ENDBRANCH   1  12
BRANCH   2  22
ATOM     22  O   UNL     1      80.575  -7.826  25.723  1.00  0.00    -0.502 OA
ATOM     23  H   UNL     1      81.104  -8.652  25.473  1.00  0.00     0.293 HD
ENDBRANCH   2  22
BRANCH   6  24
ATOM     24  O   UNL     1      75.572  -8.898  27.202  1.00  0.00    -0.507 OA
ATOM     25  H   UNL     1      75.946  -9.207  26.317  1.00  0.00     0.293 HD
ENDBRANCH   6  24
BRANCH   8  26
ATOM     26  O   UNL     1      75.647  -7.221  31.702  1.00  0.00    -0.508 OA
ATOM     27  H   UNL     1      75.811  -6.374  32.233  1.00  0.00     0.293 HD
ENDBRANCH   8  26
TORSDOF 6
ENDMDL
MODEL 8
REMARK VINA RESULT:    -5.239      4.248      7.526
REMARK INTER + INTRA:          -6.487
REMARK INTER:                  -6.156
REMARK INTRA:                  -0.330
REMARK UNBOUND:                -0.175
REMARK SMILES O=c1c(O)c(-c2ccc(O)c(O)c2)oc2cc(O)cc(O)c12
REMARK SMILES IDX 5 1 3 2 2 3 1 4 22 5 20 6 19 7 17 8 16 9 15 10 14 11 6 12
REMARK SMILES IDX 7 13 8 14 9 15 13 16 11 17 10 18 12 20 4 22 21 24 18 26
REMARK H PARENT 10 19 12 21 4 23 21 25 18 27
REMARK Flexibility Score: inf
ROOT
ATOM      1  C   UNL     1      83.133  -7.087  27.114  1.00  0.00     0.180 A 
ATOM      2  C   UNL     1      83.003  -5.703  27.318  1.00  0.00     0.208 A 
ATOM      3  C   UNL     1      83.751  -5.090  28.335  1.00  0.00     0.238 A 
ATOM      4  O   UNL     1      83.672  -3.842  28.476  1.00  0.00    -0.285 OA
ATOM      5  C   UNL     1      84.607  -5.872  29.149  1.00  0.00     0.111 A 
ATOM      6  C   UNL     1      85.380  -5.363  30.235  1.00  0.00     0.134 A 
ATOM      7  C   UNL     1      86.290  -6.204  30.887  1.00  0.00     0.093 A 
ATOM      8  C   UNL     1      86.408  -7.551  30.536  1.00  0.00     0.123 A 
ATOM      9  C   UNL     1      85.614  -8.070  29.516  1.00  0.00     0.094 A 
ATOM     10  C   UNL     1      84.723  -7.248  28.822  1.00  0.00     0.146 A 
ATOM     11  O   UNL     1      83.993  -7.782  27.850  1.00  0.00    -0.452 OA
ENDROOT
BRANCH   1  12
ATOM     12  C   UNL     1      82.359  -7.808  26.078  1.00  0.00     0.025 A 
ATOM     13  C   UNL     1      81.107  -8.379  26.364  1.00  0.00     0.016 A 
ATOM     14  C   UNL     1      80.406  -9.075  25.376  1.00  0.00     0.051 A 
ATOM     15  C   UNL     1      80.949  -9.223  24.093  1.00  0.00     0.157 A 
ATOM     16  C   UNL     1      82.909  -7.977  24.797  1.00  0.00     0.062 A 
ATOM     17  C   UNL     1      82.209  -8.672  23.804  1.00  0.00     0.158 A 
BRANCH  15  18
ATOM     18  O   UNL     1      80.246  -9.916  23.109  1.00  0.00    -0.504 OA
ATOM     19  H   UNL     1      80.495 -10.863  22.847  1.00  0.00     0.293 HD
ENDBRANCH  15  18
BRANCH  17  20
ATOM     20  O   UNL     1      82.782  -8.808  22.540  1.00  0.00    -0.504 OA
ATOM     21  H   UNL     1      83.766  -8.634  22.374  1.00  0.00     0.293 HD
ENDBRANCH  17  20
ENDBRANCH   1  12
BRANCH   2  22
ATOM     22  O   UNL     1      82.169  -4.946  26.489  1.00  0.00    -0.502 OA
ATOM     23  H   UNL     1      82.365  -3.980  26.257  1.00  0.00     0.293 HD
ENDBRANCH   2  22
BRANCH   6  24
ATOM     24  O   UNL     1      85.272  -4.059  30.726  1.00  0.00    -0.507 OA
ATOM     25  H   UNL     1      85.475  -3.226  30.194  1.00  0.00     0.293 HD
ENDBRANCH   6  24
BRANCH   8  26
ATOM     26  O   UNL     1      87.305  -8.384  31.201  1.00  0.00    -0.508 OA
ATOM     27  H   UNL     1      87.119  -8.723  32.137  1.00  0.00     0.293 HD
ENDBRANCH   8  26
TORSDOF 6
ENDMDL
MODEL 9
REMARK VINA RESULT:    -5.166      2.434      3.689
REMARK INTER + INTRA:          -6.399
REMARK INTER:                  -6.377
REMARK INTRA:                  -0.021
REMARK UNBOUND:                -0.175
REMARK SMILES O=c1c(O)c(-c2ccc(O)c(O)c2)oc2cc(O)cc(O)c12
REMARK SMILES IDX 5 1 3 2 2 3 1 4 22 5 20 6 19 7 17 8 16 9 15 10 14 11 6 12
REMARK SMILES IDX 7 13 8 14 9 15 13 16 11 17 10 18 12 20 4 22 21 24 18 26
REMARK H PARENT 10 19 12 21 4 23 21 25 18 27
REMARK Flexibility Score: inf
ROOT
ATOM      1  C   UNL     1      82.966  -6.818  28.666  1.00  0.00     0.180 A 
ATOM      2  C   UNL     1      82.930  -7.266  27.334  1.00  0.00     0.208 A 
ATOM      3  C   UNL     1      81.690  -7.390  26.690  1.00  0.00     0.238 A 
ATOM      4  O   UNL     1      81.668  -7.738  25.480  1.00  0.00    -0.285 OA
ATOM      5  C   UNL     1      80.498  -7.079  27.389  1.00  0.00     0.111 A 
ATOM      6  C   UNL     1      79.184  -7.206  26.848  1.00  0.00     0.134 A 
ATOM      7  C   UNL     1      78.086  -6.747  27.586  1.00  0.00     0.093 A 
ATOM      8  C   UNL     1      78.249  -6.225  28.871  1.00  0.00     0.123 A 
ATOM      9  C   UNL     1      79.522  -6.152  29.431  1.00  0.00     0.094 A 
ATOM     10  C   UNL     1      80.641  -6.569  28.706  1.00  0.00     0.146 A 
ATOM     11  O   UNL     1      81.837  -6.472  29.274  1.00  0.00    -0.452 OA
ENDROOT
BRANCH   1  12
ATOM     12  C   UNL     1      84.234  -6.687  29.419  1.00  0.00     0.025 A 
ATOM     13  C   UNL     1      85.168  -7.736  29.470  1.00  0.00     0.016 A 
ATOM     14  C   UNL     1      86.346  -7.597  30.207  1.00  0.00     0.051 A 
ATOM     15  C   UNL     1      86.604  -6.417  30.916  1.00  0.00     0.157 A 
ATOM     16  C   UNL     1      84.486  -5.513  30.149  1.00  0.00     0.062 A 
ATOM     17  C   UNL     1      85.666  -5.371  30.888  1.00  0.00     0.158 A 
BRANCH  15  18
ATOM     18  O   UNL     1      87.781  -6.282  31.649  1.00  0.00    -0.504 OA
ATOM     19  H   UNL     1      88.149  -5.371  31.898  1.00  0.00     0.293 HD
ENDBRANCH  15  18
BRANCH  17  20
ATOM     20  O   UNL     1      85.888  -4.186  31.588  1.00  0.00    -0.504 OA
ATOM     21  H   UNL     1      85.972  -3.292  31.119  1.00  0.00     0.293 HD
ENDBRANCH  17  20
ENDBRANCH   1  12
BRANCH   2  22
ATOM     22  O   UNL     1      84.120  -7.546  26.655  1.00  0.00    -0.502 OA
ATOM     23  H   UNL     1      84.399  -7.047  25.819  1.00  0.00     0.293 HD
ENDBRANCH   2  22
BRANCH   6  24
ATOM     24  O   UNL     1      78.902  -7.797  25.612  1.00  0.00    -0.507 OA
ATOM     25  H   UNL     1      79.458  -7.679  24.779  1.00  0.00     0.293 HD
ENDBRANCH   6  24
BRANCH   8  26
ATOM     26  O   UNL     1      77.149  -5.785  29.605  1.00  0.00    -0.508 OA
ATOM     27  H   UNL     1      77.075  -5.954  30.602  1.00  0.00     0.293 HD
ENDBRANCH   8  26
TORSDOF 6
ENDMDL
