MODEL 1
REMARK VINA RESULT:     0.000      0.000      0.000
REMARK INTER + INTRA:          -5.039
REMARK INTER:                   0.000
REMARK INTRA:                  -5.039
REMARK UNBOUND:                -5.039
REMARK SMILES CCCCCCCCCCCCCCCCCCCCCC(=O)[O-]
REMARK SMILES IDX 12 1 11 2 10 3 9 4 8 5 7 6 6 7 5 8 4 9 3 10 2 11 1 12 13 13
REMARK SMILES IDX 14 14 15 15 16 16 17 17 18 18 19 19 20 20 21 21 22 22 23 23
REMARK SMILES IDX 24 24
REMARK H PARENT
REMARK Flexibility Score: inf
ROOT
ATOM      1  C   UNL     1     171.306 186.529 192.209  1.00  0.00     0.000 C 
ENDROOT
BRANCH   1   2
ATOM      2  C   UNL     1     172.391 185.636 192.840  1.00  0.00     0.000 C 
BRANCH   2   3
ATOM      3  C   UNL     1     173.667 186.381 193.277  1.00  0.00     0.000 C 
BRANCH   3   4
ATOM      4  C   UNL     1     173.892 186.386 194.805  1.00  0.00    -0.000 C 
BRANCH   4   5
ATOM      5  C   UNL     1     173.786 187.795 195.411  1.00  0.00    -0.000 C 
BRANCH   5   6
ATOM      6  C   UNL     1     172.405 188.065 196.034  1.00  0.00    -0.000 C 
BRANCH   6   7
ATOM      7  C   UNL     1     171.661 186.773 196.402  1.00  0.00    -0.000 C 
BRANCH   7   8
ATOM      8  C   UNL     1     170.234 186.780 195.832  1.00  0.00    -0.000 C 
BRANCH   8   9
ATOM      9  C   UNL     1     169.633 188.201 195.788  1.00  0.00    -0.000 C 
BRANCH   9  10
ATOM     10  C   UNL     1     168.463 188.343 194.802  1.00  0.00    -0.000 C 
BRANCH  10  11
ATOM     11  C   UNL     1     168.132 187.031 194.077  1.00  0.00    -0.003 C 
ATOM     12  C   UNL     1     167.519 187.299 192.707  1.00  0.00     0.004 C 
ENDBRANCH  10  11
ENDBRANCH   9  10
ENDBRANCH   8   9
ENDBRANCH   7   8
ENDBRANCH   6   7
ENDBRANCH   5   6
ENDBRANCH   4   5
ENDBRANCH   3   4
ENDBRANCH   2   3
ENDBRANCH   1   2
BRANCH   1  13
ATOM     13  C   UNL     1     171.436 188.038 192.509  1.00  0.00     0.000 C 
BRANCH  13  14
ATOM     14  C   UNL     1     170.624 188.968 191.588  1.00  0.00     0.000 C 
BRANCH  14  15
ATOM     15  C   UNL     1     170.334 190.340 192.220  1.00  0.00     0.000 C 
BRANCH  15  16
ATOM     16  C   UNL     1     171.193 190.621 193.466  1.00  0.00     0.000 C 
BRANCH  16  17
ATOM     17  C   UNL     1     172.169 191.803 193.333  1.00  0.00     0.000 C 
BRANCH  17  18
ATOM     18  C   UNL     1     173.357 191.496 192.406  1.00  0.00     0.000 C 
BRANCH  18  19
ATOM     19  C   UNL     1     174.317 190.450 193.003  1.00  0.00     0.000 C 
BRANCH  19  20
ATOM     20  C   UNL     1     174.950 189.502 191.967  1.00  0.00     0.006 C 
BRANCH  20  21
ATOM     21  C   UNL     1     174.218 189.524 190.618  1.00  0.00     0.053 C 
BRANCH  21  22
ATOM     22  C   UNL     1     174.205 188.158 190.008  1.00  0.00     0.041 C 
ATOM     23  O   UNL     1     173.183 187.748 189.395  1.00  0.00    -0.550 OA
ATOM     24  O   UNL     1     175.303 187.319 190.154  1.00  0.00    -0.550 OA
ENDBRANCH  21  22
ENDBRANCH  20  21
ENDBRANCH  19  20
ENDBRANCH  18  19
ENDBRANCH  17  18
ENDBRANCH  16  17
ENDBRANCH  15  16
ENDBRANCH  14  15
ENDBRANCH  13  14
ENDBRANCH   1  13
TORSDOF 20
ENDMDL
MODEL 2
REMARK VINA RESULT:     0.029      1.653      2.050
REMARK INTER + INTRA:          -4.975
REMARK INTER:                   0.000
REMARK INTRA:                  -4.975
REMARK UNBOUND:                -5.039
REMARK SMILES CCCCCCCCCCCCCCCCCCCCCC(=O)[O-]
REMARK SMILES IDX 12 1 11 2 10 3 9 4 8 5 7 6 6 7 5 8 4 9 3 10 2 11 1 12 13 13
REMARK SMILES IDX 14 14 15 15 16 16 17 17 18 18 19 19 20 20 21 21 22 22 23 23
REMARK SMILES IDX 24 24
REMARK H PARENT
REMARK Flexibility Score: inf
ROOT
ATOM      1  C   UNL     1     170.013 185.666 192.220  1.00  0.00     0.000 C 
ENDROOT
BRANCH   1   2
ATOM      2  C   UNL     1     171.436 185.147 192.497  1.00  0.00     0.000 C 
BRANCH   2   3
ATOM      3  C   UNL     1     172.540 186.221 192.429  1.00  0.00     0.000 C 
BRANCH   3   4
ATOM      4  C   UNL     1     173.222 186.496 193.787  1.00  0.00    -0.000 C 
BRANCH   4   5
ATOM      5  C   UNL     1     172.949 187.918 194.305  1.00  0.00    -0.000 C 
BRANCH   5   6
ATOM      6  C   UNL     1     171.767 187.968 195.289  1.00  0.00    -0.000 C 
BRANCH   6   7
ATOM      7  C   UNL     1     171.515 186.619 195.978  1.00  0.00    -0.000 C 
BRANCH   7   8
ATOM      8  C   UNL     1     170.027 186.242 195.922  1.00  0.00    -0.000 C 
BRANCH   8   9
ATOM      9  C   UNL     1     169.112 187.486 195.954  1.00  0.00    -0.000 C 
BRANCH   9  10
ATOM     10  C   UNL     1     167.694 187.219 195.425  1.00  0.00    -0.000 C 
BRANCH  10  11
ATOM     11  C   UNL     1     167.492 185.767 194.970  1.00  0.00    -0.003 C 
ATOM     12  C   UNL     1     166.465 185.681 193.846  1.00  0.00     0.004 C 
ENDBRANCH  10  11
ENDBRANCH   9  10
ENDBRANCH   8   9
ENDBRANCH   7   8
ENDBRANCH   6   7
ENDBRANCH   5   6
ENDBRANCH   4   5
ENDBRANCH   3   4
ENDBRANCH   2   3
ENDBRANCH   1   2
BRANCH   1  13
ATOM     13  C   UNL     1     169.845 187.200 192.282  1.00  0.00     0.000 C 
BRANCH  13  14
ATOM     14  C   UNL     1     168.594 187.758 191.578  1.00  0.00     0.000 C 
BRANCH  14  15
ATOM     15  C   UNL     1     168.071 189.056 192.216  1.00  0.00     0.000 C 
BRANCH  15  16
ATOM     16  C   UNL     1     169.141 189.791 193.044  1.00  0.00     0.000 C 
BRANCH  16  17
ATOM     17  C   UNL     1     169.559 191.167 192.497  1.00  0.00     0.000 C 
BRANCH  17  18
ATOM     18  C   UNL     1     170.606 191.070 191.372  1.00  0.00     0.000 C 
BRANCH  18  19
ATOM     19  C   UNL     1     171.895 190.362 191.826  1.00  0.00     0.000 C 
BRANCH  19  20
ATOM     20  C   UNL     1     172.523 189.440 190.764  1.00  0.00     0.006 C 
BRANCH  20  21
ATOM     21  C   UNL     1     171.539 189.065 189.648  1.00  0.00     0.053 C 
BRANCH  21  22
ATOM     22  C   UNL     1     171.920 187.756 189.032  1.00  0.00     0.041 C 
ATOM     23  O   UNL     1     171.098 186.802 189.014  1.00  0.00    -0.550 OA
ATOM     24  O   UNL     1     173.198 187.574 188.518  1.00  0.00    -0.550 OA
ENDBRANCH  21  22
ENDBRANCH  20  21
ENDBRANCH  19  20
ENDBRANCH  18  19
ENDBRANCH  17  18
ENDBRANCH  16  17
ENDBRANCH  15  16
ENDBRANCH  14  15
ENDBRANCH  13  14
ENDBRANCH   1  13
TORSDOF 20
ENDMDL
MODEL 3
REMARK VINA RESULT:     0.073      4.702      7.331
REMARK INTER + INTRA:          -4.882
REMARK INTER:                   0.000
REMARK INTRA:                  -4.882
REMARK UNBOUND:                -5.039
REMARK SMILES CCCCCCCCCCCCCCCCCCCCCC(=O)[O-]
REMARK SMILES IDX 12 1 11 2 10 3 9 4 8 5 7 6 6 7 5 8 4 9 3 10 2 11 1 12 13 13
REMARK SMILES IDX 14 14 15 15 16 16 17 17 18 18 19 19 20 20 21 21 22 22 23 23
REMARK SMILES IDX 24 24
REMARK H PARENT
REMARK Flexibility Score: inf
ROOT
ATOM      1  C   UNL     1     172.397 188.233 197.227  1.00  0.00     0.000 C 
ENDROOT
BRANCH   1   2
ATOM      2  C   UNL     1     173.052 188.224 198.621  1.00  0.00     0.000 C 
BRANCH   2   3
ATOM      3  C   UNL     1     173.048 189.584 199.346  1.00  0.00     0.000 C 
BRANCH   3   4
ATOM      4  C   UNL     1     174.452 190.063 199.776  1.00  0.00    -0.000 C 
BRANCH   4   5
ATOM      5  C   UNL     1     174.698 191.543 199.438  1.00  0.00    -0.000 C 
BRANCH   5   6
ATOM      6  C   UNL     1     173.587 192.138 198.557  1.00  0.00    -0.000 C 
BRANCH   6   7
ATOM      7  C   UNL     1     174.128 193.124 197.511  1.00  0.00    -0.000 C 
BRANCH   7   8
ATOM      8  C   UNL     1     175.149 192.441 196.588  1.00  0.00    -0.000 C 
BRANCH   8   9
ATOM      9  C   UNL     1     174.467 191.554 195.524  1.00  0.00    -0.000 C 
BRANCH   9  10
ATOM     10  C   UNL     1     175.084 190.152 195.406  1.00  0.00    -0.000 C 
BRANCH  10  11
ATOM     11  C   UNL     1     176.176 189.891 196.453  1.00  0.00    -0.003 C 
ATOM     12  C   UNL     1     176.251 188.411 196.813  1.00  0.00     0.004 C 
ENDBRANCH  10  11
ENDBRANCH   9  10
ENDBRANCH   8   9
ENDBRANCH   7   8
ENDBRANCH   6   7
ENDBRANCH   5   6
ENDBRANCH   4   5
ENDBRANCH   3   4
ENDBRANCH   2   3
ENDBRANCH   1   2
BRANCH   1  13
ATOM     13  C   UNL     1     171.759 189.574 196.806  1.00  0.00     0.000 C 
BRANCH  13  14
ATOM     14  C   UNL     1     170.683 189.479 195.708  1.00  0.00     0.000 C 
BRANCH  14  15
ATOM     15  C   UNL     1     170.043 190.836 195.371  1.00  0.00     0.000 C 
BRANCH  15  16
ATOM     16  C   UNL     1     170.780 192.024 196.015  1.00  0.00     0.000 C 
BRANCH  16  17
ATOM     17  C   UNL     1     169.920 192.903 196.940  1.00  0.00     0.000 C 
BRANCH  17  18
ATOM     18  C   UNL     1     170.060 192.523 198.425  1.00  0.00     0.000 C 
BRANCH  18  19
ATOM     19  C   UNL     1     168.907 191.628 198.916  1.00  0.00     0.000 C 
BRANCH  19  20
ATOM     20  C   UNL     1     169.356 190.285 199.520  1.00  0.00     0.006 C 
BRANCH  20  21
ATOM     21  C   UNL     1     168.682 189.079 198.852  1.00  0.00     0.053 C 
BRANCH  21  22
ATOM     22  C   UNL     1     169.373 187.811 199.242  1.00  0.00     0.041 C 
ATOM     23  O   UNL     1     169.332 186.808 198.480  1.00  0.00    -0.550 OA
ATOM     24  O   UNL     1     170.025 187.720 200.466  1.00  0.00    -0.550 OA
ENDBRANCH  21  22
ENDBRANCH  20  21
ENDBRANCH  19  20
ENDBRANCH  18  19
ENDBRANCH  17  18
ENDBRANCH  16  17
ENDBRANCH  15  16
ENDBRANCH  14  15
ENDBRANCH  13  14
ENDBRANCH   1  13
TORSDOF 20
ENDMDL
MODEL 4
REMARK VINA RESULT:     0.080      4.100      6.874
REMARK INTER + INTRA:          -4.865
REMARK INTER:                   0.000
REMARK INTRA:                  -4.865
REMARK UNBOUND:                -5.039
REMARK SMILES CCCCCCCCCCCCCCCCCCCCCC(=O)[O-]
REMARK SMILES IDX 12 1 11 2 10 3 9 4 8 5 7 6 6 7 5 8 4 9 3 10 2 11 1 12 13 13
REMARK SMILES IDX 14 14 15 15 16 16 17 17 18 18 19 19 20 20 21 21 22 22 23 23
REMARK SMILES IDX 24 24
REMARK H PARENT
REMARK Flexibility Score: inf
ROOT
ATOM      1  C   UNL     1     175.257 184.531 197.175  1.00  0.00     0.000 C 
ENDROOT
BRANCH   1   2
ATOM      2  C   UNL     1     173.754 184.719 197.453  1.00  0.00     0.000 C 
BRANCH   2   3
ATOM      3  C   UNL     1     172.878 183.492 197.133  1.00  0.00     0.000 C 
BRANCH   3   4
ATOM      4  C   UNL     1     171.413 183.636 197.599  1.00  0.00    -0.000 C 
BRANCH   4   5
ATOM      5  C   UNL     1     171.236 183.317 199.093  1.00  0.00    -0.000 C 
BRANCH   5   6
ATOM      6  C   UNL     1     171.032 184.583 199.944  1.00  0.00    -0.000 C 
BRANCH   6   7
ATOM      7  C   UNL     1     171.969 184.634 201.159  1.00  0.00    -0.000 C 
BRANCH   7   8
ATOM      8  C   UNL     1     173.042 185.719 200.981  1.00  0.00    -0.000 C 
BRANCH   8   9
ATOM      9  C   UNL     1     174.467 185.126 200.952  1.00  0.00    -0.000 C 
BRANCH   9  10
ATOM     10  C   UNL     1     174.529 183.653 201.389  1.00  0.00    -0.000 C 
BRANCH  10  11
ATOM     11  C   UNL     1     175.297 182.769 200.396  1.00  0.00    -0.003 C 
ATOM     12  C   UNL     1     174.433 181.610 199.911  1.00  0.00     0.004 C 
ENDBRANCH  10  11
ENDBRANCH   9  10
ENDBRANCH   8   9
ENDBRANCH   7   8
ENDBRANCH   6   7
ENDBRANCH   5   6
ENDBRANCH   4   5
ENDBRANCH   3   4
ENDBRANCH   2   3
ENDBRANCH   1   2
BRANCH   1  13
ATOM     13  C   UNL     1     176.122 185.800 197.334  1.00  0.00     0.000 C 
BRANCH  13  14
ATOM     14  C   UNL     1     175.352 187.133 197.304  1.00  0.00     0.000 C 
BRANCH  14  15
ATOM     15  C   UNL     1     175.447 187.916 198.625  1.00  0.00     0.000 C 
BRANCH  15  16
ATOM     16  C   UNL     1     174.122 188.594 199.019  1.00  0.00     0.000 C 
BRANCH  16  17
ATOM     17  C   UNL     1     173.054 188.630 197.911  1.00  0.00     0.000 C 
BRANCH  17  18
ATOM     18  C   UNL     1     171.753 187.913 198.312  1.00  0.00     0.000 C 
BRANCH  18  19
ATOM     19  C   UNL     1     171.058 187.237 197.115  1.00  0.00     0.000 C 
BRANCH  19  20
ATOM     20  C   UNL     1     171.792 187.411 195.773  1.00  0.00     0.006 C 
BRANCH  20  21
ATOM     21  C   UNL     1     171.485 186.284 194.778  1.00  0.00     0.053 C 
BRANCH  21  22
ATOM     22  C   UNL     1     172.747 185.768 194.164  1.00  0.00     0.041 C 
ATOM     23  O   UNL     1     173.802 186.454 194.213  1.00  0.00    -0.550 OA
ATOM     24  O   UNL     1     172.749 184.548 193.498  1.00  0.00    -0.550 OA
ENDBRANCH  21  22
ENDBRANCH  20  21
ENDBRANCH  19  20
ENDBRANCH  18  19
ENDBRANCH  17  18
ENDBRANCH  16  17
ENDBRANCH  15  16
ENDBRANCH  14  15
ENDBRANCH  13  14
ENDBRANCH   1  13
TORSDOF 20
ENDMDL
MODEL 5
REMARK VINA RESULT:     0.080      4.501      7.436
REMARK INTER + INTRA:          -4.865
REMARK INTER:                   0.000
REMARK INTRA:                  -4.865
REMARK UNBOUND:                -5.039
REMARK SMILES CCCCCCCCCCCCCCCCCCCCCC(=O)[O-]
REMARK SMILES IDX 12 1 11 2 10 3 9 4 8 5 7 6 6 7 5 8 4 9 3 10 2 11 1 12 13 13
REMARK SMILES IDX 14 14 15 15 16 16 17 17 18 18 19 19 20 20 21 21 22 22 23 23
REMARK SMILES IDX 24 24
REMARK H PARENT
REMARK Flexibility Score: inf
ROOT
ATOM      1  C   UNL     1     175.483 180.517 187.687  1.00  0.00     0.000 C 
ENDROOT
BRANCH   1   2
ATOM      2  C   UNL     1     175.213 181.442 186.485  1.00  0.00     0.000 C 
BRANCH   2   3
ATOM      3  C   UNL     1     173.910 182.259 186.578  1.00  0.00     0.000 C 
BRANCH   3   4
ATOM      4  C   UNL     1     174.108 183.772 186.345  1.00  0.00    -0.000 C 
BRANCH   4   5
ATOM      5  C   UNL     1     173.276 184.630 187.313  1.00  0.00    -0.000 C 
BRANCH   5   6
ATOM      6  C   UNL     1     172.703 183.810 188.482  1.00  0.00    -0.000 C 
BRANCH   6   7
ATOM      7  C   UNL     1     172.478 184.658 189.743  1.00  0.00    -0.000 C 
BRANCH   7   8
ATOM      8  C   UNL     1     172.475 183.779 191.003  1.00  0.00    -0.000 C 
BRANCH   8   9
ATOM      9  C   UNL     1     173.273 184.419 192.159  1.00  0.00    -0.000 C 
BRANCH   9  10
ATOM     10  C   UNL     1     173.959 183.393 193.075  1.00  0.00    -0.000 C 
BRANCH  10  11
ATOM     11  C   UNL     1     175.349 183.846 193.542  1.00  0.00    -0.003 C 
ATOM     12  C   UNL     1     175.498 185.360 193.435  1.00  0.00     0.004 C 
ENDBRANCH  10  11
ENDBRANCH   9  10
ENDBRANCH   8   9
ENDBRANCH   7   8
ENDBRANCH   6   7
ENDBRANCH   5   6
ENDBRANCH   4   5
ENDBRANCH   3   4
ENDBRANCH   2   3
ENDBRANCH   1   2
BRANCH   1  13
ATOM     13  C   UNL     1     174.403 180.535 188.790  1.00  0.00     0.000 C 
BRANCH  13  14
ATOM     14  C   UNL     1     174.848 181.122 190.142  1.00  0.00     0.000 C 
BRANCH  14  15
ATOM     15  C   UNL     1     176.210 181.834 190.072  1.00  0.00     0.000 C 
BRANCH  15  16
ATOM     16  C   UNL     1     176.084 183.364 189.969  1.00  0.00     0.000 C 
BRANCH  16  17
ATOM     17  C   UNL     1     176.825 184.001 188.780  1.00  0.00     0.000 C 
BRANCH  17  18
ATOM     18  C   UNL     1     176.591 185.519 188.674  1.00  0.00     0.000 C 
BRANCH  18  19
ATOM     19  C   UNL     1     175.849 186.089 189.896  1.00  0.00     0.000 C 
BRANCH  19  20
ATOM     20  C   UNL     1     175.600 187.607 189.839  1.00  0.00     0.006 C 
BRANCH  20  21
ATOM     21  C   UNL     1     174.114 187.970 189.953  1.00  0.00     0.053 C 
BRANCH  21  22
ATOM     22  C   UNL     1     173.501 188.101 188.595  1.00  0.00     0.041 C 
ATOM     23  O   UNL     1     172.250 188.037 188.455  1.00  0.00    -0.550 OA
ATOM     24  O   UNL     1     174.312 188.249 187.476  1.00  0.00    -0.550 OA
ENDBRANCH  21  22
ENDBRANCH  20  21
ENDBRANCH  19  20
ENDBRANCH  18  19
ENDBRANCH  17  18
ENDBRANCH  16  17
ENDBRANCH  15  16
ENDBRANCH  14  15
ENDBRANCH  13  14
ENDBRANCH   1  13
TORSDOF 20
ENDMDL
MODEL 6
REMARK VINA RESULT:     0.081      4.151      6.722
REMARK INTER + INTRA:          -4.863
REMARK INTER:                   0.000
REMARK INTRA:                  -4.863
REMARK UNBOUND:                -5.039
REMARK SMILES CCCCCCCCCCCCCCCCCCCCCC(=O)[O-]
REMARK SMILES IDX 12 1 11 2 10 3 9 4 8 5 7 6 6 7 5 8 4 9 3 10 2 11 1 12 13 13
REMARK SMILES IDX 14 14 15 15 16 16 17 17 18 18 19 19 20 20 21 21 22 22 23 23
REMARK SMILES IDX 24 24
REMARK H PARENT
REMARK Flexibility Score: inf
ROOT
ATOM      1  C   UNL     1     178.204 192.617 195.381  1.00  0.00     0.000 C 
ENDROOT
BRANCH   1   2
ATOM      2  C   UNL     1     178.387 191.758 194.117  1.00  0.00     0.000 C 
BRANCH   2   3
ATOM      3  C   UNL     1     177.606 190.430 194.118  1.00  0.00     0.000 C 
BRANCH   3   4
ATOM      4  C   UNL     1     178.092 189.422 193.054  1.00  0.00    -0.000 C 
BRANCH   4   5
ATOM      5  C   UNL     1     177.028 188.364 192.716  1.00  0.00    -0.000 C 
BRANCH   5   6
ATOM      6  C   UNL     1     175.698 188.611 193.449  1.00  0.00    -0.000 C 
BRANCH   6   7
ATOM      7  C   UNL     1     175.354 187.490 194.441  1.00  0.00    -0.000 C 
BRANCH   7   8
ATOM      8  C   UNL     1     174.855 188.069 195.774  1.00  0.00    -0.000 C 
BRANCH   8   9
ATOM      9  C   UNL     1     176.020 188.433 196.720  1.00  0.00    -0.000 C 
BRANCH   9  10
ATOM     10  C   UNL     1     177.226 187.488 196.601  1.00  0.00    -0.000 C 
BRANCH  10  11
ATOM     11  C   UNL     1     178.549 188.157 197.001  1.00  0.00    -0.003 C 
ATOM     12  C   UNL     1     179.640 187.876 195.973  1.00  0.00     0.004 C 
ENDBRANCH  10  11
ENDBRANCH   9  10
ENDBRANCH   8   9
ENDBRANCH   7   8
ENDBRANCH   6   7
ENDBRANCH   5   6
ENDBRANCH   4   5
ENDBRANCH   3   4
ENDBRANCH   2   3
ENDBRANCH   1   2
BRANCH   1  13
ATOM     13  C   UNL     1     178.165 191.834 196.712  1.00  0.00     0.000 C 
BRANCH  13  14
ATOM     14  C   UNL     1     176.881 192.007 197.544  1.00  0.00     0.000 C 
BRANCH  14  15
ATOM     15  C   UNL     1     176.178 193.352 197.297  1.00  0.00     0.000 C 
BRANCH  15  16
ATOM     16  C   UNL     1     174.770 193.191 196.694  1.00  0.00     0.000 C 
BRANCH  16  17
ATOM     17  C   UNL     1     174.355 191.742 196.384  1.00  0.00     0.000 C 
BRANCH  17  18
ATOM     18  C   UNL     1     173.921 191.546 194.920  1.00  0.00     0.000 C 
BRANCH  18  19
ATOM     19  C   UNL     1     174.617 192.529 193.961  1.00  0.00     0.000 C 
BRANCH  19  20
ATOM     20  C   UNL     1     174.659 192.065 192.494  1.00  0.00     0.006 C 
BRANCH  20  21
ATOM     21  C   UNL     1     175.758 192.762 191.682  1.00  0.00     0.053 C 
BRANCH  21  22
ATOM     22  C   UNL     1     176.462 191.779 190.801  1.00  0.00     0.041 C 
ATOM     23  O   UNL     1     177.669 191.960 190.487  1.00  0.00    -0.550 OA
ATOM     24  O   UNL     1     175.774 190.686 190.288  1.00  0.00    -0.550 OA
ENDBRANCH  21  22
ENDBRANCH  20  21
ENDBRANCH  19  20
ENDBRANCH  18  19
ENDBRANCH  17  18
ENDBRANCH  16  17
ENDBRANCH  15  16
ENDBRANCH  14  15
ENDBRANCH  13  14
ENDBRANCH   1  13
TORSDOF 20
ENDMDL
MODEL 7
REMARK VINA RESULT:     0.084      7.090      9.345
REMARK INTER + INTRA:          -4.857
REMARK INTER:                   0.000
REMARK INTRA:                  -4.857
REMARK UNBOUND:                -5.039
REMARK SMILES CCCCCCCCCCCCCCCCCCCCCC(=O)[O-]
REMARK SMILES IDX 12 1 11 2 10 3 9 4 8 5 7 6 6 7 5 8 4 9 3 10 2 11 1 12 13 13
REMARK SMILES IDX 14 14 15 15 16 16 17 17 18 18 19 19 20 20 21 21 22 22 23 23
REMARK SMILES IDX 24 24
REMARK H PARENT
REMARK Flexibility Score: inf
ROOT
ATOM      1  C   UNL     1     173.867 191.496 195.573  1.00  0.00     0.000 C 
ENDROOT
BRANCH   1   2
ATOM      2  C   UNL     1     173.405 191.248 197.021  1.00  0.00     0.000 C 
BRANCH   2   3
ATOM      3  C   UNL     1     173.022 192.519 197.805  1.00  0.00     0.000 C 
BRANCH   3   4
ATOM      4  C   UNL     1     174.025 192.887 198.919  1.00  0.00    -0.000 C 
BRANCH   4   5
ATOM      5  C   UNL     1     175.068 191.784 199.162  1.00  0.00    -0.000 C 
BRANCH   5   6
ATOM      6  C   UNL     1     176.409 192.342 199.667  1.00  0.00    -0.000 C 
BRANCH   6   7
ATOM      7  C   UNL     1     177.591 191.937 198.774  1.00  0.00    -0.000 C 
BRANCH   7   8
ATOM      8  C   UNL     1     177.100 191.256 197.488  1.00  0.00    -0.000 C 
BRANCH   8   9
ATOM      9  C   UNL     1     177.995 191.591 196.275  1.00  0.00    -0.000 C 
BRANCH   9  10
ATOM     10  C   UNL     1     179.402 192.073 196.665  1.00  0.00    -0.000 C 
BRANCH  10  11
ATOM     11  C   UNL     1     179.965 193.117 195.691  1.00  0.00    -0.003 C 
ATOM     12  C   UNL     1     178.960 193.440 194.590  1.00  0.00     0.004 C 
ENDBRANCH  10  11
ENDBRANCH   9  10
ENDBRANCH   8   9
ENDBRANCH   7   8
ENDBRANCH   6   7
ENDBRANCH   5   6
ENDBRANCH   4   5
ENDBRANCH   3   4
ENDBRANCH   2   3
ENDBRANCH   1   2
BRANCH   1  13
ATOM     13  C   UNL     1     173.853 192.972 195.120  1.00  0.00     0.000 C 
BRANCH  13  14
ATOM     14  C   UNL     1     175.233 193.650 195.029  1.00  0.00     0.000 C 
BRANCH  14  15
ATOM     15  C   UNL     1     175.332 194.933 195.872  1.00  0.00     0.000 C 
BRANCH  15  16
ATOM     16  C   UNL     1     176.463 194.879 196.916  1.00  0.00     0.000 C 
BRANCH  16  17
ATOM     17  C   UNL     1     176.262 195.787 198.142  1.00  0.00     0.000 C 
BRANCH  17  18
ATOM     18  C   UNL     1     177.508 195.859 199.043  1.00  0.00     0.000 C 
BRANCH  18  19
ATOM     19  C   UNL     1     178.798 195.471 198.297  1.00  0.00     0.000 C 
BRANCH  19  20
ATOM     20  C   UNL     1     179.640 196.668 197.817  1.00  0.00     0.006 C 
BRANCH  20  21
ATOM     21  C   UNL     1     179.692 196.781 196.288  1.00  0.00     0.053 C 
BRANCH  21  22
ATOM     22  C   UNL     1     178.542 197.593 195.783  1.00  0.00     0.041 C 
ATOM     23  O   UNL     1     178.070 198.527 196.483  1.00  0.00    -0.550 OA
ATOM     24  O   UNL     1     177.961 197.289 194.557  1.00  0.00    -0.550 OA
ENDBRANCH  21  22
ENDBRANCH  20  21
ENDBRANCH  19  20
ENDBRANCH  18  19
ENDBRANCH  17  18
ENDBRANCH  16  17
ENDBRANCH  15  16
ENDBRANCH  14  15
ENDBRANCH  13  14
ENDBRANCH   1  13
TORSDOF 20
ENDMDL
MODEL 8
REMARK VINA RESULT:     0.090      5.296      8.114
REMARK INTER + INTRA:          -4.844
REMARK INTER:                   0.000
REMARK INTRA:                  -4.844
REMARK UNBOUND:                -5.039
REMARK SMILES CCCCCCCCCCCCCCCCCCCCCC(=O)[O-]
REMARK SMILES IDX 12 1 11 2 10 3 9 4 8 5 7 6 6 7 5 8 4 9 3 10 2 11 1 12 13 13
REMARK SMILES IDX 14 14 15 15 16 16 17 17 18 18 19 19 20 20 21 21 22 22 23 23
REMARK SMILES IDX 24 24
REMARK H PARENT
REMARK Flexibility Score: inf
ROOT
ATOM      1  C   UNL     1     173.834 185.692 198.428  1.00  0.00     0.000 C 
ENDROOT
BRANCH   1   2
ATOM      2  C   UNL     1     173.822 186.146 196.956  1.00  0.00     0.000 C 
BRANCH   2   3
ATOM      3  C   UNL     1     173.052 185.216 195.999  1.00  0.00     0.000 C 
BRANCH   3   4
ATOM      4  C   UNL     1     172.480 183.956 196.683  1.00  0.00    -0.000 C 
BRANCH   4   5
ATOM      5  C   UNL     1     170.943 183.924 196.668  1.00  0.00    -0.000 C 
BRANCH   5   6
ATOM      6  C   UNL     1     170.330 185.277 196.265  1.00  0.00    -0.000 C 
BRANCH   6   7
ATOM      7  C   UNL     1     169.986 186.153 197.478  1.00  0.00    -0.000 C 
BRANCH   7   8
ATOM      8  C   UNL     1     170.330 187.626 197.208  1.00  0.00    -0.000 C 
BRANCH   8   9
ATOM      9  C   UNL     1     169.949 188.538 198.395  1.00  0.00    -0.000 C 
BRANCH   9  10
ATOM     10  C   UNL     1     169.087 187.836 199.456  1.00  0.00    -0.000 C 
BRANCH  10  11
ATOM     11  C   UNL     1     167.660 188.398 199.531  1.00  0.00    -0.003 C 
ATOM     12  C   UNL     1     166.908 187.831 200.731  1.00  0.00     0.004 C 
ENDBRANCH  10  11
ENDBRANCH   9  10
ENDBRANCH   8   9
ENDBRANCH   7   8
ENDBRANCH   6   7
ENDBRANCH   5   6
ENDBRANCH   4   5
ENDBRANCH   3   4
ENDBRANCH   2   3
ENDBRANCH   1   2
BRANCH   1  13
ATOM     13  C   UNL     1     173.134 186.646 199.419  1.00  0.00     0.000 C 
BRANCH  13  14
ATOM     14  C   UNL     1     172.177 185.974 200.421  1.00  0.00     0.000 C 
BRANCH  14  15
ATOM     15  C   UNL     1     172.209 184.437 200.348  1.00  0.00     0.000 C 
BRANCH  15  16
ATOM     16  C   UNL     1     170.804 183.808 200.328  1.00  0.00     0.000 C 
BRANCH  16  17
ATOM     17  C   UNL     1     169.704 184.646 201.004  1.00  0.00     0.000 C 
BRANCH  17  18
ATOM     18  C   UNL     1     168.299 184.341 200.455  1.00  0.00     0.000 C 
BRANCH  18  19
ATOM     19  C   UNL     1     168.331 183.379 199.253  1.00  0.00     0.000 C 
BRANCH  19  20
ATOM     20  C   UNL     1     167.146 183.535 198.282  1.00  0.00     0.006 C 
BRANCH  20  21
ATOM     21  C   UNL     1     166.553 184.950 198.291  1.00  0.00     0.053 C 
BRANCH  21  22
ATOM     22  C   UNL     1     166.560 185.530 196.912  1.00  0.00     0.041 C 
ATOM     23  O   UNL     1     166.402 186.769 196.745  1.00  0.00    -0.550 OA
ATOM     24  O   UNL     1     166.697 184.698 195.808  1.00  0.00    -0.550 OA
ENDBRANCH  21  22
ENDBRANCH  20  21
ENDBRANCH  19  20
ENDBRANCH  18  19
ENDBRANCH  17  18
ENDBRANCH  16  17
ENDBRANCH  15  16
ENDBRANCH  14  15
ENDBRANCH  13  14
ENDBRANCH   1  13
TORSDOF 20
ENDMDL
MODEL 9
REMARK VINA RESULT:     0.096      6.078      8.583
REMARK INTER + INTRA:          -4.830
REMARK INTER:                   0.000
REMARK INTRA:                  -4.830
REMARK UNBOUND:                -5.039
REMARK SMILES CCCCCCCCCCCCCCCCCCCCCC(=O)[O-]
REMARK SMILES IDX 12 1 11 2 10 3 9 4 8 5 7 6 6 7 5 8 4 9 3 10 2 11 1 12 13 13
REMARK SMILES IDX 14 14 15 15 16 16 17 17 18 18 19 19 20 20 21 21 22 22 23 23
REMARK SMILES IDX 24 24
REMARK H PARENT
REMARK Flexibility Score: inf
ROOT
ATOM      1  C   UNL     1     172.772 190.769 197.415  1.00  0.00     0.000 C 
ENDROOT
BRANCH   1   2
ATOM      2  C   UNL     1     171.629 191.482 196.669  1.00  0.00     0.000 C 
BRANCH   2   3
ATOM      3  C   UNL     1     172.085 192.529 195.634  1.00  0.00     0.000 C 
BRANCH   3   4
ATOM      4  C   UNL     1     171.531 193.946 195.899  1.00  0.00    -0.000 C 
BRANCH   4   5
ATOM      5  C   UNL     1     172.601 194.902 196.452  1.00  0.00    -0.000 C 
BRANCH   5   6
ATOM      6  C   UNL     1     172.685 194.866 197.988  1.00  0.00    -0.000 C 
BRANCH   6   7
ATOM      7  C   UNL     1     174.095 194.529 198.495  1.00  0.00    -0.000 C 
BRANCH   7   8
ATOM      8  C   UNL     1     175.088 194.424 197.327  1.00  0.00    -0.000 C 
BRANCH   8   9
ATOM      9  C   UNL     1     175.673 193.002 197.190  1.00  0.00    -0.000 C 
BRANCH   9  10
ATOM     10  C   UNL     1     175.699 192.486 195.742  1.00  0.00    -0.000 C 
BRANCH  10  11
ATOM     11  C   UNL     1     176.110 191.010 195.644  1.00  0.00    -0.003 C 
ATOM     12  C   UNL     1     176.700 190.514 196.959  1.00  0.00     0.004 C 
ENDBRANCH  10  11
ENDBRANCH   9  10
ENDBRANCH   8   9
ENDBRANCH   7   8
ENDBRANCH   6   7
ENDBRANCH   5   6
ENDBRANCH   4   5
ENDBRANCH   3   4
ENDBRANCH   2   3
ENDBRANCH   1   2
BRANCH   1  13
ATOM     13  C   UNL     1     172.864 191.071 198.926  1.00  0.00     0.000 C 
BRANCH  13  14
ATOM     14  C   UNL     1     174.162 190.612 199.615  1.00  0.00     0.000 C 
BRANCH  14  15
ATOM     15  C   UNL     1     174.664 191.602 200.680  1.00  0.00     0.000 C 
BRANCH  15  16
ATOM     16  C   UNL     1     176.189 191.808 200.637  1.00  0.00     0.000 C 
BRANCH  16  17
ATOM     17  C   UNL     1     176.661 193.248 200.902  1.00  0.00     0.000 C 
BRANCH  17  18
ATOM     18  C   UNL     1     177.897 193.635 200.071  1.00  0.00     0.000 C 
BRANCH  18  19
ATOM     19  C   UNL     1     178.624 192.409 199.488  1.00  0.00     0.000 C 
BRANCH  19  20
ATOM     20  C   UNL     1     179.594 192.732 198.337  1.00  0.00     0.006 C 
BRANCH  20  21
ATOM     21  C   UNL     1     179.229 194.027 197.599  1.00  0.00     0.053 C 
BRANCH  21  22
ATOM     22  C   UNL     1     179.105 193.776 196.130  1.00  0.00     0.041 C 
ATOM     23  O   UNL     1     178.700 194.690 195.363  1.00  0.00    -0.550 OA
ATOM     24  O   UNL     1     179.393 192.519 195.611  1.00  0.00    -0.550 OA
ENDBRANCH  21  22
ENDBRANCH  20  21
ENDBRANCH  19  20
ENDBRANCH  18  19
ENDBRANCH  17  18
ENDBRANCH  16  17
ENDBRANCH  15  16
ENDBRANCH  14  15
ENDBRANCH  13  14
ENDBRANCH   1  13
TORSDOF 20
ENDMDL
