MODEL 1
REMARK VINA RESULT:    -4.772      0.000      0.000
REMARK INTER + INTRA:          -5.629
REMARK INTER:                  -5.330
REMARK INTRA:                  -0.300
REMARK UNBOUND:                -0.300
REMARK SMILES CC(=O)c1ccc(O)cc1O
REMARK SMILES IDX 4 1 10 2 9 3 7 4 6 5 5 6 2 7 1 8 3 9 11 10 8 12
REMARK H PARENT 11 11 8 13
REMARK Flexibility Score: inf
ROOT
ATOM      1  C   UNL     1       9.098 -29.630  15.784  1.00  0.00     0.059 A 
ATOM      2  C   UNL     1       9.477 -28.753  16.829  1.00  0.00     0.130 A 
ATOM      3  C   UNL     1       9.005 -28.972  18.133  1.00  0.00     0.093 A 
ATOM      4  C   UNL     1       8.173 -30.062  18.415  1.00  0.00     0.119 A 
ATOM      5  C   UNL     1       7.812 -30.939  17.391  1.00  0.00     0.047 A 
ATOM      6  C   UNL     1       8.271 -30.728  16.089  1.00  0.00     0.019 A 
ENDROOT
BRANCH   1   7
ATOM      7  C   UNL     1       9.549 -29.441  14.379  1.00  0.00     0.163 C 
ATOM      8  C   UNL     1       8.638 -29.642  13.207  1.00  0.00     0.093 C 
ATOM      9  O   UNL     1      10.743 -29.099  14.156  1.00  0.00    -0.294 OA
ENDBRANCH   1   7
BRANCH   2  10
ATOM     10  O   UNL     1      10.336 -27.682  16.589  1.00  0.00    -0.507 OA
ATOM     11  H   UNL     1      10.617 -27.423  15.650  1.00  0.00     0.293 HD
ENDBRANCH   2  10
BRANCH   4  12
ATOM     12  O   UNL     1       7.705 -30.283  19.708  1.00  0.00    -0.508 OA
ATOM     13  H   UNL     1       8.322 -30.237  20.510  1.00  0.00     0.293 HD
ENDBRANCH   4  12
TORSDOF 3
ENDMDL
MODEL 2
REMARK VINA RESULT:    -4.722      1.569      3.687
REMARK INTER + INTRA:          -5.574
REMARK INTER:                  -5.268
REMARK INTRA:                  -0.306
REMARK UNBOUND:                -0.300
REMARK SMILES CC(=O)c1ccc(O)cc1O
REMARK SMILES IDX 4 1 10 2 9 3 7 4 6 5 5 6 2 7 1 8 3 9 11 10 8 12
REMARK H PARENT 11 11 8 13
REMARK Flexibility Score: inf
ROOT
ATOM      1  C   UNL     1       8.159 -30.790  17.190  1.00  0.00     0.059 A 
ATOM      2  C   UNL     1       8.292 -30.061  18.396  1.00  0.00     0.130 A 
ATOM      3  C   UNL     1       9.004 -28.852  18.410  1.00  0.00     0.093 A 
ATOM      4  C   UNL     1       9.572 -28.349  17.233  1.00  0.00     0.119 A 
ATOM      5  C   UNL     1       9.428 -29.055  16.038  1.00  0.00     0.047 A 
ATOM      6  C   UNL     1       8.727 -30.262  16.015  1.00  0.00     0.019 A 
ENDROOT
BRANCH   1   7
ATOM      7  C   UNL     1       7.433 -32.086  17.115  1.00  0.00     0.163 C 
ATOM      8  C   UNL     1       6.371 -32.357  16.094  1.00  0.00     0.093 C 
ATOM      9  O   UNL     1       7.714 -33.000  17.940  1.00  0.00    -0.294 OA
ENDBRANCH   1   7
BRANCH   2  10
ATOM     10  O   UNL     1       7.703 -30.516  19.576  1.00  0.00    -0.507 OA
ATOM     11  H   UNL     1       8.178 -31.163  20.195  1.00  0.00     0.293 HD
ENDBRANCH   2  10
BRANCH   4  12
ATOM     12  O   UNL     1      10.278 -27.147  17.242  1.00  0.00    -0.508 OA
ATOM     13  H   UNL     1      10.901 -26.905  18.003  1.00  0.00     0.293 HD
ENDBRANCH   4  12
TORSDOF 3
ENDMDL
MODEL 3
REMARK VINA RESULT:    -4.508      1.774      2.070
REMARK INTER + INTRA:          -5.334
REMARK INTER:                  -5.111
REMARK INTRA:                  -0.223
REMARK UNBOUND:                -0.300
REMARK SMILES CC(=O)c1ccc(O)cc1O
REMARK SMILES IDX 4 1 10 2 9 3 7 4 6 5 5 6 2 7 1 8 3 9 11 10 8 12
REMARK H PARENT 11 11 8 13
REMARK Flexibility Score: inf
ROOT
ATOM      1  C   UNL     1       7.346 -30.010  15.232  1.00  0.00     0.059 A 
ATOM      2  C   UNL     1       8.597 -29.532  15.689  1.00  0.00     0.130 A 
ATOM      3  C   UNL     1       8.865 -29.473  17.066  1.00  0.00     0.093 A 
ATOM      4  C   UNL     1       7.909 -29.902  17.995  1.00  0.00     0.119 A 
ATOM      5  C   UNL     1       6.681 -30.391  17.548  1.00  0.00     0.047 A 
ATOM      6  C   UNL     1       6.401 -30.448  16.181  1.00  0.00     0.019 A 
ENDROOT
BRANCH   1   7
ATOM      7  C   UNL     1       6.995 -30.079  13.788  1.00  0.00     0.163 C 
ATOM      8  C   UNL     1       5.877 -30.932  13.270  1.00  0.00     0.093 C 
ATOM      9  O   UNL     1       7.659 -29.398  12.959  1.00  0.00    -0.294 OA
ENDBRANCH   1   7
BRANCH   2  10
ATOM     10  O   UNL     1       9.585 -29.136  14.788  1.00  0.00    -0.507 OA
ATOM     11  H   UNL     1       9.850 -29.713  13.998  1.00  0.00     0.293 HD
ENDBRANCH   2  10
BRANCH   4  12
ATOM     12  O   UNL     1       8.172 -29.847  19.362  1.00  0.00    -0.508 OA
ATOM     13  H   UNL     1       8.686 -29.077  19.772  1.00  0.00     0.293 HD
ENDBRANCH   4  12
TORSDOF 3
ENDMDL
MODEL 4
REMARK VINA RESULT:    -4.455      1.430      3.850
REMARK INTER + INTRA:          -5.275
REMARK INTER:                  -4.969
REMARK INTRA:                  -0.306
REMARK UNBOUND:                -0.300
REMARK SMILES CC(=O)c1ccc(O)cc1O
REMARK SMILES IDX 4 1 10 2 9 3 7 4 6 5 5 6 2 7 1 8 3 9 11 10 8 12
REMARK H PARENT 11 11 8 13
REMARK Flexibility Score: inf
ROOT
ATOM      1  C   UNL     1       8.510 -29.448  16.823  1.00  0.00     0.059 A 
ATOM      2  C   UNL     1       9.423 -28.547  17.421  1.00  0.00     0.130 A 
ATOM      3  C   UNL     1      10.543 -28.105  16.701  1.00  0.00     0.093 A 
ATOM      4  C   UNL     1      10.758 -28.534  15.385  1.00  0.00     0.119 A 
ATOM      5  C   UNL     1       9.851 -29.408  14.786  1.00  0.00     0.047 A 
ATOM      6  C   UNL     1       8.736 -29.860  15.495  1.00  0.00     0.019 A 
ENDROOT
BRANCH   1   7
ATOM      7  C   UNL     1       7.314 -29.968  17.540  1.00  0.00     0.163 C 
ATOM      8  C   UNL     1       5.953 -30.009  16.915  1.00  0.00     0.093 C 
ATOM      9  O   UNL     1       7.440 -30.393  18.722  1.00  0.00    -0.294 OA
ENDBRANCH   1   7
BRANCH   2  10
ATOM     10  O   UNL     1       9.215 -28.070  18.714  1.00  0.00    -0.507 OA
ATOM     11  H   UNL     1       8.290 -27.834  19.054  1.00  0.00     0.293 HD
ENDBRANCH   2  10
BRANCH   4  12
ATOM     12  O   UNL     1      11.868 -28.095  14.667  1.00  0.00    -0.508 OA
ATOM     13  H   UNL     1      12.200 -28.591  13.849  1.00  0.00     0.293 HD
ENDBRANCH   4  12
TORSDOF 3
ENDMDL
MODEL 5
REMARK VINA RESULT:    -4.317      1.587      2.369
REMARK INTER + INTRA:          -5.121
REMARK INTER:                  -4.820
REMARK INTRA:                  -0.301
REMARK UNBOUND:                -0.300
REMARK SMILES CC(=O)c1ccc(O)cc1O
REMARK SMILES IDX 4 1 10 2 9 3 7 4 6 5 5 6 2 7 1 8 3 9 11 10 8 12
REMARK H PARENT 11 11 8 13
REMARK Flexibility Score: inf
ROOT
ATOM      1  C   UNL     1       8.833 -29.739  15.580  1.00  0.00     0.059 A 
ATOM      2  C   UNL     1       7.852 -30.694  15.941  1.00  0.00     0.130 A 
ATOM      3  C   UNL     1       7.500 -30.860  17.289  1.00  0.00     0.093 A 
ATOM      4  C   UNL     1       8.100 -30.077  18.283  1.00  0.00     0.119 A 
ATOM      5  C   UNL     1       9.054 -29.123  17.930  1.00  0.00     0.047 A 
ATOM      6  C   UNL     1       9.416 -28.953  16.592  1.00  0.00     0.019 A 
ENDROOT
BRANCH   1   7
ATOM      7  C   UNL     1       9.262 -29.529  14.171  1.00  0.00     0.163 C 
ATOM      8  C   UNL     1      10.697 -29.331  13.787  1.00  0.00     0.093 C 
ATOM      9  O   UNL     1       8.393 -29.513  13.257  1.00  0.00    -0.294 OA
ENDBRANCH   1   7
BRANCH   2  10
ATOM     10  O   UNL     1       7.207 -31.460  14.971  1.00  0.00    -0.507 OA
ATOM     11  H   UNL     1       7.462 -32.426  14.797  1.00  0.00     0.293 HD
ENDBRANCH   2  10
BRANCH   4  12
ATOM     12  O   UNL     1       7.751 -30.239  19.622  1.00  0.00    -0.508 OA
ATOM     13  H   UNL     1       7.266 -31.067  19.947  1.00  0.00     0.293 HD
ENDBRANCH   4  12
TORSDOF 3
ENDMDL
MODEL 6
REMARK VINA RESULT:    -4.093      1.679      3.743
REMARK INTER + INTRA:          -4.871
REMARK INTER:                  -4.605
REMARK INTRA:                  -0.266
REMARK UNBOUND:                -0.300
REMARK SMILES CC(=O)c1ccc(O)cc1O
REMARK SMILES IDX 4 1 10 2 9 3 7 4 6 5 5 6 2 7 1 8 3 9 11 10 8 12
REMARK H PARENT 11 11 8 13
REMARK Flexibility Score: inf
ROOT
ATOM      1  C   UNL     1       8.849 -29.294  16.332  1.00  0.00     0.059 A 
ATOM      2  C   UNL     1       9.498 -29.381  15.077  1.00  0.00     0.130 A 
ATOM      3  C   UNL     1       8.837 -29.964  13.985  1.00  0.00     0.093 A 
ATOM      4  C   UNL     1       7.529 -30.446  14.121  1.00  0.00     0.119 A 
ATOM      5  C   UNL     1       6.879 -30.346  15.352  1.00  0.00     0.047 A 
ATOM      6  C   UNL     1       7.530 -29.774  16.447  1.00  0.00     0.019 A 
ENDROOT
BRANCH   1   7
ATOM      7  C   UNL     1       9.504 -28.705  17.532  1.00  0.00     0.163 C 
ATOM      8  C   UNL     1       9.120 -29.088  18.929  1.00  0.00     0.093 C 
ATOM      9  O   UNL     1      10.418 -27.849  17.378  1.00  0.00    -0.294 OA
ENDBRANCH   1   7
BRANCH   2  10
ATOM     10  O   UNL     1      10.785 -28.874  14.900  1.00  0.00    -0.507 OA
ATOM     11  H   UNL     1      11.579 -29.479  14.730  1.00  0.00     0.293 HD
ENDBRANCH   2  10
BRANCH   4  12
ATOM     12  O   UNL     1       6.869 -31.023  13.038  1.00  0.00    -0.508 OA
ATOM     13  H   UNL     1       7.364 -31.573  12.347  1.00  0.00     0.293 HD
ENDBRANCH   4  12
TORSDOF 3
ENDMDL
MODEL 7
REMARK VINA RESULT:    -4.087      1.335      3.929
REMARK INTER + INTRA:          -4.864
REMARK INTER:                  -4.558
REMARK INTRA:                  -0.306
REMARK UNBOUND:                -0.300
REMARK SMILES CC(=O)c1ccc(O)cc1O
REMARK SMILES IDX 4 1 10 2 9 3 7 4 6 5 5 6 2 7 1 8 3 9 11 10 8 12
REMARK H PARENT 11 11 8 13
REMARK Flexibility Score: inf
ROOT
ATOM      1  C   UNL     1       8.490 -29.879  16.523  1.00  0.00     0.059 A 
ATOM      2  C   UNL     1       9.466 -29.099  15.858  1.00  0.00     0.130 A 
ATOM      3  C   UNL     1       9.930 -29.486  14.592  1.00  0.00     0.093 A 
ATOM      4  C   UNL     1       9.421 -30.633  13.969  1.00  0.00     0.119 A 
ATOM      5  C   UNL     1       8.446 -31.395  14.612  1.00  0.00     0.047 A 
ATOM      6  C   UNL     1       7.982 -31.022  15.876  1.00  0.00     0.019 A 
ENDROOT
BRANCH   1   7
ATOM      7  C   UNL     1       7.973 -29.532  17.874  1.00  0.00     0.163 C 
ATOM      8  C   UNL     1       6.509 -29.490  18.190  1.00  0.00     0.093 C 
ATOM      9  O   UNL     1       8.790 -29.260  18.796  1.00  0.00    -0.294 OA
ENDBRANCH   1   7
BRANCH   2  10
ATOM     10  O   UNL     1       9.963 -27.930  16.435  1.00  0.00    -0.507 OA
ATOM     11  H   UNL     1      10.375 -27.192  15.876  1.00  0.00     0.293 HD
ENDBRANCH   2  10
BRANCH   4  12
ATOM     12  O   UNL     1       9.878 -31.019  12.710  1.00  0.00    -0.508 OA
ATOM     13  H   UNL     1       9.910 -31.992  12.434  1.00  0.00     0.293 HD
ENDBRANCH   4  12
TORSDOF 3
ENDMDL
MODEL 8
REMARK VINA RESULT:    -3.920      1.907      4.517
REMARK INTER + INTRA:          -4.678
REMARK INTER:                  -4.380
REMARK INTRA:                  -0.298
REMARK UNBOUND:                -0.300
REMARK SMILES CC(=O)c1ccc(O)cc1O
REMARK SMILES IDX 4 1 10 2 9 3 7 4 6 5 5 6 2 7 1 8 3 9 11 10 8 12
REMARK H PARENT 11 11 8 13
REMARK Flexibility Score: inf
ROOT
ATOM      1  C   UNL     1       8.498 -30.247  16.781  1.00  0.00     0.059 A 
ATOM      2  C   UNL     1       8.466 -31.651  16.603  1.00  0.00     0.130 A 
ATOM      3  C   UNL     1       8.807 -32.208  15.362  1.00  0.00     0.093 A 
ATOM      4  C   UNL     1       9.198 -31.387  14.297  1.00  0.00     0.119 A 
ATOM      5  C   UNL     1       9.249 -30.004  14.473  1.00  0.00     0.047 A 
ATOM      6  C   UNL     1       8.906 -29.438  15.703  1.00  0.00     0.019 A 
ENDROOT
BRANCH   1   7
ATOM      7  C   UNL     1       8.130 -29.595  18.067  1.00  0.00     0.163 C 
ATOM      8  C   UNL     1       9.061 -28.681  18.802  1.00  0.00     0.093 C 
ATOM      9  O   UNL     1       6.992 -29.815  18.566  1.00  0.00    -0.294 OA
ENDBRANCH   1   7
BRANCH   2  10
ATOM     10  O   UNL     1       8.119 -32.498  17.656  1.00  0.00    -0.507 OA
ATOM     11  H   UNL     1       7.177 -32.532  18.026  1.00  0.00     0.293 HD
ENDBRANCH   2  10
BRANCH   4  12
ATOM     12  O   UNL     1       9.540 -31.937  13.064  1.00  0.00    -0.508 OA
ATOM     13  H   UNL     1       9.285 -31.486  12.193  1.00  0.00     0.293 HD
ENDBRANCH   4  12
TORSDOF 3
ENDMDL
