MODEL 1
REMARK VINA RESULT:    -2.853      0.000      0.000
REMARK INTER + INTRA:          -7.743
REMARK INTER:                  -5.521
REMARK INTRA:                  -2.222
REMARK UNBOUND:                -2.222
REMARK SMILES CCCCCC=CCC=CCCCCCCCCOC(C)=O
REMARK SMILES IDX 12 1 11 2 10 3 9 4 8 5 7 6 6 7 5 8 4 9 3 10 2 11 1 12 13 13
REMARK SMILES IDX 14 14 15 15 16 16 17 17 18 18 19 19 20 20 22 21 21 22
REMARK H PARENT
REMARK Flexibility Score: inf
ROOT
ATOM      1  C   UNL     1      24.802  34.511  42.239  1.00  0.00     0.004 C 
ENDROOT
BRANCH   1   2
ATOM      2  C   UNL     1      24.496  35.185  43.583  1.00  0.00     0.027 C 
BRANCH   2   3
ATOM      3  C   UNL     1      23.012  35.403  43.742  1.00  0.00    -0.031 C 
ATOM      4  C   UNL     1      22.328  36.408  43.168  1.00  0.00    -0.027 C 
BRANCH   4   5
ATOM      5  C   UNL     1      22.972  37.484  42.329  1.00  0.00     0.054 C 
BRANCH   5   6
ATOM      6  C   UNL     1      22.589  37.342  40.882  1.00  0.00    -0.027 C 
ATOM      7  C   UNL     1      22.083  36.195  40.402  1.00  0.00    -0.031 C 
BRANCH   7   8
ATOM      8  C   UNL     1      21.686  36.050  38.958  1.00  0.00     0.027 C 
BRANCH   8   9
ATOM      9  C   UNL     1      20.588  34.987  38.793  1.00  0.00     0.004 C 
BRANCH   9  10
ATOM     10  C   UNL     1      20.589  34.334  37.399  1.00  0.00     0.000 C 
BRANCH  10  11
ATOM     11  C   UNL     1      21.734  33.336  37.153  1.00  0.00    -0.003 C 
ATOM     12  C   UNL     1      21.505  31.985  37.830  1.00  0.00     0.004 C 
ENDBRANCH  10  11
ENDBRANCH   9  10
ENDBRANCH   8   9
ENDBRANCH   7   8
ENDBRANCH   5   6
ENDBRANCH   4   5
ENDBRANCH   2   3
ENDBRANCH   1   2
BRANCH   1  13
ATOM     13  C   UNL     1      24.927  32.981  42.353  1.00  0.00     0.000 C 
BRANCH  13  14
ATOM     14  C   UNL     1      23.645  32.193  42.015  1.00  0.00     0.000 C 
BRANCH  14  15
ATOM     15  C   UNL     1      22.672  32.907  41.059  1.00  0.00     0.000 C 
BRANCH  15  16
ATOM     16  C   UNL     1      21.296  33.167  41.692  1.00  0.00     0.003 C 
BRANCH  16  17
ATOM     17  C   UNL     1      20.473  31.875  41.768  1.00  0.00     0.042 C 
BRANCH  17  18
ATOM     18  C   UNL     1      19.349  31.875  40.729  1.00  0.00     0.233 C 
BRANCH  18  19
ATOM     19  O   UNL     1      18.080  32.027  41.360  1.00  0.00    -0.466 OA
BRANCH  19  20
ATOM     20  C   UNL     1      16.886  32.226  40.655  1.00  0.00     0.302 C 
ATOM     21  O   UNL     1      15.832  32.575  41.254  1.00  0.00    -0.253 OA
ATOM     22  C   UNL     1      16.852  31.963  39.189  1.00  0.00     0.139 C 
ENDBRANCH  19  20
ENDBRANCH  18  19
ENDBRANCH  17  18
ENDBRANCH  16  17
ENDBRANCH  15  16
ENDBRANCH  14  15
ENDBRANCH  13  14
ENDBRANCH   1  13
TORSDOF 16
ENDMDL
MODEL 2
REMARK VINA RESULT:    -2.831      3.638      7.002
REMARK INTER + INTRA:          -7.701
REMARK INTER:                  -6.647
REMARK INTRA:                  -1.054
REMARK UNBOUND:                -2.222
REMARK SMILES CCCCCC=CCC=CCCCCCCCCOC(C)=O
REMARK SMILES IDX 12 1 11 2 10 3 9 4 8 5 7 6 6 7 5 8 4 9 3 10 2 11 1 12 13 13
REMARK SMILES IDX 14 14 15 15 16 16 17 17 18 18 19 19 20 20 22 21 21 22
REMARK H PARENT
REMARK Flexibility Score: inf
ROOT
ATOM      1  C   UNL     1      17.320  32.235  39.127  1.00  0.00     0.004 C 
ENDROOT
BRANCH   1   2
ATOM      2  C   UNL     1      18.779  32.197  38.654  1.00  0.00     0.027 C 
BRANCH   2   3
ATOM      3  C   UNL     1      19.442  33.534  38.872  1.00  0.00    -0.031 C 
ATOM      4  C   UNL     1      20.667  33.694  39.402  1.00  0.00    -0.027 C 
BRANCH   4   5
ATOM      5  C   UNL     1      21.518  32.550  39.900  1.00  0.00     0.054 C 
BRANCH   5   6
ATOM      6  C   UNL     1      22.403  32.990  41.033  1.00  0.00    -0.027 C 
ATOM      7  C   UNL     1      22.408  34.261  41.465  1.00  0.00    -0.031 C 
BRANCH   7   8
ATOM      8  C   UNL     1      23.282  34.704  42.607  1.00  0.00     0.027 C 
BRANCH   8   9
ATOM      9  C   UNL     1      22.788  36.036  43.193  1.00  0.00     0.004 C 
BRANCH   9  10
ATOM     10  C   UNL     1      22.996  37.226  42.239  1.00  0.00     0.000 C 
BRANCH  10  11
ATOM     11  C   UNL     1      24.461  37.503  41.859  1.00  0.00    -0.003 C 
ATOM     12  C   UNL     1      25.087  38.634  42.675  1.00  0.00     0.004 C 
ENDBRANCH  10  11
ENDBRANCH   9  10
ENDBRANCH   8   9
ENDBRANCH   7   8
ENDBRANCH   5   6
ENDBRANCH   4   5
ENDBRANCH   2   3
ENDBRANCH   1   2
BRANCH   1  13
ATOM     13  C   UNL     1      17.174  32.743  40.572  1.00  0.00     0.000 C 
BRANCH  13  14
ATOM     14  C   UNL     1      15.794  32.495  41.217  1.00  0.00     0.000 C 
BRANCH  14  15
ATOM     15  C   UNL     1      14.739  31.875  40.284  1.00  0.00     0.000 C 
BRANCH  15  16
ATOM     16  C   UNL     1      13.309  32.000  40.831  1.00  0.00     0.003 C 
BRANCH  16  17
ATOM     17  C   UNL     1      13.247  33.012  41.982  1.00  0.00     0.042 C 
BRANCH  17  18
ATOM     18  C   UNL     1      11.813  33.498  42.212  1.00  0.00     0.233 C 
BRANCH  18  19
ATOM     19  O   UNL     1      10.980  32.423  42.640  1.00  0.00    -0.466 OA
BRANCH  19  20
ATOM     20  C   UNL     1       9.908  32.584  43.526  1.00  0.00     0.302 C 
ATOM     21  O   UNL     1       8.716  32.483  43.123  1.00  0.00    -0.253 OA
ATOM     22  C   UNL     1      10.180  32.940  44.947  1.00  0.00     0.139 C 
ENDBRANCH  19  20
ENDBRANCH  18  19
ENDBRANCH  17  18
ENDBRANCH  16  17
ENDBRANCH  15  16
ENDBRANCH  14  15
ENDBRANCH  13  14
ENDBRANCH   1  13
TORSDOF 16
ENDMDL
MODEL 3
REMARK VINA RESULT:    -2.808      2.737      6.306
REMARK INTER + INTRA:          -7.657
REMARK INTER:                  -5.546
REMARK INTRA:                  -2.111
REMARK UNBOUND:                -2.222
REMARK SMILES CCCCCC=CCC=CCCCCCCCCOC(C)=O
REMARK SMILES IDX 12 1 11 2 10 3 9 4 8 5 7 6 6 7 5 8 4 9 3 10 2 11 1 12 13 13
REMARK SMILES IDX 14 14 15 15 16 16 17 17 18 18 19 19 20 20 22 21 21 22
REMARK H PARENT
REMARK Flexibility Score: inf
ROOT
ATOM      1  C   UNL     1      21.330  34.164  39.224  1.00  0.00     0.004 C 
ENDROOT
BRANCH   1   2
ATOM      2  C   UNL     1      22.501  33.525  38.466  1.00  0.00     0.027 C 
BRANCH   2   3
ATOM      3  C   UNL     1      22.136  32.140  37.994  1.00  0.00    -0.031 C 
ATOM      4  C   UNL     1      21.509  31.875  36.834  1.00  0.00    -0.027 C 
BRANCH   4   5
ATOM      5  C   UNL     1      21.041  32.943  35.875  1.00  0.00     0.054 C 
BRANCH   5   6
ATOM      6  C   UNL     1      19.585  33.255  36.084  1.00  0.00    -0.027 C 
ATOM      7  C   UNL     1      18.713  32.305  36.459  1.00  0.00    -0.031 C 
BRANCH   7   8
ATOM      8  C   UNL     1      17.258  32.614  36.682  1.00  0.00     0.027 C 
BRANCH   8   9
ATOM      9  C   UNL     1      16.838  32.274  38.121  1.00  0.00     0.004 C 
BRANCH   9  10
ATOM     10  C   UNL     1      18.018  32.283  39.110  1.00  0.00     0.000 C 
BRANCH  10  11
ATOM     11  C   UNL     1      17.637  32.593  40.568  1.00  0.00    -0.003 C 
ATOM     12  C   UNL     1      18.849  32.682  41.496  1.00  0.00     0.004 C 
ENDBRANCH  10  11
ENDBRANCH   9  10
ENDBRANCH   8   9
ENDBRANCH   7   8
ENDBRANCH   5   6
ENDBRANCH   4   5
ENDBRANCH   2   3
ENDBRANCH   1   2
BRANCH   1  13
ATOM     13  C   UNL     1      21.052  35.612  38.783  1.00  0.00     0.000 C 
BRANCH  13  14
ATOM     14  C   UNL     1      21.755  36.698  39.622  1.00  0.00     0.000 C 
BRANCH  14  15
ATOM     15  C   UNL     1      22.602  36.171  40.795  1.00  0.00     0.000 C 
BRANCH  15  16
ATOM     16  C   UNL     1      23.476  37.259  41.438  1.00  0.00     0.003 C 
BRANCH  16  17
ATOM     17  C   UNL     1      23.850  36.885  42.877  1.00  0.00     0.042 C 
BRANCH  17  18
ATOM     18  C   UNL     1      23.177  35.576  43.300  1.00  0.00     0.233 C 
BRANCH  18  19
ATOM     19  O   UNL     1      24.140  34.659  43.814  1.00  0.00    -0.466 OA
BRANCH  19  20
ATOM     20  C   UNL     1      24.424  33.424  43.220  1.00  0.00     0.302 C 
ATOM     21  O   UNL     1      24.563  32.384  43.922  1.00  0.00    -0.253 OA
ATOM     22  C   UNL     1      24.622  33.351  41.745  1.00  0.00     0.139 C 
ENDBRANCH  19  20
ENDBRANCH  18  19
ENDBRANCH  17  18
ENDBRANCH  16  17
ENDBRANCH  15  16
ENDBRANCH  14  15
ENDBRANCH  13  14
ENDBRANCH   1  13
TORSDOF 16
ENDMDL
MODEL 4
REMARK VINA RESULT:    -2.798      1.366      5.146
REMARK INTER + INTRA:          -7.638
REMARK INTER:                  -5.860
REMARK INTRA:                  -1.777
REMARK UNBOUND:                -2.222
REMARK SMILES CCCCCC=CCC=CCCCCCCCCOC(C)=O
REMARK SMILES IDX 12 1 11 2 10 3 9 4 8 5 7 6 6 7 5 8 4 9 3 10 2 11 1 12 13 13
REMARK SMILES IDX 14 14 15 15 16 16 17 17 18 18 19 19 20 20 22 21 21 22
REMARK H PARENT
REMARK Flexibility Score: inf
ROOT
ATOM      1  C   UNL     1      20.957  35.519  38.866  1.00  0.00     0.004 C 
ENDROOT
BRANCH   1   2
ATOM      2  C   UNL     1      22.018  34.662  39.569  1.00  0.00     0.027 C 
BRANCH   2   3
ATOM      3  C   UNL     1      21.367  33.565  40.374  1.00  0.00    -0.031 C 
ATOM      4  C   UNL     1      22.005  32.466  40.811  1.00  0.00    -0.027 C 
BRANCH   4   5
ATOM      5  C   UNL     1      23.452  32.162  40.504  1.00  0.00     0.054 C 
BRANCH   5   6
ATOM      6  C   UNL     1      24.366  32.857  41.474  1.00  0.00    -0.027 C 
ATOM      7  C   UNL     1      23.928  33.276  42.672  1.00  0.00    -0.031 C 
BRANCH   7   8
ATOM      8  C   UNL     1      24.841  33.960  43.653  1.00  0.00     0.027 C 
BRANCH   8   9
ATOM      9  C   UNL     1      24.250  35.303  44.110  1.00  0.00     0.004 C 
BRANCH   9  10
ATOM     10  C   UNL     1      22.863  35.587  43.505  1.00  0.00     0.000 C 
BRANCH  10  11
ATOM     11  C   UNL     1      22.756  36.907  42.723  1.00  0.00    -0.003 C 
ATOM     12  C   UNL     1      23.813  37.040  41.626  1.00  0.00     0.004 C 
ENDBRANCH  10  11
ENDBRANCH   9  10
ENDBRANCH   8   9
ENDBRANCH   7   8
ENDBRANCH   5   6
ENDBRANCH   4   5
ENDBRANCH   2   3
ENDBRANCH   1   2
BRANCH   1  13
ATOM     13  C   UNL     1      20.640  35.026  37.443  1.00  0.00     0.000 C 
BRANCH  13  14
ATOM     14  C   UNL     1      20.521  33.495  37.292  1.00  0.00     0.000 C 
BRANCH  14  15
ATOM     15  C   UNL     1      19.463  33.018  36.281  1.00  0.00     0.000 C 
BRANCH  15  16
ATOM     16  C   UNL     1      18.591  31.875  36.822  1.00  0.00     0.003 C 
BRANCH  16  17
ATOM     17  C   UNL     1      17.111  32.274  36.843  1.00  0.00     0.042 C 
BRANCH  17  18
ATOM     18  C   UNL     1      16.500  32.057  38.230  1.00  0.00     0.233 C 
BRANCH  18  19
ATOM     19  O   UNL     1      17.434  32.403  39.250  1.00  0.00    -0.466 OA
BRANCH  19  20
ATOM     20  C   UNL     1      17.175  32.251  40.618  1.00  0.00     0.302 C 
ATOM     21  O   UNL     1      15.995  32.312  41.063  1.00  0.00    -0.253 OA
ATOM     22  C   UNL     1      18.314  32.075  41.562  1.00  0.00     0.139 C 
ENDBRANCH  19  20
ENDBRANCH  18  19
ENDBRANCH  17  18
ENDBRANCH  16  17
ENDBRANCH  15  16
ENDBRANCH  14  15
ENDBRANCH  13  14
ENDBRANCH   1  13
TORSDOF 16
ENDMDL
MODEL 5
REMARK VINA RESULT:    -2.718      2.452      5.199
REMARK INTER + INTRA:          -7.482
REMARK INTER:                  -6.399
REMARK INTRA:                  -1.083
REMARK UNBOUND:                -2.222
REMARK SMILES CCCCCC=CCC=CCCCCCCCCOC(C)=O
REMARK SMILES IDX 12 1 11 2 10 3 9 4 8 5 7 6 6 7 5 8 4 9 3 10 2 11 1 12 13 13
REMARK SMILES IDX 14 14 15 15 16 16 17 17 18 18 19 19 20 20 22 21 21 22
REMARK H PARENT
REMARK Flexibility Score: inf
ROOT
ATOM      1  C   UNL     1      20.263  33.234  41.418  1.00  0.00     0.004 C 
ENDROOT
BRANCH   1   2
ATOM      2  C   UNL     1      21.136  31.974  41.498  1.00  0.00     0.027 C 
BRANCH   2   3
ATOM      3  C   UNL     1      22.349  32.112  40.613  1.00  0.00    -0.031 C 
ATOM      4  C   UNL     1      23.617  32.104  41.058  1.00  0.00    -0.027 C 
BRANCH   4   5
ATOM      5  C   UNL     1      23.988  32.009  42.519  1.00  0.00     0.054 C 
BRANCH   5   6
ATOM      6  C   UNL     1      24.222  33.373  43.106  1.00  0.00    -0.027 C 
ATOM      7  C   UNL     1      23.944  34.489  42.414  1.00  0.00    -0.031 C 
BRANCH   7   8
ATOM      8  C   UNL     1      24.163  35.858  43.000  1.00  0.00     0.027 C 
BRANCH   8   9
ATOM      9  C   UNL     1      23.011  36.806  42.631  1.00  0.00     0.004 C 
BRANCH   9  10
ATOM     10  C   UNL     1      22.881  37.032  41.114  1.00  0.00     0.000 C 
BRANCH  10  11
ATOM     11  C   UNL     1      22.194  35.890  40.346  1.00  0.00    -0.003 C 
ATOM     12  C   UNL     1      21.577  36.344  39.023  1.00  0.00     0.004 C 
ENDBRANCH  10  11
ENDBRANCH   9  10
ENDBRANCH   8   9
ENDBRANCH   7   8
ENDBRANCH   5   6
ENDBRANCH   4   5
ENDBRANCH   2   3
ENDBRANCH   1   2
BRANCH   1  13
ATOM     13  C   UNL     1      19.539  33.374  40.067  1.00  0.00     0.000 C 
BRANCH  13  14
ATOM     14  C   UNL     1      18.368  32.395  39.848  1.00  0.00     0.000 C 
BRANCH  14  15
ATOM     15  C   UNL     1      17.378  32.286  41.023  1.00  0.00     0.000 C 
BRANCH  15  16
ATOM     16  C   UNL     1      15.965  31.881  40.579  1.00  0.00     0.003 C 
BRANCH  16  17
ATOM     17  C   UNL     1      14.898  32.627  41.390  1.00  0.00     0.042 C 
BRANCH  17  18
ATOM     18  C   UNL     1      13.534  31.944  41.267  1.00  0.00     0.233 C 
BRANCH  18  19
ATOM     19  O   UNL     1      12.483  32.864  41.551  1.00  0.00    -0.466 OA
BRANCH  19  20
ATOM     20  C   UNL     1      12.021  33.132  42.846  1.00  0.00     0.302 C 
ATOM     21  O   UNL     1      12.560  34.029  43.551  1.00  0.00    -0.253 OA
ATOM     22  C   UNL     1      10.921  32.304  43.415  1.00  0.00     0.139 C 
ENDBRANCH  19  20
ENDBRANCH  18  19
ENDBRANCH  17  18
ENDBRANCH  16  17
ENDBRANCH  15  16
ENDBRANCH  14  15
ENDBRANCH  13  14
ENDBRANCH   1  13
TORSDOF 16
ENDMDL
MODEL 6
REMARK VINA RESULT:    -2.680      5.263      9.689
REMARK INTER + INTRA:          -7.409
REMARK INTER:                  -6.674
REMARK INTRA:                  -0.735
REMARK UNBOUND:                -2.222
REMARK SMILES CCCCCC=CCC=CCCCCCCCCOC(C)=O
REMARK SMILES IDX 12 1 11 2 10 3 9 4 8 5 7 6 6 7 5 8 4 9 3 10 2 11 1 12 13 13
REMARK SMILES IDX 14 14 15 15 16 16 17 17 18 18 19 19 20 20 22 21 21 22
REMARK H PARENT
REMARK Flexibility Score: inf
ROOT
ATOM      1  C   UNL     1      17.541  33.166  40.646  1.00  0.00     0.004 C 
ENDROOT
BRANCH   1   2
ATOM      2  C   UNL     1      16.647  32.011  41.116  1.00  0.00     0.027 C 
BRANCH   2   3
ATOM      3  C   UNL     1      15.335  32.018  40.372  1.00  0.00    -0.031 C 
ATOM      4  C   UNL     1      14.134  32.176  40.956  1.00  0.00    -0.027 C 
BRANCH   4   5
ATOM      5  C   UNL     1      13.942  32.314  42.447  1.00  0.00     0.054 C 
BRANCH   5   6
ATOM      6  C   UNL     1      12.482  32.380  42.798  1.00  0.00    -0.027 C 
ATOM      7  C   UNL     1      12.005  33.315  43.635  1.00  0.00    -0.031 C 
BRANCH   7   8
ATOM      8  C   UNL     1      10.543  33.395  43.981  1.00  0.00     0.027 C 
BRANCH   8   9
ATOM      9  C   UNL     1       9.881  32.010  43.896  1.00  0.00     0.004 C 
BRANCH   9  10
ATOM     10  C   UNL     1       8.917  31.878  42.703  1.00  0.00     0.000 C 
BRANCH  10  11
ATOM     11  C   UNL     1       7.448  32.205  43.019  1.00  0.00    -0.003 C 
ATOM     12  C   UNL     1       6.500  31.875  41.866  1.00  0.00     0.004 C 
ENDBRANCH  10  11
ENDBRANCH   9  10
ENDBRANCH   8   9
ENDBRANCH   7   8
ENDBRANCH   5   6
ENDBRANCH   4   5
ENDBRANCH   2   3
ENDBRANCH   1   2
BRANCH   1  13
ATOM     13  C   UNL     1      18.695  32.698  39.741  1.00  0.00     0.000 C 
BRANCH  13  14
ATOM     14  C   UNL     1      19.709  33.794  39.355  1.00  0.00     0.000 C 
BRANCH  14  15
ATOM     15  C   UNL     1      21.073  33.277  38.862  1.00  0.00     0.000 C 
BRANCH  15  16
ATOM     16  C   UNL     1      22.040  32.952  40.010  1.00  0.00     0.003 C 
BRANCH  16  17
ATOM     17  C   UNL     1      22.346  34.203  40.843  1.00  0.00     0.042 C 
BRANCH  17  18
ATOM     18  C   UNL     1      23.844  34.316  41.137  1.00  0.00     0.233 C 
BRANCH  18  19
ATOM     19  O   UNL     1      24.202  35.668  41.413  1.00  0.00    -0.466 OA
BRANCH  19  20
ATOM     20  C   UNL     1      24.482  36.145  42.700  1.00  0.00     0.302 C 
ATOM     21  O   UNL     1      25.012  37.278  42.869  1.00  0.00    -0.253 OA
ATOM     22  C   UNL     1      24.205  35.275  43.878  1.00  0.00     0.139 C 
ENDBRANCH  19  20
ENDBRANCH  18  19
ENDBRANCH  17  18
ENDBRANCH  16  17
ENDBRANCH  15  16
ENDBRANCH  14  15
ENDBRANCH  13  14
ENDBRANCH   1  13
TORSDOF 16
ENDMDL
MODEL 7
REMARK VINA RESULT:    -2.633      2.561      5.707
REMARK INTER + INTRA:          -7.319
REMARK INTER:                  -5.344
REMARK INTRA:                  -1.975
REMARK UNBOUND:                -2.222
REMARK SMILES CCCCCC=CCC=CCCCCCCCCOC(C)=O
REMARK SMILES IDX 12 1 11 2 10 3 9 4 8 5 7 6 6 7 5 8 4 9 3 10 2 11 1 12 13 13
REMARK SMILES IDX 14 14 15 15 16 16 17 17 18 18 19 19 20 20 22 21 21 22
REMARK H PARENT
REMARK Flexibility Score: inf
ROOT
ATOM      1  C   UNL     1      21.457  32.303  41.844  1.00  0.00     0.004 C 
ENDROOT
BRANCH   1   2
ATOM      2  C   UNL     1      19.989  32.004  41.511  1.00  0.00     0.027 C 
BRANCH   2   3
ATOM      3  C   UNL     1      19.248  33.277  41.188  1.00  0.00    -0.031 C 
ATOM      4  C   UNL     1      18.023  33.321  40.636  1.00  0.00    -0.027 C 
BRANCH   4   5
ATOM      5  C   UNL     1      17.251  32.093  40.218  1.00  0.00     0.054 C 
BRANCH   5   6
ATOM      6  C   UNL     1      17.348  31.875  38.733  1.00  0.00    -0.027 C 
ATOM      7  C   UNL     1      17.889  32.800  37.924  1.00  0.00    -0.031 C 
BRANCH   7   8
ATOM      8  C   UNL     1      18.001  32.582  36.440  1.00  0.00     0.027 C 
BRANCH   8   9
ATOM      9  C   UNL     1      19.472  32.549  35.997  1.00  0.00     0.004 C 
BRANCH   9  10
ATOM     10  C   UNL     1      20.255  33.805  36.420  1.00  0.00     0.000 C 
BRANCH  10  11
ATOM     11  C   UNL     1      21.068  33.655  37.717  1.00  0.00    -0.003 C 
ATOM     12  C   UNL     1      21.210  34.966  38.489  1.00  0.00     0.004 C 
ENDBRANCH  10  11
ENDBRANCH   9  10
ENDBRANCH   8   9
ENDBRANCH   7   8
ENDBRANCH   5   6
ENDBRANCH   4   5
ENDBRANCH   2   3
ENDBRANCH   1   2
BRANCH   1  13
ATOM     13  C   UNL     1      22.410  31.986  40.678  1.00  0.00     0.000 C 
BRANCH  13  14
ATOM     14  C   UNL     1      23.868  32.447  40.881  1.00  0.00     0.000 C 
BRANCH  14  15
ATOM     15  C   UNL     1      24.263  32.741  42.340  1.00  0.00     0.000 C 
BRANCH  15  16
ATOM     16  C   UNL     1      24.623  34.216  42.576  1.00  0.00     0.003 C 
BRANCH  16  17
ATOM     17  C   UNL     1      23.775  34.814  43.705  1.00  0.00     0.042 C 
BRANCH  17  18
ATOM     18  C   UNL     1      22.584  35.597  43.145  1.00  0.00     0.233 C 
BRANCH  18  19
ATOM     19  O   UNL     1      22.921  36.971  42.973  1.00  0.00    -0.466 OA
BRANCH  19  20
ATOM     20  C   UNL     1      23.434  37.496  41.780  1.00  0.00     0.302 C 
ATOM     21  O   UNL     1      22.764  37.449  40.712  1.00  0.00    -0.253 OA
ATOM     22  C   UNL     1      24.813  38.060  41.764  1.00  0.00     0.139 C 
ENDBRANCH  19  20
ENDBRANCH  18  19
ENDBRANCH  17  18
ENDBRANCH  16  17
ENDBRANCH  15  16
ENDBRANCH  14  15
ENDBRANCH  13  14
ENDBRANCH   1  13
TORSDOF 16
ENDMDL
MODEL 8
REMARK VINA RESULT:    -2.468      2.855      6.010
REMARK INTER + INTRA:          -6.999
REMARK INTER:                  -5.695
REMARK INTRA:                  -1.304
REMARK UNBOUND:                -2.222
REMARK SMILES CCCCCC=CCC=CCCCCCCCCOC(C)=O
REMARK SMILES IDX 12 1 11 2 10 3 9 4 8 5 7 6 6 7 5 8 4 9 3 10 2 11 1 12 13 13
REMARK SMILES IDX 14 14 15 15 16 16 17 17 18 18 19 19 20 20 22 21 21 22
REMARK H PARENT
REMARK Flexibility Score: inf
ROOT
ATOM      1  C   UNL     1      19.691  33.677  40.639  1.00  0.00     0.004 C 
ENDROOT
BRANCH   1   2
ATOM      2  C   UNL     1      20.453  33.805  39.313  1.00  0.00     0.027 C 
BRANCH   2   3
ATOM      3  C   UNL     1      20.255  32.574  38.465  1.00  0.00    -0.031 C 
ATOM      4  C   UNL     1      21.189  32.059  37.647  1.00  0.00    -0.027 C 
BRANCH   4   5
ATOM      5  C   UNL     1      22.546  32.684  37.432  1.00  0.00     0.054 C 
BRANCH   5   6
ATOM      6  C   UNL     1      23.509  32.266  38.509  1.00  0.00    -0.027 C 
ATOM      7  C   UNL     1      23.753  33.049  39.572  1.00  0.00    -0.031 C 
BRANCH   7   8
ATOM      8  C   UNL     1      24.705  32.631  40.659  1.00  0.00     0.027 C 
BRANCH   8   9
ATOM      9  C   UNL     1      24.489  33.465  41.931  1.00  0.00     0.004 C 
BRANCH   9  10
ATOM     10  C   UNL     1      23.081  34.082  42.013  1.00  0.00     0.000 C 
BRANCH  10  11
ATOM     11  C   UNL     1      23.051  35.584  42.346  1.00  0.00    -0.003 C 
ATOM     12  C   UNL     1      22.111  35.921  43.505  1.00  0.00     0.004 C 
ENDBRANCH  10  11
ENDBRANCH   9  10
ENDBRANCH   8   9
ENDBRANCH   7   8
ENDBRANCH   5   6
ENDBRANCH   4   5
ENDBRANCH   2   3
ENDBRANCH   1   2
BRANCH   1  13
ATOM     13  C   UNL     1      19.191  32.245  40.904  1.00  0.00     0.000 C 
BRANCH  13  14
ATOM     14  C   UNL     1      17.780  32.148  41.520  1.00  0.00     0.000 C 
BRANCH  14  15
ATOM     15  C   UNL     1      16.679  32.901  40.752  1.00  0.00     0.000 C 
BRANCH  15  16
ATOM     16  C   UNL     1      15.338  32.151  40.742  1.00  0.00     0.003 C 
BRANCH  16  17
ATOM     17  C   UNL     1      14.297  32.873  41.606  1.00  0.00     0.042 C 
BRANCH  17  18
ATOM     18  C   UNL     1      13.340  31.875  42.265  1.00  0.00     0.233 C 
BRANCH  18  19
ATOM     19  O   UNL     1      12.068  32.476  42.496  1.00  0.00    -0.466 OA
BRANCH  19  20
ATOM     20  C   UNL     1      11.803  33.332  43.572  1.00  0.00     0.302 C 
ATOM     21  O   UNL     1      12.730  33.713  44.339  1.00  0.00    -0.253 OA
ATOM     22  C   UNL     1      10.399  33.746  43.846  1.00  0.00     0.139 C 
ENDBRANCH  19  20
ENDBRANCH  18  19
ENDBRANCH  17  18
ENDBRANCH  16  17
ENDBRANCH  15  16
ENDBRANCH  14  15
ENDBRANCH  13  14
ENDBRANCH   1  13
TORSDOF 16
ENDMDL
