MODEL 1
REMARK VINA RESULT:    -3.971      0.000      0.000
REMARK INTER + INTRA:          -5.750
REMARK INTER:                  -5.364
REMARK INTRA:                  -0.386
REMARK UNBOUND:                -0.386
REMARK SMILES CCCCCCC=CC(=O)[O-]
REMARK SMILES IDX 5 1 6 2 7 3 8 4 9 5 10 6 11 7 4 8 3 9 2 10 1 11
REMARK H PARENT
REMARK Flexibility Score: inf
ROOT
ATOM      1  C   UNL     1     -12.822  -4.931  14.482  1.00  0.00     0.004 C 
ENDROOT
BRANCH   1   2
ATOM      2  C   UNL     1     -13.048  -4.787  12.969  1.00  0.00     0.027 C 
BRANCH   2   3
ATOM      3  C   UNL     1     -11.961  -5.470  12.190  1.00  0.00    -0.025 C 
ATOM      4  C   UNL     1     -10.963  -6.116  12.801  1.00  0.00     0.020 C 
BRANCH   4   5
ATOM      5  C   UNL     1      -9.885  -6.776  12.051  1.00  0.00     0.064 C 
ATOM      6  O   UNL     1      -8.987  -7.401  12.673  1.00  0.00    -0.545 OA
ATOM      7  O   UNL     1      -9.841  -6.723  10.663  1.00  0.00    -0.545 OA
ENDBRANCH   4   5
ENDBRANCH   2   3
ENDBRANCH   1   2
BRANCH   1   8
ATOM      8  C   UNL     1     -13.125  -3.627  15.241  1.00  0.00     0.000 C 
BRANCH   8   9
ATOM      9  C   UNL     1     -12.310  -3.477  16.545  1.00  0.00    -0.000 C 
BRANCH   9  10
ATOM     10  C   UNL     1     -11.167  -4.500  16.673  1.00  0.00    -0.003 C 
ATOM     11  C   UNL     1     -10.584  -4.564  18.083  1.00  0.00     0.004 C 
ENDBRANCH   9  10
ENDBRANCH   8   9
ENDBRANCH   1   8
TORSDOF 6
ENDMDL
MODEL 2
REMARK VINA RESULT:    -3.911      4.280      6.067
REMARK INTER + INTRA:          -5.669
REMARK INTER:                  -5.429
REMARK INTRA:                  -0.241
REMARK UNBOUND:                -0.386
REMARK SMILES CCCCCCC=CC(=O)[O-]
REMARK SMILES IDX 5 1 6 2 7 3 8 4 9 5 10 6 11 7 4 8 3 9 2 10 1 11
REMARK H PARENT
REMARK Flexibility Score: inf
ROOT
ATOM      1  C   UNL     1     -12.379  -7.413  15.254  1.00  0.00     0.004 C 
ENDROOT
BRANCH   1   2
ATOM      2  C   UNL     1     -11.296  -8.224  15.983  1.00  0.00     0.027 C 
BRANCH   2   3
ATOM      3  C   UNL     1     -11.631  -8.394  17.437  1.00  0.00    -0.025 C 
ATOM      4  C   UNL     1     -10.989  -7.707  18.387  1.00  0.00     0.020 C 
BRANCH   4   5
ATOM      5  C   UNL     1     -11.298  -7.873  19.814  1.00  0.00     0.064 C 
ATOM      6  O   UNL     1     -11.033  -6.944  20.621  1.00  0.00    -0.545 OA
ATOM      7  O   UNL     1     -11.880  -9.043  20.290  1.00  0.00    -0.545 OA
ENDBRANCH   4   5
ENDBRANCH   2   3
ENDBRANCH   1   2
BRANCH   1   8
ATOM      8  C   UNL     1     -11.910  -5.985  14.924  1.00  0.00     0.000 C 
BRANCH   8   9
ATOM      9  C   UNL     1     -12.970  -5.155  14.165  1.00  0.00    -0.000 C 
BRANCH   9  10
ATOM     10  C   UNL     1     -12.666  -4.999  12.665  1.00  0.00    -0.003 C 
ATOM     11  C   UNL     1     -11.402  -5.741  12.235  1.00  0.00     0.004 C 
ENDBRANCH   9  10
ENDBRANCH   8   9
ENDBRANCH   1   8
TORSDOF 6
ENDMDL
MODEL 3
REMARK VINA RESULT:    -3.876      2.904      5.413
REMARK INTER + INTRA:          -5.621
REMARK INTER:                  -5.365
REMARK INTRA:                  -0.256
REMARK UNBOUND:                -0.386
REMARK SMILES CCCCCCC=CC(=O)[O-]
REMARK SMILES IDX 5 1 6 2 7 3 8 4 9 5 10 6 11 7 4 8 3 9 2 10 1 11
REMARK H PARENT
REMARK Flexibility Score: inf
ROOT
ATOM      1  C   UNL     1     -12.254  -5.210  12.239  1.00  0.00     0.004 C 
ENDROOT
BRANCH   1   2
ATOM      2  C   UNL     1     -13.121  -4.920  13.475  1.00  0.00     0.027 C 
BRANCH   2   3
ATOM      3  C   UNL     1     -12.327  -5.065  14.741  1.00  0.00    -0.025 C 
ATOM      4  C   UNL     1     -12.331  -4.114  15.682  1.00  0.00     0.020 C 
BRANCH   4   5
ATOM      5  C   UNL     1     -11.548  -4.237  16.919  1.00  0.00     0.064 C 
ATOM      6  O   UNL     1     -10.677  -5.140  17.018  1.00  0.00    -0.545 OA
ATOM      7  O   UNL     1     -11.754  -3.369  17.986  1.00  0.00    -0.545 OA
ENDBRANCH   4   5
ENDBRANCH   2   3
ENDBRANCH   1   2
BRANCH   1   8
ATOM      8  C   UNL     1     -10.976  -5.989  12.597  1.00  0.00     0.000 C 
BRANCH   8   9
ATOM      9  C   UNL     1     -10.176  -6.451  11.359  1.00  0.00    -0.000 C 
BRANCH   9  10
ATOM     10  C   UNL     1      -8.961  -5.559  11.049  1.00  0.00    -0.003 C 
ATOM     11  C   UNL     1      -7.907  -6.266  10.199  1.00  0.00     0.004 C 
ENDBRANCH   9  10
ENDBRANCH   8   9
ENDBRANCH   1   8
TORSDOF 6
ENDMDL
MODEL 4
REMARK VINA RESULT:    -3.830      2.392      2.919
REMARK INTER + INTRA:          -5.559
REMARK INTER:                  -5.297
REMARK INTRA:                  -0.262
REMARK UNBOUND:                -0.386
REMARK SMILES CCCCCCC=CC(=O)[O-]
REMARK SMILES IDX 5 1 6 2 7 3 8 4 9 5 10 6 11 7 4 8 3 9 2 10 1 11
REMARK H PARENT
REMARK Flexibility Score: inf
ROOT
ATOM      1  C   UNL     1     -12.350  -6.063  14.877  1.00  0.00     0.004 C 
ENDROOT
BRANCH   1   2
ATOM      2  C   UNL     1     -12.044  -5.584  13.449  1.00  0.00     0.027 C 
BRANCH   2   3
ATOM      3  C   UNL     1     -10.851  -6.297  12.881  1.00  0.00    -0.025 C 
ATOM      4  C   UNL     1     -10.572  -6.261  11.574  1.00  0.00     0.020 C 
BRANCH   4   5
ATOM      5  C   UNL     1      -9.415  -6.965  11.003  1.00  0.00     0.064 C 
ATOM      6  O   UNL     1      -9.222  -6.936   9.760  1.00  0.00    -0.545 OA
ATOM      7  O   UNL     1      -8.528  -7.662  11.815  1.00  0.00    -0.545 OA
ENDBRANCH   4   5
ENDBRANCH   2   3
ENDBRANCH   1   2
BRANCH   1   8
ATOM      8  C   UNL     1     -11.577  -7.344  15.237  1.00  0.00     0.000 C 
BRANCH   8   9
ATOM      9  C   UNL     1     -12.336  -8.257  16.225  1.00  0.00    -0.000 C 
BRANCH   9  10
ATOM     10  C   UNL     1     -11.495  -8.671  17.445  1.00  0.00    -0.003 C 
ATOM     11  C   UNL     1     -12.009  -8.072  18.752  1.00  0.00     0.004 C 
ENDBRANCH   9  10
ENDBRANCH   8   9
ENDBRANCH   1   8
TORSDOF 6
ENDMDL
MODEL 5
REMARK VINA RESULT:    -3.812     12.395     13.193
REMARK INTER + INTRA:          -5.536
REMARK INTER:                  -4.926
REMARK INTRA:                  -0.610
REMARK UNBOUND:                -0.386
REMARK SMILES CCCCCCC=CC(=O)[O-]
REMARK SMILES IDX 5 1 6 2 7 3 8 4 9 5 10 6 11 7 4 8 3 9 2 10 1 11
REMARK H PARENT
REMARK Flexibility Score: inf
ROOT
ATOM      1  C   UNL     1      -2.702   3.560  16.674  1.00  0.00     0.004 C 
ENDROOT
BRANCH   1   2
ATOM      2  C   UNL     1      -2.249   4.399  15.468  1.00  0.00     0.027 C 
BRANCH   2   3
ATOM      3  C   UNL     1      -2.339   3.609  14.194  1.00  0.00    -0.025 C 
ATOM      4  C   UNL     1      -1.789   2.395  14.083  1.00  0.00     0.020 C 
BRANCH   4   5
ATOM      5  C   UNL     1      -1.858   1.618  12.837  1.00  0.00     0.064 C 
ATOM      6  O   UNL     1      -2.527   0.553  12.805  1.00  0.00    -0.545 OA
ATOM      7  O   UNL     1      -1.194   2.042  11.691  1.00  0.00    -0.545 OA
ENDBRANCH   4   5
ENDBRANCH   2   3
ENDBRANCH   1   2
BRANCH   1   8
ATOM      8  C   UNL     1      -1.551   3.292  17.659  1.00  0.00     0.000 C 
BRANCH   8   9
ATOM      9  C   UNL     1      -0.549   4.463  17.761  1.00  0.00    -0.000 C 
BRANCH   9  10
ATOM     10  C   UNL     1       0.870   4.097  17.292  1.00  0.00    -0.003 C 
ATOM     11  C   UNL     1       0.959   2.687  16.713  1.00  0.00     0.004 C 
ENDBRANCH   9  10
ENDBRANCH   8   9
ENDBRANCH   1   8
TORSDOF 6
ENDMDL
MODEL 6
REMARK VINA RESULT:    -3.801      2.018      2.606
REMARK INTER + INTRA:          -5.521
REMARK INTER:                  -4.986
REMARK INTRA:                  -0.535
REMARK UNBOUND:                -0.386
REMARK SMILES CCCCCCC=CC(=O)[O-]
REMARK SMILES IDX 5 1 6 2 7 3 8 4 9 5 10 6 11 7 4 8 3 9 2 10 1 11
REMARK H PARENT
REMARK Flexibility Score: inf
ROOT
ATOM      1  C   UNL     1     -12.490  -5.220  13.694  1.00  0.00     0.004 C 
ENDROOT
BRANCH   1   2
ATOM      2  C   UNL     1     -12.005  -5.378  12.244  1.00  0.00     0.027 C 
BRANCH   2   3
ATOM      3  C   UNL     1     -10.642  -6.006  12.193  1.00  0.00    -0.025 C 
ATOM      4  C   UNL     1     -10.162  -6.544  11.066  1.00  0.00     0.020 C 
BRANCH   4   5
ATOM      5  C   UNL     1      -8.836  -7.174  11.005  1.00  0.00     0.064 C 
ATOM      6  O   UNL     1      -8.512  -8.029  11.870  1.00  0.00    -0.545 OA
ATOM      7  O   UNL     1      -7.931  -6.842  10.003  1.00  0.00    -0.545 OA
ENDBRANCH   4   5
ENDBRANCH   2   3
ENDBRANCH   1   2
BRANCH   1   8
ATOM      8  C   UNL     1     -11.574  -5.949  14.694  1.00  0.00     0.000 C 
BRANCH   8   9
ATOM      9  C   UNL     1     -12.254  -7.156  15.376  1.00  0.00    -0.000 C 
BRANCH   9  10
ATOM     10  C   UNL     1     -11.290  -8.320  15.664  1.00  0.00    -0.003 C 
ATOM     11  C   UNL     1      -9.836  -7.979  15.344  1.00  0.00     0.004 C 
ENDBRANCH   9  10
ENDBRANCH   8   9
ENDBRANCH   1   8
TORSDOF 6
ENDMDL
MODEL 7
REMARK VINA RESULT:    -3.790      3.039      5.348
REMARK INTER + INTRA:          -5.505
REMARK INTER:                  -5.188
REMARK INTRA:                  -0.317
REMARK UNBOUND:                -0.386
REMARK SMILES CCCCCCC=CC(=O)[O-]
REMARK SMILES IDX 5 1 6 2 7 3 8 4 9 5 10 6 11 7 4 8 3 9 2 10 1 11
REMARK H PARENT
REMARK Flexibility Score: inf
ROOT
ATOM      1  C   UNL     1     -11.371  -5.670  12.037  1.00  0.00     0.004 C 
ENDROOT
BRANCH   1   2
ATOM      2  C   UNL     1     -11.961  -5.596  13.453  1.00  0.00     0.027 C 
BRANCH   2   3
ATOM      3  C   UNL     1     -11.353  -6.635  14.350  1.00  0.00    -0.025 C 
ATOM      4  C   UNL     1     -12.064  -7.232  15.313  1.00  0.00     0.020 C 
BRANCH   4   5
ATOM      5  C   UNL     1     -11.478  -8.241  16.206  1.00  0.00     0.064 C 
ATOM      6  O   UNL     1     -10.488  -8.914  15.819  1.00  0.00    -0.545 OA
ATOM      7  O   UNL     1     -12.000  -8.463  17.476  1.00  0.00    -0.545 OA
ENDBRANCH   4   5
ENDBRANCH   2   3
ENDBRANCH   1   2
BRANCH   1   8
ATOM      8  C   UNL     1     -10.083  -6.512  11.988  1.00  0.00     0.000 C 
BRANCH   8   9
ATOM      9  C   UNL     1      -9.550  -6.728  10.554  1.00  0.00    -0.000 C 
BRANCH   9  10
ATOM     10  C   UNL     1      -8.341  -7.677  10.488  1.00  0.00    -0.003 C 
ATOM     11  C   UNL     1      -8.005  -8.306  11.838  1.00  0.00     0.004 C 
ENDBRANCH   9  10
ENDBRANCH   8   9
ENDBRANCH   1   8
TORSDOF 6
ENDMDL
MODEL 8
REMARK VINA RESULT:    -3.750     12.134     12.687
REMARK INTER + INTRA:          -5.451
REMARK INTER:                  -5.091
REMARK INTRA:                  -0.359
REMARK UNBOUND:                -0.386
REMARK SMILES CCCCCCC=CC(=O)[O-]
REMARK SMILES IDX 5 1 6 2 7 3 8 4 9 5 10 6 11 7 4 8 3 9 2 10 1 11
REMARK H PARENT
REMARK Flexibility Score: inf
ROOT
ATOM      1  C   UNL     1      -2.316   4.140  14.240  1.00  0.00     0.004 C 
ENDROOT
BRANCH   1   2
ATOM      2  C   UNL     1      -1.756   2.711  14.310  1.00  0.00     0.027 C 
BRANCH   2   3
ATOM      3  C   UNL     1      -2.152   1.913  13.101  1.00  0.00    -0.025 C 
ATOM      4  C   UNL     1      -1.374   1.855  12.016  1.00  0.00     0.020 C 
BRANCH   4   5
ATOM      5  C   UNL     1      -1.755   1.089  10.821  1.00  0.00     0.064 C 
ATOM      6  O   UNL     1      -0.886   0.414  10.211  1.00  0.00    -0.545 OA
ATOM      7  O   UNL     1      -3.065   1.097  10.353  1.00  0.00    -0.545 OA
ENDBRANCH   4   5
ENDBRANCH   2   3
ENDBRANCH   1   2
BRANCH   1   8
ATOM      8  C   UNL     1      -2.544   4.744  15.638  1.00  0.00     0.000 C 
BRANCH   8   9
ATOM      9  C   UNL     1      -2.136   3.794  16.786  1.00  0.00    -0.000 C 
BRANCH   9  10
ATOM     10  C   UNL     1      -1.068   4.388  17.721  1.00  0.00    -0.003 C 
ATOM     11  C   UNL     1       0.356   4.049  17.286  1.00  0.00     0.004 C 
ENDBRANCH   9  10
ENDBRANCH   8   9
ENDBRANCH   1   8
TORSDOF 6
ENDMDL
MODEL 9
REMARK VINA RESULT:    -3.733      2.694      4.603
REMARK INTER + INTRA:          -5.429
REMARK INTER:                  -4.942
REMARK INTRA:                  -0.487
REMARK UNBOUND:                -0.386
REMARK SMILES CCCCCCC=CC(=O)[O-]
REMARK SMILES IDX 5 1 6 2 7 3 8 4 9 5 10 6 11 7 4 8 3 9 2 10 1 11
REMARK H PARENT
REMARK Flexibility Score: inf
ROOT
ATOM      1  C   UNL     1     -13.048  -5.144  14.292  1.00  0.00     0.004 C 
ENDROOT
BRANCH   1   2
ATOM      2  C   UNL     1     -12.564  -4.108  15.319  1.00  0.00     0.027 C 
BRANCH   2   3
ATOM      3  C   UNL     1     -11.635  -4.730  16.321  1.00  0.00    -0.025 C 
ATOM      4  C   UNL     1     -11.148  -5.964  16.152  1.00  0.00     0.020 C 
BRANCH   4   5
ATOM      5  C   UNL     1     -10.249  -6.590  17.131  1.00  0.00     0.064 C 
ATOM      6  O   UNL     1      -9.162  -6.029  17.425  1.00  0.00    -0.545 OA
ATOM      7  O   UNL     1     -10.580  -7.796  17.740  1.00  0.00    -0.545 OA
ENDBRANCH   4   5
ENDBRANCH   2   3
ENDBRANCH   1   2
BRANCH   1   8
ATOM      8  C   UNL     1     -13.125  -4.560  12.870  1.00  0.00     0.000 C 
BRANCH   8   9
ATOM      9  C   UNL     1     -12.244  -5.317  11.851  1.00  0.00    -0.000 C 
BRANCH   9  10
ATOM     10  C   UNL     1     -11.030  -6.014  12.490  1.00  0.00    -0.003 C 
ATOM     11  C   UNL     1      -9.760  -5.880  11.653  1.00  0.00     0.004 C 
ENDBRANCH   9  10
ENDBRANCH   8   9
ENDBRANCH   1   8
TORSDOF 6
ENDMDL
