MODEL 1
REMARK VINA RESULT:    -4.889      0.000      0.000
REMARK INTER + INTRA:         -16.468
REMARK INTER:                 -12.320
REMARK INTRA:                  -4.148
REMARK UNBOUND:                -4.148
REMARK SMILES CCCCCCCCCCCCCCCCCCCCCCCCCCCC(=O)[O-]
REMARK SMILES IDX 15 1 16 2 17 3 18 4 19 5 20 6 21 7 22 8 23 9 24 10 25 11
REMARK SMILES IDX 26 12 27 13 28 14 29 15 30 16 14 17 13 18 12 19 11 20 10 21
REMARK SMILES IDX 9 22 8 23 7 24 6 25 5 26 4 27 3 28 2 29 1 30
REMARK H PARENT
REMARK Flexibility Score: inf
ROOT
ATOM      1  C   UNL     1      -6.144   8.116  17.004  1.00  0.00     0.000 C 
ENDROOT
BRANCH   1   2
ATOM      2  C   UNL     1      -6.458   6.688  16.530  1.00  0.00     0.000 C 
BRANCH   2   3
ATOM      3  C   UNL     1      -5.634   5.619  17.269  1.00  0.00     0.000 C 
BRANCH   3   4
ATOM      4  C   UNL     1      -5.623   4.262  16.542  1.00  0.00     0.000 C 
BRANCH   4   5
ATOM      5  C   UNL     1      -4.291   3.945  15.831  1.00  0.00     0.000 C 
BRANCH   5   6
ATOM      6  C   UNL     1      -3.240   5.049  16.037  1.00  0.00     0.000 C 
BRANCH   6   7
ATOM      7  C   UNL     1      -1.820   4.606  15.644  1.00  0.00     0.000 C 
BRANCH   7   8
ATOM      8  C   UNL     1      -0.843   4.425  16.821  1.00  0.00     0.000 C 
BRANCH   8   9
ATOM      9  C   UNL     1      -0.030   5.693  17.125  1.00  0.00     0.000 C 
BRANCH   9  10
ATOM     10  C   UNL     1      -0.030   6.003  18.629  1.00  0.00     0.000 C 
BRANCH  10  11
ATOM     11  C   UNL     1       0.681   7.324  18.963  1.00  0.00     0.000 C 
BRANCH  11  12
ATOM     12  C   UNL     1       0.672   7.640  20.470  1.00  0.00     0.006 C 
BRANCH  12  13
ATOM     13  C   UNL     1      -0.475   6.932  21.204  1.00  0.00     0.053 C 
BRANCH  13  14
ATOM     14  C   UNL     1      -0.186   6.768  22.666  1.00  0.00     0.041 C 
ATOM     15  O   UNL     1       0.994   6.579  23.058  1.00  0.00    -0.550 OA
ATOM     16  O   UNL     1      -1.215   6.860  23.595  1.00  0.00    -0.550 OA
ENDBRANCH  13  14
ENDBRANCH  12  13
ENDBRANCH  11  12
ENDBRANCH  10  11
ENDBRANCH   9  10
ENDBRANCH   8   9
ENDBRANCH   7   8
ENDBRANCH   6   7
ENDBRANCH   5   6
ENDBRANCH   4   5
ENDBRANCH   3   4
ENDBRANCH   2   3
ENDBRANCH   1   2
BRANCH   1  17
ATOM     17  C   UNL     1      -5.603   9.013  15.878  1.00  0.00     0.000 C 
BRANCH  17  18
ATOM     18  C   UNL     1      -5.936   8.468  14.476  1.00  0.00     0.000 C 
BRANCH  18  19
ATOM     19  C   UNL     1      -7.123   9.157  13.774  1.00  0.00     0.000 C 
BRANCH  19  20
ATOM     20  C   UNL     1      -8.486   8.464  13.972  1.00  0.00     0.000 C 
BRANCH  20  21
ATOM     21  C   UNL     1      -9.181   8.016  12.673  1.00  0.00     0.000 C 
BRANCH  21  22
ATOM     22  C   UNL     1      -9.493   6.512  12.658  1.00  0.00    -0.000 C 
BRANCH  22  23
ATOM     23  C   UNL     1      -9.020   5.831  13.948  1.00  0.00    -0.000 C 
BRANCH  23  24
ATOM     24  C   UNL     1      -7.894   4.809  13.706  1.00  0.00    -0.000 C 
BRANCH  24  25
ATOM     25  C   UNL     1      -7.108   5.049  12.399  1.00  0.00    -0.000 C 
BRANCH  25  26
ATOM     26  C   UNL     1      -5.663   5.506  12.663  1.00  0.00    -0.000 C 
BRANCH  26  27
ATOM     27  C   UNL     1      -5.081   6.342  11.509  1.00  0.00    -0.000 C 
BRANCH  27  28
ATOM     28  C   UNL     1      -6.127   7.092  10.657  1.00  0.00    -0.000 C 
BRANCH  28  29
ATOM     29  C   UNL     1      -5.770   8.553  10.325  1.00  0.00    -0.003 C 
ATOM     30  C   UNL     1      -7.001   9.420  10.059  1.00  0.00     0.004 C 
ENDBRANCH  28  29
ENDBRANCH  27  28
ENDBRANCH  26  27
ENDBRANCH  25  26
ENDBRANCH  24  25
ENDBRANCH  23  24
ENDBRANCH  22  23
ENDBRANCH  21  22
ENDBRANCH  20  21
ENDBRANCH  19  20
ENDBRANCH  18  19
ENDBRANCH  17  18
ENDBRANCH   1  17
TORSDOF 26
ENDMDL
MODEL 2
REMARK VINA RESULT:    -4.811      2.354      4.909
REMARK INTER + INTRA:         -16.273
REMARK INTER:                 -12.920
REMARK INTRA:                  -3.353
REMARK UNBOUND:                -4.148
REMARK SMILES CCCCCCCCCCCCCCCCCCCCCCCCCCCC(=O)[O-]
REMARK SMILES IDX 15 1 16 2 17 3 18 4 19 5 20 6 21 7 22 8 23 9 24 10 25 11
REMARK SMILES IDX 26 12 27 13 28 14 29 15 30 16 14 17 13 18 12 19 11 20 10 21
REMARK SMILES IDX 9 22 8 23 7 24 6 25 5 26 4 27 3 28 2 29 1 30
REMARK H PARENT
REMARK Flexibility Score: inf
ROOT
ATOM      1  C   UNL     1      -5.158   8.724  12.953  1.00  0.00     0.000 C 
ENDROOT
BRANCH   1   2
ATOM      2  C   UNL     1      -4.613   9.934  13.728  1.00  0.00     0.000 C 
BRANCH   2   3
ATOM      3  C   UNL     1      -3.149   9.755  14.163  1.00  0.00     0.000 C 
BRANCH   3   4
ATOM      4  C   UNL     1      -2.195  10.761  13.494  1.00  0.00     0.000 C 
BRANCH   4   5
ATOM      5  C   UNL     1      -0.779  10.206  13.239  1.00  0.00     0.000 C 
BRANCH   5   6
ATOM      6  C   UNL     1      -0.142   9.619  14.510  1.00  0.00     0.000 C 
BRANCH   6   7
ATOM      7  C   UNL     1       0.383  10.701  15.471  1.00  0.00     0.000 C 
BRANCH   7   8
ATOM      8  C   UNL     1       1.695  10.348  16.196  1.00  0.00     0.000 C 
BRANCH   8   9
ATOM      9  C   UNL     1       1.671   8.948  16.829  1.00  0.00     0.000 C 
BRANCH   9  10
ATOM     10  C   UNL     1       1.904   9.024  18.346  1.00  0.00     0.000 C 
BRANCH  10  11
ATOM     11  C   UNL     1       0.696   8.529  19.157  1.00  0.00     0.000 C 
BRANCH  11  12
ATOM     12  C   UNL     1       1.106   7.714  20.397  1.00  0.00     0.006 C 
BRANCH  12  13
ATOM     13  C   UNL     1      -0.082   6.968  21.020  1.00  0.00     0.053 C 
BRANCH  13  14
ATOM     14  C   UNL     1       0.069   6.815  22.504  1.00  0.00     0.041 C 
ATOM     15  O   UNL     1       1.204   6.605  23.003  1.00  0.00    -0.550 OA
ATOM     16  O   UNL     1      -1.038   6.942  23.334  1.00  0.00    -0.550 OA
ENDBRANCH  13  14
ENDBRANCH  12  13
ENDBRANCH  11  12
ENDBRANCH  10  11
ENDBRANCH   9  10
ENDBRANCH   8   9
ENDBRANCH   7   8
ENDBRANCH   6   7
ENDBRANCH   5   6
ENDBRANCH   4   5
ENDBRANCH   3   4
ENDBRANCH   2   3
ENDBRANCH   1   2
BRANCH   1  17
ATOM     17  C   UNL     1      -4.182   7.535  12.941  1.00  0.00     0.000 C 
BRANCH  17  18
ATOM     18  C   UNL     1      -4.903   6.179  12.835  1.00  0.00     0.000 C 
BRANCH  18  19
ATOM     19  C   UNL     1      -6.433   6.267  12.658  1.00  0.00     0.000 C 
BRANCH  19  20
ATOM     20  C   UNL     1      -7.217   5.040  13.164  1.00  0.00     0.000 C 
BRANCH  20  21
ATOM     21  C   UNL     1      -7.903   5.226  14.530  1.00  0.00     0.000 C 
BRANCH  21  22
ATOM     22  C   UNL     1      -7.946   6.695  14.974  1.00  0.00    -0.000 C 
BRANCH  22  23
ATOM     23  C   UNL     1      -7.588   6.841  16.458  1.00  0.00    -0.000 C 
BRANCH  23  24
ATOM     24  C   UNL     1      -6.257   7.582  16.682  1.00  0.00    -0.000 C 
BRANCH  24  25
ATOM     25  C   UNL     1      -5.012   6.756  16.293  1.00  0.00    -0.000 C 
BRANCH  25  26
ATOM     26  C   UNL     1      -5.088   5.309  16.811  1.00  0.00    -0.000 C 
BRANCH  26  27
ATOM     27  C   UNL     1      -4.009   4.398  16.197  1.00  0.00    -0.000 C 
BRANCH  27  28
ATOM     28  C   UNL     1      -2.731   5.126  15.732  1.00  0.00    -0.000 C 
BRANCH  28  29
ATOM     29  C   UNL     1      -1.439   4.293  15.822  1.00  0.00    -0.003 C 
ATOM     30  C   UNL     1      -1.615   3.005  16.627  1.00  0.00     0.004 C 
ENDBRANCH  28  29
ENDBRANCH  27  28
ENDBRANCH  26  27
ENDBRANCH  25  26
ENDBRANCH  24  25
ENDBRANCH  23  24
ENDBRANCH  22  23
ENDBRANCH  21  22
ENDBRANCH  20  21
ENDBRANCH  19  20
ENDBRANCH  18  19
ENDBRANCH  17  18
ENDBRANCH   1  17
TORSDOF 26
ENDMDL
MODEL 3
REMARK VINA RESULT:    -4.714      3.237      8.565
REMARK INTER + INTRA:         -16.028
REMARK INTER:                 -12.461
REMARK INTRA:                  -3.567
REMARK UNBOUND:                -4.148
REMARK SMILES CCCCCCCCCCCCCCCCCCCCCCCCCCCC(=O)[O-]
REMARK SMILES IDX 15 1 16 2 17 3 18 4 19 5 20 6 21 7 22 8 23 9 24 10 25 11
REMARK SMILES IDX 26 12 27 13 28 14 29 15 30 16 14 17 13 18 12 19 11 20 10 21
REMARK SMILES IDX 9 22 8 23 7 24 6 25 5 26 4 27 3 28 2 29 1 30
REMARK H PARENT
REMARK Flexibility Score: inf
ROOT
ATOM      1  C   UNL     1      -4.364   8.834  12.626  1.00  0.00     0.000 C 
ENDROOT
BRANCH   1   2
ATOM      2  C   UNL     1      -4.251   7.363  12.194  1.00  0.00     0.000 C 
BRANCH   2   3
ATOM      3  C   UNL     1      -5.212   7.002  11.047  1.00  0.00     0.000 C 
BRANCH   3   4
ATOM      4  C   UNL     1      -6.294   5.991  11.467  1.00  0.00     0.000 C 
BRANCH   4   5
ATOM      5  C   UNL     1      -5.812   4.955  12.504  1.00  0.00     0.000 C 
BRANCH   5   6
ATOM      6  C   UNL     1      -6.893   4.625  13.547  1.00  0.00     0.000 C 
BRANCH   6   7
ATOM      7  C   UNL     1      -7.932   5.749  13.710  1.00  0.00     0.000 C 
BRANCH   7   8
ATOM      8  C   UNL     1      -8.501   5.911  15.132  1.00  0.00     0.000 C 
BRANCH   8   9
ATOM      9  C   UNL     1      -7.882   7.094  15.894  1.00  0.00     0.000 C 
BRANCH   9  10
ATOM     10  C   UNL     1      -6.523   7.486  15.295  1.00  0.00     0.000 C 
BRANCH  10  11
ATOM     11  C   UNL     1      -5.366   7.325  16.293  1.00  0.00     0.000 C 
BRANCH  11  12
ATOM     12  C   UNL     1      -4.812   5.889  16.335  1.00  0.00     0.006 C 
BRANCH  12  13
ATOM     13  C   UNL     1      -3.589   5.712  15.424  1.00  0.00     0.053 C 
BRANCH  13  14
ATOM     14  C   UNL     1      -2.859   4.434  15.708  1.00  0.00     0.041 C 
ATOM     15  O   UNL     1      -3.465   3.467  16.237  1.00  0.00    -0.550 OA
ATOM     16  O   UNL     1      -1.522   4.301  15.355  1.00  0.00    -0.550 OA
ENDBRANCH  13  14
ENDBRANCH  12  13
ENDBRANCH  11  12
ENDBRANCH  10  11
ENDBRANCH   9  10
ENDBRANCH   8   9
ENDBRANCH   7   8
ENDBRANCH   6   7
ENDBRANCH   5   6
ENDBRANCH   4   5
ENDBRANCH   3   4
ENDBRANCH   2   3
ENDBRANCH   1   2
BRANCH   1  17
ATOM     17  C   UNL     1      -3.431   9.185  13.797  1.00  0.00     0.000 C 
BRANCH  17  18
ATOM     18  C   UNL     1      -2.013   8.613  13.616  1.00  0.00     0.000 C 
BRANCH  18  19
ATOM     19  C   UNL     1      -0.891   9.667  13.530  1.00  0.00     0.000 C 
BRANCH  19  20
ATOM     20  C   UNL     1      -1.032  10.847  14.512  1.00  0.00     0.000 C 
BRANCH  20  21
ATOM     21  C   UNL     1      -0.169  10.740  15.783  1.00  0.00     0.000 C 
BRANCH  21  22
ATOM     22  C   UNL     1       1.316  10.502  15.471  1.00  0.00    -0.000 C 
BRANCH  22  23
ATOM     23  C   UNL     1       2.015   9.761  16.617  1.00  0.00    -0.000 C 
BRANCH  23  24
ATOM     24  C   UNL     1       1.669   8.261  16.658  1.00  0.00    -0.000 C 
BRANCH  24  25
ATOM     25  C   UNL     1       0.910   7.833  17.932  1.00  0.00    -0.000 C 
BRANCH  25  26
ATOM     26  C   UNL     1       0.985   8.897  19.041  1.00  0.00    -0.000 C 
BRANCH  26  27
ATOM     27  C   UNL     1       1.480   8.327  20.382  1.00  0.00    -0.000 C 
BRANCH  27  28
ATOM     28  C   UNL     1       0.901   6.947  20.756  1.00  0.00    -0.000 C 
BRANCH  28  29
ATOM     29  C   UNL     1      -0.446   6.986  21.501  1.00  0.00    -0.003 C 
ATOM     30  C   UNL     1      -0.323   6.597  22.975  1.00  0.00     0.004 C 
ENDBRANCH  28  29
ENDBRANCH  27  28
ENDBRANCH  26  27
ENDBRANCH  25  26
ENDBRANCH  24  25
ENDBRANCH  23  24
ENDBRANCH  22  23
ENDBRANCH  21  22
ENDBRANCH  20  21
ENDBRANCH  19  20
ENDBRANCH  18  19
ENDBRANCH  17  18
ENDBRANCH   1  17
TORSDOF 26
ENDMDL
MODEL 4
REMARK VINA RESULT:    -4.633      3.093      8.518
REMARK INTER + INTRA:         -15.822
REMARK INTER:                 -12.072
REMARK INTRA:                  -3.750
REMARK UNBOUND:                -4.148
REMARK SMILES CCCCCCCCCCCCCCCCCCCCCCCCCCCC(=O)[O-]
REMARK SMILES IDX 15 1 16 2 17 3 18 4 19 5 20 6 21 7 22 8 23 9 24 10 25 11
REMARK SMILES IDX 26 12 27 13 28 14 29 15 30 16 14 17 13 18 12 19 11 20 10 21
REMARK SMILES IDX 9 22 8 23 7 24 6 25 5 26 4 27 3 28 2 29 1 30
REMARK H PARENT
REMARK Flexibility Score: inf
ROOT
ATOM      1  C   UNL     1      -5.075   6.340  16.534  1.00  0.00     0.000 C 
ENDROOT
BRANCH   1   2
ATOM      2  C   UNL     1      -6.012   7.539  16.747  1.00  0.00     0.000 C 
BRANCH   2   3
ATOM      3  C   UNL     1      -7.018   7.723  15.597  1.00  0.00     0.000 C 
BRANCH   3   4
ATOM      4  C   UNL     1      -8.369   7.037  15.866  1.00  0.00     0.000 C 
BRANCH   4   5
ATOM      5  C   UNL     1      -8.906   6.225  14.669  1.00  0.00     0.000 C 
BRANCH   5   6
ATOM      6  C   UNL     1      -7.926   5.129  14.218  1.00  0.00     0.000 C 
BRANCH   6   7
ATOM      7  C   UNL     1      -7.767   5.060  12.689  1.00  0.00     0.000 C 
BRANCH   7   8
ATOM      8  C   UNL     1      -6.526   5.781  12.129  1.00  0.00     0.000 C 
BRANCH   8   9
ATOM      9  C   UNL     1      -5.228   5.385  12.849  1.00  0.00     0.000 C 
BRANCH   9  10
ATOM     10  C   UNL     1      -4.432   6.627  13.276  1.00  0.00     0.000 C 
BRANCH  10  11
ATOM     11  C   UNL     1      -4.900   7.906  12.564  1.00  0.00     0.000 C 
BRANCH  11  12
ATOM     12  C   UNL     1      -3.835   9.017  12.574  1.00  0.00     0.006 C 
BRANCH  12  13
ATOM     13  C   UNL     1      -2.528   8.562  13.238  1.00  0.00     0.053 C 
BRANCH  13  14
ATOM     14  C   UNL     1      -1.615   9.716  13.526  1.00  0.00     0.041 C 
ATOM     15  O   UNL     1      -2.083  10.790  13.983  1.00  0.00    -0.550 OA
ATOM     16  O   UNL     1      -0.247   9.589  13.323  1.00  0.00    -0.550 OA
ENDBRANCH  13  14
ENDBRANCH  12  13
ENDBRANCH  11  12
ENDBRANCH  10  11
ENDBRANCH   9  10
ENDBRANCH   8   9
ENDBRANCH   7   8
ENDBRANCH   6   7
ENDBRANCH   5   6
ENDBRANCH   4   5
ENDBRANCH   3   4
ENDBRANCH   2   3
ENDBRANCH   1   2
BRANCH   1  17
ATOM     17  C   UNL     1      -5.618   5.041  17.153  1.00  0.00     0.000 C 
BRANCH  17  18
ATOM     18  C   UNL     1      -5.328   3.805  16.281  1.00  0.00     0.000 C 
BRANCH  18  19
ATOM     19  C   UNL     1      -4.403   2.754  16.929  1.00  0.00     0.000 C 
BRANCH  19  20
ATOM     20  C   UNL     1      -2.898   2.961  16.665  1.00  0.00     0.000 C 
BRANCH  20  21
ATOM     21  C   UNL     1      -2.563   3.654  15.331  1.00  0.00     0.000 C 
BRANCH  21  22
ATOM     22  C   UNL     1      -1.389   4.636  15.455  1.00  0.00    -0.000 C 
BRANCH  22  23
ATOM     23  C   UNL     1      -0.764   4.587  16.854  1.00  0.00    -0.000 C 
BRANCH  23  24
ATOM     24  C   UNL     1      -0.173   5.940  17.292  1.00  0.00    -0.000 C 
BRANCH  24  25
ATOM     25  C   UNL     1       0.021   6.069  18.818  1.00  0.00    -0.000 C 
BRANCH  25  26
ATOM     26  C   UNL     1       0.717   7.385  19.208  1.00  0.00    -0.000 C 
BRANCH  26  27
ATOM     27  C   UNL     1       0.260   7.919  20.578  1.00  0.00    -0.000 C 
BRANCH  27  28
ATOM     28  C   UNL     1      -0.476   6.892  21.463  1.00  0.00    -0.000 C 
BRANCH  28  29
ATOM     29  C   UNL     1       0.061   6.769  22.901  1.00  0.00    -0.003 C 
ATOM     30  C   UNL     1       1.589   6.758  22.967  1.00  0.00     0.004 C 
ENDBRANCH  28  29
ENDBRANCH  27  28
ENDBRANCH  26  27
ENDBRANCH  25  26
ENDBRANCH  24  25
ENDBRANCH  23  24
ENDBRANCH  22  23
ENDBRANCH  21  22
ENDBRANCH  20  21
ENDBRANCH  19  20
ENDBRANCH  18  19
ENDBRANCH  17  18
ENDBRANCH   1  17
TORSDOF 26
ENDMDL
MODEL 5
REMARK VINA RESULT:    -4.626      2.055      2.832
REMARK INTER + INTRA:         -15.805
REMARK INTER:                 -12.899
REMARK INTRA:                  -2.905
REMARK UNBOUND:                -4.148
REMARK SMILES CCCCCCCCCCCCCCCCCCCCCCCCCCCC(=O)[O-]
REMARK SMILES IDX 15 1 16 2 17 3 18 4 19 5 20 6 21 7 22 8 23 9 24 10 25 11
REMARK SMILES IDX 26 12 27 13 28 14 29 15 30 16 14 17 13 18 12 19 11 20 10 21
REMARK SMILES IDX 9 22 8 23 7 24 6 25 5 26 4 27 3 28 2 29 1 30
REMARK H PARENT
REMARK Flexibility Score: inf
ROOT
ATOM      1  C   UNL     1      -5.315   6.753  16.387  1.00  0.00     0.000 C 
ENDROOT
BRANCH   1   2
ATOM      2  C   UNL     1      -5.879   5.462  16.999  1.00  0.00     0.000 C 
BRANCH   2   3
ATOM      3  C   UNL     1      -5.561   4.214  16.159  1.00  0.00     0.000 C 
BRANCH   3   4
ATOM      4  C   UNL     1      -4.773   3.148  16.942  1.00  0.00     0.000 C 
BRANCH   4   5
ATOM      5  C   UNL     1      -3.312   2.983  16.474  1.00  0.00     0.000 C 
BRANCH   5   6
ATOM      6  C   UNL     1      -2.924   4.006  15.393  1.00  0.00     0.000 C 
BRANCH   6   7
ATOM      7  C   UNL     1      -1.455   4.453  15.491  1.00  0.00     0.000 C 
BRANCH   7   8
ATOM      8  C   UNL     1      -0.881   4.501  16.920  1.00  0.00     0.000 C 
BRANCH   8   9
ATOM      9  C   UNL     1      -0.088   5.787  17.203  1.00  0.00     0.000 C 
BRANCH   9  10
ATOM     10  C   UNL     1       0.029   6.041  18.714  1.00  0.00     0.000 C 
BRANCH  10  11
ATOM     11  C   UNL     1       0.639   7.414  19.038  1.00  0.00     0.000 C 
BRANCH  11  12
ATOM     12  C   UNL     1       0.695   7.697  20.551  1.00  0.00     0.006 C 
BRANCH  12  13
ATOM     13  C   UNL     1      -0.449   7.015  21.312  1.00  0.00     0.053 C 
BRANCH  13  14
ATOM     14  C   UNL     1      -0.060   6.670  22.718  1.00  0.00     0.041 C 
ATOM     15  O   UNL     1       1.155   6.627  23.042  1.00  0.00    -0.550 OA
ATOM     16  O   UNL     1      -1.038   6.433  23.675  1.00  0.00    -0.550 OA
ENDBRANCH  13  14
ENDBRANCH  12  13
ENDBRANCH  11  12
ENDBRANCH  10  11
ENDBRANCH   9  10
ENDBRANCH   8   9
ENDBRANCH   7   8
ENDBRANCH   6   7
ENDBRANCH   5   6
ENDBRANCH   4   5
ENDBRANCH   3   4
ENDBRANCH   2   3
ENDBRANCH   1   2
BRANCH   1  17
ATOM     17  C   UNL     1      -6.413   7.742  15.960  1.00  0.00     0.000 C 
BRANCH  17  18
ATOM     18  C   UNL     1      -7.815   7.104  15.958  1.00  0.00     0.000 C 
BRANCH  18  19
ATOM     19  C   UNL     1      -8.643   7.355  14.682  1.00  0.00     0.000 C 
BRANCH  19  20
ATOM     20  C   UNL     1      -8.833   6.122  13.777  1.00  0.00     0.000 C 
BRANCH  20  21
ATOM     21  C   UNL     1      -7.588   5.229  13.628  1.00  0.00     0.000 C 
BRANCH  21  22
ATOM     22  C   UNL     1      -7.261   4.910  12.162  1.00  0.00    -0.000 C 
BRANCH  22  23
ATOM     23  C   UNL     1      -6.127   5.798  11.636  1.00  0.00    -0.000 C 
BRANCH  23  24
ATOM     24  C   UNL     1      -5.325   6.473  12.764  1.00  0.00    -0.000 C 
BRANCH  24  25
ATOM     25  C   UNL     1      -5.059   7.975  12.525  1.00  0.00    -0.000 C 
BRANCH  25  26
ATOM     26  C   UNL     1      -3.631   8.240  12.016  1.00  0.00    -0.000 C 
BRANCH  26  27
ATOM     27  C   UNL     1      -2.934   9.389  12.767  1.00  0.00    -0.000 C 
BRANCH  27  28
ATOM     28  C   UNL     1      -1.657   8.985  13.532  1.00  0.00    -0.000 C 
BRANCH  28  29
ATOM     29  C   UNL     1      -0.416   9.844  13.225  1.00  0.00    -0.003 C 
ATOM     30  C   UNL     1      -0.148   9.989  11.726  1.00  0.00     0.004 C 
ENDBRANCH  28  29
ENDBRANCH  27  28
ENDBRANCH  26  27
ENDBRANCH  25  26
ENDBRANCH  24  25
ENDBRANCH  23  24
ENDBRANCH  22  23
ENDBRANCH  21  22
ENDBRANCH  20  21
ENDBRANCH  19  20
ENDBRANCH  18  19
ENDBRANCH  17  18
ENDBRANCH   1  17
TORSDOF 26
ENDMDL
MODEL 6
REMARK VINA RESULT:    -4.589      2.413      4.560
REMARK INTER + INTRA:         -15.712
REMARK INTER:                 -11.982
REMARK INTRA:                  -3.730
REMARK UNBOUND:                -4.148
REMARK SMILES CCCCCCCCCCCCCCCCCCCCCCCCCCCC(=O)[O-]
REMARK SMILES IDX 15 1 16 2 17 3 18 4 19 5 20 6 21 7 22 8 23 9 24 10 25 11
REMARK SMILES IDX 26 12 27 13 28 14 29 15 30 16 14 17 13 18 12 19 11 20 10 21
REMARK SMILES IDX 9 22 8 23 7 24 6 25 5 26 4 27 3 28 2 29 1 30
REMARK H PARENT
REMARK Flexibility Score: inf
ROOT
ATOM      1  C   UNL     1      -6.419   7.203  16.338  1.00  0.00     0.000 C 
ENDROOT
BRANCH   1   2
ATOM      2  C   UNL     1      -5.745   8.508  15.883  1.00  0.00     0.000 C 
BRANCH   2   3
ATOM      3  C   UNL     1      -4.548   8.267  14.947  1.00  0.00     0.000 C 
BRANCH   3   4
ATOM      4  C   UNL     1      -4.328   9.417  13.947  1.00  0.00     0.000 C 
BRANCH   4   5
ATOM      5  C   UNL     1      -3.254   9.119  12.879  1.00  0.00     0.000 C 
BRANCH   5   6
ATOM      6  C   UNL     1      -1.887   8.788  13.501  1.00  0.00     0.000 C 
BRANCH   6   7
ATOM      7  C   UNL     1      -0.903   9.970  13.446  1.00  0.00     0.000 C 
BRANCH   7   8
ATOM      8  C   UNL     1      -0.391  10.457  14.815  1.00  0.00     0.000 C 
BRANCH   8   9
ATOM      9  C   UNL     1       0.494   9.420  15.526  1.00  0.00     0.000 C 
BRANCH   9  10
ATOM     10  C   UNL     1       1.738  10.082  16.138  1.00  0.00     0.000 C 
BRANCH  10  11
ATOM     11  C   UNL     1       2.223   9.371  17.411  1.00  0.00     0.000 C 
BRANCH  11  12
ATOM     12  C   UNL     1       1.137   8.483  18.047  1.00  0.00     0.006 C 
BRANCH  12  13
ATOM     13  C   UNL     1       0.959   8.767  19.544  1.00  0.00     0.053 C 
BRANCH  13  14
ATOM     14  C   UNL     1       0.679   7.517  20.322  1.00  0.00     0.041 C 
ATOM     15  O   UNL     1       1.445   7.173  21.259  1.00  0.00    -0.550 OA
ATOM     16  O   UNL     1      -0.446   6.754  20.036  1.00  0.00    -0.550 OA
ENDBRANCH  13  14
ENDBRANCH  12  13
ENDBRANCH  11  12
ENDBRANCH  10  11
ENDBRANCH   9  10
ENDBRANCH   8   9
ENDBRANCH   7   8
ENDBRANCH   6   7
ENDBRANCH   5   6
ENDBRANCH   4   5
ENDBRANCH   3   4
ENDBRANCH   2   3
ENDBRANCH   1   2
BRANCH   1  17
ATOM     17  C   UNL     1      -7.951   7.314  16.402  1.00  0.00     0.000 C 
BRANCH  17  18
ATOM     18  C   UNL     1      -8.631   6.886  15.088  1.00  0.00     0.000 C 
BRANCH  18  19
ATOM     19  C   UNL     1      -8.999   8.044  14.138  1.00  0.00     0.000 C 
BRANCH  19  20
ATOM     20  C   UNL     1      -8.327   7.986  12.751  1.00  0.00     0.000 C 
BRANCH  20  21
ATOM     21  C   UNL     1      -7.615   6.659  12.431  1.00  0.00     0.000 C 
BRANCH  21  22
ATOM     22  C   UNL     1      -6.197   6.867  11.879  1.00  0.00    -0.000 C 
BRANCH  22  23
ATOM     23  C   UNL     1      -5.260   5.730  12.305  1.00  0.00    -0.000 C 
BRANCH  23  24
ATOM     24  C   UNL     1      -5.997   4.588  13.028  1.00  0.00    -0.000 C 
BRANCH  24  25
ATOM     25  C   UNL     1      -5.614   4.447  14.518  1.00  0.00    -0.000 C 
BRANCH  25  26
ATOM     26  C   UNL     1      -4.126   4.747  14.768  1.00  0.00    -0.000 C 
BRANCH  26  27
ATOM     27  C   UNL     1      -3.663   4.334  16.177  1.00  0.00    -0.000 C 
BRANCH  27  28
ATOM     28  C   UNL     1      -2.468   3.359  16.209  1.00  0.00    -0.000 C 
BRANCH  28  29
ATOM     29  C   UNL     1      -1.091   4.010  15.977  1.00  0.00    -0.003 C 
ATOM     30  C   UNL     1      -0.716   5.016  17.066  1.00  0.00     0.004 C 
ENDBRANCH  28  29
ENDBRANCH  27  28
ENDBRANCH  26  27
ENDBRANCH  25  26
ENDBRANCH  24  25
ENDBRANCH  23  24
ENDBRANCH  22  23
ENDBRANCH  21  22
ENDBRANCH  20  21
ENDBRANCH  19  20
ENDBRANCH  18  19
ENDBRANCH  17  18
ENDBRANCH   1  17
TORSDOF 26
ENDMDL
MODEL 7
REMARK VINA RESULT:    -4.547      3.174      5.345
REMARK INTER + INTRA:         -15.607
REMARK INTER:                 -11.876
REMARK INTRA:                  -3.731
REMARK UNBOUND:                -4.148
REMARK SMILES CCCCCCCCCCCCCCCCCCCCCCCCCCCC(=O)[O-]
REMARK SMILES IDX 15 1 16 2 17 3 18 4 19 5 20 6 21 7 22 8 23 9 24 10 25 11
REMARK SMILES IDX 26 12 27 13 28 14 29 15 30 16 14 17 13 18 12 19 11 20 10 21
REMARK SMILES IDX 9 22 8 23 7 24 6 25 5 26 4 27 3 28 2 29 1 30
REMARK H PARENT
REMARK Flexibility Score: inf
ROOT
ATOM      1  C   UNL     1      -2.555   9.401  13.793  1.00  0.00     0.000 C 
ENDROOT
BRANCH   1   2
ATOM      2  C   UNL     1      -1.635  10.632  13.795  1.00  0.00     0.000 C 
BRANCH   2   3
ATOM      3  C   UNL     1      -0.142  10.262  13.823  1.00  0.00     0.000 C 
BRANCH   3   4
ATOM      4  C   UNL     1       0.296   9.636  15.159  1.00  0.00     0.000 C 
BRANCH   4   5
ATOM      5  C   UNL     1       1.350  10.465  15.922  1.00  0.00     0.000 C 
BRANCH   5   6
ATOM      6  C   UNL     1       2.163   9.613  16.910  1.00  0.00     0.000 C 
BRANCH   6   7
ATOM      7  C   UNL     1       1.322   8.516  17.588  1.00  0.00     0.000 C 
BRANCH   7   8
ATOM      8  C   UNL     1       1.088   8.713  19.097  1.00  0.00     0.000 C 
BRANCH   8   9
ATOM      9  C   UNL     1       0.217   7.609  19.717  1.00  0.00     0.000 C 
BRANCH   9  10
ATOM     10  C   UNL     1       0.436   6.267  19.003  1.00  0.00     0.000 C 
BRANCH  10  11
ATOM     11  C   UNL     1      -0.762   5.856  18.132  1.00  0.00     0.000 C 
BRANCH  11  12
ATOM     12  C   UNL     1      -0.339   5.113  16.852  1.00  0.00     0.006 C 
BRANCH  12  13
ATOM     13  C   UNL     1      -1.545   4.685  16.005  1.00  0.00     0.053 C 
BRANCH  13  14
ATOM     14  C   UNL     1      -2.083   3.352  16.429  1.00  0.00     0.041 C 
ATOM     15  O   UNL     1      -1.294   2.401  16.667  1.00  0.00    -0.550 OA
ATOM     16  O   UNL     1      -3.450   3.172  16.597  1.00  0.00    -0.550 OA
ENDBRANCH  13  14
ENDBRANCH  12  13
ENDBRANCH  11  12
ENDBRANCH  10  11
ENDBRANCH   9  10
ENDBRANCH   8   9
ENDBRANCH   7   8
ENDBRANCH   6   7
ENDBRANCH   5   6
ENDBRANCH   4   5
ENDBRANCH   3   4
ENDBRANCH   2   3
ENDBRANCH   1   2
BRANCH   1  17
ATOM     17  C   UNL     1      -2.430   8.565  12.508  1.00  0.00     0.000 C 
BRANCH  17  18
ATOM     18  C   UNL     1      -3.778   8.390  11.783  1.00  0.00     0.000 C 
BRANCH  18  19
ATOM     19  C   UNL     1      -3.729   7.505  10.521  1.00  0.00     0.000 C 
BRANCH  19  20
ATOM     20  C   UNL     1      -5.101   7.021  10.012  1.00  0.00     0.000 C 
BRANCH  20  21
ATOM     21  C   UNL     1      -6.225   7.037  11.065  1.00  0.00     0.000 C 
BRANCH  21  22
ATOM     22  C   UNL     1      -7.102   5.778  11.011  1.00  0.00    -0.000 C 
BRANCH  22  23
ATOM     23  C   UNL     1      -7.070   5.016  12.342  1.00  0.00    -0.000 C 
BRANCH  23  24
ATOM     24  C   UNL     1      -5.697   4.386  12.636  1.00  0.00    -0.000 C 
BRANCH  24  25
ATOM     25  C   UNL     1      -5.212   4.601  14.086  1.00  0.00    -0.000 C 
BRANCH  25  26
ATOM     26  C   UNL     1      -4.562   5.981  14.285  1.00  0.00    -0.000 C 
BRANCH  26  27
ATOM     27  C   UNL     1      -4.723   6.516  15.720  1.00  0.00    -0.000 C 
BRANCH  27  28
ATOM     28  C   UNL     1      -5.535   7.823  15.839  1.00  0.00    -0.000 C 
BRANCH  28  29
ATOM     29  C   UNL     1      -6.299   8.232  14.566  1.00  0.00    -0.003 C 
ATOM     30  C   UNL     1      -7.768   7.806  14.590  1.00  0.00     0.004 C 
ENDBRANCH  28  29
ENDBRANCH  27  28
ENDBRANCH  26  27
ENDBRANCH  25  26
ENDBRANCH  24  25
ENDBRANCH  23  24
ENDBRANCH  22  23
ENDBRANCH  21  22
ENDBRANCH  20  21
ENDBRANCH  19  20
ENDBRANCH  18  19
ENDBRANCH  17  18
ENDBRANCH   1  17
TORSDOF 26
ENDMDL
MODEL 8
REMARK VINA RESULT:    -4.468      3.133      6.064
REMARK INTER + INTRA:         -15.408
REMARK INTER:                 -12.170
REMARK INTRA:                  -3.239
REMARK UNBOUND:                -4.148
REMARK SMILES CCCCCCCCCCCCCCCCCCCCCCCCCCCC(=O)[O-]
REMARK SMILES IDX 15 1 16 2 17 3 18 4 19 5 20 6 21 7 22 8 23 9 24 10 25 11
REMARK SMILES IDX 26 12 27 13 28 14 29 15 30 16 14 17 13 18 12 19 11 20 10 21
REMARK SMILES IDX 9 22 8 23 7 24 6 25 5 26 4 27 3 28 2 29 1 30
REMARK H PARENT
REMARK Flexibility Score: inf
ROOT
ATOM      1  C   UNL     1       0.372  10.875  15.077  1.00  0.00     0.000 C 
ENDROOT
BRANCH   1   2
ATOM      2  C   UNL     1       1.510  10.559  16.060  1.00  0.00     0.000 C 
BRANCH   2   3
ATOM      3  C   UNL     1       1.515   9.089  16.515  1.00  0.00     0.000 C 
BRANCH   3   4
ATOM      4  C   UNL     1       1.916   8.920  17.992  1.00  0.00     0.000 C 
BRANCH   4   5
ATOM      5  C   UNL     1       0.724   8.675  18.939  1.00  0.00     0.000 C 
BRANCH   5   6
ATOM      6  C   UNL     1       0.867   7.367  19.734  1.00  0.00     0.000 C 
BRANCH   6   7
ATOM      7  C   UNL     1      -0.070   6.254  19.231  1.00  0.00     0.000 C 
BRANCH   7   8
ATOM      8  C   UNL     1       0.072   5.910  17.736  1.00  0.00     0.000 C 
BRANCH   8   9
ATOM      9  C   UNL     1      -0.748   4.676  17.326  1.00  0.00     0.000 C 
BRANCH   9  10
ATOM     10  C   UNL     1      -1.334   4.846  15.916  1.00  0.00     0.000 C 
BRANCH  10  11
ATOM     11  C   UNL     1      -2.848   5.108  15.930  1.00  0.00     0.000 C 
BRANCH  11  12
ATOM     12  C   UNL     1      -3.597   4.329  14.834  1.00  0.00     0.006 C 
BRANCH  12  13
ATOM     13  C   UNL     1      -5.059   4.056  15.212  1.00  0.00     0.053 C 
BRANCH  13  14
ATOM     14  C   UNL     1      -5.202   3.672  16.655  1.00  0.00     0.041 C 
ATOM     15  O   UNL     1      -5.637   4.508  17.489  1.00  0.00    -0.550 OA
ATOM     16  O   UNL     1      -4.890   2.383  17.067  1.00  0.00    -0.550 OA
ENDBRANCH  13  14
ENDBRANCH  12  13
ENDBRANCH  11  12
ENDBRANCH  10  11
ENDBRANCH   9  10
ENDBRANCH   8   9
ENDBRANCH   7   8
ENDBRANCH   6   7
ENDBRANCH   5   6
ENDBRANCH   4   5
ENDBRANCH   3   4
ENDBRANCH   2   3
ENDBRANCH   1   2
BRANCH   1  17
ATOM     17  C   UNL     1      -0.169   9.623  14.368  1.00  0.00     0.000 C 
BRANCH  17  18
ATOM     18  C   UNL     1      -1.645   9.768  13.953  1.00  0.00     0.000 C 
BRANCH  18  19
ATOM     19  C   UNL     1      -2.177   8.651  13.033  1.00  0.00     0.000 C 
BRANCH  19  20
ATOM     20  C   UNL     1      -3.000   9.140  11.825  1.00  0.00     0.000 C 
BRANCH  20  21
ATOM     21  C   UNL     1      -3.739   8.032  11.052  1.00  0.00     0.000 C 
BRANCH  21  22
ATOM     22  C   UNL     1      -4.471   7.052  11.979  1.00  0.00    -0.000 C 
BRANCH  22  23
ATOM     23  C   UNL     1      -5.527   6.243  11.216  1.00  0.00    -0.000 C 
BRANCH  23  24
ATOM     24  C   UNL     1      -6.395   5.370  12.140  1.00  0.00    -0.000 C 
BRANCH  24  25
ATOM     25  C   UNL     1      -7.634   6.099  12.702  1.00  0.00    -0.000 C 
BRANCH  25  26
ATOM     26  C   UNL     1      -8.307   5.313  13.841  1.00  0.00    -0.000 C 
BRANCH  26  27
ATOM     27  C   UNL     1      -8.160   6.001  15.210  1.00  0.00    -0.000 C 
BRANCH  27  28
ATOM     28  C   UNL     1      -7.558   7.421  15.162  1.00  0.00    -0.000 C 
BRANCH  28  29
ATOM     29  C   UNL     1      -6.359   7.651  16.100  1.00  0.00    -0.003 C 
ATOM     30  C   UNL     1      -5.094   8.082  15.354  1.00  0.00     0.004 C 
ENDBRANCH  28  29
ENDBRANCH  27  28
ENDBRANCH  26  27
ENDBRANCH  25  26
ENDBRANCH  24  25
ENDBRANCH  23  24
ENDBRANCH  22  23
ENDBRANCH  21  22
ENDBRANCH  20  21
ENDBRANCH  19  20
ENDBRANCH  18  19
ENDBRANCH  17  18
ENDBRANCH   1  17
TORSDOF 26
ENDMDL
MODEL 9
REMARK VINA RESULT:    -4.420     11.563     15.630
REMARK INTER + INTRA:         -15.286
REMARK INTER:                 -10.137
REMARK INTRA:                  -5.149
REMARK UNBOUND:                -4.148
REMARK SMILES CCCCCCCCCCCCCCCCCCCCCCCCCCCC(=O)[O-]
REMARK SMILES IDX 15 1 16 2 17 3 18 4 19 5 20 6 21 7 22 8 23 9 24 10 25 11
REMARK SMILES IDX 26 12 27 13 28 14 29 15 30 16 14 17 13 18 12 19 11 20 10 21
REMARK SMILES IDX 9 22 8 23 7 24 6 25 5 26 4 27 3 28 2 29 1 30
REMARK H PARENT
REMARK Flexibility Score: inf
ROOT
ATOM      1  C   UNL     1      -5.497  -4.840  21.661  1.00  0.00     0.000 C 
ENDROOT
BRANCH   1   2
ATOM      2  C   UNL     1      -5.382  -3.881  20.465  1.00  0.00     0.000 C 
BRANCH   2   3
ATOM      3  C   UNL     1      -6.194  -4.350  19.245  1.00  0.00     0.000 C 
BRANCH   3   4
ATOM      4  C   UNL     1      -7.250  -5.413  19.598  1.00  0.00     0.000 C 
BRANCH   4   5
ATOM      5  C   UNL     1      -8.598  -5.219  18.873  1.00  0.00     0.000 C 
BRANCH   5   6
ATOM      6  C   UNL     1      -9.691  -4.668  19.805  1.00  0.00     0.000 C 
BRANCH   6   7
ATOM      7  C   UNL     1      -9.613  -5.250  21.228  1.00  0.00     0.000 C 
BRANCH   7   8
ATOM      8  C   UNL     1      -9.561  -4.205  22.358  1.00  0.00     0.000 C 
BRANCH   8   9
ATOM      9  C   UNL     1      -8.743  -2.959  21.983  1.00  0.00     0.000 C 
BRANCH   9  10
ATOM     10  C   UNL     1      -9.644  -1.719  21.878  1.00  0.00     0.000 C 
BRANCH  10  11
ATOM     11  C   UNL     1      -9.251  -0.797  20.713  1.00  0.00     0.000 C 
BRANCH  11  12
ATOM     12  C   UNL     1      -8.029  -1.313  19.931  1.00  0.00     0.006 C 
BRANCH  12  13
ATOM     13  C   UNL     1      -8.235  -1.235  18.413  1.00  0.00     0.053 C 
BRANCH  13  14
ATOM     14  C   UNL     1      -6.933  -1.178  17.673  1.00  0.00     0.041 C 
ATOM     15  O   UNL     1      -6.046  -0.355  18.020  1.00  0.00    -0.550 OA
ATOM     16  O   UNL     1      -6.686  -2.057  16.626  1.00  0.00    -0.550 OA
ENDBRANCH  13  14
ENDBRANCH  12  13
ENDBRANCH  11  12
ENDBRANCH  10  11
ENDBRANCH   9  10
ENDBRANCH   8   9
ENDBRANCH   7   8
ENDBRANCH   6   7
ENDBRANCH   5   6
ENDBRANCH   4   5
ENDBRANCH   3   4
ENDBRANCH   2   3
ENDBRANCH   1   2
BRANCH   1  17
ATOM     17  C   UNL     1      -4.141  -5.428  22.086  1.00  0.00     0.000 C 
BRANCH  17  18
ATOM     18  C   UNL     1      -3.563  -6.400  21.040  1.00  0.00     0.000 C 
BRANCH  18  19
ATOM     19  C   UNL     1      -3.773  -7.895  21.354  1.00  0.00     0.000 C 
BRANCH  19  20
ATOM     20  C   UNL     1      -4.659  -8.654  20.346  1.00  0.00     0.000 C 
BRANCH  20  21
ATOM     21  C   UNL     1      -6.165  -8.636  20.664  1.00  0.00     0.000 C 
BRANCH  21  22
ATOM     22  C   UNL     1      -6.458  -8.898  22.149  1.00  0.00    -0.000 C 
BRANCH  22  23
ATOM     23  C   UNL     1      -7.364  -7.810  22.739  1.00  0.00    -0.000 C 
BRANCH  23  24
ATOM     24  C   UNL     1      -6.809  -7.215  24.046  1.00  0.00    -0.000 C 
BRANCH  24  25
ATOM     25  C   UNL     1      -5.535  -7.921  24.558  1.00  0.00    -0.000 C 
BRANCH  25  26
ATOM     26  C   UNL     1      -4.965  -7.251  25.821  1.00  0.00    -0.000 C 
BRANCH  26  27
ATOM     27  C   UNL     1      -3.536  -6.717  25.620  1.00  0.00    -0.000 C 
BRANCH  27  28
ATOM     28  C   UNL     1      -3.260  -5.341  26.261  1.00  0.00    -0.000 C 
BRANCH  28  29
ATOM     29  C   UNL     1      -2.383  -5.376  27.527  1.00  0.00    -0.003 C 
ATOM     30  C   UNL     1      -1.399  -6.547  27.537  1.00  0.00     0.004 C 
ENDBRANCH  28  29
ENDBRANCH  27  28
ENDBRANCH  26  27
ENDBRANCH  25  26
ENDBRANCH  24  25
ENDBRANCH  23  24
ENDBRANCH  22  23
ENDBRANCH  21  22
ENDBRANCH  20  21
ENDBRANCH  19  20
ENDBRANCH  18  19
ENDBRANCH  17  18
ENDBRANCH   1  17
TORSDOF 26
ENDMDL
