MODEL 1
REMARK VINA RESULT:    -4.674      0.000      0.000
REMARK INTER + INTRA:         -13.285
REMARK INTER:                 -10.139
REMARK INTRA:                  -3.146
REMARK UNBOUND:                -3.146
REMARK SMILES CCCCCCCCCCCCCCCCCCCCCC(=O)[O-]
REMARK SMILES IDX 12 1 11 2 10 3 9 4 8 5 7 6 6 7 5 8 4 9 3 10 2 11 1 12 13 13
REMARK SMILES IDX 14 14 15 15 16 16 17 17 18 18 19 19 20 20 21 21 22 22 23 23
REMARK SMILES IDX 24 24
REMARK H PARENT
REMARK Flexibility Score: inf
ROOT
ATOM      1  C   UNL     1      47.963  34.941 -13.208  1.00  0.00     0.000 C 
ENDROOT
BRANCH   1   2
ATOM      2  C   UNL     1      49.163  35.874 -12.979  1.00  0.00     0.000 C 
BRANCH   2   3
ATOM      3  C   UNL     1      48.905  37.313 -13.464  1.00  0.00     0.000 C 
BRANCH   3   4
ATOM      4  C   UNL     1      50.155  38.078 -13.936  1.00  0.00    -0.000 C 
BRANCH   4   5
ATOM      5  C   UNL     1      50.287  38.125 -15.468  1.00  0.00    -0.000 C 
BRANCH   5   6
ATOM      6  C   UNL     1      51.556  37.419 -15.973  1.00  0.00    -0.000 C 
BRANCH   6   7
ATOM      7  C   UNL     1      51.249  36.080 -16.665  1.00  0.00    -0.000 C 
BRANCH   7   8
ATOM      8  C   UNL     1      49.815  36.014 -17.215  1.00  0.00    -0.000 C 
BRANCH   8   9
ATOM      9  C   UNL     1      49.041  34.788 -16.708  1.00  0.00    -0.000 C 
BRANCH   9  10
ATOM     10  C   UNL     1      47.548  35.110 -16.552  1.00  0.00    -0.000 C 
BRANCH  10  11
ATOM     11  C   UNL     1      47.172  36.478 -17.145  1.00  0.00    -0.003 C 
ATOM     12  C   UNL     1      46.498  37.399 -16.129  1.00  0.00     0.004 C 
ENDBRANCH  10  11
ENDBRANCH   9  10
ENDBRANCH   8   9
ENDBRANCH   7   8
ENDBRANCH   6   7
ENDBRANCH   5   6
ENDBRANCH   4   5
ENDBRANCH   3   4
ENDBRANCH   2   3
ENDBRANCH   1   2
BRANCH   1  13
ATOM     13  C   UNL     1      46.718  35.360 -12.402  1.00  0.00     0.000 C 
BRANCH  13  14
ATOM     14  C   UNL     1      45.378  35.209 -13.146  1.00  0.00     0.000 C 
BRANCH  14  15
ATOM     15  C   UNL     1      44.536  36.496 -13.129  1.00  0.00     0.000 C 
BRANCH  15  16
ATOM     16  C   UNL     1      43.064  36.230 -12.777  1.00  0.00     0.000 C 
BRANCH  16  17
ATOM     17  C   UNL     1      42.496  37.264 -11.788  1.00  0.00     0.000 C 
BRANCH  17  18
ATOM     18  C   UNL     1      43.288  37.321 -10.471  1.00  0.00     0.000 C 
BRANCH  18  19
ATOM     19  C   UNL     1      43.322  36.000  -9.682  1.00  0.00     0.000 C 
BRANCH  19  20
ATOM     20  C   UNL     1      44.553  35.858  -8.761  1.00  0.00     0.006 C 
BRANCH  20  21
ATOM     21  C   UNL     1      45.425  34.654  -9.138  1.00  0.00     0.053 C 
BRANCH  21  22
ATOM     22  C   UNL     1      45.431  33.645  -8.032  1.00  0.00     0.041 C 
ATOM     23  O   UNL     1      46.518  33.167  -7.618  1.00  0.00    -0.550 OA
ATOM     24  O   UNL     1      44.231  33.195  -7.495  1.00  0.00    -0.550 OA
ENDBRANCH  21  22
ENDBRANCH  20  21
ENDBRANCH  19  20
ENDBRANCH  18  19
ENDBRANCH  17  18
ENDBRANCH  16  17
ENDBRANCH  15  16
ENDBRANCH  14  15
ENDBRANCH  13  14
ENDBRANCH   1  13
TORSDOF 20
ENDMDL
MODEL 2
REMARK VINA RESULT:    -4.539      1.020      2.501
REMARK INTER + INTRA:         -12.992
REMARK INTER:                  -9.831
REMARK INTRA:                  -3.161
REMARK UNBOUND:                -3.146
REMARK SMILES CCCCCCCCCCCCCCCCCCCCCC(=O)[O-]
REMARK SMILES IDX 12 1 11 2 10 3 9 4 8 5 7 6 6 7 5 8 4 9 3 10 2 11 1 12 13 13
REMARK SMILES IDX 14 14 15 15 16 16 17 17 18 18 19 19 20 20 21 21 22 22 23 23
REMARK SMILES IDX 24 24
REMARK H PARENT
REMARK Flexibility Score: inf
ROOT
ATOM      1  C   UNL     1      46.404  34.752 -12.215  1.00  0.00     0.000 C 
ENDROOT
BRANCH   1   2
ATOM      2  C   UNL     1      46.852  35.799 -11.182  1.00  0.00     0.000 C 
BRANCH   2   3
ATOM      3  C   UNL     1      48.301  36.272 -11.396  1.00  0.00     0.000 C 
BRANCH   3   4
ATOM      4  C   UNL     1      48.880  35.995 -12.795  1.00  0.00    -0.000 C 
BRANCH   4   5
ATOM      5  C   UNL     1      49.172  37.281 -13.589  1.00  0.00    -0.000 C 
BRANCH   5   6
ATOM      6  C   UNL     1      47.894  38.044 -13.969  1.00  0.00    -0.000 C 
BRANCH   6   7
ATOM      7  C   UNL     1      47.001  37.253 -14.940  1.00  0.00    -0.000 C 
BRANCH   7   8
ATOM      8  C   UNL     1      47.550  37.246 -16.376  1.00  0.00    -0.000 C 
BRANCH   8   9
ATOM      9  C   UNL     1      47.590  35.838 -16.989  1.00  0.00    -0.000 C 
BRANCH   9  10
ATOM     10  C   UNL     1      48.796  35.047 -16.463  1.00  0.00    -0.000 C 
BRANCH  10  11
ATOM     11  C   UNL     1      50.078  35.318 -17.267  1.00  0.00    -0.003 C 
ATOM     12  C   UNL     1      51.068  36.210 -16.519  1.00  0.00     0.004 C 
ENDBRANCH  10  11
ENDBRANCH   9  10
ENDBRANCH   8   9
ENDBRANCH   7   8
ENDBRANCH   6   7
ENDBRANCH   5   6
ENDBRANCH   4   5
ENDBRANCH   3   4
ENDBRANCH   2   3
ENDBRANCH   1   2
BRANCH   1  13
ATOM     13  C   UNL     1      45.071  35.116 -12.895  1.00  0.00     0.000 C 
BRANCH  13  14
ATOM     14  C   UNL     1      44.464  36.464 -12.461  1.00  0.00     0.000 C 
BRANCH  14  15
ATOM     15  C   UNL     1      42.992  36.348 -12.033  1.00  0.00     0.000 C 
BRANCH  15  16
ATOM     16  C   UNL     1      42.341  37.718 -11.790  1.00  0.00     0.000 C 
BRANCH  16  17
ATOM     17  C   UNL     1      41.642  37.806 -10.421  1.00  0.00     0.000 C 
BRANCH  17  18
ATOM     18  C   UNL     1      42.204  36.799  -9.404  1.00  0.00     0.000 C 
BRANCH  18  19
ATOM     19  C   UNL     1      43.290  37.365  -8.471  1.00  0.00     0.000 C 
BRANCH  19  20
ATOM     20  C   UNL     1      44.505  36.429  -8.294  1.00  0.00     0.006 C 
BRANCH  20  21
ATOM     21  C   UNL     1      44.202  34.992  -8.736  1.00  0.00     0.053 C 
BRANCH  21  22
ATOM     22  C   UNL     1      44.997  34.017  -7.926  1.00  0.00     0.041 C 
ATOM     23  O   UNL     1      44.425  33.287  -7.075  1.00  0.00    -0.550 OA
ATOM     24  O   UNL     1      46.377  33.952  -8.073  1.00  0.00    -0.550 OA
ENDBRANCH  21  22
ENDBRANCH  20  21
ENDBRANCH  19  20
ENDBRANCH  18  19
ENDBRANCH  17  18
ENDBRANCH  16  17
ENDBRANCH  15  16
ENDBRANCH  14  15
ENDBRANCH  13  14
ENDBRANCH   1  13
TORSDOF 20
ENDMDL
MODEL 3
REMARK VINA RESULT:    -4.480      1.308      4.453
REMARK INTER + INTRA:         -12.863
REMARK INTER:                  -9.579
REMARK INTRA:                  -3.284
REMARK UNBOUND:                -3.146
REMARK SMILES CCCCCCCCCCCCCCCCCCCCCC(=O)[O-]
REMARK SMILES IDX 12 1 11 2 10 3 9 4 8 5 7 6 6 7 5 8 4 9 3 10 2 11 1 12 13 13
REMARK SMILES IDX 14 14 15 15 16 16 17 17 18 18 19 19 20 20 21 21 22 22 23 23
REMARK SMILES IDX 24 24
REMARK H PARENT
REMARK Flexibility Score: inf
ROOT
ATOM      1  C   UNL     1      51.154  36.248 -16.260  1.00  0.00     0.000 C 
ENDROOT
BRANCH   1   2
ATOM      2  C   UNL     1      50.075  35.857 -17.283  1.00  0.00     0.000 C 
BRANCH   2   3
ATOM      3  C   UNL     1      48.970  34.970 -16.681  1.00  0.00     0.000 C 
BRANCH   3   4
ATOM      4  C   UNL     1      47.536  35.502 -16.856  1.00  0.00    -0.000 C 
BRANCH   4   5
ATOM      5  C   UNL     1      47.490  36.909 -17.477  1.00  0.00    -0.000 C 
BRANCH   5   6
ATOM      6  C   UNL     1      47.335  38.015 -16.422  1.00  0.00    -0.000 C 
BRANCH   6   7
ATOM      7  C   UNL     1      46.025  37.892 -15.626  1.00  0.00    -0.000 C 
BRANCH   7   8
ATOM      8  C   UNL     1      46.240  38.027 -14.109  1.00  0.00    -0.000 C 
BRANCH   8   9
ATOM      9  C   UNL     1      44.971  37.718 -13.301  1.00  0.00    -0.000 C 
BRANCH   9  10
ATOM     10  C   UNL     1      44.486  36.286 -13.571  1.00  0.00    -0.000 C 
BRANCH  10  11
ATOM     11  C   UNL     1      45.273  35.234 -12.772  1.00  0.00    -0.003 C 
ATOM     12  C   UNL     1      46.169  34.368 -13.658  1.00  0.00     0.004 C 
ENDBRANCH  10  11
ENDBRANCH   9  10
ENDBRANCH   8   9
ENDBRANCH   7   8
ENDBRANCH   6   7
ENDBRANCH   5   6
ENDBRANCH   4   5
ENDBRANCH   3   4
ENDBRANCH   2   3
ENDBRANCH   1   2
BRANCH   1  13
ATOM     13  C   UNL     1      50.912  37.636 -15.637  1.00  0.00     0.000 C 
BRANCH  13  14
ATOM     14  C   UNL     1      50.331  37.618 -14.211  1.00  0.00     0.000 C 
BRANCH  14  15
ATOM     15  C   UNL     1      49.680  36.273 -13.846  1.00  0.00     0.000 C 
BRANCH  15  16
ATOM     16  C   UNL     1      49.511  36.095 -12.330  1.00  0.00     0.000 C 
BRANCH  16  17
ATOM     17  C   UNL     1      48.440  37.032 -11.740  1.00  0.00     0.000 C 
BRANCH  17  18
ATOM     18  C   UNL     1      47.802  36.469 -10.459  1.00  0.00     0.000 C 
BRANCH  18  19
ATOM     19  C   UNL     1      46.536  37.211  -9.991  1.00  0.00     0.000 C 
BRANCH  19  20
ATOM     20  C   UNL     1      45.552  36.321  -9.202  1.00  0.00     0.006 C 
BRANCH  20  21
ATOM     21  C   UNL     1      45.965  34.844  -9.213  1.00  0.00     0.053 C 
BRANCH  21  22
ATOM     22  C   UNL     1      45.507  34.164  -7.961  1.00  0.00     0.041 C 
ATOM     23  O   UNL     1      45.020  34.838  -7.017  1.00  0.00    -0.550 OA
ATOM     24  O   UNL     1      45.667  32.792  -7.817  1.00  0.00    -0.550 OA
ENDBRANCH  21  22
ENDBRANCH  20  21
ENDBRANCH  19  20
ENDBRANCH  18  19
ENDBRANCH  17  18
ENDBRANCH  16  17
ENDBRANCH  15  16
ENDBRANCH  14  15
ENDBRANCH  13  14
ENDBRANCH   1  13
TORSDOF 20
ENDMDL
MODEL 4
REMARK VINA RESULT:    -4.471      1.937      7.417
REMARK INTER + INTRA:         -12.845
REMARK INTER:                  -9.798
REMARK INTRA:                  -3.046
REMARK UNBOUND:                -3.146
REMARK SMILES CCCCCCCCCCCCCCCCCCCCCC(=O)[O-]
REMARK SMILES IDX 12 1 11 2 10 3 9 4 8 5 7 6 6 7 5 8 4 9 3 10 2 11 1 12 13 13
REMARK SMILES IDX 14 14 15 15 16 16 17 17 18 18 19 19 20 20 21 21 22 22 23 23
REMARK SMILES IDX 24 24
REMARK H PARENT
REMARK Flexibility Score: inf
ROOT
ATOM      1  C   UNL     1      46.284  36.933 -14.831  1.00  0.00     0.000 C 
ENDROOT
BRANCH   1   2
ATOM      2  C   UNL     1      46.083  38.104 -13.855  1.00  0.00     0.000 C 
BRANCH   2   3
ATOM      3  C   UNL     1      45.002  37.824 -12.795  1.00  0.00     0.000 C 
BRANCH   3   4
ATOM      4  C   UNL     1      44.201  36.526 -13.006  1.00  0.00    -0.000 C 
BRANCH   4   5
ATOM      5  C   UNL     1      42.801  36.576 -12.370  1.00  0.00    -0.000 C 
BRANCH   5   6
ATOM      6  C   UNL     1      42.824  37.121 -10.933  1.00  0.00    -0.000 C 
BRANCH   6   7
ATOM      7  C   UNL     1      43.031  36.013  -9.886  1.00  0.00    -0.000 C 
BRANCH   7   8
ATOM      8  C   UNL     1      44.067  36.397  -8.817  1.00  0.00    -0.000 C 
BRANCH   8   9
ATOM      9  C   UNL     1      45.514  36.214  -9.301  1.00  0.00    -0.000 C 
BRANCH   9  10
ATOM     10  C   UNL     1      45.833  34.728  -9.521  1.00  0.00    -0.000 C 
BRANCH  10  11
ATOM     11  C   UNL     1      46.169  33.995  -8.213  1.00  0.00    -0.003 C 
ATOM     12  C   UNL     1      45.207  32.845  -7.915  1.00  0.00     0.004 C 
ENDBRANCH  10  11
ENDBRANCH   9  10
ENDBRANCH   8   9
ENDBRANCH   7   8
ENDBRANCH   6   7
ENDBRANCH   5   6
ENDBRANCH   4   5
ENDBRANCH   3   4
ENDBRANCH   2   3
ENDBRANCH   1   2
BRANCH   1  13
ATOM     13  C   UNL     1      46.439  37.394 -16.293  1.00  0.00     0.000 C 
BRANCH  13  14
ATOM     14  C   UNL     1      47.174  36.403 -17.215  1.00  0.00     0.000 C 
BRANCH  14  15
ATOM     15  C   UNL     1      47.467  35.056 -16.532  1.00  0.00     0.000 C 
BRANCH  15  16
ATOM     16  C   UNL     1      48.973  34.770 -16.421  1.00  0.00     0.000 C 
BRANCH  16  17
ATOM     17  C   UNL     1      49.836  35.933 -16.943  1.00  0.00     0.000 C 
BRANCH  17  18
ATOM     18  C   UNL     1      50.659  36.605 -15.831  1.00  0.00     0.000 C 
BRANCH  18  19
ATOM     19  C   UNL     1      49.930  37.740 -15.088  1.00  0.00     0.000 C 
BRANCH  19  20
ATOM     20  C   UNL     1      49.961  37.596 -13.551  1.00  0.00     0.006 C 
BRANCH  20  21
ATOM     21  C   UNL     1      49.890  36.131 -13.103  1.00  0.00     0.053 C 
BRANCH  21  22
ATOM     22  C   UNL     1      48.621  35.875 -12.351  1.00  0.00     0.041 C 
ATOM     23  O   UNL     1      47.849  34.950 -12.712  1.00  0.00    -0.550 OA
ATOM     24  O   UNL     1      48.266  36.692 -11.286  1.00  0.00    -0.550 OA
ENDBRANCH  21  22
ENDBRANCH  20  21
ENDBRANCH  19  20
ENDBRANCH  18  19
ENDBRANCH  17  18
ENDBRANCH  16  17
ENDBRANCH  15  16
ENDBRANCH  14  15
ENDBRANCH  13  14
ENDBRANCH   1  13
TORSDOF 20
ENDMDL
MODEL 5
REMARK VINA RESULT:    -4.456      1.118      2.950
REMARK INTER + INTRA:         -12.812
REMARK INTER:                  -9.545
REMARK INTRA:                  -3.267
REMARK UNBOUND:                -3.146
REMARK SMILES CCCCCCCCCCCCCCCCCCCCCC(=O)[O-]
REMARK SMILES IDX 12 1 11 2 10 3 9 4 8 5 7 6 6 7 5 8 4 9 3 10 2 11 1 12 13 13
REMARK SMILES IDX 14 14 15 15 16 16 17 17 18 18 19 19 20 20 21 21 22 22 23 23
REMARK SMILES IDX 24 24
REMARK H PARENT
REMARK Flexibility Score: inf
ROOT
ATOM      1  C   UNL     1      47.377  34.829 -14.453  1.00  0.00     0.000 C 
ENDROOT
BRANCH   1   2
ATOM      2  C   UNL     1      47.432  34.743 -15.987  1.00  0.00     0.000 C 
BRANCH   2   3
ATOM      3  C   UNL     1      47.335  36.121 -16.668  1.00  0.00     0.000 C 
BRANCH   3   4
ATOM      4  C   UNL     1      48.645  36.637 -17.291  1.00  0.00    -0.000 C 
BRANCH   4   5
ATOM      5  C   UNL     1      49.846  35.717 -17.011  1.00  0.00    -0.000 C 
BRANCH   5   6
ATOM      6  C   UNL     1      51.007  36.454 -16.325  1.00  0.00    -0.000 C 
BRANCH   6   7
ATOM      7  C   UNL     1      50.523  37.578 -15.394  1.00  0.00    -0.000 C 
BRANCH   7   8
ATOM      8  C   UNL     1      50.704  37.233 -13.906  1.00  0.00    -0.000 C 
BRANCH   8   9
ATOM      9  C   UNL     1      49.370  37.152 -13.150  1.00  0.00    -0.000 C 
BRANCH   9  10
ATOM     10  C   UNL     1      49.488  36.229 -11.929  1.00  0.00    -0.000 C 
BRANCH  10  11
ATOM     11  C   UNL     1      48.213  36.216 -11.070  1.00  0.00    -0.003 C 
ATOM     12  C   UNL     1      47.657  37.617 -10.817  1.00  0.00     0.004 C 
ENDBRANCH  10  11
ENDBRANCH   9  10
ENDBRANCH   8   9
ENDBRANCH   7   8
ENDBRANCH   6   7
ENDBRANCH   5   6
ENDBRANCH   4   5
ENDBRANCH   3   4
ENDBRANCH   2   3
ENDBRANCH   1   2
BRANCH   1  13
ATOM     13  C   UNL     1      46.105  34.189 -13.865  1.00  0.00     0.000 C 
BRANCH  13  14
ATOM     14  C   UNL     1      45.234  35.132 -13.013  1.00  0.00     0.000 C 
BRANCH  14  15
ATOM     15  C   UNL     1      45.294  36.594 -13.488  1.00  0.00     0.000 C 
BRANCH  15  16
ATOM     16  C   UNL     1      44.330  37.504 -12.712  1.00  0.00     0.000 C 
BRANCH  16  17
ATOM     17  C   UNL     1      43.041  36.775 -12.288  1.00  0.00     0.000 C 
BRANCH  17  18
ATOM     18  C   UNL     1      42.811  36.816 -10.768  1.00  0.00     0.000 C 
BRANCH  18  19
ATOM     19  C   UNL     1      44.007  37.335  -9.949  1.00  0.00     0.000 C 
BRANCH  19  20
ATOM     20  C   UNL     1      44.459  36.371  -8.830  1.00  0.00     0.006 C 
BRANCH  20  21
ATOM     21  C   UNL     1      45.079  35.084  -9.387  1.00  0.00     0.053 C 
BRANCH  21  22
ATOM     22  C   UNL     1      45.572  34.216  -8.272  1.00  0.00     0.041 C 
ATOM     23  O   UNL     1      44.813  33.933  -7.309  1.00  0.00    -0.550 OA
ATOM     24  O   UNL     1      46.885  33.764  -8.270  1.00  0.00    -0.550 OA
ENDBRANCH  21  22
ENDBRANCH  20  21
ENDBRANCH  19  20
ENDBRANCH  18  19
ENDBRANCH  17  18
ENDBRANCH  16  17
ENDBRANCH  15  16
ENDBRANCH  14  15
ENDBRANCH  13  14
ENDBRANCH   1  13
TORSDOF 20
ENDMDL
MODEL 6
REMARK VINA RESULT:    -4.405      2.843      7.895
REMARK INTER + INTRA:         -12.702
REMARK INTER:                  -9.607
REMARK INTRA:                  -3.094
REMARK UNBOUND:                -3.146
REMARK SMILES CCCCCCCCCCCCCCCCCCCCCC(=O)[O-]
REMARK SMILES IDX 12 1 11 2 10 3 9 4 8 5 7 6 6 7 5 8 4 9 3 10 2 11 1 12 13 13
REMARK SMILES IDX 14 14 15 15 16 16 17 17 18 18 19 19 20 20 21 21 22 22 23 23
REMARK SMILES IDX 24 24
REMARK H PARENT
REMARK Flexibility Score: inf
ROOT
ATOM      1  C   UNL     1      46.374  35.015 -11.095  1.00  0.00     0.000 C 
ENDROOT
BRANCH   1   2
ATOM      2  C   UNL     1      46.424  34.318 -12.465  1.00  0.00     0.000 C 
BRANCH   2   3
ATOM      3  C   UNL     1      45.405  34.891 -13.467  1.00  0.00     0.000 C 
BRANCH   3   4
ATOM      4  C   UNL     1      44.820  36.264 -13.093  1.00  0.00    -0.000 C 
BRANCH   4   5
ATOM      5  C   UNL     1      43.284  36.257 -12.999  1.00  0.00    -0.000 C 
BRANCH   5   6
ATOM      6  C   UNL     1      42.775  36.712 -11.623  1.00  0.00    -0.000 C 
BRANCH   6   7
ATOM      7  C   UNL     1      43.846  37.466 -10.817  1.00  0.00    -0.000 C 
BRANCH   7   8
ATOM      8  C   UNL     1      43.731  37.219  -9.304  1.00  0.00    -0.000 C 
BRANCH   8   9
ATOM      9  C   UNL     1      43.700  35.725  -8.948  1.00  0.00    -0.000 C 
BRANCH   9  10
ATOM     10  C   UNL     1      44.764  35.392  -7.893  1.00  0.00    -0.000 C 
BRANCH  10  11
ATOM     11  C   UNL     1      44.868  33.884  -7.612  1.00  0.00    -0.003 C 
ATOM     12  C   UNL     1      46.284  33.342  -7.806  1.00  0.00     0.004 C 
ENDBRANCH  10  11
ENDBRANCH   9  10
ENDBRANCH   8   9
ENDBRANCH   7   8
ENDBRANCH   6   7
ENDBRANCH   5   6
ENDBRANCH   4   5
ENDBRANCH   3   4
ENDBRANCH   2   3
ENDBRANCH   1   2
BRANCH   1  13
ATOM     13  C   UNL     1      47.660  35.800 -10.777  1.00  0.00     0.000 C 
BRANCH  13  14
ATOM     14  C   UNL     1      47.483  37.326 -10.668  1.00  0.00     0.000 C 
BRANCH  14  15
ATOM     15  C   UNL     1      47.841  38.064 -11.970  1.00  0.00     0.000 C 
BRANCH  15  16
ATOM     16  C   UNL     1      48.593  37.168 -12.965  1.00  0.00     0.000 C 
BRANCH  16  17
ATOM     17  C   UNL     1      49.693  37.926 -13.730  1.00  0.00     0.000 C 
BRANCH  17  18
ATOM     18  C   UNL     1      50.748  36.985 -14.337  1.00  0.00     0.000 C 
BRANCH  18  19
ATOM     19  C   UNL     1      50.905  37.094 -15.864  1.00  0.00     0.000 C 
BRANCH  19  20
ATOM     20  C   UNL     1      50.096  36.038 -16.649  1.00  0.00     0.006 C 
BRANCH  20  21
ATOM     21  C   UNL     1      48.800  36.615 -17.233  1.00  0.00     0.053 C 
BRANCH  21  22
ATOM     22  C   UNL     1      47.611  36.068 -16.508  1.00  0.00     0.041 C 
ATOM     23  O   UNL     1      46.748  36.850 -16.030  1.00  0.00    -0.550 OA
ATOM     24  O   UNL     1      47.482  34.699 -16.314  1.00  0.00    -0.550 OA
ENDBRANCH  21  22
ENDBRANCH  20  21
ENDBRANCH  19  20
ENDBRANCH  18  19
ENDBRANCH  17  18
ENDBRANCH  16  17
ENDBRANCH  15  16
ENDBRANCH  14  15
ENDBRANCH  13  14
ENDBRANCH   1  13
TORSDOF 20
ENDMDL
MODEL 7
REMARK VINA RESULT:    -4.385      1.103      2.734
REMARK INTER + INTRA:         -12.659
REMARK INTER:                  -9.311
REMARK INTRA:                  -3.348
REMARK UNBOUND:                -3.146
REMARK SMILES CCCCCCCCCCCCCCCCCCCCCC(=O)[O-]
REMARK SMILES IDX 12 1 11 2 10 3 9 4 8 5 7 6 6 7 5 8 4 9 3 10 2 11 1 12 13 13
REMARK SMILES IDX 14 14 15 15 16 16 17 17 18 18 19 19 20 20 21 21 22 22 23 23
REMARK SMILES IDX 24 24
REMARK H PARENT
REMARK Flexibility Score: inf
ROOT
ATOM      1  C   UNL     1      46.070  35.288 -12.040  1.00  0.00     0.000 C 
ENDROOT
BRANCH   1   2
ATOM      2  C   UNL     1      46.773  34.275 -12.959  1.00  0.00     0.000 C 
BRANCH   2   3
ATOM      3  C   UNL     1      46.478  34.513 -14.451  1.00  0.00     0.000 C 
BRANCH   3   4
ATOM      4  C   UNL     1      47.710  34.832 -15.318  1.00  0.00    -0.000 C 
BRANCH   4   5
ATOM      5  C   UNL     1      47.528  36.096 -16.177  1.00  0.00    -0.000 C 
BRANCH   5   6
ATOM      6  C   UNL     1      48.644  36.268 -17.219  1.00  0.00    -0.000 C 
BRANCH   6   7
ATOM      7  C   UNL     1      49.876  35.400 -16.911  1.00  0.00    -0.000 C 
BRANCH   7   8
ATOM      8  C   UNL     1      51.170  36.224 -16.810  1.00  0.00    -0.000 C 
BRANCH   8   9
ATOM      9  C   UNL     1      50.991  37.510 -15.989  1.00  0.00    -0.000 C 
BRANCH   9  10
ATOM     10  C   UNL     1      51.344  37.270 -14.514  1.00  0.00    -0.000 C 
BRANCH  10  11
ATOM     11  C   UNL     1      50.101  37.185 -13.614  1.00  0.00    -0.003 C 
ATOM     12  C   UNL     1      50.122  35.968 -12.689  1.00  0.00     0.004 C 
ENDBRANCH  10  11
ENDBRANCH   9  10
ENDBRANCH   8   9
ENDBRANCH   7   8
ENDBRANCH   6   7
ENDBRANCH   5   6
ENDBRANCH   4   5
ENDBRANCH   3   4
ENDBRANCH   2   3
ENDBRANCH   1   2
BRANCH   1  13
ATOM     13  C   UNL     1      46.632  36.714 -12.183  1.00  0.00     0.000 C 
BRANCH  13  14
ATOM     14  C   UNL     1      45.636  37.756 -12.727  1.00  0.00     0.000 C 
BRANCH  14  15
ATOM     15  C   UNL     1      44.294  37.136 -13.152  1.00  0.00     0.000 C 
BRANCH  15  16
ATOM     16  C   UNL     1      43.144  37.523 -12.210  1.00  0.00     0.000 C 
BRANCH  16  17
ATOM     17  C   UNL     1      42.688  36.352 -11.321  1.00  0.00     0.000 C 
BRANCH  17  18
ATOM     18  C   UNL     1      42.663  36.717  -9.827  1.00  0.00     0.000 C 
BRANCH  18  19
ATOM     19  C   UNL     1      43.953  37.375  -9.304  1.00  0.00     0.000 C 
BRANCH  19  20
ATOM     20  C   UNL     1      45.016  36.363  -8.823  1.00  0.00     0.006 C 
BRANCH  20  21
ATOM     21  C   UNL     1      44.400  35.010  -8.444  1.00  0.00     0.053 C 
BRANCH  21  22
ATOM     22  C   UNL     1      45.472  33.984  -8.250  1.00  0.00     0.041 C 
ATOM     23  O   UNL     1      46.643  34.209  -8.654  1.00  0.00    -0.550 OA
ATOM     24  O   UNL     1      45.167  32.759  -7.673  1.00  0.00    -0.550 OA
ENDBRANCH  21  22
ENDBRANCH  20  21
ENDBRANCH  19  20
ENDBRANCH  18  19
ENDBRANCH  17  18
ENDBRANCH  16  17
ENDBRANCH  15  16
ENDBRANCH  14  15
ENDBRANCH  13  14
ENDBRANCH   1  13
TORSDOF 20
ENDMDL
MODEL 8
REMARK VINA RESULT:    -4.210      2.382      4.581
REMARK INTER + INTRA:         -12.279
REMARK INTER:                  -8.902
REMARK INTRA:                  -3.377
REMARK UNBOUND:                -3.146
REMARK SMILES CCCCCCCCCCCCCCCCCCCCCC(=O)[O-]
REMARK SMILES IDX 12 1 11 2 10 3 9 4 8 5 7 6 6 7 5 8 4 9 3 10 2 11 1 12 13 13
REMARK SMILES IDX 14 14 15 15 16 16 17 17 18 18 19 19 20 20 21 21 22 22 23 23
REMARK SMILES IDX 24 24
REMARK H PARENT
REMARK Flexibility Score: inf
ROOT
ATOM      1  C   UNL     1      43.660  37.708 -12.742  1.00  0.00     0.000 C 
ENDROOT
BRANCH   1   2
ATOM      2  C   UNL     1      44.819  36.816 -13.215  1.00  0.00     0.000 C 
BRANCH   2   3
ATOM      3  C   UNL     1      44.865  35.457 -12.492  1.00  0.00     0.000 C 
BRANCH   3   4
ATOM      4  C   UNL     1      45.977  34.503 -12.962  1.00  0.00    -0.000 C 
BRANCH   4   5
ATOM      5  C   UNL     1      46.462  34.804 -14.391  1.00  0.00    -0.000 C 
BRANCH   5   6
ATOM      6  C   UNL     1      47.917  34.367 -14.625  1.00  0.00    -0.000 C 
BRANCH   6   7
ATOM      7  C   UNL     1      48.446  34.796 -16.004  1.00  0.00    -0.000 C 
BRANCH   7   8
ATOM      8  C   UNL     1      48.079  36.247 -16.353  1.00  0.00    -0.000 C 
BRANCH   8   9
ATOM      9  C   UNL     1      49.116  36.919 -17.265  1.00  0.00    -0.000 C 
BRANCH   9  10
ATOM     10  C   UNL     1      50.512  36.882 -16.627  1.00  0.00    -0.000 C 
BRANCH  10  11
ATOM     11  C   UNL     1      50.609  37.758 -15.367  1.00  0.00    -0.003 C 
ATOM     12  C   UNL     1      51.768  37.355 -14.455  1.00  0.00     0.004 C 
ENDBRANCH  10  11
ENDBRANCH   9  10
ENDBRANCH   8   9
ENDBRANCH   7   8
ENDBRANCH   6   7
ENDBRANCH   5   6
ENDBRANCH   4   5
ENDBRANCH   3   4
ENDBRANCH   2   3
ENDBRANCH   1   2
BRANCH   1  13
ATOM     13  C   UNL     1      42.635  36.948 -11.880  1.00  0.00     0.000 C 
BRANCH  13  14
ATOM     14  C   UNL     1      41.981  37.778 -10.759  1.00  0.00     0.000 C 
BRANCH  14  15
ATOM     15  C   UNL     1      42.069  37.099  -9.382  1.00  0.00     0.000 C 
BRANCH  15  16
ATOM     16  C   UNL     1      43.084  35.945  -9.361  1.00  0.00     0.000 C 
BRANCH  16  17
ATOM     17  C   UNL     1      44.224  36.178  -8.353  1.00  0.00     0.000 C 
BRANCH  17  18
ATOM     18  C   UNL     1      45.570  36.466  -9.039  1.00  0.00     0.000 C 
BRANCH  18  19
ATOM     19  C   UNL     1      45.682  37.864  -9.675  1.00  0.00     0.000 C 
BRANCH  19  20
ATOM     20  C   UNL     1      46.990  38.083 -10.467  1.00  0.00     0.006 C 
BRANCH  20  21
ATOM     21  C   UNL     1      47.797  36.789 -10.625  1.00  0.00     0.053 C 
BRANCH  21  22
ATOM     22  C   UNL     1      48.543  36.793 -11.922  1.00  0.00     0.041 C 
ATOM     23  O   UNL     1      48.166  37.535 -12.866  1.00  0.00    -0.550 OA
ATOM     24  O   UNL     1      49.622  35.937 -12.108  1.00  0.00    -0.550 OA
ENDBRANCH  21  22
ENDBRANCH  20  21
ENDBRANCH  19  20
ENDBRANCH  18  19
ENDBRANCH  17  18
ENDBRANCH  16  17
ENDBRANCH  15  16
ENDBRANCH  14  15
ENDBRANCH  13  14
ENDBRANCH   1  13
TORSDOF 20
ENDMDL
MODEL 9
REMARK VINA RESULT:    -3.558      3.551      8.134
REMARK INTER + INTRA:         -10.864
REMARK INTER:                  -7.453
REMARK INTRA:                  -3.411
REMARK UNBOUND:                -3.146
REMARK SMILES CCCCCCCCCCCCCCCCCCCCCC(=O)[O-]
REMARK SMILES IDX 12 1 11 2 10 3 9 4 8 5 7 6 6 7 5 8 4 9 3 10 2 11 1 12 13 13
REMARK SMILES IDX 14 14 15 15 16 16 17 17 18 18 19 19 20 20 21 21 22 22 23 23
REMARK SMILES IDX 24 24
REMARK H PARENT
REMARK Flexibility Score: inf
ROOT
ATOM      1  C   UNL     1      47.611  35.450 -12.241  1.00  0.00     0.000 C 
ENDROOT
BRANCH   1   2
ATOM      2  C   UNL     1      46.850  34.395 -13.060  1.00  0.00     0.000 C 
BRANCH   2   3
ATOM      3  C   UNL     1      45.326  34.613 -13.051  1.00  0.00     0.000 C 
BRANCH   3   4
ATOM      4  C   UNL     1      44.866  35.994 -12.551  1.00  0.00    -0.000 C 
BRANCH   4   5
ATOM      5  C   UNL     1      43.375  36.263 -12.819  1.00  0.00    -0.000 C 
BRANCH   5   6
ATOM      6  C   UNL     1      42.788  37.326 -11.877  1.00  0.00    -0.000 C 
BRANCH   6   7
ATOM      7  C   UNL     1      43.552  37.420 -10.545  1.00  0.00    -0.000 C 
BRANCH   7   8
ATOM      8  C   UNL     1      42.907  36.576  -9.434  1.00  0.00    -0.000 C 
BRANCH   8   9
ATOM      9  C   UNL     1      43.738  35.334  -9.074  1.00  0.00    -0.000 C 
BRANCH   9  10
ATOM     10  C   UNL     1      45.215  35.703  -8.880  1.00  0.00    -0.000 C 
BRANCH  10  11
ATOM     11  C   UNL     1      46.127  34.467  -8.800  1.00  0.00    -0.003 C 
ATOM     12  C   UNL     1      45.400  33.228  -8.278  1.00  0.00     0.004 C 
ENDBRANCH  10  11
ENDBRANCH   9  10
ENDBRANCH   8   9
ENDBRANCH   7   8
ENDBRANCH   6   7
ENDBRANCH   5   6
ENDBRANCH   4   5
ENDBRANCH   3   4
ENDBRANCH   2   3
ENDBRANCH   1   2
BRANCH   1  13
ATOM     13  C   UNL     1      48.873  35.966 -12.958  1.00  0.00     0.000 C 
BRANCH  13  14
ATOM     14  C   UNL     1      48.911  37.487 -13.197  1.00  0.00     0.000 C 
BRANCH  14  15
ATOM     15  C   UNL     1      47.572  38.046 -13.707  1.00  0.00     0.000 C 
BRANCH  15  16
ATOM     16  C   UNL     1      47.515  38.125 -15.240  1.00  0.00     0.000 C 
BRANCH  16  17
ATOM     17  C   UNL     1      46.678  36.991 -15.860  1.00  0.00     0.000 C 
BRANCH  17  18
ATOM     18  C   UNL     1      47.546  35.849 -16.414  1.00  0.00     0.000 C 
BRANCH  18  19
ATOM     19  C   UNL     1      48.786  36.308 -17.203  1.00  0.00     0.000 C 
BRANCH  19  20
ATOM     20  C   UNL     1      50.124  35.884 -16.560  1.00  0.00     0.006 C 
BRANCH  20  21
ATOM     21  C   UNL     1      50.992  37.089 -16.176  1.00  0.00     0.053 C 
BRANCH  21  22
ATOM     22  C   UNL     1      52.437  36.795 -16.429  1.00  0.00     0.041 C 
ATOM     23  O   UNL     1      53.298  37.051 -15.548  1.00  0.00    -0.550 OA
ATOM     24  O   UNL     1      52.839  36.286 -17.657  1.00  0.00    -0.550 OA
ENDBRANCH  21  22
ENDBRANCH  20  21
ENDBRANCH  19  20
ENDBRANCH  18  19
ENDBRANCH  17  18
ENDBRANCH  16  17
ENDBRANCH  15  16
ENDBRANCH  14  15
ENDBRANCH  13  14
ENDBRANCH   1  13
TORSDOF 20
ENDMDL
