MODEL 1
REMARK VINA RESULT:    13.824      0.000      0.000
REMARK INTER + INTRA:          24.650
REMARK INTER:                  25.139
REMARK INTRA:                  -0.489
REMARK UNBOUND:                -0.489
REMARK SMILES CCCCCCCCCCCCCC[C@H](C)C(=O)[O-]
REMARK SMILES IDX 9 1 10 2 11 3 12 4 13 5 14 6 15 7 16 8 17 9 18 10 19 11 8 12
REMARK SMILES IDX 7 13 6 14 5 15 4 16 3 17 2 18 1 19
REMARK H PARENT
REMARK Flexibility Score: inf
ROOT
ATOM      1  C   UNL     1     -13.112  32.419 -20.814  1.00  0.00     0.000 C 
ENDROOT
BRANCH   1   2
ATOM      2  C   UNL     1     -11.961  32.963 -21.674  1.00  0.00     0.000 C 
BRANCH   2   3
ATOM      3  C   UNL     1     -11.012  33.879 -20.882  1.00  0.00     0.000 C 
BRANCH   3   4
ATOM      4  C   UNL     1      -9.870  33.096 -20.211  1.00  0.00     0.000 C 
BRANCH   4   5
ATOM      5  C   UNL     1      -9.182  33.901 -19.096  1.00  0.00     0.001 C 
BRANCH   5   6
ATOM      6  C   UNL     1      -8.473  33.021 -18.043  1.00  0.00     0.009 C 
BRANCH   6   7
ATOM      7  C   UNL     1      -8.030  33.709 -16.726  1.00  0.00     0.032 C 
ATOM      8  C   UNL     1      -6.694  34.459 -16.852  1.00  0.00     0.014 C 
BRANCH   7   9
ATOM      9  C   UNL     1      -8.052  32.777 -15.544  1.00  0.00     0.044 C 
ATOM     10  O   UNL     1      -8.161  31.531 -15.703  1.00  0.00    -0.550 OA
ATOM     11  O   UNL     1      -8.009  33.297 -14.256  1.00  0.00    -0.550 OA
ENDBRANCH   7   9
ENDBRANCH   6   7
ENDBRANCH   5   6
ENDBRANCH   4   5
ENDBRANCH   3   4
ENDBRANCH   2   3
ENDBRANCH   1   2
BRANCH   1  12
ATOM     12  C   UNL     1     -13.389  30.929 -21.069  1.00  0.00     0.000 C 
BRANCH  12  13
ATOM     13  C   UNL     1     -14.001  30.264 -19.830  1.00  0.00    -0.000 C 
BRANCH  13  14
ATOM     14  C   UNL     1     -15.316  29.551 -20.181  1.00  0.00    -0.000 C 
BRANCH  14  15
ATOM     15  C   UNL     1     -15.826  28.656 -19.031  1.00  0.00    -0.000 C 
BRANCH  15  16
ATOM     16  C   UNL     1     -16.710  27.485 -19.502  1.00  0.00    -0.000 C 
BRANCH  16  17
ATOM     17  C   UNL     1     -17.325  26.640 -18.370  1.00  0.00    -0.000 C 
BRANCH  17  18
ATOM     18  C   UNL     1     -16.709  25.238 -18.201  1.00  0.00    -0.003 C 
ATOM     19  C   UNL     1     -16.180  24.657 -19.513  1.00  0.00     0.004 C 
ENDBRANCH  17  18
ENDBRANCH  16  17
ENDBRANCH  15  16
ENDBRANCH  14  15
ENDBRANCH  13  14
ENDBRANCH  12  13
ENDBRANCH   1  12
TORSDOF 14
ENDMDL
MODEL 2
REMARK VINA RESULT:    14.286      6.865     11.594
REMARK INTER + INTRA:          25.489
REMARK INTER:                  26.184
REMARK INTRA:                  -0.696
REMARK UNBOUND:                -0.489
REMARK SMILES CCCCCCCCCCCCCC[C@H](C)C(=O)[O-]
REMARK SMILES IDX 9 1 10 2 11 3 12 4 13 5 14 6 15 7 16 8 17 9 18 10 19 11 8 12
REMARK SMILES IDX 7 13 6 14 5 15 4 16 3 17 2 18 1 19
REMARK H PARENT
REMARK Flexibility Score: inf
ROOT
ATOM      1  C   UNL     1      -7.558  39.127 -15.414  1.00  0.00     0.000 C 
ENDROOT
BRANCH   1   2
ATOM      2  C   UNL     1      -7.532  38.008 -16.467  1.00  0.00     0.000 C 
BRANCH   2   3
ATOM      3  C   UNL     1      -6.270  37.135 -16.370  1.00  0.00     0.000 C 
BRANCH   3   4
ATOM      4  C   UNL     1      -5.938  36.438 -17.700  1.00  0.00     0.000 C 
BRANCH   4   5
ATOM      5  C   UNL     1      -5.942  34.904 -17.577  1.00  0.00     0.001 C 
BRANCH   5   6
ATOM      6  C   UNL     1      -6.248  34.397 -16.151  1.00  0.00     0.009 C 
BRANCH   6   7
ATOM      7  C   UNL     1      -7.682  33.876 -15.876  1.00  0.00     0.032 C 
ATOM      8  C   UNL     1      -7.868  33.332 -14.450  1.00  0.00     0.014 C 
BRANCH   7   9
ATOM      9  C   UNL     1      -8.162  32.906 -16.924  1.00  0.00     0.044 C 
ATOM     10  O   UNL     1      -8.654  33.316 -18.009  1.00  0.00    -0.550 OA
ATOM     11  O   UNL     1      -8.113  31.541 -16.671  1.00  0.00    -0.550 OA
ENDBRANCH   7   9
ENDBRANCH   6   7
ENDBRANCH   5   6
ENDBRANCH   4   5
ENDBRANCH   3   4
ENDBRANCH   2   3
ENDBRANCH   1   2
BRANCH   1  12
ATOM     12  C   UNL     1      -8.817  40.003 -15.510  1.00  0.00     0.000 C 
BRANCH  12  13
ATOM     13  C   UNL     1      -8.768  41.150 -14.494  1.00  0.00    -0.000 C 
BRANCH  13  14
ATOM     14  C   UNL     1      -7.317  41.559 -14.194  1.00  0.00    -0.000 C 
BRANCH  14  15
ATOM     15  C   UNL     1      -7.006  41.561 -12.682  1.00  0.00    -0.000 C 
BRANCH  15  16
ATOM     16  C   UNL     1      -8.111  42.204 -11.822  1.00  0.00    -0.000 C 
BRANCH  16  17
ATOM     17  C   UNL     1      -8.867  41.229 -10.900  1.00  0.00    -0.000 C 
BRANCH  17  18
ATOM     18  C   UNL     1     -10.265  40.820 -11.399  1.00  0.00    -0.003 C 
ATOM     19  C   UNL     1     -11.383  41.216 -10.433  1.00  0.00     0.004 C 
ENDBRANCH  17  18
ENDBRANCH  16  17
ENDBRANCH  15  16
ENDBRANCH  14  15
ENDBRANCH  13  14
ENDBRANCH  12  13
ENDBRANCH   1  12
TORSDOF 14
ENDMDL
MODEL 3
REMARK VINA RESULT:    15.496      4.021      9.656
REMARK INTER + INTRA:          27.690
REMARK INTER:                  28.179
REMARK INTRA:                  -0.489
REMARK UNBOUND:                -0.489
REMARK SMILES CCCCCCCCCCCCCC[C@H](C)C(=O)[O-]
REMARK SMILES IDX 9 1 10 2 11 3 12 4 13 5 14 6 15 7 16 8 17 9 18 10 19 11 8 12
REMARK SMILES IDX 7 13 6 14 5 15 4 16 3 17 2 18 1 19
REMARK H PARENT
REMARK Flexibility Score: inf
ROOT
ATOM      1  C   UNL     1     -13.394  32.199 -20.756  1.00  0.00     0.000 C 
ENDROOT
BRANCH   1   2
ATOM      2  C   UNL     1     -13.618  30.678 -20.750  1.00  0.00     0.000 C 
BRANCH   2   3
ATOM      3  C   UNL     1     -14.672  30.240 -19.719  1.00  0.00     0.000 C 
BRANCH   3   4
ATOM      4  C   UNL     1     -15.320  28.893 -20.083  1.00  0.00     0.000 C 
BRANCH   4   5
ATOM      5  C   UNL     1     -16.026  28.238 -18.884  1.00  0.00     0.001 C 
BRANCH   5   6
ATOM      6  C   UNL     1     -17.132  27.238 -19.285  1.00  0.00     0.009 C 
BRANCH   6   7
ATOM      7  C   UNL     1     -17.204  25.905 -18.496  1.00  0.00     0.032 C 
ATOM      8  C   UNL     1     -16.919  26.072 -16.995  1.00  0.00     0.014 C 
BRANCH   7   9
ATOM      9  C   UNL     1     -16.372  24.813 -19.117  1.00  0.00     0.044 C 
ATOM     10  O   UNL     1     -16.072  24.844 -20.341  1.00  0.00    -0.550 OA
ATOM     11  O   UNL     1     -15.975  23.728 -18.346  1.00  0.00    -0.550 OA
ENDBRANCH   7   9
ENDBRANCH   6   7
ENDBRANCH   5   6
ENDBRANCH   4   5
ENDBRANCH   3   4
ENDBRANCH   2   3
ENDBRANCH   1   2
BRANCH   1  12
ATOM     12  C   UNL     1     -12.161  32.614 -21.573  1.00  0.00     0.000 C 
BRANCH  12  13
ATOM     13  C   UNL     1     -11.383  33.730 -20.866  1.00  0.00    -0.000 C 
BRANCH  13  14
ATOM     14  C   UNL     1      -9.986  33.246 -20.447  1.00  0.00    -0.000 C 
BRANCH  14  15
ATOM     15  C   UNL     1      -9.475  33.954 -19.173  1.00  0.00    -0.000 C 
BRANCH  15  16
ATOM     16  C   UNL     1      -8.577  33.068 -18.289  1.00  0.00    -0.000 C 
BRANCH  16  17
ATOM     17  C   UNL     1      -8.591  33.420 -16.789  1.00  0.00    -0.000 C 
BRANCH  17  18
ATOM     18  C   UNL     1      -7.216  33.782 -16.196  1.00  0.00    -0.003 C 
ATOM     19  C   UNL     1      -6.436  34.774 -17.059  1.00  0.00     0.004 C 
ENDBRANCH  17  18
ENDBRANCH  16  17
ENDBRANCH  15  16
ENDBRANCH  14  15
ENDBRANCH  13  14
ENDBRANCH  12  13
ENDBRANCH   1  12
TORSDOF 14
ENDMDL
MODEL 4
REMARK VINA RESULT:    15.558      8.019      9.848
REMARK INTER + INTRA:          27.802
REMARK INTER:                  28.320
REMARK INTRA:                  -0.517
REMARK UNBOUND:                -0.489
REMARK SMILES CCCCCCCCCCCCCC[C@H](C)C(=O)[O-]
REMARK SMILES IDX 9 1 10 2 11 3 12 4 13 5 14 6 15 7 16 8 17 9 18 10 19 11 8 12
REMARK SMILES IDX 7 13 6 14 5 15 4 16 3 17 2 18 1 19
REMARK H PARENT
REMARK Flexibility Score: inf
ROOT
ATOM      1  C   UNL     1     -15.849  23.903 -20.552  1.00  0.00     0.000 C 
ENDROOT
BRANCH   1   2
ATOM      2  C   UNL     1     -16.467  23.116 -19.386  1.00  0.00     0.000 C 
BRANCH   2   3
ATOM      3  C   UNL     1     -16.101  23.708 -18.014  1.00  0.00     0.000 C 
BRANCH   3   4
ATOM      4  C   UNL     1     -16.366  25.221 -17.942  1.00  0.00     0.000 C 
BRANCH   4   5
ATOM      5  C   UNL     1     -17.022  25.764 -19.222  1.00  0.00     0.001 C 
BRANCH   5   6
ATOM      6  C   UNL     1     -16.710  27.251 -19.497  1.00  0.00     0.009 C 
BRANCH   6   7
ATOM      7  C   UNL     1     -17.916  28.200 -19.718  1.00  0.00     0.032 C 
ATOM      8  C   UNL     1     -19.164  27.794 -18.916  1.00  0.00     0.014 C 
BRANCH   7   9
ATOM      9  C   UNL     1     -18.223  28.426 -21.175  1.00  0.00     0.044 C 
ATOM     10  O   UNL     1     -19.035  27.683 -21.789  1.00  0.00    -0.550 OA
ATOM     11  O   UNL     1     -17.563  29.432 -21.869  1.00  0.00    -0.550 OA
ENDBRANCH   7   9
ENDBRANCH   6   7
ENDBRANCH   5   6
ENDBRANCH   4   5
ENDBRANCH   3   4
ENDBRANCH   2   3
ENDBRANCH   1   2
BRANCH   1  12
ATOM     12  C   UNL     1     -16.340  23.413 -21.924  1.00  0.00     0.000 C 
BRANCH  12  13
ATOM     13  C   UNL     1     -15.402  23.880 -23.042  1.00  0.00    -0.000 C 
BRANCH  13  14
ATOM     14  C   UNL     1     -14.572  25.094 -22.595  1.00  0.00    -0.000 C 
BRANCH  14  15
ATOM     15  C   UNL     1     -13.072  24.934 -22.920  1.00  0.00    -0.000 C 
BRANCH  15  16
ATOM     16  C   UNL     1     -12.633  23.472 -23.125  1.00  0.00    -0.000 C 
BRANCH  16  17
ATOM     17  C   UNL     1     -11.797  22.877 -21.975  1.00  0.00    -0.000 C 
BRANCH  17  18
ATOM     18  C   UNL     1     -11.870  23.661 -20.651  1.00  0.00    -0.003 C 
ATOM     19  C   UNL     1     -12.652  22.924 -19.564  1.00  0.00     0.004 C 
ENDBRANCH  17  18
ENDBRANCH  16  17
ENDBRANCH  15  16
ENDBRANCH  14  15
ENDBRANCH  13  14
ENDBRANCH  12  13
ENDBRANCH   1  12
TORSDOF 14
ENDMDL
MODEL 5
REMARK VINA RESULT:    15.719      3.774      9.672
REMARK INTER + INTRA:          28.096
REMARK INTER:                  28.639
REMARK INTRA:                  -0.543
REMARK UNBOUND:                -0.489
REMARK SMILES CCCCCCCCCCCCCC[C@H](C)C(=O)[O-]
REMARK SMILES IDX 9 1 10 2 11 3 12 4 13 5 14 6 15 7 16 8 17 9 18 10 19 11 8 12
REMARK SMILES IDX 7 13 6 14 5 15 4 16 3 17 2 18 1 19
REMARK H PARENT
REMARK Flexibility Score: inf
ROOT
ATOM      1  C   UNL     1     -11.850  32.653 -21.424  1.00  0.00     0.000 C 
ENDROOT
BRANCH   1   2
ATOM      2  C   UNL     1     -13.188  32.269 -20.774  1.00  0.00     0.000 C 
BRANCH   2   3
ATOM      3  C   UNL     1     -13.461  30.756 -20.831  1.00  0.00     0.000 C 
BRANCH   3   4
ATOM      4  C   UNL     1     -14.378  30.285 -19.690  1.00  0.00     0.000 C 
BRANCH   4   5
ATOM      5  C   UNL     1     -15.422  29.258 -20.161  1.00  0.00     0.001 C 
BRANCH   5   6
ATOM      6  C   UNL     1     -16.006  28.398 -19.020  1.00  0.00     0.009 C 
BRANCH   6   7
ATOM      7  C   UNL     1     -17.043  27.313 -19.409  1.00  0.00     0.032 C 
ATOM      8  C   UNL     1     -18.496  27.733 -19.132  1.00  0.00     0.014 C 
BRANCH   7   9
ATOM      9  C   UNL     1     -16.720  25.961 -18.829  1.00  0.00     0.044 C 
ATOM     10  O   UNL     1     -16.267  25.036 -19.556  1.00  0.00    -0.550 OA
ATOM     11  O   UNL     1     -16.974  25.710 -17.487  1.00  0.00    -0.550 OA
ENDBRANCH   7   9
ENDBRANCH   6   7
ENDBRANCH   5   6
ENDBRANCH   4   5
ENDBRANCH   3   4
ENDBRANCH   2   3
ENDBRANCH   1   2
BRANCH   1  12
ATOM     12  C   UNL     1     -11.105  33.748 -20.646  1.00  0.00     0.000 C 
BRANCH  12  13
ATOM     13  C   UNL     1      -9.714  33.267 -20.215  1.00  0.00    -0.000 C 
BRANCH  13  14
ATOM     14  C   UNL     1      -9.334  33.842 -18.842  1.00  0.00    -0.000 C 
BRANCH  14  15
ATOM     15  C   UNL     1      -8.476  32.864 -18.010  1.00  0.00    -0.000 C 
BRANCH  15  16
ATOM     16  C   UNL     1      -8.519  33.136 -16.494  1.00  0.00    -0.000 C 
BRANCH  16  17
ATOM     17  C   UNL     1      -7.600  34.275 -16.012  1.00  0.00    -0.000 C 
BRANCH  17  18
ATOM     18  C   UNL     1      -6.263  34.391 -16.767  1.00  0.00    -0.003 C 
ATOM     19  C   UNL     1      -5.966  35.815 -17.240  1.00  0.00     0.004 C 
ENDBRANCH  17  18
ENDBRANCH  16  17
ENDBRANCH  15  16
ENDBRANCH  14  15
ENDBRANCH  13  14
ENDBRANCH  12  13
ENDBRANCH   1  12
TORSDOF 14
ENDMDL
MODEL 6
REMARK VINA RESULT:    15.775      6.834     10.921
REMARK INTER + INTRA:          28.198
REMARK INTER:                  28.806
REMARK INTRA:                  -0.608
REMARK UNBOUND:                -0.489
REMARK SMILES CCCCCCCCCCCCCC[C@H](C)C(=O)[O-]
REMARK SMILES IDX 9 1 10 2 11 3 12 4 13 5 14 6 15 7 16 8 17 9 18 10 19 11 8 12
REMARK SMILES IDX 7 13 6 14 5 15 4 16 3 17 2 18 1 19
REMARK H PARENT
REMARK Flexibility Score: inf
ROOT
ATOM      1  C   UNL     1      -8.490  38.697 -15.680  1.00  0.00     0.000 C 
ENDROOT
BRANCH   1   2
ATOM      2  C   UNL     1      -7.346  38.408 -16.664  1.00  0.00     0.000 C 
BRANCH   2   3
ATOM      3  C   UNL     1      -6.535  37.159 -16.278  1.00  0.00     0.000 C 
BRANCH   3   4
ATOM      4  C   UNL     1      -6.088  36.350 -17.507  1.00  0.00     0.000 C 
BRANCH   4   5
ATOM      5  C   UNL     1      -5.973  34.845 -17.210  1.00  0.00     0.001 C 
BRANCH   5   6
ATOM      6  C   UNL     1      -6.537  34.440 -15.830  1.00  0.00     0.009 C 
BRANCH   6   7
ATOM      7  C   UNL     1      -7.903  33.707 -15.809  1.00  0.00     0.032 C 
ATOM      8  C   UNL     1      -8.111  32.845 -14.553  1.00  0.00     0.014 C 
BRANCH   7   9
ATOM      9  C   UNL     1      -8.175  32.942 -17.078  1.00  0.00     0.044 C 
ATOM     10  O   UNL     1      -8.634  33.522 -18.098  1.00  0.00    -0.550 OA
ATOM     11  O   UNL     1      -7.969  31.568 -17.110  1.00  0.00    -0.550 OA
ENDBRANCH   7   9
ENDBRANCH   6   7
ENDBRANCH   5   6
ENDBRANCH   4   5
ENDBRANCH   3   4
ENDBRANCH   2   3
ENDBRANCH   1   2
BRANCH   1  12
ATOM     12  C   UNL     1      -8.623  40.191 -15.347  1.00  0.00     0.000 C 
BRANCH  12  13
ATOM     13  C   UNL     1      -9.983  40.493 -14.707  1.00  0.00    -0.000 C 
BRANCH  13  14
ATOM     14  C   UNL     1      -9.819  40.918 -13.240  1.00  0.00    -0.000 C 
BRANCH  14  15
ATOM     15  C   UNL     1     -11.127  40.772 -12.434  1.00  0.00    -0.000 C 
BRANCH  15  16
ATOM     16  C   UNL     1     -11.895  42.096 -12.253  1.00  0.00    -0.000 C 
BRANCH  16  17
ATOM     17  C   UNL     1     -12.273  42.812 -13.564  1.00  0.00    -0.000 C 
BRANCH  17  18
ATOM     18  C   UNL     1     -13.326  42.083 -14.419  1.00  0.00    -0.003 C 
ATOM     19  C   UNL     1     -13.351  42.561 -15.871  1.00  0.00     0.004 C 
ENDBRANCH  17  18
ENDBRANCH  16  17
ENDBRANCH  15  16
ENDBRANCH  14  15
ENDBRANCH  13  14
ENDBRANCH  12  13
ENDBRANCH   1  12
TORSDOF 14
ENDMDL
MODEL 7
REMARK VINA RESULT:    16.031      6.953      9.868
REMARK INTER + INTRA:          28.663
REMARK INTER:                  29.330
REMARK INTRA:                  -0.667
REMARK UNBOUND:                -0.489
REMARK SMILES CCCCCCCCCCCCCC[C@H](C)C(=O)[O-]
REMARK SMILES IDX 9 1 10 2 11 3 12 4 13 5 14 6 15 7 16 8 17 9 18 10 19 11 8 12
REMARK SMILES IDX 7 13 6 14 5 15 4 16 3 17 2 18 1 19
REMARK H PARENT
REMARK Flexibility Score: inf
ROOT
ATOM      1  C   UNL     1     -15.927  23.791 -19.081  1.00  0.00     0.000 C 
ENDROOT
BRANCH   1   2
ATOM      2  C   UNL     1     -16.881  24.974 -18.855  1.00  0.00     0.000 C 
BRANCH   2   3
ATOM      3  C   UNL     1     -16.610  25.708 -17.531  1.00  0.00     0.000 C 
BRANCH   3   4
ATOM      4  C   UNL     1     -17.107  27.163 -17.557  1.00  0.00     0.000 C 
BRANCH   4   5
ATOM      5  C   UNL     1     -18.559  27.279 -18.049  1.00  0.00     0.001 C 
BRANCH   5   6
ATOM      6  C   UNL     1     -18.726  28.189 -19.286  1.00  0.00     0.009 C 
BRANCH   6   7
ATOM      7  C   UNL     1     -17.656  28.071 -20.402  1.00  0.00     0.032 C 
ATOM      8  C   UNL     1     -16.388  28.893 -20.117  1.00  0.00     0.014 C 
BRANCH   7   9
ATOM      9  C   UNL     1     -18.212  28.338 -21.776  1.00  0.00     0.044 C 
ATOM     10  O   UNL     1     -18.123  27.475 -22.690  1.00  0.00    -0.550 OA
ATOM     11  O   UNL     1     -18.784  29.572 -22.058  1.00  0.00    -0.550 OA
ENDBRANCH   7   9
ENDBRANCH   6   7
ENDBRANCH   5   6
ENDBRANCH   4   5
ENDBRANCH   3   4
ENDBRANCH   2   3
ENDBRANCH   1   2
BRANCH   1  12
ATOM     12  C   UNL     1     -16.117  23.129 -20.454  1.00  0.00     0.000 C 
BRANCH  12  13
ATOM     13  C   UNL     1     -14.767  22.876 -21.135  1.00  0.00    -0.000 C 
BRANCH  13  14
ATOM     14  C   UNL     1     -14.838  23.194 -22.636  1.00  0.00    -0.000 C 
BRANCH  14  15
ATOM     15  C   UNL     1     -13.866  24.321 -23.047  1.00  0.00    -0.000 C 
BRANCH  15  16
ATOM     16  C   UNL     1     -12.383  23.906 -23.010  1.00  0.00    -0.000 C 
BRANCH  16  17
ATOM     17  C   UNL     1     -11.380  25.069 -23.125  1.00  0.00    -0.000 C 
BRANCH  17  18
ATOM     18  C   UNL     1     -12.014  26.473 -23.124  1.00  0.00    -0.003 C 
ATOM     19  C   UNL     1     -10.978  27.596 -23.065  1.00  0.00     0.004 C 
ENDBRANCH  17  18
ENDBRANCH  16  17
ENDBRANCH  15  16
ENDBRANCH  14  15
ENDBRANCH  13  14
ENDBRANCH  12  13
ENDBRANCH   1  12
TORSDOF 14
ENDMDL
MODEL 8
REMARK VINA RESULT:    16.125      7.459     10.501
REMARK INTER + INTRA:          28.833
REMARK INTER:                  29.623
REMARK INTRA:                  -0.790
REMARK UNBOUND:                -0.489
REMARK SMILES CCCCCCCCCCCCCC[C@H](C)C(=O)[O-]
REMARK SMILES IDX 9 1 10 2 11 3 12 4 13 5 14 6 15 7 16 8 17 9 18 10 19 11 8 12
REMARK SMILES IDX 7 13 6 14 5 15 4 16 3 17 2 18 1 19
REMARK H PARENT
REMARK Flexibility Score: inf
ROOT
ATOM      1  C   UNL     1      -7.788  37.862 -16.050  1.00  0.00     0.000 C 
ENDROOT
BRANCH   1   2
ATOM      2  C   UNL     1      -8.027  39.367 -16.244  1.00  0.00     0.000 C 
BRANCH   2   3
ATOM      3  C   UNL     1      -8.842  39.989 -15.096  1.00  0.00     0.000 C 
BRANCH   3   4
ATOM      4  C   UNL     1      -8.222  41.300 -14.584  1.00  0.00     0.000 C 
BRANCH   4   5
ATOM      5  C   UNL     1      -8.949  41.848 -13.344  1.00  0.00     0.001 C 
BRANCH   5   6
ATOM      6  C   UNL     1      -9.364  40.757 -12.334  1.00  0.00     0.009 C 
BRANCH   6   7
ATOM      7  C   UNL     1     -10.747  40.913 -11.649  1.00  0.00     0.032 C 
ATOM      8  C   UNL     1     -11.735  41.766 -12.462  1.00  0.00     0.014 C 
BRANCH   7   9
ATOM      9  C   UNL     1     -10.641  41.370 -10.218  1.00  0.00     0.044 C 
ATOM     10  O   UNL     1     -11.643  41.836  -9.611  1.00  0.00    -0.550 OA
ATOM     11  O   UNL     1      -9.412  41.331  -9.572  1.00  0.00    -0.550 OA
ENDBRANCH   7   9
ENDBRANCH   6   7
ENDBRANCH   5   6
ENDBRANCH   4   5
ENDBRANCH   3   4
ENDBRANCH   2   3
ENDBRANCH   1   2
BRANCH   1  12
ATOM     12  C   UNL     1      -6.345  37.444 -16.375  1.00  0.00     0.000 C 
BRANCH  12  13
ATOM     13  C   UNL     1      -6.208  37.042 -17.848  1.00  0.00    -0.000 C 
BRANCH  13  14
ATOM     14  C   UNL     1      -6.326  35.520 -18.017  1.00  0.00    -0.000 C 
BRANCH  14  15
ATOM     15  C   UNL     1      -5.875  34.750 -16.757  1.00  0.00    -0.000 C 
BRANCH  15  16
ATOM     16  C   UNL     1      -7.037  34.116 -15.968  1.00  0.00    -0.000 C 
BRANCH  16  17
ATOM     17  C   UNL     1      -7.978  33.225 -16.801  1.00  0.00    -0.000 C 
BRANCH  17  18
ATOM     18  C   UNL     1      -8.396  31.910 -16.117  1.00  0.00    -0.003 C 
ATOM     19  C   UNL     1      -8.521  32.040 -14.599  1.00  0.00     0.004 C 
ENDBRANCH  17  18
ENDBRANCH  16  17
ENDBRANCH  15  16
ENDBRANCH  14  15
ENDBRANCH  13  14
ENDBRANCH  12  13
ENDBRANCH   1  12
TORSDOF 14
ENDMDL
MODEL 9
REMARK VINA RESULT:    16.434      4.184      6.954
REMARK INTER + INTRA:          29.396
REMARK INTER:                  28.499
REMARK INTRA:                   0.897
REMARK UNBOUND:                -0.489
REMARK SMILES CCCCCCCCCCCCCC[C@H](C)C(=O)[O-]
REMARK SMILES IDX 9 1 10 2 11 3 12 4 13 5 14 6 15 7 16 8 17 9 18 10 19 11 8 12
REMARK SMILES IDX 7 13 6 14 5 15 4 16 3 17 2 18 1 19
REMARK H PARENT
REMARK Flexibility Score: inf
ROOT
ATOM      1  C   UNL     1     -16.591  26.346 -19.302  1.00  0.00     0.000 C 
ENDROOT
BRANCH   1   2
ATOM      2  C   UNL     1     -17.170  27.637 -18.701  1.00  0.00     0.000 C 
BRANCH   2   3
ATOM      3  C   UNL     1     -16.101  28.725 -18.500  1.00  0.00     0.000 C 
BRANCH   3   4
ATOM      4  C   UNL     1     -15.896  29.583 -19.761  1.00  0.00     0.000 C 
BRANCH   4   5
ATOM      5  C   UNL     1     -14.536  30.301 -19.768  1.00  0.00     0.001 C 
BRANCH   5   6
ATOM      6  C   UNL     1     -14.405  31.370 -20.875  1.00  0.00     0.009 C 
BRANCH   6   7
ATOM      7  C   UNL     1     -13.080  31.399 -21.679  1.00  0.00     0.032 C 
ATOM      8  C   UNL     1     -12.013  30.440 -21.127  1.00  0.00     0.014 C 
BRANCH   7   9
ATOM      9  C   UNL     1     -12.547  32.794 -21.876  1.00  0.00     0.044 C 
ATOM     10  O   UNL     1     -12.705  33.399 -22.971  1.00  0.00    -0.550 OA
ATOM     11  O   UNL     1     -11.822  33.403 -20.860  1.00  0.00    -0.550 OA
ENDBRANCH   7   9
ENDBRANCH   6   7
ENDBRANCH   5   6
ENDBRANCH   4   5
ENDBRANCH   3   4
ENDBRANCH   2   3
ENDBRANCH   1   2
BRANCH   1  12
ATOM     12  C   UNL     1     -16.468  25.215 -18.270  1.00  0.00     0.000 C 
BRANCH  12  13
ATOM     13  C   UNL     1     -15.990  23.917 -18.931  1.00  0.00    -0.000 C 
BRANCH  13  14
ATOM     14  C   UNL     1     -16.376  23.881 -20.418  1.00  0.00    -0.000 C 
BRANCH  14  15
ATOM     15  C   UNL     1     -15.347  23.114 -21.276  1.00  0.00    -0.000 C 
BRANCH  15  16
ATOM     16  C   UNL     1     -13.990  22.904 -20.577  1.00  0.00    -0.000 C 
BRANCH  16  17
ATOM     17  C   UNL     1     -12.765  22.943 -21.511  1.00  0.00    -0.000 C 
BRANCH  17  18
ATOM     18  C   UNL     1     -13.081  23.292 -22.977  1.00  0.00    -0.003 C 
ATOM     19  C   UNL     1     -14.300  24.203 -23.125  1.00  0.00     0.004 C 
ENDBRANCH  17  18
ENDBRANCH  16  17
ENDBRANCH  15  16
ENDBRANCH  14  15
ENDBRANCH  13  14
ENDBRANCH  12  13
ENDBRANCH   1  12
TORSDOF 14
ENDMDL
