MODEL 1
REMARK VINA RESULT:    -4.252      0.000      0.000
REMARK INTER + INTRA:          -8.909
REMARK INTER:                  -6.613
REMARK INTRA:                  -2.296
REMARK UNBOUND:                -2.296
REMARK SMILES COc1cc(CNC(=O)CCCCC=CC(C)C)ccc1O
REMARK SMILES IDX 11 1 12 2 13 3 14 4 15 5 16 6 17 7 18 8 10 9 8 10 9 11 7 12
REMARK SMILES IDX 6 14 5 15 4 16 19 17 3 18 20 19 21 20 2 21 1 22 22 23
REMARK H PARENT 7 13 22 24
REMARK Flexibility Score: inf
ROOT
ATOM      1  C   UNL     1      -3.123 137.379 186.214  1.00  0.00     0.010 C 
ENDROOT
BRANCH   1   2
ATOM      2  C   UNL     1      -2.608 138.592 187.009  1.00  0.00     0.005 C 
BRANCH   2   3
ATOM      3  C   UNL     1      -2.669 139.894 186.197  1.00  0.00     0.027 C 
BRANCH   3   4
ATOM      4  C   UNL     1      -2.094 139.726 184.812  1.00  0.00    -0.031 C 
ATOM      5  C   UNL     1      -2.741 139.877 183.637  1.00  0.00    -0.028 C 
BRANCH   5   6
ATOM      6  C   UNL     1      -4.212 140.174 183.408  1.00  0.00     0.005 C 
ATOM      7  C   UNL     1      -4.442 141.137 182.237  1.00  0.00     0.012 C 
ATOM      8  C   UNL     1      -5.084 138.918 183.316  1.00  0.00     0.012 C 
ENDBRANCH   5   6
ENDBRANCH   3   4
ENDBRANCH   2   3
ENDBRANCH   1   2
BRANCH   1   9
ATOM      9  C   UNL     1      -2.083 136.254 186.129  1.00  0.00     0.100 C 
BRANCH   9  10
ATOM     10  C   UNL     1      -1.880 135.771 184.721  1.00  0.00     0.220 C 
ATOM     11  O   UNL     1      -2.609 134.846 184.270  1.00  0.00    -0.275 OA
ATOM     12  N   UNL     1      -0.851 136.346 183.902  1.00  0.00    -0.352 N 
ATOM     13  H   UNL     1      -0.228 137.082 184.304  1.00  0.00     0.163 HD
BRANCH  12  14
ATOM     14  C   UNL     1      -0.685 135.999 182.493  1.00  0.00     0.151 C 
BRANCH  14  15
ATOM     15  C   UNL     1      -1.192 137.119 181.626  1.00  0.00    -0.025 A 
ATOM     16  C   UNL     1      -2.511 137.106 181.143  1.00  0.00     0.056 A 
ATOM     17  C   UNL     1      -0.361 138.209 181.335  1.00  0.00     0.009 A 
ATOM     18  C   UNL     1      -2.988 138.165 180.347  1.00  0.00     0.160 A 
ATOM     19  C   UNL     1      -0.830 139.262 180.548  1.00  0.00     0.050 A 
ATOM     20  C   UNL     1      -2.138 139.241 180.049  1.00  0.00     0.157 A 
BRANCH  18  21
ATOM     21  O   UNL     1      -4.299 138.191 179.846  1.00  0.00    -0.493 OA
ATOM     22  C   UNL     1      -5.135 137.046 179.714  1.00  0.00     0.278 C 
ENDBRANCH  18  21
BRANCH  20  23
ATOM     23  O   UNL     1      -2.609 140.291 179.264  1.00  0.00    -0.504 OA
ATOM     24  H   UNL     1      -1.975 140.947 178.822  1.00  0.00     0.293 HD
ENDBRANCH  20  23
ENDBRANCH  14  15
ENDBRANCH  12  14
ENDBRANCH   9  10
ENDBRANCH   1   9
TORSDOF 10
ENDMDL
MODEL 2
REMARK VINA RESULT:    -4.197      2.417      6.279
REMARK INTER + INTRA:          -8.824
REMARK INTER:                  -6.859
REMARK INTRA:                  -1.965
REMARK UNBOUND:                -2.296
REMARK SMILES COc1cc(CNC(=O)CCCCC=CC(C)C)ccc1O
REMARK SMILES IDX 11 1 12 2 13 3 14 4 15 5 16 6 17 7 18 8 10 9 8 10 9 11 7 12
REMARK SMILES IDX 6 14 5 15 4 16 19 17 3 18 20 19 21 20 2 21 1 22 22 23
REMARK H PARENT 7 13 22 24
REMARK Flexibility Score: inf
ROOT
ATOM      1  C   UNL     1      -3.498 137.731 177.981  1.00  0.00     0.010 C 
ENDROOT
BRANCH   1   2
ATOM      2  C   UNL     1      -3.999 136.854 179.144  1.00  0.00     0.005 C 
BRANCH   2   3
ATOM      3  C   UNL     1      -2.847 136.204 179.925  1.00  0.00     0.027 C 
BRANCH   3   4
ATOM      4  C   UNL     1      -3.347 135.246 180.978  1.00  0.00    -0.031 C 
ATOM      5  C   UNL     1      -2.762 134.096 181.375  1.00  0.00    -0.028 C 
BRANCH   5   6
ATOM      6  C   UNL     1      -1.510 133.439 180.822  1.00  0.00     0.005 C 
ATOM      7  C   UNL     1      -0.445 133.201 181.899  1.00  0.00     0.012 C 
ATOM      8  C   UNL     1      -1.794 132.186 179.988  1.00  0.00     0.012 C 
ENDBRANCH   5   6
ENDBRANCH   3   4
ENDBRANCH   2   3
ENDBRANCH   1   2
BRANCH   1   9
ATOM      9  C   UNL     1      -3.830 139.215 178.187  1.00  0.00     0.100 C 
BRANCH   9  10
ATOM     10  C   UNL     1      -3.218 139.766 179.445  1.00  0.00     0.220 C 
ATOM     11  O   UNL     1      -3.946 140.382 180.271  1.00  0.00    -0.275 OA
ATOM     12  N   UNL     1      -1.814 139.610 179.693  1.00  0.00    -0.352 N 
ATOM     13  H   UNL     1      -1.218 139.133 178.979  1.00  0.00     0.163 HD
BRANCH  12  14
ATOM     14  C   UNL     1      -1.189 140.020 180.948  1.00  0.00     0.151 C 
BRANCH  14  15
ATOM     15  C   UNL     1      -1.220 138.883 181.932  1.00  0.00    -0.025 A 
ATOM     16  C   UNL     1      -2.170 138.861 182.966  1.00  0.00     0.056 A 
ATOM     17  C   UNL     1      -0.327 137.813 181.793  1.00  0.00     0.009 A 
ATOM     18  C   UNL     1      -2.209 137.786 183.875  1.00  0.00     0.160 A 
ATOM     19  C   UNL     1      -0.362 136.744 182.690  1.00  0.00     0.050 A 
ATOM     20  C   UNL     1      -1.296 136.731 183.733  1.00  0.00     0.157 A 
BRANCH  18  21
ATOM     21  O   UNL     1      -3.144 137.724 184.920  1.00  0.00    -0.493 OA
ATOM     22  C   UNL     1      -3.015 138.413 186.160  1.00  0.00     0.278 C 
ENDBRANCH  18  21
BRANCH  20  23
ATOM     23  O   UNL     1      -1.333 135.665 184.630  1.00  0.00    -0.504 OA
ATOM     24  H   UNL     1      -0.861 135.709 185.525  1.00  0.00     0.293 HD
ENDBRANCH  20  23
ENDBRANCH  14  15
ENDBRANCH  12  14
ENDBRANCH   9  10
ENDBRANCH   1   9
TORSDOF 10
ENDMDL
MODEL 3
REMARK VINA RESULT:    -4.179     10.434     13.245
REMARK INTER + INTRA:          -8.796
REMARK INTER:                  -7.853
REMARK INTRA:                  -0.943
REMARK UNBOUND:                -2.296
REMARK SMILES COc1cc(CNC(=O)CCCCC=CC(C)C)ccc1O
REMARK SMILES IDX 11 1 12 2 13 3 14 4 15 5 16 6 17 7 18 8 10 9 8 10 9 11 7 12
REMARK SMILES IDX 6 14 5 15 4 16 19 17 3 18 20 19 21 20 2 21 1 22 22 23
REMARK H PARENT 7 13 22 24
REMARK Flexibility Score: inf
ROOT
ATOM      1  C   UNL     1      -0.160 142.177 195.928  1.00  0.00     0.010 C 
ENDROOT
BRANCH   1   2
ATOM      2  C   UNL     1      -0.279 141.713 197.391  1.00  0.00     0.005 C 
BRANCH   2   3
ATOM      3  C   UNL     1      -1.528 140.853 197.633  1.00  0.00     0.027 C 
BRANCH   3   4
ATOM      4  C   UNL     1      -1.228 139.378 197.535  1.00  0.00    -0.031 C 
ATOM      5  C   UNL     1      -1.392 138.583 196.456  1.00  0.00    -0.028 C 
BRANCH   5   6
ATOM      6  C   UNL     1      -1.985 138.945 195.105  1.00  0.00     0.005 C 
ATOM      7  C   UNL     1      -1.065 138.567 193.939  1.00  0.00     0.012 C 
ATOM      8  C   UNL     1      -3.418 138.443 194.912  1.00  0.00     0.012 C 
ENDBRANCH   5   6
ENDBRANCH   3   4
ENDBRANCH   2   3
ENDBRANCH   1   2
BRANCH   1   9
ATOM      9  C   UNL     1       1.144 142.940 195.662  1.00  0.00     0.100 C 
BRANCH   9  10
ATOM     10  C   UNL     1       0.906 144.403 195.411  1.00  0.00     0.220 C 
ATOM     11  O   UNL     1       0.066 145.025 196.116  1.00  0.00    -0.275 OA
ATOM     12  N   UNL     1       1.615 145.080 194.363  1.00  0.00    -0.352 N 
ATOM     13  H   UNL     1       2.277 144.540 193.761  1.00  0.00     0.163 HD
BRANCH  12  14
ATOM     14  C   UNL     1       1.511 146.521 194.150  1.00  0.00     0.151 C 
BRANCH  14  15
ATOM     15  C   UNL     1       1.042 146.800 192.749  1.00  0.00    -0.025 A 
ATOM     16  C   UNL     1       0.415 145.796 191.993  1.00  0.00     0.056 A 
ATOM     17  C   UNL     1       1.188 148.083 192.205  1.00  0.00     0.009 A 
ATOM     18  C   UNL     1      -0.039 146.065 190.687  1.00  0.00     0.160 A 
ATOM     19  C   UNL     1       0.738 148.356 190.912  1.00  0.00     0.050 A 
ATOM     20  C   UNL     1       0.131 147.350 190.150  1.00  0.00     0.157 A 
BRANCH  18  21
ATOM     21  O   UNL     1      -0.673 145.091 189.900  1.00  0.00    -0.493 OA
ATOM     22  C   UNL     1      -1.972 144.569 190.156  1.00  0.00     0.278 C 
ENDBRANCH  18  21
BRANCH  20  23
ATOM     23  O   UNL     1      -0.319 147.620 188.860  1.00  0.00    -0.504 OA
ATOM     24  H   UNL     1       0.325 147.831 188.107  1.00  0.00     0.293 HD
ENDBRANCH  20  23
ENDBRANCH  14  15
ENDBRANCH  12  14
ENDBRANCH   9  10
ENDBRANCH   1   9
TORSDOF 10
ENDMDL
MODEL 4
REMARK VINA RESULT:    -4.160     10.527     13.212
REMARK INTER + INTRA:          -8.767
REMARK INTER:                  -7.235
REMARK INTRA:                  -1.533
REMARK UNBOUND:                -2.296
REMARK SMILES COc1cc(CNC(=O)CCCCC=CC(C)C)ccc1O
REMARK SMILES IDX 11 1 12 2 13 3 14 4 15 5 16 6 17 7 18 8 10 9 8 10 9 11 7 12
REMARK SMILES IDX 6 14 5 15 4 16 19 17 3 18 20 19 21 20 2 21 1 22 22 23
REMARK H PARENT 7 13 22 24
REMARK Flexibility Score: inf
ROOT
ATOM      1  C   UNL     1       0.373 142.207 196.096  1.00  0.00     0.010 C 
ENDROOT
BRANCH   1   2
ATOM      2  C   UNL     1       1.244 142.863 197.183  1.00  0.00     0.005 C 
BRANCH   2   3
ATOM      3  C   UNL     1       0.838 144.318 197.459  1.00  0.00     0.027 C 
BRANCH   3   4
ATOM      4  C   UNL     1       2.012 145.262 197.365  1.00  0.00    -0.031 C 
ATOM      5  C   UNL     1       2.305 146.097 196.346  1.00  0.00    -0.028 C 
BRANCH   5   6
ATOM      6  C   UNL     1       1.586 146.245 195.017  1.00  0.00     0.005 C 
ATOM      7  C   UNL     1       1.713 144.996 194.137  1.00  0.00     0.012 C 
ATOM      8  C   UNL     1       0.138 146.724 195.155  1.00  0.00     0.012 C 
ENDBRANCH   5   6
ENDBRANCH   3   4
ENDBRANCH   2   3
ENDBRANCH   1   2
BRANCH   1   9
ATOM      9  C   UNL     1      -0.901 143.012 195.807  1.00  0.00     0.100 C 
BRANCH   9  10
ATOM     10  C   UNL     1      -1.408 142.791 194.410  1.00  0.00     0.220 C 
ATOM     11  O   UNL     1      -1.552 141.614 193.980  1.00  0.00    -0.275 OA
ATOM     12  N   UNL     1      -1.707 143.912 193.565  1.00  0.00    -0.352 N 
ATOM     13  H   UNL     1      -1.543 144.880 193.922  1.00  0.00     0.163 HD
BRANCH  12  14
ATOM     14  C   UNL     1      -2.311 143.759 192.244  1.00  0.00     0.151 C 
BRANCH  14  15
ATOM     15  C   UNL     1      -1.739 144.779 191.298  1.00  0.00    -0.025 A 
ATOM     16  C   UNL     1      -0.700 145.630 191.708  1.00  0.00     0.056 A 
ATOM     17  C   UNL     1      -2.211 144.853 189.980  1.00  0.00     0.009 A 
ATOM     18  C   UNL     1      -0.154 146.572 190.815  1.00  0.00     0.160 A 
ATOM     19  C   UNL     1      -1.672 145.783 189.090  1.00  0.00     0.050 A 
ATOM     20  C   UNL     1      -0.650 146.646 189.504  1.00  0.00     0.157 A 
BRANCH  18  21
ATOM     21  O   UNL     1       0.886 147.438 191.185  1.00  0.00    -0.493 OA
ATOM     22  C   UNL     1       0.707 148.650 191.911  1.00  0.00     0.278 C 
ENDBRANCH  18  21
BRANCH  20  23
ATOM     23  O   UNL     1      -0.110 147.574 188.617  1.00  0.00    -0.504 OA
ATOM     24  H   UNL     1       0.438 147.285 187.816  1.00  0.00     0.293 HD
ENDBRANCH  20  23
ENDBRANCH  14  15
ENDBRANCH  12  14
ENDBRANCH   9  10
ENDBRANCH   1   9
TORSDOF 10
ENDMDL
MODEL 5
REMARK VINA RESULT:    -4.107     10.626     13.216
REMARK INTER + INTRA:          -8.683
REMARK INTER:                  -7.454
REMARK INTRA:                  -1.229
REMARK UNBOUND:                -2.296
REMARK SMILES COc1cc(CNC(=O)CCCCC=CC(C)C)ccc1O
REMARK SMILES IDX 11 1 12 2 13 3 14 4 15 5 16 6 17 7 18 8 10 9 8 10 9 11 7 12
REMARK SMILES IDX 6 14 5 15 4 16 19 17 3 18 20 19 21 20 2 21 1 22 22 23
REMARK H PARENT 7 13 22 24
REMARK Flexibility Score: inf
ROOT
ATOM      1  C   UNL     1       1.370 146.049 196.311  1.00  0.00     0.010 C 
ENDROOT
BRANCH   1   2
ATOM      2  C   UNL     1       2.085 145.121 197.309  1.00  0.00     0.005 C 
BRANCH   2   3
ATOM      3  C   UNL     1       1.193 143.957 197.768  1.00  0.00     0.027 C 
BRANCH   3   4
ATOM      4  C   UNL     1       1.312 142.760 196.857  1.00  0.00    -0.031 C 
ATOM      5  C   UNL     1       0.424 142.355 195.924  1.00  0.00    -0.028 C 
BRANCH   5   6
ATOM      6  C   UNL     1      -0.939 142.945 195.607  1.00  0.00     0.005 C 
ATOM      7  C   UNL     1      -0.996 143.576 194.211  1.00  0.00     0.012 C 
ATOM      8  C   UNL     1      -2.099 141.979 195.864  1.00  0.00     0.012 C 
ENDBRANCH   5   6
ENDBRANCH   3   4
ENDBRANCH   2   3
ENDBRANCH   1   2
BRANCH   1   9
ATOM      9  C   UNL     1       1.780 145.770 194.859  1.00  0.00     0.100 C 
BRANCH   9  10
ATOM     10  C   UNL     1       1.135 146.722 193.892  1.00  0.00     0.220 C 
ATOM     11  O   UNL     1       0.157 147.423 194.270  1.00  0.00    -0.275 OA
ATOM     12  N   UNL     1       1.614 146.816 192.543  1.00  0.00    -0.352 N 
ATOM     13  H   UNL     1       2.398 146.198 192.234  1.00  0.00     0.163 HD
BRANCH  12  14
ATOM     14  C   UNL     1       1.104 147.804 191.596  1.00  0.00     0.151 C 
BRANCH  14  15
ATOM     15  C   UNL     1       0.147 147.150 190.638  1.00  0.00    -0.025 A 
ATOM     16  C   UNL     1      -0.417 147.882 189.581  1.00  0.00     0.056 A 
ATOM     17  C   UNL     1      -0.150 145.787 190.768  1.00  0.00     0.009 A 
ATOM     18  C   UNL     1      -1.298 147.262 188.674  1.00  0.00     0.160 A 
ATOM     19  C   UNL     1      -1.021 145.167 189.871  1.00  0.00     0.050 A 
ATOM     20  C   UNL     1      -1.600 145.901 188.829  1.00  0.00     0.157 A 
BRANCH  18  21
ATOM     21  O   UNL     1      -1.881 147.958 187.604  1.00  0.00    -0.493 OA
ATOM     22  C   UNL     1      -2.785 149.049 187.748  1.00  0.00     0.278 C 
ENDBRANCH  18  21
BRANCH  20  23
ATOM     23  O   UNL     1      -2.469 145.284 187.932  1.00  0.00    -0.504 OA
ATOM     24  H   UNL     1      -3.440 145.563 187.858  1.00  0.00     0.293 HD
ENDBRANCH  20  23
ENDBRANCH  14  15
ENDBRANCH  12  14
ENDBRANCH   9  10
ENDBRANCH   1   9
TORSDOF 10
ENDMDL
MODEL 6
REMARK VINA RESULT:    -4.101      2.739      6.388
REMARK INTER + INTRA:          -8.675
REMARK INTER:                  -7.026
REMARK INTRA:                  -1.648
REMARK UNBOUND:                -2.296
REMARK SMILES COc1cc(CNC(=O)CCCCC=CC(C)C)ccc1O
REMARK SMILES IDX 11 1 12 2 13 3 14 4 15 5 16 6 17 7 18 8 10 9 8 10 9 11 7 12
REMARK SMILES IDX 6 14 5 15 4 16 19 17 3 18 20 19 21 20 2 21 1 22 22 23
REMARK H PARENT 7 13 22 24
REMARK Flexibility Score: inf
ROOT
ATOM      1  C   UNL     1      -2.115 138.948 179.356  1.00  0.00     0.010 C 
ENDROOT
BRANCH   1   2
ATOM      2  C   UNL     1      -1.156 139.479 180.436  1.00  0.00     0.005 C 
BRANCH   2   3
ATOM      3  C   UNL     1      -0.055 138.468 180.790  1.00  0.00     0.027 C 
BRANCH   3   4
ATOM      4  C   UNL     1      -0.159 137.993 182.218  1.00  0.00    -0.031 C 
ATOM      5  C   UNL     1      -0.703 136.837 182.655  1.00  0.00    -0.028 C 
BRANCH   5   6
ATOM      6  C   UNL     1      -1.408 135.766 181.842  1.00  0.00     0.005 C 
ATOM      7  C   UNL     1      -1.139 134.353 182.372  1.00  0.00     0.012 C 
ATOM      8  C   UNL     1      -2.900 136.042 181.632  1.00  0.00     0.012 C 
ENDBRANCH   5   6
ENDBRANCH   3   4
ENDBRANCH   2   3
ENDBRANCH   1   2
BRANCH   1   9
ATOM      9  C   UNL     1      -3.272 139.918 179.077  1.00  0.00     0.100 C 
BRANCH   9  10
ATOM     10  C   UNL     1      -4.266 139.955 180.203  1.00  0.00     0.220 C 
ATOM     11  O   UNL     1      -5.205 139.113 180.231  1.00  0.00    -0.275 OA
ATOM     12  N   UNL     1      -4.161 140.954 181.227  1.00  0.00    -0.352 N 
ATOM     13  H   UNL     1      -3.402 141.670 181.167  1.00  0.00     0.163 HD
BRANCH  12  14
ATOM     14  C   UNL     1      -5.026 140.967 182.404  1.00  0.00     0.151 C 
BRANCH  14  15
ATOM     15  C   UNL     1      -4.216 140.686 183.639  1.00  0.00    -0.025 A 
ATOM     16  C   UNL     1      -4.585 141.241 184.876  1.00  0.00     0.056 A 
ATOM     17  C   UNL     1      -3.111 139.827 183.571  1.00  0.00     0.009 A 
ATOM     18  C   UNL     1      -3.834 140.962 186.034  1.00  0.00     0.160 A 
ATOM     19  C   UNL     1      -2.365 139.546 184.717  1.00  0.00     0.050 A 
ATOM     20  C   UNL     1      -2.720 140.115 185.946  1.00  0.00     0.157 A 
BRANCH  18  21
ATOM     21  O   UNL     1      -4.171 141.493 187.289  1.00  0.00    -0.493 OA
ATOM     22  C   UNL     1      -3.813 142.798 187.734  1.00  0.00     0.278 C 
ENDBRANCH  18  21
BRANCH  20  23
ATOM     23  O   UNL     1      -1.977 139.834 187.091  1.00  0.00    -0.504 OA
ATOM     24  H   UNL     1      -1.689 140.567 187.728  1.00  0.00     0.293 HD
ENDBRANCH  20  23
ENDBRANCH  14  15
ENDBRANCH  12  14
ENDBRANCH   9  10
ENDBRANCH   1   9
TORSDOF 10
ENDMDL
MODEL 7
REMARK VINA RESULT:    -4.049     10.340     13.606
REMARK INTER + INTRA:          -8.593
REMARK INTER:                  -7.769
REMARK INTRA:                  -0.825
REMARK UNBOUND:                -2.296
REMARK SMILES COc1cc(CNC(=O)CCCCC=CC(C)C)ccc1O
REMARK SMILES IDX 11 1 12 2 13 3 14 4 15 5 16 6 17 7 18 8 10 9 8 10 9 11 7 12
REMARK SMILES IDX 6 14 5 15 4 16 19 17 3 18 20 19 21 20 2 21 1 22 22 23
REMARK H PARENT 7 13 22 24
REMARK Flexibility Score: inf
ROOT
ATOM      1  C   UNL     1      -1.007 145.679 191.266  1.00  0.00     0.010 C 
ENDROOT
BRANCH   1   2
ATOM      2  C   UNL     1      -1.247 145.067 189.874  1.00  0.00     0.005 C 
BRANCH   2   3
ATOM      3  C   UNL     1      -0.699 145.951 188.744  1.00  0.00     0.027 C 
BRANCH   3   4
ATOM      4  C   UNL     1      -1.667 147.043 188.359  1.00  0.00    -0.031 C 
ATOM      5  C   UNL     1      -2.697 146.949 187.492  1.00  0.00    -0.028 C 
BRANCH   5   6
ATOM      6  C   UNL     1      -3.097 145.762 186.634  1.00  0.00     0.005 C 
ATOM      7  C   UNL     1      -3.858 144.693 187.427  1.00  0.00     0.012 C 
ATOM      8  C   UNL     1      -3.815 146.156 185.340  1.00  0.00     0.012 C 
ENDBRANCH   5   6
ENDBRANCH   3   4
ENDBRANCH   2   3
ENDBRANCH   1   2
BRANCH   1   9
ATOM      9  C   UNL     1       0.393 146.295 191.398  1.00  0.00     0.100 C 
BRANCH   9  10
ATOM     10  C   UNL     1       0.751 146.592 192.827  1.00  0.00     0.220 C 
ATOM     11  O   UNL     1       0.345 147.661 193.359  1.00  0.00    -0.275 OA
ATOM     12  N   UNL     1       1.565 145.676 193.574  1.00  0.00    -0.352 N 
ATOM     13  H   UNL     1       1.927 144.815 193.105  1.00  0.00     0.163 HD
BRANCH  12  14
ATOM     14  C   UNL     1       1.846 145.855 194.995  1.00  0.00     0.151 C 
BRANCH  14  15
ATOM     15  C   UNL     1       1.320 144.681 195.774  1.00  0.00    -0.025 A 
ATOM     16  C   UNL     1       0.577 143.676 195.135  1.00  0.00     0.056 A 
ATOM     17  C   UNL     1       1.613 144.560 197.139  1.00  0.00     0.009 A 
ATOM     18  C   UNL     1       0.101 142.568 195.863  1.00  0.00     0.160 A 
ATOM     19  C   UNL     1       1.146 143.463 197.866  1.00  0.00     0.050 A 
ATOM     20  C   UNL     1       0.387 142.471 197.233  1.00  0.00     0.157 A 
BRANCH  18  21
ATOM     21  O   UNL     1      -0.644 141.542 195.262  1.00  0.00    -0.493 OA
ATOM     22  C   UNL     1      -1.697 141.751 194.327  1.00  0.00     0.278 C 
ENDBRANCH  18  21
BRANCH  20  23
ATOM     23  O   UNL     1      -0.080 141.375 197.956  1.00  0.00    -0.504 OA
ATOM     24  H   UNL     1       0.492 140.550 198.096  1.00  0.00     0.293 HD
ENDBRANCH  20  23
ENDBRANCH  14  15
ENDBRANCH  12  14
ENDBRANCH   9  10
ENDBRANCH   1   9
TORSDOF 10
ENDMDL
MODEL 8
REMARK VINA RESULT:    -4.024      1.953      6.311
REMARK INTER + INTRA:          -8.554
REMARK INTER:                  -6.455
REMARK INTRA:                  -2.100
REMARK UNBOUND:                -2.296
REMARK SMILES COc1cc(CNC(=O)CCCCC=CC(C)C)ccc1O
REMARK SMILES IDX 11 1 12 2 13 3 14 4 15 5 16 6 17 7 18 8 10 9 8 10 9 11 7 12
REMARK SMILES IDX 6 14 5 15 4 16 19 17 3 18 20 19 21 20 2 21 1 22 22 23
REMARK H PARENT 7 13 22 24
REMARK Flexibility Score: inf
ROOT
ATOM      1  C   UNL     1      -0.820 138.609 180.507  1.00  0.00     0.010 C 
ENDROOT
BRANCH   1   2
ATOM      2  C   UNL     1      -1.970 137.712 180.015  1.00  0.00     0.005 C 
BRANCH   2   3
ATOM      3  C   UNL     1      -2.285 136.573 180.996  1.00  0.00     0.027 C 
BRANCH   3   4
ATOM      4  C   UNL     1      -1.233 136.443 182.070  1.00  0.00    -0.031 C 
ATOM      5  C   UNL     1      -0.689 135.302 182.544  1.00  0.00    -0.028 C 
BRANCH   5   6
ATOM      6  C   UNL     1      -1.046 133.871 182.180  1.00  0.00     0.005 C 
ATOM      7  C   UNL     1       0.174 133.056 181.736  1.00  0.00     0.012 C 
ATOM      8  C   UNL     1      -1.874 133.156 183.252  1.00  0.00     0.012 C 
ENDBRANCH   5   6
ENDBRANCH   3   4
ENDBRANCH   2   3
ENDBRANCH   1   2
BRANCH   1   9
ATOM      9  C   UNL     1      -1.287 140.040 180.809  1.00  0.00     0.100 C 
BRANCH   9  10
ATOM     10  C   UNL     1      -2.255 140.091 181.957  1.00  0.00     0.220 C 
ATOM     11  O   UNL     1      -3.442 140.465 181.751  1.00  0.00    -0.275 OA
ATOM     12  N   UNL     1      -1.827 139.739 183.280  1.00  0.00    -0.352 N 
ATOM     13  H   UNL     1      -0.829 139.472 183.441  1.00  0.00     0.163 HD
BRANCH  12  14
ATOM     14  C   UNL     1      -2.751 139.658 184.408  1.00  0.00     0.151 C 
BRANCH  14  15
ATOM     15  C   UNL     1      -3.173 138.231 184.625  1.00  0.00    -0.025 A 
ATOM     16  C   UNL     1      -2.458 137.401 185.504  1.00  0.00     0.056 A 
ATOM     17  C   UNL     1      -4.316 137.735 183.983  1.00  0.00     0.009 A 
ATOM     18  C   UNL     1      -2.867 136.070 185.718  1.00  0.00     0.160 A 
ATOM     19  C   UNL     1      -4.726 136.417 184.194  1.00  0.00     0.050 A 
ATOM     20  C   UNL     1      -4.002 135.583 185.054  1.00  0.00     0.157 A 
BRANCH  18  21
ATOM     21  O   UNL     1      -2.182 135.209 186.590  1.00  0.00    -0.493 OA
ATOM     22  C   UNL     1      -0.984 135.548 187.280  1.00  0.00     0.278 C 
ENDBRANCH  18  21
BRANCH  20  23
ATOM     23  O   UNL     1      -4.410 134.268 185.266  1.00  0.00    -0.504 OA
ATOM     24  H   UNL     1      -5.244 133.895 184.828  1.00  0.00     0.293 HD
ENDBRANCH  20  23
ENDBRANCH  14  15
ENDBRANCH  12  14
ENDBRANCH   9  10
ENDBRANCH   1   9
TORSDOF 10
ENDMDL
MODEL 9
REMARK VINA RESULT:    -4.016      2.250      5.922
REMARK INTER + INTRA:          -8.542
REMARK INTER:                  -6.125
REMARK INTRA:                  -2.417
REMARK UNBOUND:                -2.296
REMARK SMILES COc1cc(CNC(=O)CCCCC=CC(C)C)ccc1O
REMARK SMILES IDX 11 1 12 2 13 3 14 4 15 5 16 6 17 7 18 8 10 9 8 10 9 11 7 12
REMARK SMILES IDX 6 14 5 15 4 16 19 17 3 18 20 19 21 20 2 21 1 22 22 23
REMARK H PARENT 7 13 22 24
REMARK Flexibility Score: inf
ROOT
ATOM      1  C   UNL     1      -3.933 140.278 178.598  1.00  0.00     0.010 C 
ENDROOT
BRANCH   1   2
ATOM      2  C   UNL     1      -3.540 138.818 178.309  1.00  0.00     0.005 C 
BRANCH   2   3
ATOM      3  C   UNL     1      -2.349 138.353 179.160  1.00  0.00     0.027 C 
BRANCH   3   4
ATOM      4  C   UNL     1      -1.622 139.511 179.798  1.00  0.00    -0.031 C 
ATOM      5  C   UNL     1      -1.242 139.622 181.089  1.00  0.00    -0.028 C 
BRANCH   5   6
ATOM      6  C   UNL     1      -1.512 138.661 182.233  1.00  0.00     0.005 C 
ATOM      7  C   UNL     1      -0.415 137.600 182.380  1.00  0.00     0.012 C 
ATOM      8  C   UNL     1      -1.836 139.361 183.556  1.00  0.00     0.012 C 
ENDBRANCH   5   6
ENDBRANCH   3   4
ENDBRANCH   2   3
ENDBRANCH   1   2
BRANCH   1   9
ATOM      9  C   UNL     1      -5.267 140.384 179.350  1.00  0.00     0.100 C 
BRANCH   9  10
ATOM     10  C   UNL     1      -5.166 139.880 180.761  1.00  0.00     0.220 C 
ATOM     11  O   UNL     1      -4.629 140.605 181.643  1.00  0.00    -0.275 OA
ATOM     12  N   UNL     1      -5.657 138.575 181.099  1.00  0.00    -0.352 N 
ATOM     13  H   UNL     1      -6.061 137.970 180.348  1.00  0.00     0.163 HD
BRANCH  12  14
ATOM     14  C   UNL     1      -5.692 138.081 182.473  1.00  0.00     0.151 C 
BRANCH  14  15
ATOM     15  C   UNL     1      -4.670 136.992 182.652  1.00  0.00    -0.025 A 
ATOM     16  C   UNL     1      -4.178 136.677 183.929  1.00  0.00     0.056 A 
ATOM     17  C   UNL     1      -4.237 136.250 181.544  1.00  0.00     0.009 A 
ATOM     18  C   UNL     1      -3.235 135.645 184.096  1.00  0.00     0.160 A 
ATOM     19  C   UNL     1      -3.303 135.225 181.704  1.00  0.00     0.050 A 
ATOM     20  C   UNL     1      -2.798 134.924 182.975  1.00  0.00     0.157 A 
BRANCH  18  21
ATOM     21  O   UNL     1      -2.721 135.298 185.355  1.00  0.00    -0.493 OA
ATOM     22  C   UNL     1      -1.660 135.985 186.010  1.00  0.00     0.278 C 
ENDBRANCH  18  21
BRANCH  20  23
ATOM     23  O   UNL     1      -1.867 133.900 183.136  1.00  0.00    -0.504 OA
ATOM     24  H   UNL     1      -0.932 133.968 182.750  1.00  0.00     0.293 HD
ENDBRANCH  20  23
ENDBRANCH  14  15
ENDBRANCH  12  14
ENDBRANCH   9  10
ENDBRANCH   1   9
TORSDOF 10
ENDMDL
