MODEL 1
REMARK VINA RESULT:    -6.244      0.000      0.000
REMARK INTER + INTRA:          -9.207
REMARK INTER:                  -8.800
REMARK INTRA:                  -0.408
REMARK UNBOUND:                -0.408
REMARK SMILES CCCCCCCCC(=O)[O-]
REMARK SMILES IDX 6 1 7 2 8 3 9 4 10 5 11 6 5 7 4 8 3 9 2 10 1 11
REMARK H PARENT
REMARK Flexibility Score: inf
ROOT
ATOM      1  C   UNL     1      -7.210  -2.126 -21.008  1.00  0.00     0.000 C 
ENDROOT
BRANCH   1   2
ATOM      2  C   UNL     1      -7.496  -1.709 -19.559  1.00  0.00     0.006 C 
BRANCH   2   3
ATOM      3  C   UNL     1      -6.415  -0.757 -19.039  1.00  0.00     0.053 C 
BRANCH   3   4
ATOM      4  C   UNL     1      -5.087  -1.444 -19.000  1.00  0.00     0.041 C 
ATOM      5  O   UNL     1      -4.061  -0.869 -19.452  1.00  0.00    -0.550 OA
ATOM      6  O   UNL     1      -4.971  -2.700 -18.418  1.00  0.00    -0.550 OA
ENDBRANCH   3   4
ENDBRANCH   2   3
ENDBRANCH   1   2
BRANCH   1   7
ATOM      7  C   UNL     1      -7.250  -3.654 -21.157  1.00  0.00     0.000 C 
BRANCH   7   8
ATOM      8  C   UNL     1      -7.879  -4.351 -19.940  1.00  0.00    -0.000 C 
BRANCH   8   9
ATOM      9  C   UNL     1      -7.501  -5.840 -19.850  1.00  0.00    -0.000 C 
BRANCH   9  10
ATOM     10  C   UNL     1      -8.729  -6.751 -19.695  1.00  0.00    -0.003 C 
ATOM     11  C   UNL     1      -8.373  -8.236 -19.759  1.00  0.00     0.004 C 
ENDBRANCH   9  10
ENDBRANCH   8   9
ENDBRANCH   7   8
ENDBRANCH   1   7
TORSDOF 7
ENDMDL
MODEL 2
REMARK VINA RESULT:    -6.090      1.246      2.218
REMARK INTER + INTRA:          -8.990
REMARK INTER:                  -8.676
REMARK INTRA:                  -0.313
REMARK UNBOUND:                -0.408
REMARK SMILES CCCCCCCCC(=O)[O-]
REMARK SMILES IDX 6 1 7 2 8 3 9 4 10 5 11 6 5 7 4 8 3 9 2 10 1 11
REMARK H PARENT
REMARK Flexibility Score: inf
ROOT
ATOM      1  C   UNL     1      -7.088  -4.660 -19.692  1.00  0.00     0.000 C 
ENDROOT
BRANCH   1   2
ATOM      2  C   UNL     1      -7.163  -3.901 -21.023  1.00  0.00     0.006 C 
BRANCH   2   3
ATOM      3  C   UNL     1      -7.093  -2.388 -20.797  1.00  0.00     0.053 C 
BRANCH   3   4
ATOM      4  C   UNL     1      -5.748  -2.000 -20.269  1.00  0.00     0.041 C 
ATOM      5  O   UNL     1      -4.705  -2.303 -20.907  1.00  0.00    -0.550 OA
ATOM      6  O   UNL     1      -5.647  -1.260 -19.097  1.00  0.00    -0.550 OA
ENDBRANCH   3   4
ENDBRANCH   2   3
ENDBRANCH   1   2
BRANCH   1   7
ATOM      7  C   UNL     1      -8.493  -4.978 -19.161  1.00  0.00     0.000 C 
BRANCH   7   8
ATOM      8  C   UNL     1      -9.053  -6.295 -19.721  1.00  0.00    -0.000 C 
BRANCH   8   9
ATOM      9  C   UNL     1      -7.982  -7.395 -19.830  1.00  0.00    -0.000 C 
BRANCH   9  10
ATOM     10  C   UNL     1      -8.551  -8.799 -19.573  1.00  0.00    -0.003 C 
ATOM     11  C   UNL     1      -8.006  -9.842 -20.548  1.00  0.00     0.004 C 
ENDBRANCH   9  10
ENDBRANCH   8   9
ENDBRANCH   7   8
ENDBRANCH   1   7
TORSDOF 7
ENDMDL
MODEL 3
REMARK VINA RESULT:    -5.941      1.971      2.332
REMARK INTER + INTRA:          -8.780
REMARK INTER:                  -8.344
REMARK INTRA:                  -0.436
REMARK UNBOUND:                -0.408
REMARK SMILES CCCCCCCCC(=O)[O-]
REMARK SMILES IDX 6 1 7 2 8 3 9 4 10 5 11 6 5 7 4 8 3 9 2 10 1 11
REMARK H PARENT
REMARK Flexibility Score: inf
ROOT
ATOM      1  C   UNL     1      -5.693  -3.807 -18.638  1.00  0.00     0.000 C 
ENDROOT
BRANCH   1   2
ATOM      2  C   UNL     1      -5.294  -2.640 -19.550  1.00  0.00     0.006 C 
BRANCH   2   3
ATOM      3  C   UNL     1      -5.904  -1.325 -19.056  1.00  0.00     0.053 C 
BRANCH   3   4
ATOM      4  C   UNL     1      -7.150  -1.006 -19.820  1.00  0.00     0.041 C 
ATOM      5  O   UNL     1      -7.856  -0.015 -19.497  1.00  0.00    -0.550 OA
ATOM      6  O   UNL     1      -7.506  -1.775 -20.922  1.00  0.00    -0.550 OA
ENDBRANCH   3   4
ENDBRANCH   2   3
ENDBRANCH   1   2
BRANCH   1   7
ATOM      7  C   UNL     1      -6.602  -4.799 -19.381  1.00  0.00     0.000 C 
BRANCH   7   8
ATOM      8  C   UNL     1      -8.071  -4.696 -18.944  1.00  0.00    -0.000 C 
BRANCH   8   9
ATOM      9  C   UNL     1      -8.934  -5.846 -19.491  1.00  0.00    -0.000 C 
BRANCH   9  10
ATOM     10  C   UNL     1      -8.089  -7.022 -20.007  1.00  0.00    -0.003 C 
ATOM     11  C   UNL     1      -8.517  -8.362 -19.409  1.00  0.00     0.004 C 
ENDBRANCH   9  10
ENDBRANCH   8   9
ENDBRANCH   7   8
ENDBRANCH   1   7
TORSDOF 7
ENDMDL
MODEL 4
REMARK VINA RESULT:    -5.889      2.804      5.118
REMARK INTER + INTRA:          -8.707
REMARK INTER:                  -8.042
REMARK INTRA:                  -0.665
REMARK UNBOUND:                -0.408
REMARK SMILES CCCCCCCCC(=O)[O-]
REMARK SMILES IDX 6 1 7 2 8 3 9 4 10 5 11 6 5 7 4 8 3 9 2 10 1 11
REMARK H PARENT
REMARK Flexibility Score: inf
ROOT
ATOM      1  C   UNL     1      -7.392  -2.805 -20.928  1.00  0.00     0.000 C 
ENDROOT
BRANCH   1   2
ATOM      2  C   UNL     1      -6.733  -4.190 -20.950  1.00  0.00     0.006 C 
BRANCH   2   3
ATOM      3  C   UNL     1      -6.890  -4.894 -19.599  1.00  0.00     0.053 C 
BRANCH   3   4
ATOM      4  C   UNL     1      -8.051  -5.836 -19.631  1.00  0.00     0.041 C 
ATOM      5  O   UNL     1      -7.874  -7.052 -19.909  1.00  0.00    -0.550 OA
ATOM      6  O   UNL     1      -9.324  -5.383 -19.306  1.00  0.00    -0.550 OA
ENDBRANCH   3   4
ENDBRANCH   2   3
ENDBRANCH   1   2
BRANCH   1   7
ATOM      7  C   UNL     1      -7.444  -2.245 -19.499  1.00  0.00     0.000 C 
BRANCH   7   8
ATOM      8  C   UNL     1      -6.972  -0.785 -19.419  1.00  0.00    -0.000 C 
BRANCH   8   9
ATOM      9  C   UNL     1      -5.600  -0.643 -18.737  1.00  0.00    -0.000 C 
BRANCH   9  10
ATOM     10  C   UNL     1      -4.472  -1.310 -19.539  1.00  0.00    -0.003 C 
ATOM     11  C   UNL     1      -3.830  -2.479 -18.793  1.00  0.00     0.004 C 
ENDBRANCH   9  10
ENDBRANCH   8   9
ENDBRANCH   7   8
ENDBRANCH   1   7
TORSDOF 7
ENDMDL
MODEL 5
REMARK VINA RESULT:    -5.805      4.020      6.524
REMARK INTER + INTRA:          -8.588
REMARK INTER:                  -8.272
REMARK INTRA:                  -0.316
REMARK UNBOUND:                -0.408
REMARK SMILES CCCCCCCCC(=O)[O-]
REMARK SMILES IDX 6 1 7 2 8 3 9 4 10 5 11 6 5 7 4 8 3 9 2 10 1 11
REMARK H PARENT
REMARK Flexibility Score: inf
ROOT
ATOM      1  C   UNL     1      -9.001  -6.370 -19.551  1.00  0.00     0.000 C 
ENDROOT
BRANCH   1   2
ATOM      2  C   UNL     1      -8.001  -7.432 -20.025  1.00  0.00     0.006 C 
BRANCH   2   3
ATOM      3  C   UNL     1      -8.440  -8.833 -19.589  1.00  0.00     0.053 C 
BRANCH   3   4
ATOM      4  C   UNL     1      -8.130  -9.835 -20.655  1.00  0.00     0.041 C 
ATOM      5  O   UNL     1      -8.338  -9.557 -21.866  1.00  0.00    -0.550 OA
ATOM      6  O   UNL     1      -7.564 -11.058 -20.317  1.00  0.00    -0.550 OA
ENDBRANCH   3   4
ENDBRANCH   2   3
ENDBRANCH   1   2
BRANCH   1   7
ATOM      7  C   UNL     1      -8.334  -4.989 -19.460  1.00  0.00     0.000 C 
BRANCH   7   8
ATOM      8  C   UNL     1      -7.036  -4.905 -20.279  1.00  0.00    -0.000 C 
BRANCH   8   9
ATOM      9  C   UNL     1      -6.988  -3.663 -21.185  1.00  0.00    -0.000 C 
BRANCH   9  10
ATOM     10  C   UNL     1      -7.407  -2.380 -20.451  1.00  0.00    -0.003 C 
ATOM     11  C   UNL     1      -6.339  -1.882 -19.478  1.00  0.00     0.004 C 
ENDBRANCH   9  10
ENDBRANCH   8   9
ENDBRANCH   7   8
ENDBRANCH   1   7
TORSDOF 7
ENDMDL
MODEL 6
REMARK VINA RESULT:    -5.804      1.139      1.927
REMARK INTER + INTRA:          -8.587
REMARK INTER:                  -8.246
REMARK INTRA:                  -0.341
REMARK UNBOUND:                -0.408
REMARK SMILES CCCCCCCCC(=O)[O-]
REMARK SMILES IDX 6 1 7 2 8 3 9 4 10 5 11 6 5 7 4 8 3 9 2 10 1 11
REMARK H PARENT
REMARK Flexibility Score: inf
ROOT
ATOM      1  C   UNL     1      -7.520  -1.725 -19.555  1.00  0.00     0.000 C 
ENDROOT
BRANCH   1   2
ATOM      2  C   UNL     1      -6.514  -0.681 -19.054  1.00  0.00     0.006 C 
BRANCH   2   3
ATOM      3  C   UNL     1      -5.151  -1.322 -18.777  1.00  0.00     0.053 C 
BRANCH   3   4
ATOM      4  C   UNL     1      -4.220  -0.326 -18.160  1.00  0.00     0.041 C 
ATOM      5  O   UNL     1      -4.317  -0.040 -16.937  1.00  0.00    -0.550 OA
ATOM      6  O   UNL     1      -3.213   0.251 -18.924  1.00  0.00    -0.550 OA
ENDBRANCH   3   4
ENDBRANCH   2   3
ENDBRANCH   1   2
BRANCH   1   7
ATOM      7  C   UNL     1      -7.242  -2.096 -21.019  1.00  0.00     0.000 C 
BRANCH   7   8
ATOM      8  C   UNL     1      -7.153  -3.615 -21.237  1.00  0.00    -0.000 C 
BRANCH   8   9
ATOM      9  C   UNL     1      -7.773  -4.417 -20.080  1.00  0.00    -0.000 C 
BRANCH   9  10
ATOM     10  C   UNL     1      -7.231  -5.852 -20.000  1.00  0.00    -0.003 C 
ATOM     11  C   UNL     1      -8.305  -6.867 -19.611  1.00  0.00     0.004 C 
ENDBRANCH   9  10
ENDBRANCH   8   9
ENDBRANCH   7   8
ENDBRANCH   1   7
TORSDOF 7
ENDMDL
MODEL 7
REMARK VINA RESULT:    -5.725      1.656      2.048
REMARK INTER + INTRA:          -8.475
REMARK INTER:                  -8.176
REMARK INTRA:                  -0.300
REMARK UNBOUND:                -0.408
REMARK SMILES CCCCCCCCC(=O)[O-]
REMARK SMILES IDX 6 1 7 2 8 3 9 4 10 5 11 6 5 7 4 8 3 9 2 10 1 11
REMARK H PARENT
REMARK Flexibility Score: inf
ROOT
ATOM      1  C   UNL     1      -5.461  -3.899 -18.473  1.00  0.00     0.000 C 
ENDROOT
BRANCH   1   2
ATOM      2  C   UNL     1      -4.822  -2.859 -19.401  1.00  0.00     0.006 C 
BRANCH   2   3
ATOM      3  C   UNL     1      -3.961  -1.870 -18.608  1.00  0.00     0.053 C 
BRANCH   3   4
ATOM      4  C   UNL     1      -4.526  -0.489 -18.706  1.00  0.00     0.041 C 
ATOM      5  O   UNL     1      -3.762   0.512 -18.674  1.00  0.00    -0.550 OA
ATOM      6  O   UNL     1      -5.892  -0.307 -18.881  1.00  0.00    -0.550 OA
ENDBRANCH   3   4
ENDBRANCH   2   3
ENDBRANCH   1   2
BRANCH   1   7
ATOM      7  C   UNL     1      -6.981  -3.962 -18.682  1.00  0.00     0.000 C 
BRANCH   7   8
ATOM      8  C   UNL     1      -7.366  -4.572 -20.040  1.00  0.00    -0.000 C 
BRANCH   8   9
ATOM      9  C   UNL     1      -7.240  -6.105 -20.057  1.00  0.00    -0.000 C 
BRANCH   9  10
ATOM     10  C   UNL     1      -8.564  -6.809 -19.724  1.00  0.00    -0.003 C 
ATOM     11  C   UNL     1      -8.424  -8.330 -19.660  1.00  0.00     0.004 C 
ENDBRANCH   9  10
ENDBRANCH   8   9
ENDBRANCH   7   8
ENDBRANCH   1   7
TORSDOF 7
ENDMDL
MODEL 8
REMARK VINA RESULT:    -5.569      2.941      5.762
REMARK INTER + INTRA:          -8.256
REMARK INTER:                  -7.807
REMARK INTRA:                  -0.449
REMARK UNBOUND:                -0.408
REMARK SMILES CCCCCCCCC(=O)[O-]
REMARK SMILES IDX 6 1 7 2 8 3 9 4 10 5 11 6 5 7 4 8 3 9 2 10 1 11
REMARK H PARENT
REMARK Flexibility Score: inf
ROOT
ATOM      1  C   UNL     1      -6.782  -2.910 -19.235  1.00  0.00     0.000 C 
ENDROOT
BRANCH   1   2
ATOM      2  C   UNL     1      -7.386  -3.814 -20.316  1.00  0.00     0.006 C 
BRANCH   2   3
ATOM      3  C   UNL     1      -6.958  -5.271 -20.115  1.00  0.00     0.053 C 
BRANCH   3   4
ATOM      4  C   UNL     1      -8.135  -6.116 -19.742  1.00  0.00     0.041 C 
ATOM      5  O   UNL     1      -8.021  -7.368 -19.674  1.00  0.00    -0.550 OA
ATOM      6  O   UNL     1      -9.346  -5.517 -19.420  1.00  0.00    -0.550 OA
ENDBRANCH   3   4
ENDBRANCH   2   3
ENDBRANCH   1   2
BRANCH   1   7
ATOM      7  C   UNL     1      -5.547  -3.565 -18.599  1.00  0.00     0.000 C 
BRANCH   7   8
ATOM      8  C   UNL     1      -4.279  -2.709 -18.750  1.00  0.00    -0.000 C 
BRANCH   8   9
ATOM      9  C   UNL     1      -4.527  -1.421 -19.554  1.00  0.00    -0.000 C 
BRANCH   9  10
ATOM     10  C   UNL     1      -4.212  -0.152 -18.747  1.00  0.00    -0.003 C 
ATOM     11  C   UNL     1      -2.895  -0.254 -17.979  1.00  0.00     0.004 C 
ENDBRANCH   9  10
ENDBRANCH   8   9
ENDBRANCH   7   8
ENDBRANCH   1   7
TORSDOF 7
ENDMDL
MODEL 9
REMARK VINA RESULT:    -5.469      2.590      5.711
REMARK INTER + INTRA:          -8.115
REMARK INTER:                  -7.800
REMARK INTRA:                  -0.314
REMARK UNBOUND:                -0.408
REMARK SMILES CCCCCCCCC(=O)[O-]
REMARK SMILES IDX 6 1 7 2 8 3 9 4 10 5 11 6 5 7 4 8 3 9 2 10 1 11
REMARK H PARENT
REMARK Flexibility Score: inf
ROOT
ATOM      1  C   UNL     1      -5.384  -3.784 -18.282  1.00  0.00     0.000 C 
ENDROOT
BRANCH   1   2
ATOM      2  C   UNL     1      -6.378  -4.357 -19.299  1.00  0.00     0.006 C 
BRANCH   2   3
ATOM      3  C   UNL     1      -7.575  -3.419 -19.486  1.00  0.00     0.053 C 
BRANCH   3   4
ATOM      4  C   UNL     1      -7.424  -2.622 -20.742  1.00  0.00     0.041 C 
ATOM      5  O   UNL     1      -7.519  -1.367 -20.712  1.00  0.00    -0.550 OA
ATOM      6  O   UNL     1      -7.129  -3.261 -21.941  1.00  0.00    -0.550 OA
ENDBRANCH   3   4
ENDBRANCH   2   3
ENDBRANCH   1   2
BRANCH   1   7
ATOM      7  C   UNL     1      -4.447  -2.764 -18.945  1.00  0.00     0.000 C 
BRANCH   7   8
ATOM      8  C   UNL     1      -4.295  -1.477 -18.119  1.00  0.00    -0.000 C 
BRANCH   8   9
ATOM      9  C   UNL     1      -4.100  -0.229 -18.998  1.00  0.00    -0.000 C 
BRANCH   9  10
ATOM     10  C   UNL     1      -3.246   0.848 -18.311  1.00  0.00    -0.003 C 
ATOM     11  C   UNL     1      -2.231   0.260 -17.332  1.00  0.00     0.004 C 
ENDBRANCH   9  10
ENDBRANCH   8   9
ENDBRANCH   7   8
ENDBRANCH   1   7
TORSDOF 7
ENDMDL
