MODEL 1
REMARK VINA RESULT:    -4.432      0.000      0.000
REMARK INTER + INTRA:         -11.788
REMARK INTER:                  -9.614
REMARK INTRA:                  -2.174
REMARK UNBOUND:                -2.174
REMARK SMILES CCCCCCCCCCCCCCCCCCCCCC(=O)[O-]
REMARK SMILES IDX 12 1 11 2 10 3 9 4 8 5 7 6 6 7 5 8 4 9 3 10 2 11 1 12 13 13
REMARK SMILES IDX 14 14 15 15 16 16 17 17 18 18 19 19 20 20 21 21 22 22 23 23
REMARK SMILES IDX 24 24
REMARK H PARENT
REMARK Flexibility Score: inf
ROOT
ATOM      1  C   UNL     1       8.621  61.074  53.845  1.00  0.00     0.000 C 
ENDROOT
BRANCH   1   2
ATOM      2  C   UNL     1       7.451  61.474  52.933  1.00  0.00     0.000 C 
BRANCH   2   3
ATOM      3  C   UNL     1       7.920  62.029  51.578  1.00  0.00     0.000 C 
BRANCH   3   4
ATOM      4  C   UNL     1       6.751  62.338  50.630  1.00  0.00    -0.000 C 
BRANCH   4   5
ATOM      5  C   UNL     1       7.251  62.565  49.198  1.00  0.00    -0.000 C 
BRANCH   5   6
ATOM      6  C   UNL     1       8.637  61.937  48.993  1.00  0.00    -0.000 C 
BRANCH   6   7
ATOM      7  C   UNL     1       9.204  62.201  47.590  1.00  0.00    -0.000 C 
BRANCH   7   8
ATOM      8  C   UNL     1      10.218  63.356  47.570  1.00  0.00    -0.000 C 
BRANCH   8   9
ATOM      9  C   UNL     1       9.549  64.741  47.566  1.00  0.00    -0.000 C 
BRANCH   9  10
ATOM     10  C   UNL     1      10.306  65.796  48.401  1.00  0.00    -0.000 C 
BRANCH  10  11
ATOM     11  C   UNL     1      10.924  65.198  49.674  1.00  0.00    -0.003 C 
ATOM     12  C   UNL     1       9.884  65.070  50.783  1.00  0.00     0.004 C 
ENDBRANCH  10  11
ENDBRANCH   9  10
ENDBRANCH   8   9
ENDBRANCH   7   8
ENDBRANCH   6   7
ENDBRANCH   5   6
ENDBRANCH   4   5
ENDBRANCH   3   4
ENDBRANCH   2   3
ENDBRANCH   1   2
BRANCH   1  13
ATOM     13  C   UNL     1       8.169  60.977  55.310  1.00  0.00     0.000 C 
BRANCH  13  14
ATOM     14  C   UNL     1       7.899  59.529  55.748  1.00  0.00     0.000 C 
BRANCH  14  15
ATOM     15  C   UNL     1       6.755  59.425  56.771  1.00  0.00     0.000 C 
BRANCH  15  16
ATOM     16  C   UNL     1       5.970  60.740  56.922  1.00  0.00     0.000 C 
BRANCH  16  17
ATOM     17  C   UNL     1       5.610  61.118  58.373  1.00  0.00     0.000 C 
BRANCH  17  18
ATOM     18  C   UNL     1       6.797  61.584  59.240  1.00  0.00     0.000 C 
BRANCH  18  19
ATOM     19  C   UNL     1       7.709  62.639  58.581  1.00  0.00     0.000 C 
BRANCH  19  20
ATOM     20  C   UNL     1       9.221  62.382  58.736  1.00  0.00     0.006 C 
BRANCH  20  21
ATOM     21  C   UNL     1      10.099  63.634  58.580  1.00  0.00     0.053 C 
BRANCH  21  22
ATOM     22  C   UNL     1      10.028  64.198  57.194  1.00  0.00     0.041 C 
ATOM     23  O   UNL     1      10.389  63.502  56.208  1.00  0.00    -0.550 OA
ATOM     24  O   UNL     1       9.590  65.501  56.993  1.00  0.00    -0.550 OA
ENDBRANCH  21  22
ENDBRANCH  20  21
ENDBRANCH  19  20
ENDBRANCH  18  19
ENDBRANCH  17  18
ENDBRANCH  16  17
ENDBRANCH  15  16
ENDBRANCH  14  15
ENDBRANCH  13  14
ENDBRANCH   1  13
TORSDOF 20
ENDMDL
MODEL 2
REMARK VINA RESULT:    -4.382      1.262      2.280
REMARK INTER + INTRA:         -11.679
REMARK INTER:                  -9.756
REMARK INTRA:                  -1.924
REMARK UNBOUND:                -2.174
REMARK SMILES CCCCCCCCCCCCCCCCCCCCCC(=O)[O-]
REMARK SMILES IDX 12 1 11 2 10 3 9 4 8 5 7 6 6 7 5 8 4 9 3 10 2 11 1 12 13 13
REMARK SMILES IDX 14 14 15 15 16 16 17 17 18 18 19 19 20 20 21 21 22 22 23 23
REMARK SMILES IDX 24 24
REMARK H PARENT
REMARK Flexibility Score: inf
ROOT
ATOM      1  C   UNL     1       7.902  60.882  55.875  1.00  0.00     0.000 C 
ENDROOT
BRANCH   1   2
ATOM      2  C   UNL     1       8.596  61.089  54.521  1.00  0.00     0.000 C 
BRANCH   2   3
ATOM      3  C   UNL     1       7.614  61.054  53.340  1.00  0.00     0.000 C 
BRANCH   3   4
ATOM      4  C   UNL     1       8.110  61.865  52.133  1.00  0.00    -0.000 C 
BRANCH   4   5
ATOM      5  C   UNL     1       6.956  62.188  51.176  1.00  0.00    -0.000 C 
BRANCH   5   6
ATOM      6  C   UNL     1       7.483  62.506  49.768  1.00  0.00    -0.000 C 
BRANCH   6   7
ATOM      7  C   UNL     1       8.838  61.843  49.482  1.00  0.00    -0.000 C 
BRANCH   7   8
ATOM      8  C   UNL     1       9.429  62.266  48.126  1.00  0.00    -0.000 C 
BRANCH   8   9
ATOM      9  C   UNL     1       9.137  63.735  47.779  1.00  0.00    -0.000 C 
BRANCH   9  10
ATOM     10  C   UNL     1       8.956  63.988  46.267  1.00  0.00    -0.000 C 
BRANCH  10  11
ATOM     11  C   UNL     1       7.809  63.159  45.671  1.00  0.00    -0.003 C 
ATOM     12  C   UNL     1       6.474  63.522  46.313  1.00  0.00     0.004 C 
ENDBRANCH  10  11
ENDBRANCH   9  10
ENDBRANCH   8   9
ENDBRANCH   7   8
ENDBRANCH   6   7
ENDBRANCH   5   6
ENDBRANCH   4   5
ENDBRANCH   3   4
ENDBRANCH   2   3
ENDBRANCH   1   2
BRANCH   1  13
ATOM     13  C   UNL     1       7.882  59.396  56.263  1.00  0.00     0.000 C 
BRANCH  13  14
ATOM     14  C   UNL     1       6.518  58.950  56.815  1.00  0.00     0.000 C 
BRANCH  14  15
ATOM     15  C   UNL     1       5.738  60.105  57.465  1.00  0.00     0.000 C 
BRANCH  15  16
ATOM     16  C   UNL     1       5.501  59.892  58.971  1.00  0.00     0.000 C 
BRANCH  16  17
ATOM     17  C   UNL     1       6.204  60.911  59.890  1.00  0.00     0.000 C 
BRANCH  17  18
ATOM     18  C   UNL     1       6.981  62.023  59.157  1.00  0.00     0.000 C 
BRANCH  18  19
ATOM     19  C   UNL     1       8.392  62.305  59.711  1.00  0.00     0.000 C 
BRANCH  19  20
ATOM     20  C   UNL     1       9.438  62.719  58.656  1.00  0.00     0.006 C 
BRANCH  20  21
ATOM     21  C   UNL     1       9.442  64.218  58.318  1.00  0.00     0.053 C 
BRANCH  21  22
ATOM     22  C   UNL     1      10.020  64.485  56.962  1.00  0.00     0.041 C 
ATOM     23  O   UNL     1      10.508  63.542  56.285  1.00  0.00    -0.550 OA
ATOM     24  O   UNL     1      10.045  65.779  56.458  1.00  0.00    -0.550 OA
ENDBRANCH  21  22
ENDBRANCH  20  21
ENDBRANCH  19  20
ENDBRANCH  18  19
ENDBRANCH  17  18
ENDBRANCH  16  17
ENDBRANCH  15  16
ENDBRANCH  14  15
ENDBRANCH  13  14
ENDBRANCH   1  13
TORSDOF 20
ENDMDL
MODEL 3
REMARK VINA RESULT:    -4.350      1.600      2.505
REMARK INTER + INTRA:         -11.610
REMARK INTER:                  -9.644
REMARK INTRA:                  -1.966
REMARK UNBOUND:                -2.174
REMARK SMILES CCCCCCCCCCCCCCCCCCCCCC(=O)[O-]
REMARK SMILES IDX 12 1 11 2 10 3 9 4 8 5 7 6 6 7 5 8 4 9 3 10 2 11 1 12 13 13
REMARK SMILES IDX 14 14 15 15 16 16 17 17 18 18 19 19 20 20 21 21 22 22 23 23
REMARK SMILES IDX 24 24
REMARK H PARENT
REMARK Flexibility Score: inf
ROOT
ATOM      1  C   UNL     1       8.203  60.904  55.166  1.00  0.00     0.000 C 
ENDROOT
BRANCH   1   2
ATOM      2  C   UNL     1       8.276  61.042  53.637  1.00  0.00     0.000 C 
BRANCH   2   3
ATOM      3  C   UNL     1       6.941  61.484  53.018  1.00  0.00     0.000 C 
BRANCH   3   4
ATOM      4  C   UNL     1       7.111  62.100  51.622  1.00  0.00    -0.000 C 
BRANCH   4   5
ATOM      5  C   UNL     1       5.755  62.502  51.028  1.00  0.00    -0.000 C 
BRANCH   5   6
ATOM      6  C   UNL     1       5.932  63.529  49.900  1.00  0.00    -0.000 C 
BRANCH   6   7
ATOM      7  C   UNL     1       5.623  62.943  48.515  1.00  0.00    -0.000 C 
BRANCH   7   8
ATOM      8  C   UNL     1       6.263  63.752  47.374  1.00  0.00    -0.000 C 
BRANCH   8   9
ATOM      9  C   UNL     1       7.564  64.456  47.797  1.00  0.00    -0.000 C 
BRANCH   9  10
ATOM     10  C   UNL     1       8.814  63.942  47.052  1.00  0.00    -0.000 C 
BRANCH  10  11
ATOM     11  C   UNL     1       9.061  62.445  47.292  1.00  0.00    -0.003 C 
ATOM     12  C   UNL     1       9.395  62.168  48.755  1.00  0.00     0.004 C 
ENDBRANCH  10  11
ENDBRANCH   9  10
ENDBRANCH   8   9
ENDBRANCH   7   8
ENDBRANCH   6   7
ENDBRANCH   5   6
ENDBRANCH   4   5
ENDBRANCH   3   4
ENDBRANCH   2   3
ENDBRANCH   1   2
BRANCH   1  13
ATOM     13  C   UNL     1       7.944  59.447  55.576  1.00  0.00     0.000 C 
BRANCH  13  14
ATOM     14  C   UNL     1       6.922  59.331  56.719  1.00  0.00     0.000 C 
BRANCH  14  15
ATOM     15  C   UNL     1       6.278  60.681  57.075  1.00  0.00     0.000 C 
BRANCH  15  16
ATOM     16  C   UNL     1       6.346  60.996  58.580  1.00  0.00     0.000 C 
BRANCH  16  17
ATOM     17  C   UNL     1       7.175  62.244  58.946  1.00  0.00     0.000 C 
BRANCH  17  18
ATOM     18  C   UNL     1       8.660  62.183  58.536  1.00  0.00     0.000 C 
BRANCH  18  19
ATOM     19  C   UNL     1       9.293  63.544  58.181  1.00  0.00     0.000 C 
BRANCH  19  20
ATOM     20  C   UNL     1      10.073  63.574  56.852  1.00  0.00     0.006 C 
BRANCH  20  21
ATOM     21  C   UNL     1      10.375  64.985  56.322  1.00  0.00     0.053 C 
BRANCH  21  22
ATOM     22  C   UNL     1      11.062  64.949  54.991  1.00  0.00     0.041 C 
ATOM     23  O   UNL     1      11.128  63.872  54.342  1.00  0.00    -0.550 OA
ATOM     24  O   UNL     1      11.652  66.098  54.481  1.00  0.00    -0.550 OA
ENDBRANCH  21  22
ENDBRANCH  20  21
ENDBRANCH  19  20
ENDBRANCH  18  19
ENDBRANCH  17  18
ENDBRANCH  16  17
ENDBRANCH  15  16
ENDBRANCH  14  15
ENDBRANCH  13  14
ENDBRANCH   1  13
TORSDOF 20
ENDMDL
MODEL 4
REMARK VINA RESULT:    -4.337      2.761      7.001
REMARK INTER + INTRA:         -11.582
REMARK INTER:                  -9.682
REMARK INTRA:                  -1.899
REMARK UNBOUND:                -2.174
REMARK SMILES CCCCCCCCCCCCCCCCCCCCCC(=O)[O-]
REMARK SMILES IDX 12 1 11 2 10 3 9 4 8 5 7 6 6 7 5 8 4 9 3 10 2 11 1 12 13 13
REMARK SMILES IDX 14 14 15 15 16 16 17 17 18 18 19 19 20 20 21 21 22 22 23 23
REMARK SMILES IDX 24 24
REMARK H PARENT
REMARK Flexibility Score: inf
ROOT
ATOM      1  C   UNL     1       5.195  60.897  59.881  1.00  0.00     0.000 C 
ENDROOT
BRANCH   1   2
ATOM      2  C   UNL     1       6.063  62.023  59.300  1.00  0.00     0.000 C 
BRANCH   2   3
ATOM      3  C   UNL     1       7.532  61.929  59.744  1.00  0.00     0.000 C 
BRANCH   3   4
ATOM      4  C   UNL     1       8.512  62.355  58.641  1.00  0.00    -0.000 C 
BRANCH   4   5
ATOM      5  C   UNL     1       9.901  62.646  59.223  1.00  0.00    -0.000 C 
BRANCH   5   6
ATOM      6  C   UNL     1      10.302  64.109  58.982  1.00  0.00    -0.000 C 
BRANCH   6   7
ATOM      7  C   UNL     1       9.460  64.779  57.886  1.00  0.00    -0.000 C 
BRANCH   7   8
ATOM      8  C   UNL     1      10.122  64.698  56.500  1.00  0.00    -0.000 C 
BRANCH   8   9
ATOM      9  C   UNL     1      11.378  65.578  56.385  1.00  0.00    -0.000 C 
BRANCH   9  10
ATOM     10  C   UNL     1      11.874  65.762  54.935  1.00  0.00    -0.000 C 
BRANCH  10  11
ATOM     11  C   UNL     1      11.571  64.539  54.057  1.00  0.00    -0.003 C 
ATOM     12  C   UNL     1      11.190  64.958  52.640  1.00  0.00     0.004 C 
ENDBRANCH  10  11
ENDBRANCH   9  10
ENDBRANCH   8   9
ENDBRANCH   7   8
ENDBRANCH   6   7
ENDBRANCH   5   6
ENDBRANCH   4   5
ENDBRANCH   3   4
ENDBRANCH   2   3
ENDBRANCH   1   2
BRANCH   1  13
ATOM     13  C   UNL     1       5.033  59.750  58.874  1.00  0.00     0.000 C 
BRANCH  13  14
ATOM     14  C   UNL     1       5.775  60.017  57.553  1.00  0.00     0.000 C 
BRANCH  14  15
ATOM     15  C   UNL     1       6.716  58.866  57.162  1.00  0.00     0.000 C 
BRANCH  15  16
ATOM     16  C   UNL     1       7.666  59.238  56.010  1.00  0.00     0.000 C 
BRANCH  16  17
ATOM     17  C   UNL     1       7.669  60.732  55.628  1.00  0.00     0.000 C 
BRANCH  17  18
ATOM     18  C   UNL     1       8.704  61.130  54.556  1.00  0.00     0.000 C 
BRANCH  18  19
ATOM     19  C   UNL     1       8.138  61.283  53.130  1.00  0.00     0.000 C 
BRANCH  19  20
ATOM     20  C   UNL     1       9.024  62.089  52.159  1.00  0.00     0.006 C 
BRANCH  20  21
ATOM     21  C   UNL     1       8.783  61.781  50.673  1.00  0.00     0.053 C 
BRANCH  21  22
ATOM     22  C   UNL     1       7.789  62.719  50.059  1.00  0.00     0.041 C 
ATOM     23  O   UNL     1       6.654  62.298  49.711  1.00  0.00    -0.550 OA
ATOM     24  O   UNL     1       8.126  64.049  49.846  1.00  0.00    -0.550 OA
ENDBRANCH  21  22
ENDBRANCH  20  21
ENDBRANCH  19  20
ENDBRANCH  18  19
ENDBRANCH  17  18
ENDBRANCH  16  17
ENDBRANCH  15  16
ENDBRANCH  14  15
ENDBRANCH  13  14
ENDBRANCH   1  13
TORSDOF 20
ENDMDL
MODEL 5
REMARK VINA RESULT:    -4.330      9.475     13.059
REMARK INTER + INTRA:         -11.567
REMARK INTER:                  -9.200
REMARK INTRA:                  -2.366
REMARK UNBOUND:                -2.174
REMARK SMILES CCCCCCCCCCCCCCCCCCCCCC(=O)[O-]
REMARK SMILES IDX 12 1 11 2 10 3 9 4 8 5 7 6 6 7 5 8 4 9 3 10 2 11 1 12 13 13
REMARK SMILES IDX 14 14 15 15 16 16 17 17 18 18 19 19 20 20 21 21 22 22 23 23
REMARK SMILES IDX 24 24
REMARK H PARENT
REMARK Flexibility Score: inf
ROOT
ATOM      1  C   UNL     1       0.756  59.175  44.158  1.00  0.00     0.000 C 
ENDROOT
BRANCH   1   2
ATOM      2  C   UNL     1      -0.246  58.028  43.957  1.00  0.00     0.000 C 
BRANCH   2   3
ATOM      3  C   UNL     1      -1.152  57.812  45.179  1.00  0.00     0.000 C 
BRANCH   3   4
ATOM      4  C   UNL     1      -2.643  57.783  44.813  1.00  0.00    -0.000 C 
BRANCH   4   5
ATOM      5  C   UNL     1      -3.461  57.060  45.891  1.00  0.00    -0.000 C 
BRANCH   5   6
ATOM      6  C   UNL     1      -2.560  56.598  47.046  1.00  0.00    -0.000 C 
BRANCH   6   7
ATOM      7  C   UNL     1      -2.998  57.173  48.401  1.00  0.00    -0.000 C 
BRANCH   7   8
ATOM      8  C   UNL     1      -2.199  58.425  48.799  1.00  0.00    -0.000 C 
BRANCH   8   9
ATOM      9  C   UNL     1      -3.094  59.649  49.056  1.00  0.00    -0.000 C 
BRANCH   9  10
ATOM     10  C   UNL     1      -3.898  60.099  47.817  1.00  0.00    -0.000 C 
BRANCH  10  11
ATOM     11  C   UNL     1      -3.040  60.900  46.826  1.00  0.00    -0.003 C 
ATOM     12  C   UNL     1      -3.769  61.099  45.501  1.00  0.00     0.004 C 
ENDBRANCH  10  11
ENDBRANCH   9  10
ENDBRANCH   8   9
ENDBRANCH   7   8
ENDBRANCH   6   7
ENDBRANCH   5   6
ENDBRANCH   4   5
ENDBRANCH   3   4
ENDBRANCH   2   3
ENDBRANCH   1   2
BRANCH   1  13
ATOM     13  C   UNL     1       0.250  60.170  45.213  1.00  0.00     0.000 C 
BRANCH  13  14
ATOM     14  C   UNL     1      -0.158  61.520  44.601  1.00  0.00     0.000 C 
BRANCH  14  15
ATOM     15  C   UNL     1       0.963  62.148  43.756  1.00  0.00     0.000 C 
BRANCH  15  16
ATOM     16  C   UNL     1       1.544  63.425  44.389  1.00  0.00     0.000 C 
BRANCH  16  17
ATOM     17  C   UNL     1       1.653  63.395  45.927  1.00  0.00     0.000 C 
BRANCH  17  18
ATOM     18  C   UNL     1       2.740  64.312  46.522  1.00  0.00     0.000 C 
BRANCH  18  19
ATOM     19  C   UNL     1       2.659  64.511  48.049  1.00  0.00     0.000 C 
BRANCH  19  20
ATOM     20  C   UNL     1       2.307  65.942  48.503  1.00  0.00     0.006 C 
BRANCH  20  21
ATOM     21  C   UNL     1       0.926  66.078  49.167  1.00  0.00     0.053 C 
BRANCH  21  22
ATOM     22  C   UNL     1       1.034  66.473  50.608  1.00  0.00     0.041 C 
ATOM     23  O   UNL     1       1.531  65.676  51.447  1.00  0.00    -0.550 OA
ATOM     24  O   UNL     1       0.561  67.709  51.029  1.00  0.00    -0.550 OA
ENDBRANCH  21  22
ENDBRANCH  20  21
ENDBRANCH  19  20
ENDBRANCH  18  19
ENDBRANCH  17  18
ENDBRANCH  16  17
ENDBRANCH  15  16
ENDBRANCH  14  15
ENDBRANCH  13  14
ENDBRANCH   1  13
TORSDOF 20
ENDMDL
MODEL 6
REMARK VINA RESULT:    -4.310     10.849     13.381
REMARK INTER + INTRA:         -11.523
REMARK INTER:                  -7.750
REMARK INTRA:                  -3.774
REMARK UNBOUND:                -2.174
REMARK SMILES CCCCCCCCCCCCCCCCCCCCCC(=O)[O-]
REMARK SMILES IDX 12 1 11 2 10 3 9 4 8 5 7 6 6 7 5 8 4 9 3 10 2 11 1 12 13 13
REMARK SMILES IDX 14 14 15 15 16 16 17 17 18 18 19 19 20 20 21 21 22 22 23 23
REMARK SMILES IDX 24 24
REMARK H PARENT
REMARK Flexibility Score: inf
ROOT
ATOM      1  C   UNL     1       0.751  60.464  45.255  1.00  0.00     0.000 C 
ENDROOT
BRANCH   1   2
ATOM      2  C   UNL     1      -0.179  61.685  45.336  1.00  0.00     0.000 C 
BRANCH   2   3
ATOM      3  C   UNL     1      -0.559  62.233  43.952  1.00  0.00     0.000 C 
BRANCH   3   4
ATOM      4  C   UNL     1      -1.895  62.993  43.963  1.00  0.00    -0.000 C 
BRANCH   4   5
ATOM      5  C   UNL     1      -2.128  63.674  45.318  1.00  0.00    -0.000 C 
BRANCH   5   6
ATOM      6  C   UNL     1      -1.502  65.076  45.343  1.00  0.00    -0.000 C 
BRANCH   6   7
ATOM      7  C   UNL     1      -0.545  65.273  46.528  1.00  0.00    -0.000 C 
BRANCH   7   8
ATOM      8  C   UNL     1       0.929  65.334  46.094  1.00  0.00    -0.000 C 
BRANCH   8   9
ATOM      9  C   UNL     1       1.840  64.427  46.939  1.00  0.00    -0.000 C 
BRANCH   9  10
ATOM     10  C   UNL     1       2.845  63.608  46.103  1.00  0.00    -0.000 C 
BRANCH  10  11
ATOM     11  C   UNL     1       2.740  63.915  44.601  1.00  0.00    -0.003 C 
ATOM     12  C   UNL     1       3.260  62.751  43.763  1.00  0.00     0.004 C 
ENDBRANCH  10  11
ENDBRANCH   9  10
ENDBRANCH   8   9
ENDBRANCH   7   8
ENDBRANCH   6   7
ENDBRANCH   5   6
ENDBRANCH   4   5
ENDBRANCH   3   4
ENDBRANCH   2   3
ENDBRANCH   1   2
BRANCH   1  13
ATOM     13  C   UNL     1       0.452  59.627  44.003  1.00  0.00     0.000 C 
BRANCH  13  14
ATOM     14  C   UNL     1       0.376  58.122  44.306  1.00  0.00     0.000 C 
BRANCH  14  15
ATOM     15  C   UNL     1      -0.853  57.751  45.153  1.00  0.00     0.000 C 
BRANCH  15  16
ATOM     16  C   UNL     1      -2.158  57.743  44.339  1.00  0.00     0.000 C 
BRANCH  16  17
ATOM     17  C   UNL     1      -3.382  58.335  45.067  1.00  0.00     0.000 C 
BRANCH  17  18
ATOM     18  C   UNL     1      -3.387  59.872  45.190  1.00  0.00     0.000 C 
BRANCH  18  19
ATOM     19  C   UNL     1      -3.430  60.409  46.635  1.00  0.00     0.000 C 
BRANCH  19  20
ATOM     20  C   UNL     1      -2.426  59.754  47.605  1.00  0.00     0.006 C 
BRANCH  20  21
ATOM     21  C   UNL     1      -3.074  58.987  48.769  1.00  0.00     0.053 C 
BRANCH  21  22
ATOM     22  C   UNL     1      -2.713  57.533  48.752  1.00  0.00     0.041 C 
ATOM     23  O   UNL     1      -1.896  57.074  49.593  1.00  0.00    -0.550 OA
ATOM     24  O   UNL     1      -3.258  56.691  47.791  1.00  0.00    -0.550 OA
ENDBRANCH  21  22
ENDBRANCH  20  21
ENDBRANCH  19  20
ENDBRANCH  18  19
ENDBRANCH  17  18
ENDBRANCH  16  17
ENDBRANCH  15  16
ENDBRANCH  14  15
ENDBRANCH  13  14
ENDBRANCH   1  13
TORSDOF 20
ENDMDL
MODEL 7
REMARK VINA RESULT:    -4.304     10.830     13.599
REMARK INTER + INTRA:         -11.510
REMARK INTER:                  -8.468
REMARK INTRA:                  -3.042
REMARK UNBOUND:                -2.174
REMARK SMILES CCCCCCCCCCCCCCCCCCCCCC(=O)[O-]
REMARK SMILES IDX 12 1 11 2 10 3 9 4 8 5 7 6 6 7 5 8 4 9 3 10 2 11 1 12 13 13
REMARK SMILES IDX 14 14 15 15 16 16 17 17 18 18 19 19 20 20 21 21 22 22 23 23
REMARK SMILES IDX 24 24
REMARK H PARENT
REMARK Flexibility Score: inf
ROOT
ATOM      1  C   UNL     1      -2.425  57.269  48.994  1.00  0.00     0.000 C 
ENDROOT
BRANCH   1   2
ATOM      2  C   UNL     1      -2.135  58.771  48.860  1.00  0.00     0.000 C 
BRANCH   2   3
ATOM      3  C   UNL     1      -3.386  59.637  49.078  1.00  0.00     0.000 C 
BRANCH   3   4
ATOM      4  C   UNL     1      -4.125  59.949  47.768  1.00  0.00    -0.000 C 
BRANCH   4   5
ATOM      5  C   UNL     1      -3.526  61.181  47.078  1.00  0.00    -0.000 C 
BRANCH   5   6
ATOM      6  C   UNL     1      -4.115  61.365  45.672  1.00  0.00    -0.000 C 
BRANCH   6   7
ATOM      7  C   UNL     1      -3.182  62.151  44.739  1.00  0.00    -0.000 C 
BRANCH   7   8
ATOM      8  C   UNL     1      -1.934  62.683  45.462  1.00  0.00    -0.000 C 
BRANCH   8   9
ATOM      9  C   UNL     1      -1.618  64.147  45.111  1.00  0.00    -0.000 C 
BRANCH   9  10
ATOM     10  C   UNL     1      -1.509  65.068  46.346  1.00  0.00    -0.000 C 
BRANCH  10  11
ATOM     11  C   UNL     1      -2.530  66.214  46.309  1.00  0.00    -0.003 C 
ATOM     12  C   UNL     1      -3.957  65.680  46.227  1.00  0.00     0.004 C 
ENDBRANCH  10  11
ENDBRANCH   9  10
ENDBRANCH   8   9
ENDBRANCH   7   8
ENDBRANCH   6   7
ENDBRANCH   5   6
ENDBRANCH   4   5
ENDBRANCH   3   4
ENDBRANCH   2   3
ENDBRANCH   1   2
BRANCH   1  13
ATOM     13  C   UNL     1      -2.190  56.542  47.662  1.00  0.00     0.000 C 
BRANCH  13  14
ATOM     14  C   UNL     1      -3.328  56.777  46.655  1.00  0.00     0.000 C 
BRANCH  14  15
ATOM     15  C   UNL     1      -2.858  57.527  45.397  1.00  0.00     0.000 C 
BRANCH  15  16
ATOM     16  C   UNL     1      -1.332  57.728  45.358  1.00  0.00     0.000 C 
BRANCH  16  17
ATOM     17  C   UNL     1      -0.874  59.182  45.130  1.00  0.00     0.000 C 
BRANCH  17  18
ATOM     18  C   UNL     1       0.357  59.343  44.214  1.00  0.00     0.000 C 
BRANCH  18  19
ATOM     19  C   UNL     1       0.756  60.801  43.911  1.00  0.00     0.000 C 
BRANCH  19  20
ATOM     20  C   UNL     1       1.952  61.333  44.724  1.00  0.00     0.006 C 
BRANCH  20  21
ATOM     21  C   UNL     1       1.573  62.311  45.848  1.00  0.00     0.053 C 
BRANCH  21  22
ATOM     22  C   UNL     1       2.458  63.520  45.861  1.00  0.00     0.041 C 
ATOM     23  O   UNL     1       1.952  64.673  45.893  1.00  0.00    -0.550 OA
ATOM     24  O   UNL     1       3.838  63.375  45.809  1.00  0.00    -0.550 OA
ENDBRANCH  21  22
ENDBRANCH  20  21
ENDBRANCH  19  20
ENDBRANCH  18  19
ENDBRANCH  17  18
ENDBRANCH  16  17
ENDBRANCH  15  16
ENDBRANCH  14  15
ENDBRANCH  13  14
ENDBRANCH   1  13
TORSDOF 20
ENDMDL
MODEL 8
REMARK VINA RESULT:    -4.272     10.047     13.592
REMARK INTER + INTRA:         -11.442
REMARK INTER:                  -8.694
REMARK INTRA:                  -2.748
REMARK UNBOUND:                -2.174
REMARK SMILES CCCCCCCCCCCCCCCCCCCCCC(=O)[O-]
REMARK SMILES IDX 12 1 11 2 10 3 9 4 8 5 7 6 6 7 5 8 4 9 3 10 2 11 1 12 13 13
REMARK SMILES IDX 14 14 15 15 16 16 17 17 18 18 19 19 20 20 21 21 22 22 23 23
REMARK SMILES IDX 24 24
REMARK H PARENT
REMARK Flexibility Score: inf
ROOT
ATOM      1  C   UNL     1      -0.032  60.336  45.520  1.00  0.00     0.000 C 
ENDROOT
BRANCH   1   2
ATOM      2  C   UNL     1       0.533  59.467  44.387  1.00  0.00     0.000 C 
BRANCH   2   3
ATOM      3  C   UNL     1      -0.362  58.261  44.062  1.00  0.00     0.000 C 
BRANCH   3   4
ATOM      4  C   UNL     1      -1.354  57.940  45.189  1.00  0.00    -0.000 C 
BRANCH   4   5
ATOM      5  C   UNL     1      -2.777  57.773  44.640  1.00  0.00    -0.000 C 
BRANCH   5   6
ATOM      6  C   UNL     1      -3.807  58.419  45.577  1.00  0.00    -0.000 C 
BRANCH   6   7
ATOM      7  C   UNL     1      -3.621  59.938  45.702  1.00  0.00    -0.000 C 
BRANCH   7   8
ATOM      8  C   UNL     1      -3.425  60.393  47.157  1.00  0.00    -0.000 C 
BRANCH   8   9
ATOM      9  C   UNL     1      -3.649  59.260  48.173  1.00  0.00    -0.000 C 
BRANCH   9  10
ATOM     10  C   UNL     1      -2.345  58.730  48.805  1.00  0.00    -0.000 C 
BRANCH  10  11
ATOM     11  C   UNL     1      -2.471  57.269  49.263  1.00  0.00    -0.003 C 
ATOM     12  C   UNL     1      -2.066  56.306  48.151  1.00  0.00     0.004 C 
ENDBRANCH  10  11
ENDBRANCH   9  10
ENDBRANCH   8   9
ENDBRANCH   7   8
ENDBRANCH   6   7
ENDBRANCH   5   6
ENDBRANCH   4   5
ENDBRANCH   3   4
ENDBRANCH   2   3
ENDBRANCH   1   2
BRANCH   1  13
ATOM     13  C   UNL     1       0.129  61.830  45.202  1.00  0.00     0.000 C 
BRANCH  13  14
ATOM     14  C   UNL     1      -0.541  62.225  43.876  1.00  0.00     0.000 C 
BRANCH  14  15
ATOM     15  C   UNL     1      -1.530  63.392  44.039  1.00  0.00     0.000 C 
BRANCH  15  16
ATOM     16  C   UNL     1      -2.336  63.312  45.347  1.00  0.00     0.000 C 
BRANCH  16  17
ATOM     17  C   UNL     1      -2.236  64.557  46.250  1.00  0.00     0.000 C 
BRANCH  17  18
ATOM     18  C   UNL     1      -1.135  65.562  45.856  1.00  0.00     0.000 C 
BRANCH  18  19
ATOM     19  C   UNL     1      -0.795  66.611  46.934  1.00  0.00     0.000 C 
BRANCH  19  20
ATOM     20  C   UNL     1      -0.258  66.034  48.259  1.00  0.00     0.006 C 
BRANCH  20  21
ATOM     21  C   UNL     1       1.231  66.315  48.519  1.00  0.00     0.053 C 
BRANCH  21  22
ATOM     22  C   UNL     1       2.054  65.065  48.466  1.00  0.00     0.041 C 
ATOM     23  O   UNL     1       2.198  64.448  47.378  1.00  0.00    -0.550 OA
ATOM     24  O   UNL     1       2.640  64.567  49.623  1.00  0.00    -0.550 OA
ENDBRANCH  21  22
ENDBRANCH  20  21
ENDBRANCH  19  20
ENDBRANCH  18  19
ENDBRANCH  17  18
ENDBRANCH  16  17
ENDBRANCH  15  16
ENDBRANCH  14  15
ENDBRANCH  13  14
ENDBRANCH   1  13
TORSDOF 20
ENDMDL
MODEL 9
REMARK VINA RESULT:    -4.265     11.483     13.657
REMARK INTER + INTRA:         -11.426
REMARK INTER:                  -8.931
REMARK INTRA:                  -2.495
REMARK UNBOUND:                -2.174
REMARK SMILES CCCCCCCCCCCCCCCCCCCCCC(=O)[O-]
REMARK SMILES IDX 12 1 11 2 10 3 9 4 8 5 7 6 6 7 5 8 4 9 3 10 2 11 1 12 13 13
REMARK SMILES IDX 14 14 15 15 16 16 17 17 18 18 19 19 20 20 21 21 22 22 23 23
REMARK SMILES IDX 24 24
REMARK H PARENT
REMARK Flexibility Score: inf
ROOT
ATOM      1  C   UNL     1       3.190  58.399  43.260  1.00  0.00     0.000 C 
ENDROOT
BRANCH   1   2
ATOM      2  C   UNL     1       4.298  59.459  43.169  1.00  0.00     0.000 C 
BRANCH   2   3
ATOM      3  C   UNL     1       3.743  60.883  43.003  1.00  0.00     0.000 C 
BRANCH   3   4
ATOM      4  C   UNL     1       4.419  61.895  43.940  1.00  0.00    -0.000 C 
BRANCH   4   5
ATOM      5  C   UNL     1       3.507  63.102  44.195  1.00  0.00    -0.000 C 
BRANCH   5   6
ATOM      6  C   UNL     1       2.032  62.731  43.981  1.00  0.00    -0.000 C 
BRANCH   6   7
ATOM      7  C   UNL     1       1.240  62.677  45.296  1.00  0.00    -0.000 C 
BRANCH   7   8
ATOM      8  C   UNL     1       0.011  61.757  45.209  1.00  0.00    -0.000 C 
BRANCH   8   9
ATOM      9  C   UNL     1      -1.003  62.213  44.146  1.00  0.00    -0.000 C 
BRANCH   9  10
ATOM     10  C   UNL     1      -2.321  62.753  44.740  1.00  0.00    -0.000 C 
BRANCH  10  11
ATOM     11  C   UNL     1      -3.089  61.680  45.526  1.00  0.00    -0.003 C 
ATOM     12  C   UNL     1      -3.712  62.263  46.791  1.00  0.00     0.004 C 
ENDBRANCH  10  11
ENDBRANCH   9  10
ENDBRANCH   8   9
ENDBRANCH   7   8
ENDBRANCH   6   7
ENDBRANCH   5   6
ENDBRANCH   4   5
ENDBRANCH   3   4
ENDBRANCH   2   3
ENDBRANCH   1   2
BRANCH   1  13
ATOM     13  C   UNL     1       1.816  59.053  43.466  1.00  0.00     0.000 C 
BRANCH  13  14
ATOM     14  C   UNL     1       0.663  58.041  43.376  1.00  0.00     0.000 C 
BRANCH  14  15
ATOM     15  C   UNL     1      -0.057  57.845  44.721  1.00  0.00     0.000 C 
BRANCH  15  16
ATOM     16  C   UNL     1      -1.437  58.524  44.763  1.00  0.00     0.000 C 
BRANCH  16  17
ATOM     17  C   UNL     1      -2.633  57.579  44.526  1.00  0.00     0.000 C 
BRANCH  17  18
ATOM     18  C   UNL     1      -3.760  57.678  45.573  1.00  0.00     0.000 C 
BRANCH  18  19
ATOM     19  C   UNL     1      -3.703  56.618  46.692  1.00  0.00     0.000 C 
BRANCH  19  20
ATOM     20  C   UNL     1      -2.433  56.660  47.566  1.00  0.00     0.006 C 
BRANCH  20  21
ATOM     21  C   UNL     1      -2.594  57.433  48.885  1.00  0.00     0.053 C 
BRANCH  21  22
ATOM     22  C   UNL     1      -2.676  58.912  48.662  1.00  0.00     0.041 C 
ATOM     23  O   UNL     1      -1.817  59.492  47.945  1.00  0.00    -0.550 OA
ATOM     24  O   UNL     1      -3.682  59.654  49.267  1.00  0.00    -0.550 OA
ENDBRANCH  21  22
ENDBRANCH  20  21
ENDBRANCH  19  20
ENDBRANCH  18  19
ENDBRANCH  17  18
ENDBRANCH  16  17
ENDBRANCH  15  16
ENDBRANCH  14  15
ENDBRANCH  13  14
ENDBRANCH   1  13
TORSDOF 20
ENDMDL
