MODEL 1
REMARK VINA RESULT:    -6.471      0.000      0.000
REMARK INTER + INTRA:          -7.673
REMARK INTER:                  -7.984
REMARK INTRA:                   0.310
REMARK UNBOUND:                 0.310
REMARK SMILES Oc1cc(O)c2cc(O)c(-c3cc(O)c(O)c(O)c3)[o+]c2c1
REMARK SMILES IDX 10 1 20 2 21 3 22 4 2 5 3 6 4 7 6 8 7 9 8 10 11 11 12 12
REMARK SMILES IDX 13 13 19 14 15 15 17 16 14 17 16 19 18 21 9 23 1 25 5 27
REMARK H PARENT 14 18 16 20 18 22 9 24 1 26 5 28
REMARK Flexibility Score: inf
ROOT
ATOM      1  C   UNL     1       0.659   5.082  -5.526  1.00  0.00     0.402 A 
ATOM      2  O   UNL     1       1.692   5.063  -4.688  1.00  0.00    -0.202 OA
ATOM      3  C   UNL     1       1.765   5.824  -3.601  1.00  0.00     0.368 A 
ATOM      4  C   UNL     1       2.891   5.729  -2.779  1.00  0.00     0.162 A 
ATOM      5  C   UNL     1       2.994   6.514  -1.630  1.00  0.00     0.128 A 
ATOM      6  C   UNL     1       1.962   7.399  -1.297  1.00  0.00     0.093 A 
ATOM      7  C   UNL     1       0.823   7.513  -2.104  1.00  0.00     0.136 A 
ATOM      8  C   UNL     1       0.717   6.718  -3.274  1.00  0.00     0.125 A 
ATOM      9  C   UNL     1      -0.381   6.774  -4.149  1.00  0.00     0.078 A 
ATOM     10  C   UNL     1      -0.413   5.963  -5.287  1.00  0.00     0.223 A 
ENDROOT
BRANCH   1  11
ATOM     11  C   UNL     1       0.690   4.179  -6.699  1.00  0.00     0.091 A 
ATOM     12  C   UNL     1       1.466   3.007  -6.700  1.00  0.00     0.068 A 
ATOM     13  C   UNL     1       1.501   2.176  -7.828  1.00  0.00     0.162 A 
ATOM     14  C   UNL     1      -0.024   4.525  -7.856  1.00  0.00     0.068 A 
ATOM     15  C   UNL     1       0.764   2.519  -8.973  1.00  0.00     0.200 A 
ATOM     16  C   UNL     1       0.004   3.701  -8.985  1.00  0.00     0.162 A 
BRANCH  13  17
ATOM     17  O   UNL     1       2.269   1.012  -7.814  1.00  0.00    -0.504 OA
ATOM     18  H   UNL     1       2.379   0.458  -6.973  1.00  0.00     0.293 HD
ENDBRANCH  13  17
BRANCH  15  19
ATOM     19  O   UNL     1       0.783   1.701 -10.104  1.00  0.00    -0.502 OA
ATOM     20  H   UNL     1       0.619   0.702 -10.050  1.00  0.00     0.293 HD
ENDBRANCH  15  19
BRANCH  16  21
ATOM     21  O   UNL     1      -0.732   4.073 -10.111  1.00  0.00    -0.504 OA
ATOM     22  H   UNL     1      -0.967   3.414 -10.842  1.00  0.00     0.293 HD
ENDBRANCH  16  21
ENDBRANCH   1  11
BRANCH  10  23
ATOM     23  O   UNL     1      -1.479   6.054  -6.182  1.00  0.00    -0.500 OA
ATOM     24  H   UNL     1      -1.382   6.511  -7.081  1.00  0.00     0.294 HD
ENDBRANCH  10  23
BRANCH   5  25
ATOM     25  O   UNL     1       4.124   6.406  -0.824  1.00  0.00    -0.507 OA
ATOM     26  H   UNL     1       4.266   7.015  -0.026  1.00  0.00     0.293 HD
ENDBRANCH   5  25
BRANCH   7  27
ATOM     27  O   UNL     1      -0.163   8.417  -1.701  1.00  0.00    -0.507 OA
ATOM     28  H   UNL     1      -0.355   8.660  -0.740  1.00  0.00     0.293 HD
ENDBRANCH   7  27
TORSDOF 7
ENDMDL
MODEL 2
REMARK VINA RESULT:    -6.375      1.165      3.298
REMARK INTER + INTRA:          -7.556
REMARK INTER:                  -7.979
REMARK INTRA:                   0.423
REMARK UNBOUND:                 0.310
REMARK SMILES Oc1cc(O)c2cc(O)c(-c3cc(O)c(O)c(O)c3)[o+]c2c1
REMARK SMILES IDX 10 1 20 2 21 3 22 4 2 5 3 6 4 7 6 8 7 9 8 10 11 11 12 12
REMARK SMILES IDX 13 13 19 14 15 15 17 16 14 17 16 19 18 21 9 23 1 25 5 27
REMARK H PARENT 14 18 16 20 18 22 9 24 1 26 5 28
REMARK Flexibility Score: inf
ROOT
ATOM      1  C   UNL     1       0.806   5.096  -5.544  1.00  0.00     0.402 A 
ATOM      2  O   UNL     1      -0.097   6.071  -5.469  1.00  0.00    -0.202 OA
ATOM      3  C   UNL     1      -0.180   6.913  -4.444  1.00  0.00     0.368 A 
ATOM      4  C   UNL     1      -1.160   7.907  -4.459  1.00  0.00     0.162 A 
ATOM      5  C   UNL     1      -1.270   8.806  -3.397  1.00  0.00     0.128 A 
ATOM      6  C   UNL     1      -0.389   8.713  -2.313  1.00  0.00     0.093 A 
ATOM      7  C   UNL     1       0.602   7.725  -2.274  1.00  0.00     0.136 A 
ATOM      8  C   UNL     1       0.714   6.808  -3.351  1.00  0.00     0.125 A 
ATOM      9  C   UNL     1       1.668   5.778  -3.393  1.00  0.00     0.078 A 
ATOM     10  C   UNL     1       1.715   4.908  -4.485  1.00  0.00     0.223 A 
ENDROOT
BRANCH   1  11
ATOM     11  C   UNL     1       0.803   4.229  -6.744  1.00  0.00     0.091 A 
ATOM     12  C   UNL     1       0.045   4.555  -7.882  1.00  0.00     0.068 A 
ATOM     13  C   UNL     1       0.037   3.710  -9.000  1.00  0.00     0.162 A 
ATOM     14  C   UNL     1       1.527   3.027  -6.728  1.00  0.00     0.068 A 
ATOM     15  C   UNL     1       0.784   2.520  -8.983  1.00  0.00     0.200 A 
ATOM     16  C   UNL     1       1.526   2.178  -7.840  1.00  0.00     0.162 A 
BRANCH  13  17
ATOM     17  O   UNL     1      -0.713   4.048 -10.125  1.00  0.00    -0.504 OA
ATOM     18  H   UNL     1      -0.642   4.962 -10.556  1.00  0.00     0.293 HD
ENDBRANCH  13  17
BRANCH  15  19
ATOM     19  O   UNL     1       0.792   1.669 -10.089  1.00  0.00    -0.502 OA
ATOM     20  H   UNL     1      -0.062   1.337 -10.520  1.00  0.00     0.293 HD
ENDBRANCH  15  19
BRANCH  16  21
ATOM     21  O   UNL     1       2.271   1.000  -7.789  1.00  0.00    -0.504 OA
ATOM     22  H   UNL     1       1.838   0.095  -7.657  1.00  0.00     0.293 HD
ENDBRANCH  16  21
ENDBRANCH   1  11
BRANCH  10  23
ATOM     23  O   UNL     1       2.629   3.855  -4.504  1.00  0.00    -0.500 OA
ATOM     24  H   UNL     1       3.255   3.708  -5.287  1.00  0.00     0.294 HD
ENDBRANCH  10  23
BRANCH   5  25
ATOM     25  O   UNL     1      -2.254   9.791  -3.429  1.00  0.00    -0.507 OA
ATOM     26  H   UNL     1      -2.165  10.610  -4.019  1.00  0.00     0.293 HD
ENDBRANCH   5  25
BRANCH   7  27
ATOM     27  O   UNL     1       1.443   7.701  -1.158  1.00  0.00    -0.507 OA
ATOM     28  H   UNL     1       2.409   7.997  -1.165  1.00  0.00     0.293 HD
ENDBRANCH   7  27
TORSDOF 7
ENDMDL
MODEL 3
REMARK VINA RESULT:    -6.357      1.205      2.849
REMARK INTER + INTRA:          -7.533
REMARK INTER:                  -7.883
REMARK INTRA:                   0.350
REMARK UNBOUND:                 0.310
REMARK SMILES Oc1cc(O)c2cc(O)c(-c3cc(O)c(O)c(O)c3)[o+]c2c1
REMARK SMILES IDX 10 1 20 2 21 3 22 4 2 5 3 6 4 7 6 8 7 9 8 10 11 11 12 12
REMARK SMILES IDX 13 13 19 14 15 15 17 16 14 17 16 19 18 21 9 23 1 25 5 27
REMARK H PARENT 14 18 16 20 18 22 9 24 1 26 5 28
REMARK Flexibility Score: inf
ROOT
ATOM      1  C   UNL     1       0.672   5.158  -5.539  1.00  0.00     0.402 A 
ATOM      2  O   UNL     1      -0.281   6.085  -5.479  1.00  0.00    -0.202 OA
ATOM      3  C   UNL     1      -0.396   6.951  -4.477  1.00  0.00     0.368 A 
ATOM      4  C   UNL     1      -1.429   7.890  -4.506  1.00  0.00     0.162 A 
ATOM      5  C   UNL     1      -1.573   8.814  -3.470  1.00  0.00     0.128 A 
ATOM      6  C   UNL     1      -0.674   8.801  -2.397  1.00  0.00     0.093 A 
ATOM      7  C   UNL     1       0.370   7.870  -2.344  1.00  0.00     0.136 A 
ATOM      8  C   UNL     1       0.517   6.928  -3.396  1.00  0.00     0.125 A 
ATOM      9  C   UNL     1       1.525   5.950  -3.422  1.00  0.00     0.078 A 
ATOM     10  C   UNL     1       1.604   5.051  -4.489  1.00  0.00     0.223 A 
ENDROOT
BRANCH   1  11
ATOM     11  C   UNL     1       0.700   4.257  -6.713  1.00  0.00     0.091 A 
ATOM     12  C   UNL     1       1.473   3.083  -6.716  1.00  0.00     0.068 A 
ATOM     13  C   UNL     1       1.505   2.254  -7.846  1.00  0.00     0.162 A 
ATOM     14  C   UNL     1      -0.012   4.608  -7.870  1.00  0.00     0.068 A 
ATOM     15  C   UNL     1       0.769   2.602  -8.991  1.00  0.00     0.200 A 
ATOM     16  C   UNL     1       0.012   3.786  -9.000  1.00  0.00     0.162 A 
BRANCH  13  17
ATOM     17  O   UNL     1       2.269   1.088  -7.835  1.00  0.00    -0.504 OA
ATOM     18  H   UNL     1       2.619   0.674  -8.691  1.00  0.00     0.293 HD
ENDBRANCH  13  17
BRANCH  15  19
ATOM     19  O   UNL     1       0.785   1.785 -10.123  1.00  0.00    -0.502 OA
ATOM     20  H   UNL     1       1.357   0.951 -10.178  1.00  0.00     0.293 HD
ENDBRANCH  15  19
BRANCH  16  21
ATOM     21  O   UNL     1      -0.723   4.163 -10.125  1.00  0.00    -0.504 OA
ATOM     22  H   UNL     1      -1.216   3.488 -10.696  1.00  0.00     0.293 HD
ENDBRANCH  16  21
ENDBRANCH   1  11
BRANCH  10  23
ATOM     23  O   UNL     1       2.574   4.049  -4.491  1.00  0.00    -0.500 OA
ATOM     24  H   UNL     1       2.614   3.349  -5.222  1.00  0.00     0.294 HD
ENDBRANCH  10  23
BRANCH   5  25
ATOM     25  O   UNL     1      -2.610   9.742  -3.516  1.00  0.00    -0.507 OA
ATOM     26  H   UNL     1      -3.520   9.502  -3.892  1.00  0.00     0.293 HD
ENDBRANCH   5  25
BRANCH   7  27
ATOM     27  O   UNL     1       1.226   7.924  -1.241  1.00  0.00    -0.507 OA
ATOM     28  H   UNL     1       2.212   8.139  -1.294  1.00  0.00     0.293 HD
ENDBRANCH   7  27
TORSDOF 7
ENDMDL
MODEL 4
REMARK VINA RESULT:    -6.088      2.622      4.501
REMARK INTER + INTRA:          -7.201
REMARK INTER:                  -6.908
REMARK INTRA:                  -0.293
REMARK UNBOUND:                 0.310
REMARK SMILES Oc1cc(O)c2cc(O)c(-c3cc(O)c(O)c(O)c3)[o+]c2c1
REMARK SMILES IDX 10 1 20 2 21 3 22 4 2 5 3 6 4 7 6 8 7 9 8 10 11 11 12 12
REMARK SMILES IDX 13 13 19 14 15 15 17 16 14 17 16 19 18 21 9 23 1 25 5 27
REMARK H PARENT 14 18 16 20 18 22 9 24 1 26 5 28
REMARK Flexibility Score: inf
ROOT
ATOM      1  C   UNL     1       1.646   6.715  -2.655  1.00  0.00     0.402 A 
ATOM      2  O   UNL     1       1.117   7.578  -1.792  1.00  0.00    -0.202 OA
ATOM      3  C   UNL     1       1.699   7.915  -0.646  1.00  0.00     0.368 A 
ATOM      4  C   UNL     1       1.066   8.834   0.194  1.00  0.00     0.162 A 
ATOM      5  C   UNL     1       1.655   9.208   1.402  1.00  0.00     0.128 A 
ATOM      6  C   UNL     1       2.889   8.661   1.774  1.00  0.00     0.093 A 
ATOM      7  C   UNL     1       3.544   7.738   0.950  1.00  0.00     0.136 A 
ATOM      8  C   UNL     1       2.946   7.354  -0.279  1.00  0.00     0.125 A 
ATOM      9  C   UNL     1       3.523   6.426  -1.161  1.00  0.00     0.078 A 
ATOM     10  C   UNL     1       2.872   6.092  -2.352  1.00  0.00     0.223 A 
ENDROOT
BRANCH   1  11
ATOM     11  C   UNL     1       0.905   6.429  -3.905  1.00  0.00     0.091 A 
ATOM     12  C   UNL     1       0.255   5.199  -4.105  1.00  0.00     0.068 A 
ATOM     13  C   UNL     1      -0.423   4.938  -5.304  1.00  0.00     0.162 A 
ATOM     14  C   UNL     1       0.896   7.381  -4.935  1.00  0.00     0.068 A 
ATOM     15  C   UNL     1      -0.446   5.908  -6.321  1.00  0.00     0.200 A 
ATOM     16  C   UNL     1       0.221   7.130  -6.134  1.00  0.00     0.162 A 
BRANCH  13  17
ATOM     17  O   UNL     1      -1.070   3.717  -5.489  1.00  0.00    -0.504 OA
ATOM     18  H   UNL     1      -1.745   3.367  -4.819  1.00  0.00     0.293 HD
ENDBRANCH  13  17
BRANCH  15  19
ATOM     19  O   UNL     1      -1.120   5.667  -7.519  1.00  0.00    -0.502 OA
ATOM     20  H   UNL     1      -0.630   5.521  -8.394  1.00  0.00     0.293 HD
ENDBRANCH  15  19
BRANCH  16  21
ATOM     21  O   UNL     1       0.224   8.109  -7.128  1.00  0.00    -0.504 OA
ATOM     22  H   UNL     1      -0.327   8.955  -7.052  1.00  0.00     0.293 HD
ENDBRANCH  16  21
ENDBRANCH   1  11
BRANCH  10  23
ATOM     23  O   UNL     1       3.420   5.134  -3.206  1.00  0.00    -0.500 OA
ATOM     24  H   UNL     1       2.859   4.661  -3.904  1.00  0.00     0.294 HD
ENDBRANCH  10  23
BRANCH   5  25
ATOM     25  O   UNL     1       1.008  10.125   2.227  1.00  0.00    -0.507 OA
ATOM     26  H   UNL     1       0.799   9.912   3.195  1.00  0.00     0.293 HD
ENDBRANCH   5  25
BRANCH   7  27
ATOM     27  O   UNL     1       4.774   7.241   1.391  1.00  0.00    -0.507 OA
ATOM     28  H   UNL     1       5.660   7.436   0.947  1.00  0.00     0.293 HD
ENDBRANCH   7  27
TORSDOF 7
ENDMDL
MODEL 5
REMARK VINA RESULT:    -6.027      1.006      6.896
REMARK INTER + INTRA:          -7.126
REMARK INTER:                  -7.334
REMARK INTRA:                   0.209
REMARK UNBOUND:                 0.310
REMARK SMILES Oc1cc(O)c2cc(O)c(-c3cc(O)c(O)c(O)c3)[o+]c2c1
REMARK SMILES IDX 10 1 20 2 21 3 22 4 2 5 3 6 4 7 6 8 7 9 8 10 11 11 12 12
REMARK SMILES IDX 13 13 19 14 15 15 17 16 14 17 16 19 18 21 9 23 1 25 5 27
REMARK H PARENT 14 18 16 20 18 22 9 24 1 26 5 28
REMARK Flexibility Score: inf
ROOT
ATOM      1  C   UNL     1       1.258   5.551  -5.342  1.00  0.00     0.402 A 
ATOM      2  O   UNL     1       1.622   4.321  -5.695  1.00  0.00    -0.202 OA
ATOM      3  C   UNL     1       1.341   3.788  -6.880  1.00  0.00     0.368 A 
ATOM      4  C   UNL     1       1.770   2.489  -7.160  1.00  0.00     0.162 A 
ATOM      5  C   UNL     1       1.492   1.905  -8.396  1.00  0.00     0.128 A 
ATOM      6  C   UNL     1       0.781   2.626  -9.363  1.00  0.00     0.093 A 
ATOM      7  C   UNL     1       0.341   3.931  -9.107  1.00  0.00     0.136 A 
ATOM      8  C   UNL     1       0.620   4.526  -7.850  1.00  0.00     0.125 A 
ATOM      9  C   UNL     1       0.207   5.822  -7.500  1.00  0.00     0.078 A 
ATOM     10  C   UNL     1       0.515   6.341  -6.239  1.00  0.00     0.223 A 
ENDROOT
BRANCH   1  11
ATOM     11  C   UNL     1       1.640   6.035  -3.995  1.00  0.00     0.091 A 
ATOM     12  C   UNL     1       2.833   5.621  -3.379  1.00  0.00     0.068 A 
ATOM     13  C   UNL     1       3.166   6.072  -2.095  1.00  0.00     0.162 A 
ATOM     14  C   UNL     1       0.767   6.880  -3.293  1.00  0.00     0.068 A 
ATOM     15  C   UNL     1       2.297   6.937  -1.409  1.00  0.00     0.200 A 
ATOM     16  C   UNL     1       1.092   7.337  -2.012  1.00  0.00     0.162 A 
BRANCH  13  17
ATOM     17  O   UNL     1       4.356   5.660  -1.497  1.00  0.00    -0.504 OA
ATOM     18  H   UNL     1       4.904   4.896  -1.875  1.00  0.00     0.293 HD
ENDBRANCH  13  17
BRANCH  15  19
ATOM     19  O   UNL     1       2.615   7.401  -0.132  1.00  0.00    -0.502 OA
ATOM     20  H   UNL     1       2.564   6.805   0.686  1.00  0.00     0.293 HD
ENDBRANCH  15  19
BRANCH  16  21
ATOM     21  O   UNL     1       0.204   8.189  -1.354  1.00  0.00    -0.504 OA
ATOM     22  H   UNL     1      -0.783   8.213  -1.576  1.00  0.00     0.293 HD
ENDBRANCH  16  21
ENDBRANCH   1  11
BRANCH  10  23
ATOM     23  O   UNL     1       0.062   7.609  -5.874  1.00  0.00    -0.500 OA
ATOM     24  H   UNL     1       0.276   8.009  -4.968  1.00  0.00     0.294 HD
ENDBRANCH  10  23
BRANCH   5  25
ATOM     25  O   UNL     1       1.927   0.608  -8.657  1.00  0.00    -0.507 OA
ATOM     26  H   UNL     1       2.912   0.371  -8.664  1.00  0.00     0.293 HD
ENDBRANCH   5  25
BRANCH   7  27
ATOM     27  O   UNL     1      -0.359   4.585 -10.125  1.00  0.00    -0.507 OA
ATOM     28  H   UNL     1      -1.151   4.194 -10.614  1.00  0.00     0.293 HD
ENDBRANCH   7  27
TORSDOF 7
ENDMDL
MODEL 6
REMARK VINA RESULT:    -5.964      2.859      8.555
REMARK INTER + INTRA:          -7.048
REMARK INTER:                  -6.804
REMARK INTRA:                  -0.244
REMARK UNBOUND:                 0.310
REMARK SMILES Oc1cc(O)c2cc(O)c(-c3cc(O)c(O)c(O)c3)[o+]c2c1
REMARK SMILES IDX 10 1 20 2 21 3 22 4 2 5 3 6 4 7 6 8 7 9 8 10 11 11 12 12
REMARK SMILES IDX 13 13 19 14 15 15 17 16 14 17 16 19 18 21 9 23 1 25 5 27
REMARK H PARENT 14 18 16 20 18 22 9 24 1 26 5 28
REMARK Flexibility Score: inf
ROOT
ATOM      1  C   UNL     1       1.827   7.574  -0.888  1.00  0.00     0.402 A 
ATOM      2  O   UNL     1       2.364   6.521  -1.499  1.00  0.00    -0.202 OA
ATOM      3  C   UNL     1       1.967   6.087  -2.691  1.00  0.00     0.368 A 
ATOM      4  C   UNL     1       2.596   4.973  -3.252  1.00  0.00     0.162 A 
ATOM      5  C   UNL     1       2.202   4.496  -4.503  1.00  0.00     0.128 A 
ATOM      6  C   UNL     1       1.172   5.140  -5.201  1.00  0.00     0.093 A 
ATOM      7  C   UNL     1       0.527   6.258  -4.660  1.00  0.00     0.136 A 
ATOM      8  C   UNL     1       0.924   6.744  -3.386  1.00  0.00     0.125 A 
ATOM      9  C   UNL     1       0.325   7.849  -2.761  1.00  0.00     0.078 A 
ATOM     10  C   UNL     1       0.766   8.267  -1.502  1.00  0.00     0.223 A 
ENDROOT
BRANCH   1  11
ATOM     11  C   UNL     1       2.364   7.966   0.435  1.00  0.00     0.091 A 
ATOM     12  C   UNL     1       3.674   8.452   0.579  1.00  0.00     0.068 A 
ATOM     13  C   UNL     1       4.173   8.797   1.843  1.00  0.00     0.162 A 
ATOM     14  C   UNL     1       1.570   7.796   1.579  1.00  0.00     0.068 A 
ATOM     15  C   UNL     1       3.361   8.645   2.980  1.00  0.00     0.200 A 
ATOM     16  C   UNL     1       2.057   8.139   2.844  1.00  0.00     0.162 A 
BRANCH  13  17
ATOM     17  O   UNL     1       5.472   9.285   1.972  1.00  0.00    -0.504 OA
ATOM     18  H   UNL     1       5.904   9.413   2.880  1.00  0.00     0.293 HD
ENDBRANCH  13  17
BRANCH  15  19
ATOM     19  O   UNL     1       3.839   8.988   4.246  1.00  0.00    -0.502 OA
ATOM     20  H   UNL     1       3.750   8.367   5.042  1.00  0.00     0.293 HD
ENDBRANCH  15  19
BRANCH  16  21
ATOM     21  O   UNL     1       1.231   7.969   3.955  1.00  0.00    -0.504 OA
ATOM     22  H   UNL     1       0.527   8.650   4.211  1.00  0.00     0.293 HD
ENDBRANCH  16  21
ENDBRANCH   1  11
BRANCH  10  23
ATOM     23  O   UNL     1       0.139   9.334  -0.858  1.00  0.00    -0.500 OA
ATOM     24  H   UNL     1      -0.065   9.311   0.134  1.00  0.00     0.294 HD
ENDBRANCH  10  23
BRANCH   5  25
ATOM     25  O   UNL     1       2.840   3.384  -5.047  1.00  0.00    -0.507 OA
ATOM     26  H   UNL     1       2.829   3.201  -6.043  1.00  0.00     0.293 HD
ENDBRANCH   5  25
BRANCH   7  27
ATOM     27  O   UNL     1      -0.488   6.845  -5.420  1.00  0.00    -0.507 OA
ATOM     28  H   UNL     1      -0.456   6.959  -6.423  1.00  0.00     0.293 HD
ENDBRANCH   7  27
TORSDOF 7
ENDMDL
MODEL 7
REMARK VINA RESULT:    -5.918      2.274      3.798
REMARK INTER + INTRA:          -6.992
REMARK INTER:                  -6.695
REMARK INTRA:                  -0.297
REMARK UNBOUND:                 0.310
REMARK SMILES Oc1cc(O)c2cc(O)c(-c3cc(O)c(O)c(O)c3)[o+]c2c1
REMARK SMILES IDX 10 1 20 2 21 3 22 4 2 5 3 6 4 7 6 8 7 9 8 10 11 11 12 12
REMARK SMILES IDX 13 13 19 14 15 15 17 16 14 17 16 19 18 21 9 23 1 25 5 27
REMARK H PARENT 14 18 16 20 18 22 9 24 1 26 5 28
REMARK Flexibility Score: inf
ROOT
ATOM      1  C   UNL     1       1.131   7.130  -2.639  1.00  0.00     0.402 A 
ATOM      2  O   UNL     1       2.188   6.883  -1.870  1.00  0.00    -0.202 OA
ATOM      3  C   UNL     1       2.398   7.482  -0.702  1.00  0.00     0.368 A 
ATOM      4  C   UNL     1       3.536   7.152   0.037  1.00  0.00     0.162 A 
ATOM      5  C   UNL     1       3.781   7.764   1.267  1.00  0.00     0.128 A 
ATOM      6  C   UNL     1       2.879   8.711   1.765  1.00  0.00     0.093 A 
ATOM      7  C   UNL     1       1.730   9.059   1.044  1.00  0.00     0.136 A 
ATOM      8  C   UNL     1       1.480   8.440  -0.209  1.00  0.00     0.125 A 
ATOM      9  C   UNL     1       0.362   8.736  -1.006  1.00  0.00     0.078 A 
ATOM     10  C   UNL     1       0.185   8.090  -2.233  1.00  0.00     0.223 A 
ENDROOT
BRANCH   1  11
ATOM     11  C   UNL     1       1.005   6.389  -3.915  1.00  0.00     0.091 A 
ATOM     12  C   UNL     1       1.825   6.683  -5.017  1.00  0.00     0.068 A 
ATOM     13  C   UNL     1       1.675   5.987  -6.224  1.00  0.00     0.162 A 
ATOM     14  C   UNL     1       0.007   5.412  -4.049  1.00  0.00     0.068 A 
ATOM     15  C   UNL     1       0.689   4.992  -6.341  1.00  0.00     0.200 A 
ATOM     16  C   UNL     1      -0.149   4.710  -5.249  1.00  0.00     0.162 A 
BRANCH  13  17
ATOM     17  O   UNL     1       2.500   6.282  -7.309  1.00  0.00    -0.504 OA
ATOM     18  H   UNL     1       2.181   6.174  -8.264  1.00  0.00     0.293 HD
ENDBRANCH  13  17
BRANCH  15  19
ATOM     19  O   UNL     1       0.528   4.285  -7.533  1.00  0.00    -0.502 OA
ATOM     20  H   UNL     1      -0.178   3.567  -7.644  1.00  0.00     0.293 HD
ENDBRANCH  15  19
BRANCH  16  21
ATOM     21  O   UNL     1      -1.143   3.735  -5.336  1.00  0.00    -0.504 OA
ATOM     22  H   UNL     1      -2.005   3.889  -5.844  1.00  0.00     0.293 HD
ENDBRANCH  16  21
ENDBRANCH   1  11
BRANCH  10  23
ATOM     23  O   UNL     1      -0.899   8.419  -3.048  1.00  0.00    -0.500 OA
ATOM     24  H   UNL     1      -1.181   9.380  -3.194  1.00  0.00     0.294 HD
ENDBRANCH  10  23
BRANCH   5  25
ATOM     25  O   UNL     1       4.922   7.422   1.988  1.00  0.00    -0.507 OA
ATOM     26  H   UNL     1       5.175   6.455   2.154  1.00  0.00     0.293 HD
ENDBRANCH   5  25
BRANCH   7  27
ATOM     27  O   UNL     1       0.878  10.010   1.611  1.00  0.00    -0.507 OA
ATOM     28  H   UNL     1      -0.099   9.852   1.815  1.00  0.00     0.293 HD
ENDBRANCH   7  27
TORSDOF 7
ENDMDL
MODEL 8
REMARK VINA RESULT:    -5.761      1.965      7.256
REMARK INTER + INTRA:          -6.798
REMARK INTER:                  -6.420
REMARK INTRA:                  -0.378
REMARK UNBOUND:                 0.310
REMARK SMILES Oc1cc(O)c2cc(O)c(-c3cc(O)c(O)c(O)c3)[o+]c2c1
REMARK SMILES IDX 10 1 20 2 21 3 22 4 2 5 3 6 4 7 6 8 7 9 8 10 11 11 12 12
REMARK SMILES IDX 13 13 19 14 15 15 17 16 14 17 16 19 18 21 9 23 1 25 5 27
REMARK H PARENT 14 18 16 20 18 22 9 24 1 26 5 28
REMARK Flexibility Score: inf
ROOT
ATOM      1  C   UNL     1       0.557   6.095  -4.914  1.00  0.00     0.402 A 
ATOM      2  O   UNL     1       1.411   6.466  -5.865  1.00  0.00    -0.202 OA
ATOM      3  C   UNL     1       1.522   5.841  -7.033  1.00  0.00     0.368 A 
ATOM      4  C   UNL     1       2.446   6.309  -7.969  1.00  0.00     0.162 A 
ATOM      5  C   UNL     1       2.582   5.674  -9.204  1.00  0.00     0.128 A 
ATOM      6  C   UNL     1       1.785   4.564  -9.508  1.00  0.00     0.093 A 
ATOM      7  C   UNL     1       0.851   4.075  -8.586  1.00  0.00     0.136 A 
ATOM      8  C   UNL     1       0.712   4.718  -7.328  1.00  0.00     0.125 A 
ATOM      9  C   UNL     1      -0.188   4.291  -6.338  1.00  0.00     0.078 A 
ATOM     10  C   UNL     1      -0.265   4.971  -5.119  1.00  0.00     0.223 A 
ENDROOT
BRANCH   1  11
ATOM     11  C   UNL     1       0.521   6.879  -3.659  1.00  0.00     0.091 A 
ATOM     12  C   UNL     1      -0.441   7.882  -3.449  1.00  0.00     0.068 A 
ATOM     13  C   UNL     1      -0.445   8.630  -2.264  1.00  0.00     0.162 A 
ATOM     14  C   UNL     1       1.501   6.659  -2.679  1.00  0.00     0.068 A 
ATOM     15  C   UNL     1       0.527   8.385  -1.279  1.00  0.00     0.200 A 
ATOM     16  C   UNL     1       1.504   7.398  -1.493  1.00  0.00     0.162 A 
BRANCH  13  17
ATOM     17  O   UNL     1      -1.409   9.617  -2.065  1.00  0.00    -0.504 OA
ATOM     18  H   UNL     1      -1.514  10.084  -1.171  1.00  0.00     0.293 HD
ENDBRANCH  13  17
BRANCH  15  19
ATOM     19  O   UNL     1       0.535   9.117  -0.090  1.00  0.00    -0.502 OA
ATOM     20  H   UNL     1       0.082  10.019  -0.009  1.00  0.00     0.293 HD
ENDBRANCH  15  19
BRANCH  16  21
ATOM     21  O   UNL     1       2.487   7.138  -0.537  1.00  0.00    -0.504 OA
ATOM     22  H   UNL     1       2.330   6.505   0.237  1.00  0.00     0.293 HD
ENDBRANCH  16  21
ENDBRANCH   1  11
BRANCH  10  23
ATOM     23  O   UNL     1      -1.123   4.517  -4.118  1.00  0.00    -0.500 OA
ATOM     24  H   UNL     1      -2.110   4.368  -4.290  1.00  0.00     0.294 HD
ENDBRANCH  10  23
BRANCH   5  25
ATOM     25  O   UNL     1       3.510   6.154 -10.125  1.00  0.00    -0.507 OA
ATOM     26  H   UNL     1       3.223   6.516 -11.027  1.00  0.00     0.293 HD
ENDBRANCH   5  25
BRANCH   7  27
ATOM     27  O   UNL     1       0.092   2.965  -8.966  1.00  0.00    -0.507 OA
ATOM     28  H   UNL     1       0.054   2.595  -9.905  1.00  0.00     0.293 HD
ENDBRANCH   7  27
TORSDOF 7
ENDMDL
MODEL 9
REMARK VINA RESULT:    -5.725      1.970      7.064
REMARK INTER + INTRA:          -6.753
REMARK INTER:                  -6.381
REMARK INTRA:                  -0.372
REMARK UNBOUND:                 0.310
REMARK SMILES Oc1cc(O)c2cc(O)c(-c3cc(O)c(O)c(O)c3)[o+]c2c1
REMARK SMILES IDX 10 1 20 2 21 3 22 4 2 5 3 6 4 7 6 8 7 9 8 10 11 11 12 12
REMARK SMILES IDX 13 13 19 14 15 15 17 16 14 17 16 19 18 21 9 23 1 25 5 27
REMARK H PARENT 14 18 16 20 18 22 9 24 1 26 5 28
REMARK Flexibility Score: inf
ROOT
ATOM      1  C   UNL     1       0.566   6.137  -4.838  1.00  0.00     0.402 A 
ATOM      2  O   UNL     1       1.389   6.501  -5.818  1.00  0.00    -0.202 OA
ATOM      3  C   UNL     1       1.479   5.854  -6.975  1.00  0.00     0.368 A 
ATOM      4  C   UNL     1       2.371   6.316  -7.945  1.00  0.00     0.162 A 
ATOM      5  C   UNL     1       2.484   5.657  -9.170  1.00  0.00     0.128 A 
ATOM      6  C   UNL     1       1.697   4.529  -9.430  1.00  0.00     0.093 A 
ATOM      7  C   UNL     1       0.795   4.046  -8.474  1.00  0.00     0.136 A 
ATOM      8  C   UNL     1       0.679   4.713  -7.226  1.00  0.00     0.125 A 
ATOM      9  C   UNL     1      -0.188   4.293  -6.204  1.00  0.00     0.078 A 
ATOM     10  C   UNL     1      -0.244   4.997  -4.998  1.00  0.00     0.223 A 
ENDROOT
BRANCH   1  11
ATOM     11  C   UNL     1       0.551   6.947  -3.598  1.00  0.00     0.091 A 
ATOM     12  C   UNL     1       1.469   6.714  -2.560  1.00  0.00     0.068 A 
ATOM     13  C   UNL     1       1.424   7.475  -1.384  1.00  0.00     0.162 A 
ATOM     14  C   UNL     1      -0.435   7.931  -3.429  1.00  0.00     0.068 A 
ATOM     15  C   UNL     1       0.447   8.475  -1.234  1.00  0.00     0.200 A 
ATOM     16  C   UNL     1      -0.486   8.697  -2.260  1.00  0.00     0.162 A 
BRANCH  13  17
ATOM     17  O   UNL     1       2.344   7.239  -0.364  1.00  0.00    -0.504 OA
ATOM     18  H   UNL     1       2.146   7.487   0.599  1.00  0.00     0.293 HD
ENDBRANCH  13  17
BRANCH  15  19
ATOM     19  O   UNL     1       0.391   9.246  -0.072  1.00  0.00    -0.502 OA
ATOM     20  H   UNL     1       0.356   8.830   0.851  1.00  0.00     0.293 HD
ENDBRANCH  15  19
BRANCH  16  21
ATOM     21  O   UNL     1      -1.473   9.676  -2.138  1.00  0.00    -0.504 OA
ATOM     22  H   UNL     1      -1.615  10.192  -1.279  1.00  0.00     0.293 HD
ENDBRANCH  16  21
ENDBRANCH   1  11
BRANCH  10  23
ATOM     23  O   UNL     1      -1.068   4.552  -3.965  1.00  0.00    -0.500 OA
ATOM     24  H   UNL     1      -1.360   3.584  -3.896  1.00  0.00     0.294 HD
ENDBRANCH  10  23
BRANCH   5  25
ATOM     25  O   UNL     1       3.380   6.132 -10.125  1.00  0.00    -0.507 OA
ATOM     26  H   UNL     1       3.253   7.033 -10.570  1.00  0.00     0.293 HD
ENDBRANCH   5  25
BRANCH   7  27
ATOM     27  O   UNL     1       0.043   2.918  -8.811  1.00  0.00    -0.507 OA
ATOM     28  H   UNL     1      -0.388   2.768  -9.712  1.00  0.00     0.293 HD
ENDBRANCH   7  27
TORSDOF 7
ENDMDL
