MODEL 1
REMARK VINA RESULT:    -5.796      0.000      0.000
REMARK INTER + INTRA:          -7.091
REMARK INTER:                  -6.812
REMARK INTRA:                  -0.279
REMARK UNBOUND:                -0.279
REMARK SMILES O=c1cc(-c2ccc(O)c(O)c2)oc2cc(O)cc(O)c12
REMARK SMILES IDX 4 1 3 2 2 3 1 4 21 5 19 6 18 7 16 8 15 9 14 10 13 11 5 12
REMARK SMILES IDX 6 13 7 14 8 15 12 16 10 17 9 18 11 20 20 22 17 24
REMARK H PARENT 9 19 11 21 20 23 17 25
REMARK Flexibility Score: inf
ROOT
ATOM      1  C   UNL     1      -0.757   9.047  -6.528  1.00  0.00     0.138 A 
ATOM      2  C   UNL     1      -0.745   8.968  -5.128  1.00  0.00     0.100 A 
ATOM      3  C   UNL     1      -1.933   9.140  -4.417  1.00  0.00     0.197 A 
ATOM      4  O   UNL     1      -1.902   9.001  -3.167  1.00  0.00    -0.289 OA
ATOM      5  C   UNL     1      -3.133   9.425  -5.111  1.00  0.00     0.107 A 
ATOM      6  C   UNL     1      -4.395   9.660  -4.488  1.00  0.00     0.134 A 
ATOM      7  C   UNL     1      -5.537   9.816  -5.282  1.00  0.00     0.093 A 
ATOM      8  C   UNL     1      -5.453   9.807  -6.677  1.00  0.00     0.123 A 
ATOM      9  C   UNL     1      -4.217   9.632  -7.295  1.00  0.00     0.094 A 
ATOM     10  C   UNL     1      -3.065   9.438  -6.530  1.00  0.00     0.146 A 
ATOM     11  O   UNL     1      -1.906   9.260  -7.158  1.00  0.00    -0.456 OA
ENDROOT
BRANCH   1  12
ATOM     12  C   UNL     1       0.478   8.872  -7.333  1.00  0.00     0.021 A 
ATOM     13  C   UNL     1       0.730   9.740  -8.410  1.00  0.00     0.016 A 
ATOM     14  C   UNL     1       1.888   9.603  -9.179  1.00  0.00     0.051 A 
ATOM     15  C   UNL     1       2.820   8.601  -8.879  1.00  0.00     0.157 A 
ATOM     16  C   UNL     1       1.427   7.876  -7.029  1.00  0.00     0.062 A 
ATOM     17  C   UNL     1       2.590   7.739  -7.801  1.00  0.00     0.158 A 
BRANCH  15  18
ATOM     18  O   UNL     1       3.975   8.460  -9.645  1.00  0.00    -0.504 OA
ATOM     19  H   UNL     1       3.992   8.703 -10.629  1.00  0.00     0.293 HD
ENDBRANCH  15  18
BRANCH  17  20
ATOM     20  O   UNL     1       3.525   6.750  -7.498  1.00  0.00    -0.504 OA
ATOM     21  H   UNL     1       3.951   6.685  -6.581  1.00  0.00     0.293 HD
ENDBRANCH  17  20
ENDBRANCH   1  12
BRANCH   6  22
ATOM     22  O   UNL     1      -4.575   9.772  -3.107  1.00  0.00    -0.507 OA
ATOM     23  H   UNL     1      -5.357   9.392  -2.594  1.00  0.00     0.293 HD
ENDBRANCH   6  22
BRANCH   8  24
ATOM     24  O   UNL     1      -6.593   9.979  -7.459  1.00  0.00    -0.508 OA
ATOM     25  H   UNL     1      -7.404  10.479  -7.112  1.00  0.00     0.293 HD
ENDBRANCH   8  24
TORSDOF 5
ENDMDL
MODEL 2
REMARK VINA RESULT:    -5.365      3.468      5.326
REMARK INTER + INTRA:          -6.585
REMARK INTER:                  -6.307
REMARK INTRA:                  -0.278
REMARK UNBOUND:                -0.279
REMARK SMILES O=c1cc(-c2ccc(O)c(O)c2)oc2cc(O)cc(O)c12
REMARK SMILES IDX 4 1 3 2 2 3 1 4 21 5 19 6 18 7 16 8 15 9 14 10 13 11 5 12
REMARK SMILES IDX 6 13 7 14 8 15 12 16 10 17 9 18 11 20 20 22 17 24
REMARK H PARENT 9 19 11 21 20 23 17 25
REMARK Flexibility Score: inf
ROOT
ATOM      1  C   UNL     1      -4.860   7.418  -6.952  1.00  0.00     0.138 A 
ATOM      2  C   UNL     1      -5.225   6.459  -7.907  1.00  0.00     0.100 A 
ATOM      3  C   UNL     1      -6.536   5.982  -7.941  1.00  0.00     0.197 A 
ATOM      4  O   UNL     1      -6.849   5.170  -8.848  1.00  0.00    -0.289 OA
ATOM      5  C   UNL     1      -7.477   6.446  -6.990  1.00  0.00     0.107 A 
ATOM      6  C   UNL     1      -8.829   6.000  -6.903  1.00  0.00     0.134 A 
ATOM      7  C   UNL     1      -9.701   6.615  -5.996  1.00  0.00     0.093 A 
ATOM      8  C   UNL     1      -9.254   7.617  -5.132  1.00  0.00     0.123 A 
ATOM      9  C   UNL     1      -7.922   8.022  -5.173  1.00  0.00     0.094 A 
ATOM     10  C   UNL     1      -7.036   7.452  -6.090  1.00  0.00     0.146 A 
ATOM     11  O   UNL     1      -5.776   7.877  -6.107  1.00  0.00    -0.456 OA
ENDROOT
BRANCH   1  12
ATOM     12  C   UNL     1      -3.479   7.958  -6.871  1.00  0.00     0.021 A 
ATOM     13  C   UNL     1      -2.927   8.614  -7.985  1.00  0.00     0.016 A 
ATOM     14  C   UNL     1      -1.633   9.138  -7.933  1.00  0.00     0.051 A 
ATOM     15  C   UNL     1      -0.872   9.024  -6.763  1.00  0.00     0.157 A 
ATOM     16  C   UNL     1      -2.713   7.859  -5.694  1.00  0.00     0.062 A 
ATOM     17  C   UNL     1      -1.414   8.386  -5.641  1.00  0.00     0.158 A 
BRANCH  15  18
ATOM     18  O   UNL     1       0.419   9.544  -6.708  1.00  0.00    -0.504 OA
ATOM     19  H   UNL     1       1.159   9.073  -6.199  1.00  0.00     0.293 HD
ENDBRANCH  15  18
BRANCH  17  20
ATOM     20  O   UNL     1      -0.657   8.285  -4.475  1.00  0.00    -0.504 OA
ATOM     21  H   UNL     1      -0.158   9.081  -4.094  1.00  0.00     0.293 HD
ENDBRANCH  17  20
ENDBRANCH   1  12
BRANCH   6  22
ATOM     22  O   UNL     1      -9.356   4.949  -7.660  1.00  0.00    -0.507 OA
ATOM     23  H   UNL     1     -10.033   5.053  -8.399  1.00  0.00     0.293 HD
ENDBRANCH   6  22
BRANCH   8  24
ATOM     24  O   UNL     1     -10.125   8.213  -4.223  1.00  0.00    -0.508 OA
ATOM     25  H   UNL     1      -9.783   8.764  -3.443  1.00  0.00     0.293 HD
ENDBRANCH   8  24
TORSDOF 5
ENDMDL
MODEL 3
REMARK VINA RESULT:    -5.353      2.949      7.519
REMARK INTER + INTRA:          -6.570
REMARK INTER:                  -6.290
REMARK INTRA:                  -0.280
REMARK UNBOUND:                -0.279
REMARK SMILES O=c1cc(-c2ccc(O)c(O)c2)oc2cc(O)cc(O)c12
REMARK SMILES IDX 4 1 3 2 2 3 1 4 21 5 19 6 18 7 16 8 15 9 14 10 13 11 5 12
REMARK SMILES IDX 6 13 7 14 8 15 12 16 10 17 9 18 11 20 20 22 17 24
REMARK H PARENT 9 19 11 21 20 23 17 25
REMARK Flexibility Score: inf
ROOT
ATOM      1  C   UNL     1      -5.000   8.047  -5.631  1.00  0.00     0.138 A 
ATOM      2  C   UNL     1      -4.517   8.581  -4.428  1.00  0.00     0.100 A 
ATOM      3  C   UNL     1      -3.246   9.154  -4.389  1.00  0.00     0.197 A 
ATOM      4  O   UNL     1      -2.865   9.680  -3.311  1.00  0.00    -0.289 OA
ATOM      5  C   UNL     1      -2.441   9.162  -5.553  1.00  0.00     0.107 A 
ATOM      6  C   UNL     1      -1.114   9.681  -5.620  1.00  0.00     0.134 A 
ATOM      7  C   UNL     1      -0.458   9.741  -6.856  1.00  0.00     0.093 A 
ATOM      8  C   UNL     1      -1.059   9.245  -8.016  1.00  0.00     0.123 A 
ATOM      9  C   UNL     1      -2.334   8.687  -7.951  1.00  0.00     0.094 A 
ATOM     10  C   UNL     1      -3.027   8.644  -6.740  1.00  0.00     0.146 A 
ATOM     11  O   UNL     1      -4.247   8.117  -6.723  1.00  0.00    -0.456 OA
ENDROOT
BRANCH   1  12
ATOM     12  C   UNL     1      -6.345   7.425  -5.729  1.00  0.00     0.021 A 
ATOM     13  C   UNL     1      -6.509   6.244  -6.474  1.00  0.00     0.016 A 
ATOM     14  C   UNL     1      -7.762   5.635  -6.576  1.00  0.00     0.051 A 
ATOM     15  C   UNL     1      -8.871   6.190  -5.926  1.00  0.00     0.157 A 
ATOM     16  C   UNL     1      -7.463   7.970  -5.067  1.00  0.00     0.062 A 
ATOM     17  C   UNL     1      -8.720   7.357  -5.168  1.00  0.00     0.158 A 
BRANCH  15  18
ATOM     18  O   UNL     1     -10.123   5.586  -6.026  1.00  0.00    -0.504 OA
ATOM     19  H   UNL     1     -10.579   5.457  -6.922  1.00  0.00     0.293 HD
ENDBRANCH  15  18
BRANCH  17  20
ATOM     20  O   UNL     1      -9.825   7.901  -4.513  1.00  0.00    -0.504 OA
ATOM     21  H   UNL     1      -9.977   8.902  -4.471  1.00  0.00     0.293 HD
ENDBRANCH  17  20
ENDBRANCH   1  12
BRANCH   6  22
ATOM     22  O   UNL     1      -0.392  10.124  -4.508  1.00  0.00    -0.507 OA
ATOM     23  H   UNL     1      -0.620   9.909  -3.549  1.00  0.00     0.293 HD
ENDBRANCH   6  22
BRANCH   8  24
ATOM     24  O   UNL     1      -0.392   9.295  -9.238  1.00  0.00    -0.508 OA
ATOM     25  H   UNL     1      -0.771   9.804 -10.029  1.00  0.00     0.293 HD
ENDBRANCH   8  24
TORSDOF 5
ENDMDL
MODEL 4
REMARK VINA RESULT:    -5.340      1.268      2.952
REMARK INTER + INTRA:          -6.556
REMARK INTER:                  -6.258
REMARK INTRA:                  -0.298
REMARK UNBOUND:                -0.279
REMARK SMILES O=c1cc(-c2ccc(O)c(O)c2)oc2cc(O)cc(O)c12
REMARK SMILES IDX 4 1 3 2 2 3 1 4 21 5 19 6 18 7 16 8 15 9 14 10 13 11 5 12
REMARK SMILES IDX 6 13 7 14 8 15 12 16 10 17 9 18 11 20 20 22 17 24
REMARK H PARENT 9 19 11 21 20 23 17 25
REMARK Flexibility Score: inf
ROOT
ATOM      1  C   UNL     1       0.022   9.111  -7.952  1.00  0.00     0.138 A 
ATOM      2  C   UNL     1      -1.059   9.519  -8.747  1.00  0.00     0.100 A 
ATOM      3  C   UNL     1      -2.322   9.665  -8.172  1.00  0.00     0.197 A 
ATOM      4  O   UNL     1      -3.257  10.092  -8.895  1.00  0.00    -0.289 OA
ATOM      5  C   UNL     1      -2.509   9.368  -6.800  1.00  0.00     0.107 A 
ATOM      6  C   UNL     1      -3.759   9.441  -6.117  1.00  0.00     0.134 A 
ATOM      7  C   UNL     1      -3.800   9.237  -4.732  1.00  0.00     0.093 A 
ATOM      8  C   UNL     1      -2.647   8.903  -4.017  1.00  0.00     0.123 A 
ATOM      9  C   UNL     1      -1.431   8.778  -4.684  1.00  0.00     0.094 A 
ATOM     10  C   UNL     1      -1.351   9.009  -6.059  1.00  0.00     0.146 A 
ATOM     11  O   UNL     1      -0.168   8.893  -6.656  1.00  0.00    -0.456 OA
ENDROOT
BRANCH   1  12
ATOM     12  C   UNL     1       1.386   8.940  -8.513  1.00  0.00     0.021 A 
ATOM     13  C   UNL     1       1.864   9.860  -9.463  1.00  0.00     0.016 A 
ATOM     14  C   UNL     1       3.147   9.725 -10.000  1.00  0.00     0.051 A 
ATOM     15  C   UNL     1       3.978   8.675  -9.590  1.00  0.00     0.157 A 
ATOM     16  C   UNL     1       2.233   7.894  -8.095  1.00  0.00     0.062 A 
ATOM     17  C   UNL     1       3.521   7.761  -8.634  1.00  0.00     0.158 A 
BRANCH  15  18
ATOM     18  O   UNL     1       5.257   8.537 -10.125  1.00  0.00    -0.504 OA
ATOM     19  H   UNL     1       5.404   8.380 -11.116  1.00  0.00     0.293 HD
ENDBRANCH  15  18
BRANCH  17  20
ATOM     20  O   UNL     1       4.355   6.723  -8.220  1.00  0.00    -0.504 OA
ATOM     21  H   UNL     1       3.983   5.821  -7.944  1.00  0.00     0.293 HD
ENDBRANCH  17  20
ENDBRANCH   1  12
BRANCH   6  22
ATOM     22  O   UNL     1      -4.982   9.683  -6.749  1.00  0.00    -0.507 OA
ATOM     23  H   UNL     1      -5.229   9.358  -7.671  1.00  0.00     0.293 HD
ENDBRANCH   6  22
BRANCH   8  24
ATOM     24  O   UNL     1      -2.702   8.687  -2.642  1.00  0.00    -0.508 OA
ATOM     25  H   UNL     1      -2.305   9.350  -1.985  1.00  0.00     0.293 HD
ENDBRANCH   8  24
TORSDOF 5
ENDMDL
MODEL 5
REMARK VINA RESULT:    -5.027      3.604      7.837
REMARK INTER + INTRA:          -6.187
REMARK INTER:                  -5.891
REMARK INTRA:                  -0.296
REMARK UNBOUND:                -0.279
REMARK SMILES O=c1cc(-c2ccc(O)c(O)c2)oc2cc(O)cc(O)c12
REMARK SMILES IDX 4 1 3 2 2 3 1 4 21 5 19 6 18 7 16 8 15 9 14 10 13 11 5 12
REMARK SMILES IDX 6 13 7 14 8 15 12 16 10 17 9 18 11 20 20 22 17 24
REMARK H PARENT 9 19 11 21 20 23 17 25
REMARK Flexibility Score: inf
ROOT
ATOM      1  C   UNL     1      -5.143   7.095  -6.980  1.00  0.00     0.138 A 
ATOM      2  C   UNL     1      -4.529   7.197  -8.236  1.00  0.00     0.100 A 
ATOM      3  C   UNL     1      -3.327   7.894  -8.362  1.00  0.00     0.197 A 
ATOM      4  O   UNL     1      -2.769   7.916  -9.489  1.00  0.00    -0.289 OA
ATOM      5  C   UNL     1      -2.755   8.521  -7.229  1.00  0.00     0.107 A 
ATOM      6  C   UNL     1      -1.556   9.293  -7.247  1.00  0.00     0.134 A 
ATOM      7  C   UNL     1      -1.022   9.767  -6.042  1.00  0.00     0.093 A 
ATOM      8  C   UNL     1      -1.678   9.548  -4.828  1.00  0.00     0.123 A 
ATOM      9  C   UNL     1      -2.878   8.841  -4.807  1.00  0.00     0.094 A 
ATOM     10  C   UNL     1      -3.417   8.326  -5.987  1.00  0.00     0.146 A 
ATOM     11  O   UNL     1      -4.557   7.645  -5.922  1.00  0.00    -0.456 OA
ENDROOT
BRANCH   1  12
ATOM     12  C   UNL     1      -6.422   6.366  -6.790  1.00  0.00     0.021 A 
ATOM     13  C   UNL     1      -7.079   6.433  -5.548  1.00  0.00     0.016 A 
ATOM     14  C   UNL     1      -8.287   5.762  -5.345  1.00  0.00     0.051 A 
ATOM     15  C   UNL     1      -8.866   5.020  -6.383  1.00  0.00     0.157 A 
ATOM     16  C   UNL     1      -7.017   5.629  -7.832  1.00  0.00     0.062 A 
ATOM     17  C   UNL     1      -8.231   4.956  -7.629  1.00  0.00     0.158 A 
BRANCH  15  18
ATOM     18  O   UNL     1     -10.070   4.349  -6.184  1.00  0.00    -0.504 OA
ATOM     19  H   UNL     1     -10.103   3.343  -6.061  1.00  0.00     0.293 HD
ENDBRANCH  15  18
BRANCH  17  20
ATOM     20  O   UNL     1      -8.816   4.226  -8.663  1.00  0.00    -0.504 OA
ATOM     21  H   UNL     1      -8.521   3.280  -8.877  1.00  0.00     0.293 HD
ENDBRANCH  17  20
ENDBRANCH   1  12
BRANCH   6  22
ATOM     22  O   UNL     1      -0.868   9.640  -8.413  1.00  0.00    -0.507 OA
ATOM     23  H   UNL     1      -0.890   9.115  -9.274  1.00  0.00     0.293 HD
ENDBRANCH   6  22
BRANCH   8  24
ATOM     24  O   UNL     1      -1.148  10.037  -3.636  1.00  0.00    -0.508 OA
ATOM     25  H   UNL     1      -1.569   9.821  -2.739  1.00  0.00     0.293 HD
ENDBRANCH   8  24
TORSDOF 5
ENDMDL
MODEL 6
REMARK VINA RESULT:    -4.935      2.517      7.955
REMARK INTER + INTRA:          -6.079
REMARK INTER:                  -5.802
REMARK INTRA:                  -0.277
REMARK UNBOUND:                -0.279
REMARK SMILES O=c1cc(-c2ccc(O)c(O)c2)oc2cc(O)cc(O)c12
REMARK SMILES IDX 4 1 3 2 2 3 1 4 21 5 19 6 18 7 16 8 15 9 14 10 13 11 5 12
REMARK SMILES IDX 6 13 7 14 8 15 12 16 10 17 9 18 11 20 20 22 17 24
REMARK H PARENT 9 19 11 21 20 23 17 25
REMARK Flexibility Score: inf
ROOT
ATOM      1  C   UNL     1      -4.864   8.647  -6.619  1.00  0.00     0.138 A 
ATOM      2  C   UNL     1      -4.616   9.255  -7.858  1.00  0.00     0.100 A 
ATOM      3  C   UNL     1      -3.301   9.499  -8.257  1.00  0.00     0.197 A 
ATOM      4  O   UNL     1      -3.108   9.987  -9.399  1.00  0.00    -0.289 OA
ATOM      5  C   UNL     1      -2.231   9.161  -7.394  1.00  0.00     0.107 A 
ATOM      6  C   UNL     1      -0.854   9.401  -7.677  1.00  0.00     0.134 A 
ATOM      7  C   UNL     1       0.125   8.919  -6.799  1.00  0.00     0.093 A 
ATOM      8  C   UNL     1      -0.227   8.258  -5.619  1.00  0.00     0.123 A 
ATOM      9  C   UNL     1      -1.571   8.066  -5.308  1.00  0.00     0.094 A 
ATOM     10  C   UNL     1      -2.569   8.506  -6.179  1.00  0.00     0.146 A 
ATOM     11  O   UNL     1      -3.840   8.290  -5.852  1.00  0.00    -0.456 OA
ENDROOT
BRANCH   1  12
ATOM     12  C   UNL     1      -6.243   8.366  -6.146  1.00  0.00     0.021 A 
ATOM     13  C   UNL     1      -6.545   7.104  -5.606  1.00  0.00     0.016 A 
ATOM     14  C   UNL     1      -7.832   6.816  -5.146  1.00  0.00     0.051 A 
ATOM     15  C   UNL     1      -8.839   7.787  -5.211  1.00  0.00     0.157 A 
ATOM     16  C   UNL     1      -7.257   9.342  -6.195  1.00  0.00     0.062 A 
ATOM     17  C   UNL     1      -8.549   9.053  -5.733  1.00  0.00     0.158 A 
BRANCH  15  18
ATOM     18  O   UNL     1     -10.124   7.503  -4.755  1.00  0.00    -0.504 OA
ATOM     19  H   UNL     1     -10.596   8.107  -4.091  1.00  0.00     0.293 HD
ENDBRANCH  15  18
BRANCH  17  20
ATOM     20  O   UNL     1      -9.551  10.022  -5.785  1.00  0.00    -0.504 OA
ATOM     21  H   UNL     1     -10.195  10.078  -6.566  1.00  0.00     0.293 HD
ENDBRANCH  17  20
ENDBRANCH   1  12
BRANCH   6  22
ATOM     22  O   UNL     1      -0.398  10.124  -8.783  1.00  0.00    -0.507 OA
ATOM     23  H   UNL     1      -0.739  11.031  -9.060  1.00  0.00     0.293 HD
ENDBRANCH   6  22
BRANCH   8  24
ATOM     24  O   UNL     1       0.754   7.795  -4.745  1.00  0.00    -0.508 OA
ATOM     25  H   UNL     1       1.502   7.189  -5.060  1.00  0.00     0.293 HD
ENDBRANCH   8  24
TORSDOF 5
ENDMDL
MODEL 7
REMARK VINA RESULT:    -4.906      3.500      4.899
REMARK INTER + INTRA:          -6.046
REMARK INTER:                  -5.779
REMARK INTRA:                  -0.266
REMARK UNBOUND:                -0.279
REMARK SMILES O=c1cc(-c2ccc(O)c(O)c2)oc2cc(O)cc(O)c12
REMARK SMILES IDX 4 1 3 2 2 3 1 4 21 5 19 6 18 7 16 8 15 9 14 10 13 11 5 12
REMARK SMILES IDX 6 13 7 14 8 15 12 16 10 17 9 18 11 20 20 22 17 24
REMARK H PARENT 9 19 11 21 20 23 17 25
REMARK Flexibility Score: inf
ROOT
ATOM      1  C   UNL     1      -4.724   7.775  -6.609  1.00  0.00     0.138 A 
ATOM      2  C   UNL     1      -5.529   8.207  -5.546  1.00  0.00     0.100 A 
ATOM      3  C   UNL     1      -6.863   7.801  -5.481  1.00  0.00     0.197 A 
ATOM      4  O   UNL     1      -7.543   8.154  -4.483  1.00  0.00    -0.289 OA
ATOM      5  C   UNL     1      -7.400   6.984  -6.504  1.00  0.00     0.107 A 
ATOM      6  C   UNL     1      -8.755   6.544  -6.564  1.00  0.00     0.134 A 
ATOM      7  C   UNL     1      -9.144   5.642  -7.562  1.00  0.00     0.093 A 
ATOM      8  C   UNL     1      -8.241   5.214  -8.539  1.00  0.00     0.123 A 
ATOM      9  C   UNL     1      -6.929   5.680  -8.520  1.00  0.00     0.094 A 
ATOM     10  C   UNL     1      -6.502   6.553  -7.517  1.00  0.00     0.146 A 
ATOM     11  O   UNL     1      -5.238   6.963  -7.527  1.00  0.00    -0.456 OA
ENDROOT
BRANCH   1  12
ATOM     12  C   UNL     1      -3.300   8.177  -6.727  1.00  0.00     0.021 A 
ATOM     13  C   UNL     1      -2.878   8.907  -7.852  1.00  0.00     0.016 A 
ATOM     14  C   UNL     1      -1.545   9.304  -7.984  1.00  0.00     0.051 A 
ATOM     15  C   UNL     1      -0.612   8.987  -6.989  1.00  0.00     0.157 A 
ATOM     16  C   UNL     1      -2.358   7.873  -5.724  1.00  0.00     0.062 A 
ATOM     17  C   UNL     1      -1.021   8.273  -5.856  1.00  0.00     0.158 A 
BRANCH  15  18
ATOM     18  O   UNL     1       0.718   9.380  -7.118  1.00  0.00    -0.504 OA
ATOM     19  H   UNL     1       1.480   8.722  -6.995  1.00  0.00     0.293 HD
ENDBRANCH  15  18
BRANCH  17  20
ATOM     20  O   UNL     1      -0.091   7.969  -4.862  1.00  0.00    -0.504 OA
ATOM     21  H   UNL     1      -0.365   7.872  -3.891  1.00  0.00     0.293 HD
ENDBRANCH  17  20
ENDBRANCH   1  12
BRANCH   6  22
ATOM     22  O   UNL     1      -9.757   6.976  -5.690  1.00  0.00    -0.507 OA
ATOM     23  H   UNL     1      -9.601   7.540  -4.868  1.00  0.00     0.293 HD
ENDBRANCH   6  22
BRANCH   8  24
ATOM     24  O   UNL     1      -8.641   4.328  -9.537  1.00  0.00    -0.508 OA
ATOM     25  H   UNL     1      -8.933   4.656 -10.451  1.00  0.00     0.293 HD
ENDBRANCH   8  24
TORSDOF 5
ENDMDL
MODEL 8
REMARK VINA RESULT:    -4.205      2.092      2.352
REMARK INTER + INTRA:          -5.221
REMARK INTER:                  -4.958
REMARK INTRA:                  -0.263
REMARK UNBOUND:                -0.279
REMARK SMILES O=c1cc(-c2ccc(O)c(O)c2)oc2cc(O)cc(O)c12
REMARK SMILES IDX 4 1 3 2 2 3 1 4 21 5 19 6 18 7 16 8 15 9 14 10 13 11 5 12
REMARK SMILES IDX 6 13 7 14 8 15 12 16 10 17 9 18 11 20 20 22 17 24
REMARK H PARENT 9 19 11 21 20 23 17 25
REMARK Flexibility Score: inf
ROOT
ATOM      1  C   UNL     1      -2.239   8.772  -6.929  1.00  0.00     0.138 A 
ATOM      2  C   UNL     1      -2.598   9.475  -5.771  1.00  0.00     0.100 A 
ATOM      3  C   UNL     1      -3.835   9.233  -5.172  1.00  0.00     0.197 A 
ATOM      4  O   UNL     1      -4.103   9.833  -4.100  1.00  0.00    -0.289 OA
ATOM      5  C   UNL     1      -4.729   8.304  -5.756  1.00  0.00     0.107 A 
ATOM      6  C   UNL     1      -6.032   8.008  -5.256  1.00  0.00     0.134 A 
ATOM      7  C   UNL     1      -6.782   6.985  -5.850  1.00  0.00     0.093 A 
ATOM      8  C   UNL     1      -6.300   6.291  -6.963  1.00  0.00     0.123 A 
ATOM      9  C   UNL     1      -5.052   6.610  -7.491  1.00  0.00     0.094 A 
ATOM     10  C   UNL     1      -4.266   7.601  -6.900  1.00  0.00     0.146 A 
ATOM     11  O   UNL     1      -3.074   7.866  -7.426  1.00  0.00    -0.456 OA
ENDROOT
BRANCH   1  12
ATOM     12  C   UNL     1      -0.936   8.992  -7.607  1.00  0.00     0.021 A 
ATOM     13  C   UNL     1      -0.860   9.894  -8.682  1.00  0.00     0.016 A 
ATOM     14  C   UNL     1       0.355  10.124  -9.333  1.00  0.00     0.051 A 
ATOM     15  C   UNL     1       1.517   9.464  -8.914  1.00  0.00     0.157 A 
ATOM     16  C   UNL     1       0.239   8.341  -7.183  1.00  0.00     0.062 A 
ATOM     17  C   UNL     1       1.459   8.574  -7.835  1.00  0.00     0.158 A 
BRANCH  15  18
ATOM     18  O   UNL     1       2.730   9.690  -9.560  1.00  0.00    -0.504 OA
ATOM     19  H   UNL     1       3.616   9.572  -9.082  1.00  0.00     0.293 HD
ENDBRANCH  15  18
BRANCH  17  20
ATOM     20  O   UNL     1       2.619   7.926  -7.413  1.00  0.00    -0.504 OA
ATOM     21  H   UNL     1       3.402   7.778  -8.040  1.00  0.00     0.293 HD
ENDBRANCH  17  20
ENDBRANCH   1  12
BRANCH   6  22
ATOM     22  O   UNL     1      -6.641   8.698  -4.204  1.00  0.00    -0.507 OA
ATOM     23  H   UNL     1      -6.149   9.137  -3.441  1.00  0.00     0.293 HD
ENDBRANCH   6  22
BRANCH   8  24
ATOM     24  O   UNL     1      -7.060   5.286  -7.557  1.00  0.00    -0.508 OA
ATOM     25  H   UNL     1      -8.028   5.437  -7.819  1.00  0.00     0.293 HD
ENDBRANCH   8  24
TORSDOF 5
ENDMDL
