MODEL 1
REMARK VINA RESULT:    -3.151      0.000      0.000
REMARK INTER + INTRA:         -11.692
REMARK INTER:                  -7.203
REMARK INTRA:                  -4.489
REMARK UNBOUND:                -4.489
REMARK SMILES CCCCCCCCCCCCCCCCCCCCCCCC(=O)[O-]
REMARK SMILES IDX 13 1 14 2 15 3 16 4 17 5 18 6 19 7 20 8 21 9 22 10 23 11
REMARK SMILES IDX 24 12 25 13 26 14 12 15 11 16 10 17 9 18 8 19 7 20 6 21 5 22
REMARK SMILES IDX 4 23 3 24 2 25 1 26
REMARK H PARENT
REMARK Flexibility Score: inf
ROOT
ATOM      1  C   UNL     1     -95.595 146.134 238.434  1.00  0.00     0.000 C 
ENDROOT
BRANCH   1   2
ATOM      2  C   UNL     1     -94.625 145.014 238.853  1.00  0.00     0.000 C 
BRANCH   2   3
ATOM      3  C   UNL     1     -93.174 145.310 238.440  1.00  0.00     0.000 C 
BRANCH   3   4
ATOM      4  C   UNL     1     -92.194 145.242 239.621  1.00  0.00     0.000 C 
BRANCH   4   5
ATOM      5  C   UNL     1     -92.897 145.605 240.934  1.00  0.00     0.000 C 
BRANCH   5   6
ATOM      6  C   UNL     1     -92.722 147.091 241.265  1.00  0.00     0.000 C 
BRANCH   6   7
ATOM      7  C   UNL     1     -93.944 147.628 242.024  1.00  0.00     0.000 C 
BRANCH   7   8
ATOM      8  C   UNL     1     -95.025 146.556 242.248  1.00  0.00     0.000 C 
BRANCH   8   9
ATOM      9  C   UNL     1     -96.474 147.078 242.190  1.00  0.00     0.000 C 
BRANCH   9  10
ATOM     10  C   UNL     1     -96.576 148.606 241.989  1.00  0.00     0.006 C 
BRANCH  10  11
ATOM     11  C   UNL     1     -97.241 149.305 243.183  1.00  0.00     0.053 C 
BRANCH  11  12
ATOM     12  C   UNL     1     -98.721 149.091 243.159  1.00  0.00     0.041 C 
ATOM     13  O   UNL     1     -99.448 149.785 242.400  1.00  0.00    -0.550 OA
ATOM     14  O   UNL     1     -99.303 148.160 244.010  1.00  0.00    -0.550 OA
ENDBRANCH  11  12
ENDBRANCH  10  11
ENDBRANCH   9  10
ENDBRANCH   8   9
ENDBRANCH   7   8
ENDBRANCH   6   7
ENDBRANCH   5   6
ENDBRANCH   4   5
ENDBRANCH   3   4
ENDBRANCH   2   3
ENDBRANCH   1   2
BRANCH   1  15
ATOM     15  C   UNL     1     -94.870 147.336 237.806  1.00  0.00     0.000 C 
BRANCH  15  16
ATOM     16  C   UNL     1     -94.972 148.602 238.674  1.00  0.00     0.000 C 
BRANCH  16  17
ATOM     17  C   UNL     1     -94.750 149.898 237.874  1.00  0.00     0.000 C 
BRANCH  17  18
ATOM     18  C   UNL     1     -95.402 149.929 236.475  1.00  0.00    -0.000 C 
BRANCH  18  19
ATOM     19  C   UNL     1     -95.955 151.299 236.040  1.00  0.00    -0.000 C 
BRANCH  19  20
ATOM     20  C   UNL     1     -95.958 152.376 237.143  1.00  0.00    -0.000 C 
BRANCH  20  21
ATOM     21  C   UNL     1     -97.319 153.084 237.315  1.00  0.00    -0.000 C 
BRANCH  21  22
ATOM     22  C   UNL     1     -98.473 152.095 237.550  1.00  0.00    -0.000 C 
BRANCH  22  23
ATOM     23  C   UNL     1     -98.473 151.509 238.971  1.00  0.00    -0.000 C 
BRANCH  23  24
ATOM     24  C   UNL     1     -98.465 149.970 238.975  1.00  0.00    -0.000 C 
BRANCH  24  25
ATOM     25  C   UNL     1     -98.847 149.379 237.609  1.00  0.00    -0.003 C 
ATOM     26  C   UNL     1     -98.693 147.859 237.557  1.00  0.00     0.004 C 
ENDBRANCH  24  25
ENDBRANCH  23  24
ENDBRANCH  22  23
ENDBRANCH  21  22
ENDBRANCH  20  21
ENDBRANCH  19  20
ENDBRANCH  18  19
ENDBRANCH  17  18
ENDBRANCH  16  17
ENDBRANCH  15  16
ENDBRANCH   1  15
TORSDOF 22
ENDMDL
MODEL 2
REMARK VINA RESULT:    -3.125      1.521      2.208
REMARK INTER + INTRA:         -11.634
REMARK INTER:                  -7.728
REMARK INTRA:                  -3.906
REMARK UNBOUND:                -4.489
REMARK SMILES CCCCCCCCCCCCCCCCCCCCCCCC(=O)[O-]
REMARK SMILES IDX 13 1 14 2 15 3 16 4 17 5 18 6 19 7 20 8 21 9 22 10 23 11
REMARK SMILES IDX 24 12 25 13 26 14 12 15 11 16 10 17 9 18 8 19 7 20 6 21 5 22
REMARK SMILES IDX 4 23 3 24 2 25 1 26
REMARK H PARENT
REMARK Flexibility Score: inf
ROOT
ATOM      1  C   UNL     1     -93.973 146.906 238.877  1.00  0.00     0.000 C 
ENDROOT
BRANCH   1   2
ATOM      2  C   UNL     1     -93.232 146.199 240.026  1.00  0.00     0.000 C 
BRANCH   2   3
ATOM      3  C   UNL     1     -93.197 147.043 241.310  1.00  0.00     0.000 C 
BRANCH   3   4
ATOM      4  C   UNL     1     -93.789 146.308 242.522  1.00  0.00     0.000 C 
BRANCH   4   5
ATOM      5  C   UNL     1     -94.574 145.069 242.077  1.00  0.00     0.000 C 
BRANCH   5   6
ATOM      6  C   UNL     1     -96.073 145.234 242.352  1.00  0.00     0.000 C 
BRANCH   6   7
ATOM      7  C   UNL     1     -96.772 145.919 241.168  1.00  0.00     0.000 C 
BRANCH   7   8
ATOM      8  C   UNL     1     -97.738 147.033 241.608  1.00  0.00     0.000 C 
BRANCH   8   9
ATOM      9  C   UNL     1     -97.134 148.451 241.602  1.00  0.00     0.000 C 
BRANCH   9  10
ATOM     10  C   UNL     1     -96.458 148.843 242.934  1.00  0.00     0.006 C 
BRANCH  10  11
ATOM     11  C   UNL     1     -97.462 149.397 243.953  1.00  0.00     0.053 C 
BRANCH  11  12
ATOM     12  C   UNL     1     -97.455 148.570 245.200  1.00  0.00     0.041 C 
ATOM     13  O   UNL     1     -97.649 149.111 246.320  1.00  0.00    -0.550 OA
ATOM     14  O   UNL     1     -97.184 147.209 245.129  1.00  0.00    -0.550 OA
ENDBRANCH  11  12
ENDBRANCH  10  11
ENDBRANCH   9  10
ENDBRANCH   8   9
ENDBRANCH   7   8
ENDBRANCH   6   7
ENDBRANCH   5   6
ENDBRANCH   4   5
ENDBRANCH   3   4
ENDBRANCH   2   3
ENDBRANCH   1   2
BRANCH   1  15
ATOM     15  C   UNL     1     -94.439 148.321 239.260  1.00  0.00     0.000 C 
BRANCH  15  16
ATOM     16  C   UNL     1     -95.600 148.814 238.380  1.00  0.00     0.000 C 
BRANCH  16  17
ATOM     17  C   UNL     1     -95.378 148.536 236.883  1.00  0.00     0.000 C 
BRANCH  17  18
ATOM     18  C   UNL     1     -95.662 149.726 235.942  1.00  0.00    -0.000 C 
BRANCH  18  19
ATOM     19  C   UNL     1     -95.230 151.103 236.480  1.00  0.00    -0.000 C 
BRANCH  19  20
ATOM     20  C   UNL     1     -96.225 152.248 236.206  1.00  0.00    -0.000 C 
BRANCH  20  21
ATOM     21  C   UNL     1     -96.478 153.156 237.428  1.00  0.00    -0.000 C 
BRANCH  21  22
ATOM     22  C   UNL     1     -97.977 153.371 237.702  1.00  0.00    -0.000 C 
BRANCH  22  23
ATOM     23  C   UNL     1     -98.790 152.070 237.606  1.00  0.00    -0.000 C 
BRANCH  23  24
ATOM     24  C   UNL     1     -98.593 151.159 238.830  1.00  0.00    -0.000 C 
BRANCH  24  25
ATOM     25  C   UNL     1     -99.053 149.716 238.565  1.00  0.00    -0.003 C 
ATOM     26  C   UNL     1     -99.130 149.383 237.075  1.00  0.00     0.004 C 
ENDBRANCH  24  25
ENDBRANCH  23  24
ENDBRANCH  22  23
ENDBRANCH  21  22
ENDBRANCH  20  21
ENDBRANCH  19  20
ENDBRANCH  18  19
ENDBRANCH  17  18
ENDBRANCH  16  17
ENDBRANCH  15  16
ENDBRANCH   1  15
TORSDOF 22
ENDMDL
MODEL 3
REMARK VINA RESULT:    -3.106      2.421      6.052
REMARK INTER + INTRA:         -11.590
REMARK INTER:                  -7.404
REMARK INTRA:                  -4.186
REMARK UNBOUND:                -4.489
REMARK SMILES CCCCCCCCCCCCCCCCCCCCCCCC(=O)[O-]
REMARK SMILES IDX 13 1 14 2 15 3 16 4 17 5 18 6 19 7 20 8 21 9 22 10 23 11
REMARK SMILES IDX 24 12 25 13 26 14 12 15 11 16 10 17 9 18 8 19 7 20 6 21 5 22
REMARK SMILES IDX 4 23 3 24 2 25 1 26
REMARK H PARENT
REMARK Flexibility Score: inf
ROOT
ATOM      1  C   UNL     1     -92.836 145.625 240.919  1.00  0.00     0.000 C 
ENDROOT
BRANCH   1   2
ATOM      2  C   UNL     1     -92.363 145.342 239.482  1.00  0.00     0.000 C 
BRANCH   2   3
ATOM      3  C   UNL     1     -93.535 145.195 238.497  1.00  0.00     0.000 C 
BRANCH   3   4
ATOM      4  C   UNL     1     -93.617 146.356 237.494  1.00  0.00     0.000 C 
BRANCH   4   5
ATOM      5  C   UNL     1     -95.053 146.538 236.988  1.00  0.00     0.000 C 
BRANCH   5   6
ATOM      6  C   UNL     1     -95.217 147.876 236.258  1.00  0.00     0.000 C 
BRANCH   6   7
ATOM      7  C   UNL     1     -94.386 148.974 236.939  1.00  0.00     0.000 C 
BRANCH   7   8
ATOM      8  C   UNL     1     -95.215 150.223 237.283  1.00  0.00     0.000 C 
BRANCH   8   9
ATOM      9  C   UNL     1     -96.742 150.030 237.195  1.00  0.00     0.000 C 
BRANCH   9  10
ATOM     10  C   UNL     1     -97.482 151.219 236.546  1.00  0.00     0.006 C 
BRANCH  10  11
ATOM     11  C   UNL     1     -96.594 152.466 236.437  1.00  0.00     0.053 C 
BRANCH  11  12
ATOM     12  C   UNL     1     -97.165 153.589 237.243  1.00  0.00     0.041 C 
ATOM     13  O   UNL     1     -98.183 153.400 237.960  1.00  0.00    -0.550 OA
ATOM     14  O   UNL     1     -96.603 154.858 237.164  1.00  0.00    -0.550 OA
ENDBRANCH  11  12
ENDBRANCH  10  11
ENDBRANCH   9  10
ENDBRANCH   8   9
ENDBRANCH   7   8
ENDBRANCH   6   7
ENDBRANCH   5   6
ENDBRANCH   4   5
ENDBRANCH   3   4
ENDBRANCH   2   3
ENDBRANCH   1   2
BRANCH   1  15
ATOM     15  C   UNL     1     -92.876 147.129 241.241  1.00  0.00     0.000 C 
BRANCH  15  16
ATOM     16  C   UNL     1     -94.279 147.603 241.657  1.00  0.00     0.000 C 
BRANCH  16  17
ATOM     17  C   UNL     1     -95.122 148.097 240.468  1.00  0.00     0.000 C 
BRANCH  17  18
ATOM     18  C   UNL     1     -96.460 147.357 240.256  1.00  0.00    -0.000 C 
BRANCH  18  19
ATOM     19  C   UNL     1     -96.446 145.861 240.622  1.00  0.00    -0.000 C 
BRANCH  19  20
ATOM     20  C   UNL     1     -97.335 145.478 241.821  1.00  0.00    -0.000 C 
BRANCH  20  21
ATOM     21  C   UNL     1     -96.542 145.198 243.117  1.00  0.00    -0.000 C 
BRANCH  21  22
ATOM     22  C   UNL     1     -96.980 146.100 244.283  1.00  0.00    -0.000 C 
BRANCH  22  23
ATOM     23  C   UNL     1     -97.770 147.333 243.816  1.00  0.00    -0.000 C 
BRANCH  23  24
ATOM     24  C   UNL     1     -96.984 148.643 244.002  1.00  0.00    -0.000 C 
BRANCH  24  25
ATOM     25  C   UNL     1     -97.389 149.719 242.982  1.00  0.00    -0.003 C 
ATOM     26  C   UNL     1     -98.759 149.456 242.356  1.00  0.00     0.004 C 
ENDBRANCH  24  25
ENDBRANCH  23  24
ENDBRANCH  22  23
ENDBRANCH  21  22
ENDBRANCH  20  21
ENDBRANCH  19  20
ENDBRANCH  18  19
ENDBRANCH  17  18
ENDBRANCH  16  17
ENDBRANCH  15  16
ENDBRANCH   1  15
TORSDOF 22
ENDMDL
MODEL 4
REMARK VINA RESULT:    -3.099      3.006      6.253
REMARK INTER + INTRA:         -11.575
REMARK INTER:                  -7.844
REMARK INTRA:                  -3.731
REMARK UNBOUND:                -4.489
REMARK SMILES CCCCCCCCCCCCCCCCCCCCCCCC(=O)[O-]
REMARK SMILES IDX 13 1 14 2 15 3 16 4 17 5 18 6 19 7 20 8 21 9 22 10 23 11
REMARK SMILES IDX 24 12 25 13 26 14 12 15 11 16 10 17 9 18 8 19 7 20 6 21 5 22
REMARK SMILES IDX 4 23 3 24 2 25 1 26
REMARK H PARENT
REMARK Flexibility Score: inf
ROOT
ATOM      1  C   UNL     1     -94.947 147.782 242.050  1.00  0.00     0.000 C 
ENDROOT
BRANCH   1   2
ATOM      2  C   UNL     1     -93.933 147.770 240.892  1.00  0.00     0.000 C 
BRANCH   2   3
ATOM      3  C   UNL     1     -92.830 146.716 241.089  1.00  0.00     0.000 C 
BRANCH   3   4
ATOM      4  C   UNL     1     -92.777 145.690 239.947  1.00  0.00     0.000 C 
BRANCH   4   5
ATOM      5  C   UNL     1     -93.976 145.859 239.006  1.00  0.00     0.000 C 
BRANCH   5   6
ATOM      6  C   UNL     1     -93.519 146.122 237.567  1.00  0.00     0.000 C 
BRANCH   6   7
ATOM      7  C   UNL     1     -94.462 147.113 236.868  1.00  0.00     0.000 C 
BRANCH   7   8
ATOM      8  C   UNL     1     -95.714 147.434 237.704  1.00  0.00     0.000 C 
BRANCH   8   9
ATOM      9  C   UNL     1     -95.941 148.933 237.978  1.00  0.00     0.000 C 
BRANCH   9  10
ATOM     10  C   UNL     1     -94.764 149.830 237.536  1.00  0.00     0.006 C 
BRANCH  10  11
ATOM     11  C   UNL     1     -95.238 151.185 236.994  1.00  0.00     0.053 C 
BRANCH  11  12
ATOM     12  C   UNL     1     -95.742 151.043 235.593  1.00  0.00     0.041 C 
ATOM     13  O   UNL     1     -95.252 150.169 234.830  1.00  0.00    -0.550 OA
ATOM     14  O   UNL     1     -96.719 151.907 235.113  1.00  0.00    -0.550 OA
ENDBRANCH  11  12
ENDBRANCH  10  11
ENDBRANCH   9  10
ENDBRANCH   8   9
ENDBRANCH   7   8
ENDBRANCH   6   7
ENDBRANCH   5   6
ENDBRANCH   4   5
ENDBRANCH   3   4
ENDBRANCH   2   3
ENDBRANCH   1   2
BRANCH   1  15
ATOM     15  C   UNL     1     -95.157 146.387 242.663  1.00  0.00     0.000 C 
BRANCH  15  16
ATOM     16  C   UNL     1     -96.580 145.852 242.428  1.00  0.00     0.000 C 
BRANCH  16  17
ATOM     17  C   UNL     1     -97.140 146.224 241.044  1.00  0.00     0.000 C 
BRANCH  17  18
ATOM     18  C   UNL     1     -98.484 146.983 241.060  1.00  0.00    -0.000 C 
BRANCH  18  19
ATOM     19  C   UNL     1     -98.472 148.351 240.352  1.00  0.00    -0.000 C 
BRANCH  19  20
ATOM     20  C   UNL     1     -98.283 149.562 241.287  1.00  0.00    -0.000 C 
BRANCH  20  21
ATOM     21  C   UNL     1     -98.874 149.355 242.698  1.00  0.00    -0.000 C 
BRANCH  21  22
ATOM     22  C   UNL     1     -97.788 149.275 243.785  1.00  0.00    -0.000 C 
BRANCH  22  23
ATOM     23  C   UNL     1     -98.102 148.225 244.863  1.00  0.00    -0.000 C 
BRANCH  23  24
ATOM     24  C   UNL     1     -97.699 148.689 246.274  1.00  0.00    -0.000 C 
BRANCH  24  25
ATOM     25  C   UNL     1     -98.585 149.835 246.789  1.00  0.00    -0.003 C 
ATOM     26  C   UNL     1     -97.843 150.776 247.738  1.00  0.00     0.004 C 
ENDBRANCH  24  25
ENDBRANCH  23  24
ENDBRANCH  22  23
ENDBRANCH  21  22
ENDBRANCH  20  21
ENDBRANCH  19  20
ENDBRANCH  18  19
ENDBRANCH  17  18
ENDBRANCH  16  17
ENDBRANCH  15  16
ENDBRANCH   1  15
TORSDOF 22
ENDMDL
MODEL 5
REMARK VINA RESULT:    -3.093      1.026      2.624
REMARK INTER + INTRA:         -11.559
REMARK INTER:                  -7.539
REMARK INTRA:                  -4.021
REMARK UNBOUND:                -4.489
REMARK SMILES CCCCCCCCCCCCCCCCCCCCCCCC(=O)[O-]
REMARK SMILES IDX 13 1 14 2 15 3 16 4 17 5 18 6 19 7 20 8 21 9 22 10 23 11
REMARK SMILES IDX 24 12 25 13 26 14 12 15 11 16 10 17 9 18 8 19 7 20 6 21 5 22
REMARK SMILES IDX 4 23 3 24 2 25 1 26
REMARK H PARENT
REMARK Flexibility Score: inf
ROOT
ATOM      1  C   UNL     1     -94.798 147.886 237.937  1.00  0.00     0.000 C 
ENDROOT
BRANCH   1   2
ATOM      2  C   UNL     1     -94.788 146.392 238.308  1.00  0.00     0.000 C 
BRANCH   2   3
ATOM      3  C   UNL     1     -93.433 145.936 238.874  1.00  0.00     0.000 C 
BRANCH   3   4
ATOM      4  C   UNL     1     -93.451 145.772 240.401  1.00  0.00     0.000 C 
BRANCH   4   5
ATOM      5  C   UNL     1     -92.863 147.009 241.089  1.00  0.00     0.000 C 
BRANCH   5   6
ATOM      6  C   UNL     1     -93.842 147.590 242.116  1.00  0.00     0.000 C 
BRANCH   6   7
ATOM      7  C   UNL     1     -95.121 146.743 242.188  1.00  0.00     0.000 C 
BRANCH   7   8
ATOM      8  C   UNL     1     -96.253 147.436 242.967  1.00  0.00     0.000 C 
BRANCH   8   9
ATOM      9  C   UNL     1     -96.149 148.973 243.026  1.00  0.00     0.000 C 
BRANCH   9  10
ATOM     10  C   UNL     1     -97.484 149.697 242.748  1.00  0.00     0.006 C 
BRANCH  10  11
ATOM     11  C   UNL     1     -98.699 148.818 243.073  1.00  0.00     0.053 C 
BRANCH  11  12
ATOM     12  C   UNL     1     -99.295 149.211 244.387  1.00  0.00     0.041 C 
ATOM     13  O   UNL     1    -100.528 149.450 244.477  1.00  0.00    -0.550 OA
ATOM     14  O   UNL     1     -98.480 149.364 245.503  1.00  0.00    -0.550 OA
ENDBRANCH  11  12
ENDBRANCH  10  11
ENDBRANCH   9  10
ENDBRANCH   8   9
ENDBRANCH   7   8
ENDBRANCH   6   7
ENDBRANCH   5   6
ENDBRANCH   4   5
ENDBRANCH   3   4
ENDBRANCH   2   3
ENDBRANCH   1   2
BRANCH   1  15
ATOM     15  C   UNL     1     -95.503 148.751 238.995  1.00  0.00     0.000 C 
BRANCH  15  16
ATOM     16  C   UNL     1     -96.960 148.319 239.230  1.00  0.00     0.000 C 
BRANCH  16  17
ATOM     17  C   UNL     1     -97.851 148.514 237.990  1.00  0.00     0.000 C 
BRANCH  17  18
ATOM     18  C   UNL     1     -98.960 149.578 238.136  1.00  0.00    -0.000 C 
BRANCH  18  19
ATOM     19  C   UNL     1     -98.880 150.436 239.412  1.00  0.00    -0.000 C 
BRANCH  19  20
ATOM     20  C   UNL     1     -98.953 151.958 239.175  1.00  0.00    -0.000 C 
BRANCH  20  21
ATOM     21  C   UNL     1     -98.625 152.376 237.725  1.00  0.00    -0.000 C 
BRANCH  21  22
ATOM     22  C   UNL     1     -97.394 153.295 237.641  1.00  0.00    -0.000 C 
BRANCH  22  23
ATOM     23  C   UNL     1     -96.139 152.562 237.143  1.00  0.00    -0.000 C 
BRANCH  23  24
ATOM     24  C   UNL     1     -96.464 151.472 236.106  1.00  0.00    -0.000 C 
BRANCH  24  25
ATOM     25  C   UNL     1     -95.211 150.713 235.642  1.00  0.00    -0.003 C 
ATOM     26  C   UNL     1     -95.522 149.634 234.605  1.00  0.00     0.004 C 
ENDBRANCH  24  25
ENDBRANCH  23  24
ENDBRANCH  22  23
ENDBRANCH  21  22
ENDBRANCH  20  21
ENDBRANCH  19  20
ENDBRANCH  18  19
ENDBRANCH  17  18
ENDBRANCH  16  17
ENDBRANCH  15  16
ENDBRANCH   1  15
TORSDOF 22
ENDMDL
MODEL 6
REMARK VINA RESULT:    -3.091      1.237      2.175
REMARK INTER + INTRA:         -11.556
REMARK INTER:                  -7.727
REMARK INTRA:                  -3.829
REMARK UNBOUND:                -4.489
REMARK SMILES CCCCCCCCCCCCCCCCCCCCCCCC(=O)[O-]
REMARK SMILES IDX 13 1 14 2 15 3 16 4 17 5 18 6 19 7 20 8 21 9 22 10 23 11
REMARK SMILES IDX 24 12 25 13 26 14 12 15 11 16 10 17 9 18 8 19 7 20 6 21 5 22
REMARK SMILES IDX 4 23 3 24 2 25 1 26
REMARK H PARENT
REMARK Flexibility Score: inf
ROOT
ATOM      1  C   UNL     1     -95.113 148.503 238.345  1.00  0.00     0.000 C 
ENDROOT
BRANCH   1   2
ATOM      2  C   UNL     1     -94.502 148.217 239.728  1.00  0.00     0.000 C 
BRANCH   2   3
ATOM      3  C   UNL     1     -93.615 146.960 239.728  1.00  0.00     0.000 C 
BRANCH   3   4
ATOM      4  C   UNL     1     -92.835 146.784 241.039  1.00  0.00     0.000 C 
BRANCH   4   5
ATOM      5  C   UNL     1     -93.760 146.945 242.250  1.00  0.00     0.000 C 
BRANCH   5   6
ATOM      6  C   UNL     1     -94.224 145.582 242.779  1.00  0.00     0.000 C 
BRANCH   6   7
ATOM      7  C   UNL     1     -95.735 145.590 243.051  1.00  0.00     0.000 C 
BRANCH   7   8
ATOM      8  C   UNL     1     -96.561 145.999 241.819  1.00  0.00     0.000 C 
BRANCH   8   9
ATOM      9  C   UNL     1     -97.707 146.988 242.109  1.00  0.00     0.000 C 
BRANCH   9  10
ATOM     10  C   UNL     1     -97.300 148.470 241.964  1.00  0.00     0.006 C 
BRANCH  10  11
ATOM     11  C   UNL     1     -96.713 149.040 243.263  1.00  0.00     0.053 C 
BRANCH  11  12
ATOM     12  C   UNL     1     -97.688 148.894 244.388  1.00  0.00     0.041 C 
ATOM     13  O   UNL     1     -98.839 149.395 244.296  1.00  0.00    -0.550 OA
ATOM     14  O   UNL     1     -97.308 148.247 245.557  1.00  0.00    -0.550 OA
ENDBRANCH  11  12
ENDBRANCH  10  11
ENDBRANCH   9  10
ENDBRANCH   8   9
ENDBRANCH   7   8
ENDBRANCH   6   7
ENDBRANCH   5   6
ENDBRANCH   4   5
ENDBRANCH   3   4
ENDBRANCH   2   3
ENDBRANCH   1   2
BRANCH   1  15
ATOM     15  C   UNL     1     -94.781 149.916 237.835  1.00  0.00     0.000 C 
BRANCH  15  16
ATOM     16  C   UNL     1     -94.882 150.026 236.304  1.00  0.00     0.000 C 
BRANCH  16  17
ATOM     17  C   UNL     1     -95.726 151.229 235.844  1.00  0.00     0.000 C 
BRANCH  17  18
ATOM     18  C   UNL     1     -96.013 152.287 236.931  1.00  0.00    -0.000 C 
BRANCH  18  19
ATOM     19  C   UNL     1     -97.159 153.263 236.607  1.00  0.00    -0.000 C 
BRANCH  19  20
ATOM     20  C   UNL     1     -98.176 153.469 237.746  1.00  0.00    -0.000 C 
BRANCH  20  21
ATOM     21  C   UNL     1     -99.134 152.275 237.946  1.00  0.00    -0.000 C 
BRANCH  21  22
ATOM     22  C   UNL     1     -98.768 151.424 239.174  1.00  0.00    -0.000 C 
BRANCH  22  23
ATOM     23  C   UNL     1     -98.510 149.951 238.821  1.00  0.00    -0.000 C 
BRANCH  23  24
ATOM     24  C   UNL     1     -98.718 149.657 237.325  1.00  0.00    -0.000 C 
BRANCH  24  25
ATOM     25  C   UNL     1     -98.465 148.182 236.977  1.00  0.00    -0.003 C 
ATOM     26  C   UNL     1     -97.928 147.992 235.558  1.00  0.00     0.004 C 
ENDBRANCH  24  25
ENDBRANCH  23  24
ENDBRANCH  22  23
ENDBRANCH  21  22
ENDBRANCH  20  21
ENDBRANCH  19  20
ENDBRANCH  18  19
ENDBRANCH  17  18
ENDBRANCH  16  17
ENDBRANCH  15  16
ENDBRANCH   1  15
TORSDOF 22
ENDMDL
MODEL 7
REMARK VINA RESULT:    -3.083      2.294      6.277
REMARK INTER + INTRA:         -11.537
REMARK INTER:                  -7.299
REMARK INTRA:                  -4.238
REMARK UNBOUND:                -4.489
REMARK SMILES CCCCCCCCCCCCCCCCCCCCCCCC(=O)[O-]
REMARK SMILES IDX 13 1 14 2 15 3 16 4 17 5 18 6 19 7 20 8 21 9 22 10 23 11
REMARK SMILES IDX 24 12 25 13 26 14 12 15 11 16 10 17 9 18 8 19 7 20 6 21 5 22
REMARK SMILES IDX 4 23 3 24 2 25 1 26
REMARK H PARENT
REMARK Flexibility Score: inf
ROOT
ATOM      1  C   UNL     1     -94.162 147.872 239.729  1.00  0.00     0.000 C 
ENDROOT
BRANCH   1   2
ATOM      2  C   UNL     1     -95.626 148.271 239.983  1.00  0.00     0.000 C 
BRANCH   2   3
ATOM      3  C   UNL     1     -96.618 147.390 239.205  1.00  0.00     0.000 C 
BRANCH   3   4
ATOM      4  C   UNL     1     -97.334 148.152 238.080  1.00  0.00     0.000 C 
BRANCH   4   5
ATOM      5  C   UNL     1     -97.163 147.431 236.738  1.00  0.00     0.000 C 
BRANCH   5   6
ATOM      6  C   UNL     1     -96.530 148.353 235.690  1.00  0.00     0.000 C 
BRANCH   6   7
ATOM      7  C   UNL     1     -95.084 148.700 236.072  1.00  0.00     0.000 C 
BRANCH   7   8
ATOM      8  C   UNL     1     -94.787 150.207 235.979  1.00  0.00     0.000 C 
BRANCH   8   9
ATOM      9  C   UNL     1     -95.111 151.010 237.255  1.00  0.00     0.000 C 
BRANCH   9  10
ATOM     10  C   UNL     1     -96.069 152.196 237.015  1.00  0.00     0.006 C 
BRANCH  10  11
ATOM     11  C   UNL     1     -97.540 151.760 236.996  1.00  0.00     0.053 C 
BRANCH  11  12
ATOM     12  C   UNL     1     -98.417 152.846 237.535  1.00  0.00     0.041 C 
ATOM     13  O   UNL     1     -99.629 152.616 237.784  1.00  0.00    -0.550 OA
ATOM     14  O   UNL     1     -97.906 154.126 237.715  1.00  0.00    -0.550 OA
ENDBRANCH  11  12
ENDBRANCH  10  11
ENDBRANCH   9  10
ENDBRANCH   8   9
ENDBRANCH   7   8
ENDBRANCH   6   7
ENDBRANCH   5   6
ENDBRANCH   4   5
ENDBRANCH   3   4
ENDBRANCH   2   3
ENDBRANCH   1   2
BRANCH   1  15
ATOM     15  C   UNL     1     -94.037 146.603 238.870  1.00  0.00     0.000 C 
BRANCH  15  16
ATOM     16  C   UNL     1     -93.021 145.602 239.446  1.00  0.00     0.000 C 
BRANCH  16  17
ATOM     17  C   UNL     1     -92.552 145.973 240.864  1.00  0.00     0.000 C 
BRANCH  17  18
ATOM     18  C   UNL     1     -93.021 145.020 241.984  1.00  0.00    -0.000 C 
BRANCH  18  19
ATOM     19  C   UNL     1     -94.286 145.470 242.739  1.00  0.00    -0.000 C 
BRANCH  19  20
ATOM     20  C   UNL     1     -95.615 145.113 242.045  1.00  0.00    -0.000 C 
BRANCH  20  21
ATOM     21  C   UNL     1     -96.834 145.874 242.610  1.00  0.00    -0.000 C 
BRANCH  21  22
ATOM     22  C   UNL     1     -96.427 147.069 243.490  1.00  0.00    -0.000 C 
BRANCH  22  23
ATOM     23  C   UNL     1     -97.570 148.077 243.688  1.00  0.00    -0.000 C 
BRANCH  23  24
ATOM     24  C   UNL     1     -97.309 149.414 242.972  1.00  0.00    -0.000 C 
BRANCH  24  25
ATOM     25  C   UNL     1     -98.424 149.772 241.976  1.00  0.00    -0.003 C 
ATOM     26  C   UNL     1     -99.269 148.563 241.574  1.00  0.00     0.004 C 
ENDBRANCH  24  25
ENDBRANCH  23  24
ENDBRANCH  22  23
ENDBRANCH  21  22
ENDBRANCH  20  21
ENDBRANCH  19  20
ENDBRANCH  18  19
ENDBRANCH  17  18
ENDBRANCH  16  17
ENDBRANCH  15  16
ENDBRANCH   1  15
TORSDOF 22
ENDMDL
MODEL 8
REMARK VINA RESULT:    -3.071      1.757      5.368
REMARK INTER + INTRA:         -11.510
REMARK INTER:                  -7.570
REMARK INTRA:                  -3.940
REMARK UNBOUND:                -4.489
REMARK SMILES CCCCCCCCCCCCCCCCCCCCCCCC(=O)[O-]
REMARK SMILES IDX 13 1 14 2 15 3 16 4 17 5 18 6 19 7 20 8 21 9 22 10 23 11
REMARK SMILES IDX 24 12 25 13 26 14 12 15 11 16 10 17 9 18 8 19 7 20 6 21 5 22
REMARK SMILES IDX 4 23 3 24 2 25 1 26
REMARK H PARENT
REMARK Flexibility Score: inf
ROOT
ATOM      1  C   UNL     1     -93.630 147.475 241.993  1.00  0.00     0.000 C 
ENDROOT
BRANCH   1   2
ATOM      2  C   UNL     1     -95.058 148.042 241.896  1.00  0.00     0.000 C 
BRANCH   2   3
ATOM      3  C   UNL     1     -96.132 146.973 242.155  1.00  0.00     0.000 C 
BRANCH   3   4
ATOM      4  C   UNL     1     -97.050 147.326 243.335  1.00  0.00     0.000 C 
BRANCH   4   5
ATOM      5  C   UNL     1     -96.956 148.819 243.671  1.00  0.00     0.000 C 
BRANCH   5   6
ATOM      6  C   UNL     1     -98.348 149.444 243.816  1.00  0.00     0.000 C 
BRANCH   6   7
ATOM      7  C   UNL     1     -99.247 149.049 242.635  1.00  0.00     0.000 C 
BRANCH   7   8
ATOM      8  C   UNL     1     -99.460 150.200 241.636  1.00  0.00     0.000 C 
BRANCH   8   9
ATOM      9  C   UNL     1     -98.482 150.209 240.444  1.00  0.00     0.000 C 
BRANCH   9  10
ATOM     10  C   UNL     1     -98.270 148.819 239.805  1.00  0.00     0.006 C 
BRANCH  10  11
ATOM     11  C   UNL     1     -98.609 148.811 238.308  1.00  0.00     0.053 C 
BRANCH  11  12
ATOM     12  C   UNL     1     -99.848 149.607 238.047  1.00  0.00     0.041 C 
ATOM     13  O   UNL     1    -100.970 149.172 238.419  1.00  0.00    -0.550 OA
ATOM     14  O   UNL     1     -99.771 150.805 237.348  1.00  0.00    -0.550 OA
ENDBRANCH  11  12
ENDBRANCH  10  11
ENDBRANCH   9  10
ENDBRANCH   8   9
ENDBRANCH   7   8
ENDBRANCH   6   7
ENDBRANCH   5   6
ENDBRANCH   4   5
ENDBRANCH   3   4
ENDBRANCH   2   3
ENDBRANCH   1   2
BRANCH   1  15
ATOM     15  C   UNL     1     -93.594 146.074 242.626  1.00  0.00     0.000 C 
BRANCH  15  16
ATOM     16  C   UNL     1     -92.907 145.038 241.721  1.00  0.00     0.000 C 
BRANCH  16  17
ATOM     17  C   UNL     1     -92.264 145.666 240.471  1.00  0.00     0.000 C 
BRANCH  17  18
ATOM     18  C   UNL     1     -92.934 145.298 239.130  1.00  0.00    -0.000 C 
BRANCH  18  19
ATOM     19  C   UNL     1     -94.461 145.109 239.191  1.00  0.00    -0.000 C 
BRANCH  19  20
ATOM     20  C   UNL     1     -95.282 146.273 238.604  1.00  0.00    -0.000 C 
BRANCH  20  21
ATOM     21  C   UNL     1     -94.426 147.330 237.872  1.00  0.00    -0.000 C 
BRANCH  21  22
ATOM     22  C   UNL     1     -94.857 148.769 238.203  1.00  0.00    -0.000 C 
BRANCH  22  23
ATOM     23  C   UNL     1     -95.286 149.561 236.958  1.00  0.00    -0.000 C 
BRANCH  23  24
ATOM     24  C   UNL     1     -95.123 151.081 237.139  1.00  0.00    -0.000 C 
BRANCH  24  25
ATOM     25  C   UNL     1     -96.386 151.858 236.734  1.00  0.00    -0.003 C 
ATOM     26  C   UNL     1     -96.483 153.225 237.413  1.00  0.00     0.004 C 
ENDBRANCH  24  25
ENDBRANCH  23  24
ENDBRANCH  22  23
ENDBRANCH  21  22
ENDBRANCH  20  21
ENDBRANCH  19  20
ENDBRANCH  18  19
ENDBRANCH  17  18
ENDBRANCH  16  17
ENDBRANCH  15  16
ENDBRANCH   1  15
TORSDOF 22
ENDMDL
MODEL 9
REMARK VINA RESULT:    -3.032      2.257      5.318
REMARK INTER + INTRA:         -11.420
REMARK INTER:                  -7.218
REMARK INTRA:                  -4.202
REMARK UNBOUND:                -4.489
REMARK SMILES CCCCCCCCCCCCCCCCCCCCCCCC(=O)[O-]
REMARK SMILES IDX 13 1 14 2 15 3 16 4 17 5 18 6 19 7 20 8 21 9 22 10 23 11
REMARK SMILES IDX 24 12 25 13 26 14 12 15 11 16 10 17 9 18 8 19 7 20 6 21 5 22
REMARK SMILES IDX 4 23 3 24 2 25 1 26
REMARK H PARENT
REMARK Flexibility Score: inf
ROOT
ATOM      1  C   UNL     1     -94.009 147.096 242.076  1.00  0.00     0.000 C 
ENDROOT
BRANCH   1   2
ATOM      2  C   UNL     1     -93.062 147.170 240.866  1.00  0.00     0.000 C 
BRANCH   2   3
ATOM      3  C   UNL     1     -92.638 145.779 240.367  1.00  0.00     0.000 C 
BRANCH   3   4
ATOM      4  C   UNL     1     -93.444 145.314 239.145  1.00  0.00     0.000 C 
BRANCH   4   5
ATOM      5  C   UNL     1     -93.664 146.471 238.164  1.00  0.00     0.000 C 
BRANCH   5   6
ATOM      6  C   UNL     1     -94.877 146.212 237.263  1.00  0.00     0.000 C 
BRANCH   6   7
ATOM      7  C   UNL     1     -95.329 147.507 236.572  1.00  0.00     0.000 C 
BRANCH   7   8
ATOM      8  C   UNL     1     -94.675 148.763 237.173  1.00  0.00     0.000 C 
BRANCH   8   9
ATOM      9  C   UNL     1     -94.776 150.027 236.295  1.00  0.00     0.000 C 
BRANCH   9  10
ATOM     10  C   UNL     1     -95.349 151.253 237.038  1.00  0.00     0.006 C 
BRANCH  10  11
ATOM     11  C   UNL     1     -96.572 151.845 236.325  1.00  0.00     0.053 C 
BRANCH  11  12
ATOM     12  C   UNL     1     -97.180 152.938 237.145  1.00  0.00     0.041 C 
ATOM     13  O   UNL     1     -98.354 152.821 237.584  1.00  0.00    -0.550 OA
ATOM     14  O   UNL     1     -96.467 154.107 237.384  1.00  0.00    -0.550 OA
ENDBRANCH  11  12
ENDBRANCH  10  11
ENDBRANCH   9  10
ENDBRANCH   8   9
ENDBRANCH   7   8
ENDBRANCH   6   7
ENDBRANCH   5   6
ENDBRANCH   4   5
ENDBRANCH   3   4
ENDBRANCH   2   3
ENDBRANCH   1   2
BRANCH   1  15
ATOM     15  C   UNL     1     -95.121 148.158 242.019  1.00  0.00     0.000 C 
BRANCH  15  16
ATOM     16  C   UNL     1     -95.765 148.259 240.626  1.00  0.00     0.000 C 
BRANCH  16  17
ATOM     17  C   UNL     1     -96.723 147.093 240.323  1.00  0.00     0.000 C 
BRANCH  17  18
ATOM     18  C   UNL     1     -97.937 147.451 239.439  1.00  0.00    -0.000 C 
BRANCH  18  19
ATOM     19  C   UNL     1     -97.896 148.855 238.807  1.00  0.00    -0.000 C 
BRANCH  19  20
ATOM     20  C   UNL     1     -98.601 149.955 239.624  1.00  0.00    -0.000 C 
BRANCH  20  21
ATOM     21  C   UNL     1     -99.666 149.414 240.602  1.00  0.00    -0.000 C 
BRANCH  21  22
ATOM     22  C   UNL     1     -99.616 150.112 241.972  1.00  0.00    -0.000 C 
BRANCH  22  23
ATOM     23  C   UNL     1     -98.656 149.422 242.955  1.00  0.00    -0.000 C 
BRANCH  23  24
ATOM     24  C   UNL     1     -98.936 147.916 243.094  1.00  0.00    -0.000 C 
BRANCH  24  25
ATOM     25  C   UNL     1     -97.990 147.234 244.096  1.00  0.00    -0.003 C 
ATOM     26  C   UNL     1     -97.390 148.215 245.104  1.00  0.00     0.004 C 
ENDBRANCH  24  25
ENDBRANCH  23  24
ENDBRANCH  22  23
ENDBRANCH  21  22
ENDBRANCH  20  21
ENDBRANCH  19  20
ENDBRANCH  18  19
ENDBRANCH  17  18
ENDBRANCH  16  17
ENDBRANCH  15  16
ENDBRANCH   1  15
TORSDOF 22
ENDMDL
