MODEL 1
REMARK VINA RESULT:    -2.815      0.000      0.000
REMARK INTER + INTRA:          -4.640
REMARK INTER:                  -3.967
REMARK INTRA:                  -0.673
REMARK UNBOUND:                -0.673
REMARK SMILES CCCCCCCCC=O
REMARK SMILES IDX 5 1 4 2 3 3 2 4 1 5 6 6 7 7 8 8 9 9 10 10
REMARK H PARENT
REMARK Flexibility Score: inf
ROOT
ATOM      1  C   UNL     1     166.369 166.774 169.388  1.00  0.00     0.000 C 
ENDROOT
BRANCH   1   2
ATOM      2  C   UNL     1     166.375 168.146 168.703  1.00  0.00    -0.000 C 
BRANCH   2   3
ATOM      3  C   UNL     1     167.542 169.006 169.202  1.00  0.00    -0.000 C 
BRANCH   3   4
ATOM      4  C   UNL     1     168.743 168.907 168.255  1.00  0.00    -0.003 C 
ATOM      5  C   UNL     1     169.928 168.229 168.936  1.00  0.00     0.004 C 
ENDBRANCH   3   4
ENDBRANCH   2   3
ENDBRANCH   1   2
BRANCH   1   6
ATOM      6  C   UNL     1     166.365 165.641 168.351  1.00  0.00     0.000 C 
BRANCH   6   7
ATOM      7  C   UNL     1     167.784 165.207 167.939  1.00  0.00     0.008 C 
BRANCH   7   8
ATOM      8  C   UNL     1     168.640 164.672 169.097  1.00  0.00     0.072 C 
BRANCH   8   9
ATOM      9  C   UNL     1     168.906 163.199 168.976  1.00  0.00     0.224 C 
ATOM     10  O   UNL     1     168.364 162.542 168.102  1.00  0.00    -0.303 OA
ENDBRANCH   8   9
ENDBRANCH   7   8
ENDBRANCH   6   7
ENDBRANCH   1   6
TORSDOF 7
ENDMDL
MODEL 2
REMARK VINA RESULT:    -2.804      2.454      3.685
REMARK INTER + INTRA:          -4.625
REMARK INTER:                  -4.021
REMARK INTRA:                  -0.604
REMARK UNBOUND:                -0.673
REMARK SMILES CCCCCCCCC=O
REMARK SMILES IDX 5 1 4 2 3 3 2 4 1 5 6 6 7 7 8 8 9 9 10 10
REMARK H PARENT
REMARK Flexibility Score: inf
ROOT
ATOM      1  C   UNL     1     168.852 166.102 169.000  1.00  0.00     0.000 C 
ENDROOT
BRANCH   1   2
ATOM      2  C   UNL     1     169.994 166.449 168.037  1.00  0.00    -0.000 C 
BRANCH   2   3
ATOM      3  C   UNL     1     170.277 167.957 168.037  1.00  0.00    -0.000 C 
BRANCH   3   4
ATOM      4  C   UNL     1     169.387 168.683 169.051  1.00  0.00    -0.003 C 
ATOM      5  C   UNL     1     168.669 169.866 168.407  1.00  0.00     0.004 C 
ENDBRANCH   3   4
ENDBRANCH   2   3
ENDBRANCH   1   2
BRANCH   1   6
ATOM      6  C   UNL     1     167.961 164.994 168.419  1.00  0.00     0.000 C 
BRANCH   6   7
ATOM      7  C   UNL     1     166.491 165.427 168.275  1.00  0.00     0.008 C 
BRANCH   7   8
ATOM      8  C   UNL     1     166.176 166.802 168.885  1.00  0.00     0.072 C 
BRANCH   8   9
ATOM      9  C   UNL     1     165.501 167.720 167.907  1.00  0.00     0.224 C 
ATOM     10  O   UNL     1     164.482 168.315 168.219  1.00  0.00    -0.303 OA
ENDBRANCH   8   9
ENDBRANCH   7   8
ENDBRANCH   6   7
ENDBRANCH   1   6
TORSDOF 7
ENDMDL
MODEL 3
REMARK VINA RESULT:    -2.789      1.515      3.064
REMARK INTER + INTRA:          -4.603
REMARK INTER:                  -3.732
REMARK INTRA:                  -0.871
REMARK UNBOUND:                -0.673
REMARK SMILES CCCCCCCCC=O
REMARK SMILES IDX 5 1 4 2 3 3 2 4 1 5 6 6 7 7 8 8 9 9 10 10
REMARK H PARENT
REMARK Flexibility Score: inf
ROOT
ATOM      1  C   UNL     1     167.792 169.088 169.466  1.00  0.00     0.000 C 
ENDROOT
BRANCH   1   2
ATOM      2  C   UNL     1     166.281 168.830 169.530  1.00  0.00    -0.000 C 
BRANCH   2   3
ATOM      3  C   UNL     1     165.729 168.450 168.150  1.00  0.00    -0.000 C 
BRANCH   3   4
ATOM      4  C   UNL     1     164.686 167.333 168.264  1.00  0.00    -0.003 C 
ATOM      5  C   UNL     1     164.667 166.737 169.669  1.00  0.00     0.004 C 
ENDBRANCH   3   4
ENDBRANCH   2   3
ENDBRANCH   1   2
BRANCH   1   6
ATOM      6  C   UNL     1     168.531 167.877 168.878  1.00  0.00     0.000 C 
BRANCH   6   7
ATOM      7  C   UNL     1     168.854 166.805 169.935  1.00  0.00     0.008 C 
BRANCH   7   8
ATOM      8  C   UNL     1     168.338 165.400 169.585  1.00  0.00     0.072 C 
BRANCH   8   9
ATOM      9  C   UNL     1     167.871 165.302 168.162  1.00  0.00     0.224 C 
ATOM     10  O   UNL     1     166.893 164.630 167.876  1.00  0.00    -0.303 OA
ENDBRANCH   8   9
ENDBRANCH   7   8
ENDBRANCH   6   7
ENDBRANCH   1   6
TORSDOF 7
ENDMDL
MODEL 4
REMARK VINA RESULT:    -2.784      2.768      4.110
REMARK INTER + INTRA:          -4.595
REMARK INTER:                  -4.055
REMARK INTRA:                  -0.540
REMARK UNBOUND:                -0.673
REMARK SMILES CCCCCCCCC=O
REMARK SMILES IDX 5 1 4 2 3 3 2 4 1 5 6 6 7 7 8 8 9 9 10 10
REMARK H PARENT
REMARK Flexibility Score: inf
ROOT
ATOM      1  C   UNL     1     168.055 170.378 168.627  1.00  0.00     0.000 C 
ENDROOT
BRANCH   1   2
ATOM      2  C   UNL     1     168.965 169.393 167.884  1.00  0.00    -0.000 C 
BRANCH   2   3
ATOM      3  C   UNL     1     170.028 168.809 168.822  1.00  0.00    -0.000 C 
BRANCH   3   4
ATOM      4  C   UNL     1     170.601 167.504 168.259  1.00  0.00    -0.003 C 
ATOM      5  C   UNL     1     169.557 166.390 168.278  1.00  0.00     0.004 C 
ENDBRANCH   3   4
ENDBRANCH   2   3
ENDBRANCH   1   2
BRANCH   1   6
ATOM      6  C   UNL     1     166.579 169.977 168.486  1.00  0.00     0.000 C 
BRANCH   6   7
ATOM      7  C   UNL     1     166.400 168.508 168.060  1.00  0.00     0.008 C 
BRANCH   7   8
ATOM      8  C   UNL     1     165.788 167.608 169.146  1.00  0.00     0.072 C 
BRANCH   8   9
ATOM      9  C   UNL     1     164.558 166.894 168.668  1.00  0.00     0.224 C 
ATOM     10  O   UNL     1     163.664 167.508 168.108  1.00  0.00    -0.303 OA
ENDBRANCH   8   9
ENDBRANCH   7   8
ENDBRANCH   6   7
ENDBRANCH   1   6
TORSDOF 7
ENDMDL
MODEL 5
REMARK VINA RESULT:    -2.765      1.804      3.811
REMARK INTER + INTRA:          -4.569
REMARK INTER:                  -3.854
REMARK INTRA:                  -0.715
REMARK UNBOUND:                -0.673
REMARK SMILES CCCCCCCCC=O
REMARK SMILES IDX 5 1 4 2 3 3 2 4 1 5 6 6 7 7 8 8 9 9 10 10
REMARK H PARENT
REMARK Flexibility Score: inf
ROOT
ATOM      1  C   UNL     1     166.186 167.571 169.364  1.00  0.00     0.000 C 
ENDROOT
BRANCH   1   2
ATOM      2  C   UNL     1     165.964 166.755 168.085  1.00  0.00    -0.000 C 
BRANCH   2   3
ATOM      3  C   UNL     1     166.428 165.305 168.268  1.00  0.00    -0.000 C 
BRANCH   3   4
ATOM      4  C   UNL     1     167.934 165.173 168.017  1.00  0.00    -0.003 C 
ATOM      5  C   UNL     1     168.657 164.664 169.261  1.00  0.00     0.004 C 
ENDBRANCH   3   4
ENDBRANCH   2   3
ENDBRANCH   1   2
BRANCH   1   6
ATOM      6  C   UNL     1     167.105 168.773 169.097  1.00  0.00     0.000 C 
BRANCH   6   7
ATOM      7  C   UNL     1     168.570 168.500 169.484  1.00  0.00     0.008 C 
BRANCH   7   8
ATOM      8  C   UNL     1     169.580 168.772 168.358  1.00  0.00     0.072 C 
BRANCH   8   9
ATOM      9  C   UNL     1     170.872 168.036 168.561  1.00  0.00     0.224 C 
ATOM     10  O   UNL     1     171.061 166.957 168.023  1.00  0.00    -0.303 OA
ENDBRANCH   8   9
ENDBRANCH   7   8
ENDBRANCH   6   7
ENDBRANCH   1   6
TORSDOF 7
ENDMDL
MODEL 6
REMARK VINA RESULT:    -2.756      2.408      3.611
REMARK INTER + INTRA:          -4.557
REMARK INTER:                  -3.871
REMARK INTRA:                  -0.685
REMARK UNBOUND:                -0.673
REMARK SMILES CCCCCCCCC=O
REMARK SMILES IDX 5 1 4 2 3 3 2 4 1 5 6 6 7 7 8 8 9 9 10 10
REMARK H PARENT
REMARK Flexibility Score: inf
ROOT
ATOM      1  C   UNL     1     167.263 164.994 168.237  1.00  0.00     0.000 C 
ENDROOT
BRANCH   1   2
ATOM      2  C   UNL     1     166.221 166.060 167.875  1.00  0.00    -0.000 C 
BRANCH   2   3
ATOM      3  C   UNL     1     165.538 166.612 169.132  1.00  0.00    -0.000 C 
BRANCH   3   4
ATOM      4  C   UNL     1     166.000 168.044 169.424  1.00  0.00    -0.003 C 
ATOM      5  C   UNL     1     166.201 168.833 168.133  1.00  0.00     0.004 C 
ENDBRANCH   3   4
ENDBRANCH   2   3
ENDBRANCH   1   2
BRANCH   1   6
ATOM      6  C   UNL     1     168.679 165.466 167.876  1.00  0.00     0.000 C 
BRANCH   6   7
ATOM      7  C   UNL     1     169.471 165.964 169.099  1.00  0.00     0.008 C 
BRANCH   7   8
ATOM      8  C   UNL     1     169.662 167.488 169.147  1.00  0.00     0.072 C 
BRANCH   8   9
ATOM      9  C   UNL     1     170.518 167.991 168.021  1.00  0.00     0.224 C 
ATOM     10  O   UNL     1     171.732 167.885 168.071  1.00  0.00    -0.303 OA
ENDBRANCH   8   9
ENDBRANCH   7   8
ENDBRANCH   6   7
ENDBRANCH   1   6
TORSDOF 7
ENDMDL
MODEL 7
REMARK VINA RESULT:    -2.749      3.440      4.883
REMARK INTER + INTRA:          -4.547
REMARK INTER:                  -4.063
REMARK INTRA:                  -0.484
REMARK UNBOUND:                -0.673
REMARK SMILES CCCCCCCCC=O
REMARK SMILES IDX 5 1 4 2 3 3 2 4 1 5 6 6 7 7 8 8 9 9 10 10
REMARK H PARENT
REMARK Flexibility Score: inf
ROOT
ATOM      1  C   UNL     1     168.133 167.216 167.896  1.00  0.00     0.000 C 
ENDROOT
BRANCH   1   2
ATOM      2  C   UNL     1     169.379 166.460 168.374  1.00  0.00    -0.000 C 
BRANCH   2   3
ATOM      3  C   UNL     1     170.624 167.354 168.309  1.00  0.00    -0.000 C 
BRANCH   3   4
ATOM      4  C   UNL     1     170.378 168.692 169.013  1.00  0.00    -0.003 C 
ATOM      5  C   UNL     1     171.633 169.173 169.737  1.00  0.00     0.004 C 
ENDBRANCH   3   4
ENDBRANCH   2   3
ENDBRANCH   1   2
BRANCH   1   6
ATOM      6  C   UNL     1     167.023 167.172 168.957  1.00  0.00     0.000 C 
BRANCH   6   7
ATOM      7  C   UNL     1     166.503 168.572 169.333  1.00  0.00     0.008 C 
BRANCH   7   8
ATOM      8  C   UNL     1     166.735 169.641 168.253  1.00  0.00     0.072 C 
BRANCH   8   9
ATOM      9  C   UNL     1     167.072 170.981 168.839  1.00  0.00     0.224 C 
ATOM     10  O   UNL     1     167.325 171.928 168.113  1.00  0.00    -0.303 OA
ENDBRANCH   8   9
ENDBRANCH   7   8
ENDBRANCH   6   7
ENDBRANCH   1   6
TORSDOF 7
ENDMDL
MODEL 8
REMARK VINA RESULT:    -2.736      2.920      4.789
REMARK INTER + INTRA:          -4.528
REMARK INTER:                  -3.972
REMARK INTRA:                  -0.556
REMARK UNBOUND:                -0.673
REMARK SMILES CCCCCCCCC=O
REMARK SMILES IDX 5 1 4 2 3 3 2 4 1 5 6 6 7 7 8 8 9 9 10 10
REMARK H PARENT
REMARK Flexibility Score: inf
ROOT
ATOM      1  C   UNL     1     168.654 166.207 169.276  1.00  0.00     0.000 C 
ENDROOT
BRANCH   1   2
ATOM      2  C   UNL     1     167.652 165.132 168.838  1.00  0.00    -0.000 C 
BRANCH   2   3
ATOM      3  C   UNL     1     166.582 165.722 167.910  1.00  0.00    -0.000 C 
BRANCH   3   4
ATOM      4  C   UNL     1     165.931 166.959 168.538  1.00  0.00    -0.003 C 
ATOM      5  C   UNL     1     164.716 166.575 169.380  1.00  0.00     0.004 C 
ENDBRANCH   3   4
ENDBRANCH   2   3
ENDBRANCH   1   2
BRANCH   1   6
ATOM      6  C   UNL     1     169.726 166.431 168.199  1.00  0.00     0.000 C 
BRANCH   6   7
ATOM      7  C   UNL     1     169.956 167.921 167.889  1.00  0.00     0.008 C 
BRANCH   7   8
ATOM      8  C   UNL     1     169.256 168.882 168.863  1.00  0.00     0.072 C 
BRANCH   8   9
ATOM      9  C   UNL     1     168.269 169.777 168.170  1.00  0.00     0.224 C 
ATOM     10  O   UNL     1     168.428 170.987 168.165  1.00  0.00    -0.303 OA
ENDBRANCH   8   9
ENDBRANCH   7   8
ENDBRANCH   6   7
ENDBRANCH   1   6
TORSDOF 7
ENDMDL
MODEL 9
REMARK VINA RESULT:    -2.644      2.472      4.657
REMARK INTER + INTRA:          -4.398
REMARK INTER:                  -3.883
REMARK INTRA:                  -0.515
REMARK UNBOUND:                -0.673
REMARK SMILES CCCCCCCCC=O
REMARK SMILES IDX 5 1 4 2 3 3 2 4 1 5 6 6 7 7 8 8 9 9 10 10
REMARK H PARENT
REMARK Flexibility Score: inf
ROOT
ATOM      1  C   UNL     1     169.600 168.491 169.019  1.00  0.00     0.000 C 
ENDROOT
BRANCH   1   2
ATOM      2  C   UNL     1     170.288 167.393 168.197  1.00  0.00    -0.000 C 
BRANCH   2   3
ATOM      3  C   UNL     1     169.325 166.234 167.911  1.00  0.00    -0.000 C 
BRANCH   3   4
ATOM      4  C   UNL     1     168.615 165.780 169.191  1.00  0.00    -0.003 C 
ATOM      5  C   UNL     1     168.696 164.265 169.359  1.00  0.00     0.004 C 
ENDBRANCH   3   4
ENDBRANCH   2   3
ENDBRANCH   1   2
BRANCH   1   6
ATOM      6  C   UNL     1     168.875 169.489 168.104  1.00  0.00     0.000 C 
BRANCH   6   7
ATOM      7  C   UNL     1     167.386 169.651 168.461  1.00  0.00     0.008 C 
BRANCH   7   8
ATOM      8  C   UNL     1     166.476 168.558 167.875  1.00  0.00     0.072 C 
BRANCH   8   9
ATOM      9  C   UNL     1     165.277 168.292 168.738  1.00  0.00     0.224 C 
ATOM     10  O   UNL     1     164.257 167.829 168.254  1.00  0.00    -0.303 OA
ENDBRANCH   8   9
ENDBRANCH   7   8
ENDBRANCH   6   7
ENDBRANCH   1   6
TORSDOF 7
ENDMDL
