MODEL 1
REMARK VINA RESULT:    -4.670      0.000      0.000
REMARK INTER + INTRA:          -5.328
REMARK INTER:                  -5.079
REMARK INTRA:                  -0.249
REMARK UNBOUND:                -0.249
REMARK SMILES O=C([O-])c1ccccc1O
REMARK SMILES IDX 4 1 9 2 5 3 8 4 6 5 7 6 2 7 1 8 3 9 10 10
REMARK H PARENT 10 11
REMARK Flexibility Score: inf
ROOT
ATOM      1  C   UNL     1     -13.601 -41.304  -9.671  1.00  0.00     0.039 A 
ATOM      2  C   UNL     1     -14.401 -40.135  -9.739  1.00  0.00     0.124 A 
ATOM      3  C   UNL     1     -14.186 -42.547  -9.974  1.00  0.00     0.014 A 
ATOM      4  C   UNL     1     -15.732 -40.230 -10.166  1.00  0.00     0.047 A 
ATOM      5  C   UNL     1     -15.521 -42.627 -10.378  1.00  0.00     0.001 A 
ATOM      6  C   UNL     1     -16.290 -41.469 -10.483  1.00  0.00     0.004 A 
ENDROOT
BRANCH   1   7
ATOM      7  C   UNL     1     -12.163 -41.261  -9.327  1.00  0.00     0.075 C 
ATOM      8  O   UNL     1     -11.411 -40.403  -9.860  1.00  0.00    -0.545 OA
ATOM      9  O   UNL     1     -11.635 -42.115  -8.365  1.00  0.00    -0.545 OA
ENDBRANCH   1   7
BRANCH   2  10
ATOM     10  O   UNL     1     -13.929 -38.876  -9.361  1.00  0.00    -0.507 OA
ATOM     11  H   UNL     1     -13.031 -38.729  -8.920  1.00  0.00     0.293 HD
ENDBRANCH   2  10
TORSDOF 2
ENDMDL
MODEL 2
REMARK VINA RESULT:    -4.540      8.640      9.832
REMARK INTER + INTRA:          -5.187
REMARK INTER:                  -4.934
REMARK INTRA:                  -0.253
REMARK UNBOUND:                -0.249
REMARK SMILES O=C([O-])c1ccccc1O
REMARK SMILES IDX 4 1 9 2 5 3 8 4 6 5 7 6 2 7 1 8 3 9 10 10
REMARK H PARENT 10 11
REMARK Flexibility Score: inf
ROOT
ATOM      1  C   UNL     1     -13.467 -48.145  -2.933  1.00  0.00     0.039 A 
ATOM      2  C   UNL     1     -12.629 -47.650  -3.965  1.00  0.00     0.124 A 
ATOM      3  C   UNL     1     -14.526 -49.007  -3.273  1.00  0.00     0.014 A 
ATOM      4  C   UNL     1     -12.830 -48.074  -5.284  1.00  0.00     0.047 A 
ATOM      5  C   UNL     1     -14.726 -49.404  -4.597  1.00  0.00     0.001 A 
ATOM      6  C   UNL     1     -13.873 -48.946  -5.600  1.00  0.00     0.004 A 
ENDROOT
BRANCH   1   7
ATOM      7  C   UNL     1     -13.247 -47.819  -1.508  1.00  0.00     0.075 C 
ATOM      8  O   UNL     1     -13.279 -48.731  -0.638  1.00  0.00    -0.545 OA
ATOM      9  O   UNL     1     -12.933 -46.523  -1.113  1.00  0.00    -0.545 OA
ENDBRANCH   1   7
BRANCH   2  10
ATOM     10  O   UNL     1     -11.618 -46.716  -3.729  1.00  0.00    -0.507 OA
ATOM     11  H   UNL     1     -11.573 -45.817  -4.189  1.00  0.00     0.293 HD
ENDBRANCH   2  10
TORSDOF 2
ENDMDL
MODEL 3
REMARK VINA RESULT:    -4.510      2.104      2.407
REMARK INTER + INTRA:          -5.154
REMARK INTER:                  -4.904
REMARK INTRA:                  -0.250
REMARK UNBOUND:                -0.249
REMARK SMILES O=C([O-])c1ccccc1O
REMARK SMILES IDX 4 1 9 2 5 3 8 4 6 5 7 6 2 7 1 8 3 9 10 10
REMARK H PARENT 10 11
REMARK Flexibility Score: inf
ROOT
ATOM      1  C   UNL     1     -14.910 -41.631  -8.303  1.00  0.00     0.039 A 
ATOM      2  C   UNL     1     -15.221 -40.326  -8.768  1.00  0.00     0.124 A 
ATOM      3  C   UNL     1     -15.161 -42.730  -9.146  1.00  0.00     0.014 A 
ATOM      4  C   UNL     1     -15.708 -40.152 -10.070  1.00  0.00     0.047 A 
ATOM      5  C   UNL     1     -15.667 -42.540 -10.434  1.00  0.00     0.001 A 
ATOM      6  C   UNL     1     -15.930 -41.253 -10.899  1.00  0.00     0.004 A 
ENDROOT
BRANCH   1   7
ATOM      7  C   UNL     1     -14.298 -41.876  -6.980  1.00  0.00     0.075 C 
ATOM      8  O   UNL     1     -14.503 -42.965  -6.381  1.00  0.00    -0.545 OA
ATOM      9  O   UNL     1     -13.436 -40.946  -6.411  1.00  0.00    -0.545 OA
ENDBRANCH   1   7
BRANCH   2  10
ATOM     10  O   UNL     1     -15.096 -39.192  -7.964  1.00  0.00    -0.507 OA
ATOM     11  H   UNL     1     -14.462 -38.432  -8.169  1.00  0.00     0.293 HD
ENDBRANCH   2  10
TORSDOF 2
ENDMDL
MODEL 4
REMARK VINA RESULT:    -4.499     10.212     11.375
REMARK INTER + INTRA:          -5.142
REMARK INTER:                  -4.893
REMARK INTRA:                  -0.249
REMARK UNBOUND:                -0.249
REMARK SMILES O=C([O-])c1ccccc1O
REMARK SMILES IDX 4 1 9 2 5 3 8 4 6 5 7 6 2 7 1 8 3 9 10 10
REMARK H PARENT 10 11
REMARK Flexibility Score: inf
ROOT
ATOM      1  C   UNL     1     -14.842 -47.703  -1.167  1.00  0.00     0.039 A 
ATOM      2  C   UNL     1     -13.650 -48.459  -1.029  1.00  0.00     0.124 A 
ATOM      3  C   UNL     1     -15.470 -47.648  -2.425  1.00  0.00     0.014 A 
ATOM      4  C   UNL     1     -13.158 -49.183  -2.122  1.00  0.00     0.047 A 
ATOM      5  C   UNL     1     -14.954 -48.359  -3.511  1.00  0.00     0.001 A 
ATOM      6  C   UNL     1     -13.806 -49.134  -3.357  1.00  0.00     0.004 A 
ENDROOT
BRANCH   1   7
ATOM      7  C   UNL     1     -15.471 -46.999  -0.029  1.00  0.00     0.075 C 
ATOM      8  O   UNL     1     -15.577 -47.572   1.088  1.00  0.00    -0.545 OA
ATOM      9  O   UNL     1     -15.890 -45.679  -0.151  1.00  0.00    -0.545 OA
ENDBRANCH   1   7
BRANCH   2  10
ATOM     10  O   UNL     1     -12.911 -48.489   0.156  1.00  0.00    -0.507 OA
ATOM     11  H   UNL     1     -13.294 -48.237   1.057  1.00  0.00     0.293 HD
ENDBRANCH   2  10
TORSDOF 2
ENDMDL
MODEL 5
REMARK VINA RESULT:    -4.447      9.013      9.931
REMARK INTER + INTRA:          -5.085
REMARK INTER:                  -4.868
REMARK INTRA:                  -0.217
REMARK UNBOUND:                -0.249
REMARK SMILES O=C([O-])c1ccccc1O
REMARK SMILES IDX 4 1 9 2 5 3 8 4 6 5 7 6 2 7 1 8 3 9 10 10
REMARK H PARENT 10 11
REMARK Flexibility Score: inf
ROOT
ATOM      1  C   UNL     1     -13.425 -47.846  -2.943  1.00  0.00     0.039 A 
ATOM      2  C   UNL     1     -14.552 -48.664  -3.213  1.00  0.00     0.124 A 
ATOM      3  C   UNL     1     -12.470 -47.648  -3.958  1.00  0.00     0.014 A 
ATOM      4  C   UNL     1     -14.727 -49.202  -4.494  1.00  0.00     0.047 A 
ATOM      5  C   UNL     1     -12.648 -48.210  -5.224  1.00  0.00     0.001 A 
ATOM      6  C   UNL     1     -13.780 -48.978  -5.495  1.00  0.00     0.004 A 
ENDROOT
BRANCH   1   7
ATOM      7  C   UNL     1     -13.233 -47.164  -1.645  1.00  0.00     0.075 C 
ATOM      8  O   UNL     1     -12.460 -46.173  -1.560  1.00  0.00    -0.545 OA
ATOM      9  O   UNL     1     -13.950 -47.558  -0.521  1.00  0.00    -0.545 OA
ENDBRANCH   1   7
BRANCH   2  10
ATOM     10  O   UNL     1     -15.495 -48.992  -2.237  1.00  0.00    -0.507 OA
ATOM     11  H   UNL     1     -15.909 -49.910  -2.150  1.00  0.00     0.293 HD
ENDBRANCH   2  10
TORSDOF 2
ENDMDL
MODEL 6
REMARK VINA RESULT:    -4.402      7.391      8.413
REMARK INTER + INTRA:          -5.036
REMARK INTER:                  -4.823
REMARK INTRA:                  -0.213
REMARK UNBOUND:                -0.249
REMARK SMILES O=C([O-])c1ccccc1O
REMARK SMILES IDX 4 1 9 2 5 3 8 4 6 5 7 6 2 7 1 8 3 9 10 10
REMARK H PARENT 10 11
REMARK Flexibility Score: inf
ROOT
ATOM      1  C   UNL     1     -12.585 -47.120  -4.425  1.00  0.00     0.039 A 
ATOM      2  C   UNL     1     -13.108 -47.551  -5.671  1.00  0.00     0.124 A 
ATOM      3  C   UNL     1     -12.996 -47.780  -3.251  1.00  0.00     0.014 A 
ATOM      4  C   UNL     1     -13.966 -48.658  -5.717  1.00  0.00     0.047 A 
ATOM      5  C   UNL     1     -13.869 -48.869  -3.313  1.00  0.00     0.001 A 
ATOM      6  C   UNL     1     -14.345 -49.313  -4.545  1.00  0.00     0.004 A 
ENDROOT
BRANCH   1   7
ATOM      7  C   UNL     1     -11.597 -46.026  -4.315  1.00  0.00     0.075 C 
ATOM      8  O   UNL     1     -10.913 -45.895  -3.265  1.00  0.00    -0.545 OA
ATOM      9  O   UNL     1     -11.356 -45.174  -5.387  1.00  0.00    -0.545 OA
ENDBRANCH   1   7
BRANCH   2  10
ATOM     10  O   UNL     1     -12.831 -46.893  -6.871  1.00  0.00    -0.507 OA
ATOM     11  H   UNL     1     -13.187 -45.974  -7.095  1.00  0.00     0.293 HD
ENDBRANCH   2  10
TORSDOF 2
ENDMDL
MODEL 7
REMARK VINA RESULT:    -4.372      9.781     10.822
REMARK INTER + INTRA:          -5.004
REMARK INTER:                  -4.779
REMARK INTRA:                  -0.225
REMARK UNBOUND:                -0.249
REMARK SMILES O=C([O-])c1ccccc1O
REMARK SMILES IDX 4 1 9 2 5 3 8 4 6 5 7 6 2 7 1 8 3 9 10 10
REMARK H PARENT 10 11
REMARK Flexibility Score: inf
ROOT
ATOM      1  C   UNL     1     -15.223 -47.293  -1.978  1.00  0.00     0.039 A 
ATOM      2  C   UNL     1     -14.608 -47.542  -0.723  1.00  0.00     0.124 A 
ATOM      3  C   UNL     1     -14.900 -48.121  -3.069  1.00  0.00     0.014 A 
ATOM      4  C   UNL     1     -13.747 -48.638  -0.579  1.00  0.00     0.047 A 
ATOM      5  C   UNL     1     -14.023 -49.197  -2.913  1.00  0.00     0.001 A 
ATOM      6  C   UNL     1     -13.455 -49.460  -1.668  1.00  0.00     0.004 A 
ENDROOT
BRANCH   1   7
ATOM      7  C   UNL     1     -16.219 -46.218  -2.173  1.00  0.00     0.075 C 
ATOM      8  O   UNL     1     -16.565 -45.881  -3.336  1.00  0.00    -0.545 OA
ATOM      9  O   UNL     1     -16.837 -45.614  -1.084  1.00  0.00    -0.545 OA
ENDBRANCH   1   7
BRANCH   2  10
ATOM     10  O   UNL     1     -14.796 -46.713   0.384  1.00  0.00    -0.507 OA
ATOM     11  H   UNL     1     -14.279 -46.812   1.247  1.00  0.00     0.293 HD
ENDBRANCH   2  10
TORSDOF 2
ENDMDL
MODEL 8
REMARK VINA RESULT:    -4.341      2.619      3.597
REMARK INTER + INTRA:          -4.970
REMARK INTER:                  -4.724
REMARK INTRA:                  -0.247
REMARK UNBOUND:                -0.249
REMARK SMILES O=C([O-])c1ccccc1O
REMARK SMILES IDX 4 1 9 2 5 3 8 4 6 5 7 6 2 7 1 8 3 9 10 10
REMARK H PARENT 10 11
REMARK Flexibility Score: inf
ROOT
ATOM      1  C   UNL     1     -14.899 -41.027  -8.613  1.00  0.00     0.039 A 
ATOM      2  C   UNL     1     -14.107 -39.864  -8.427  1.00  0.00     0.124 A 
ATOM      3  C   UNL     1     -14.928 -41.998  -7.595  1.00  0.00     0.014 A 
ATOM      4  C   UNL     1     -13.426 -39.675  -7.218  1.00  0.00     0.047 A 
ATOM      5  C   UNL     1     -14.226 -41.804  -6.403  1.00  0.00     0.001 A 
ATOM      6  C   UNL     1     -13.484 -40.640  -6.211  1.00  0.00     0.004 A 
ENDROOT
BRANCH   1   7
ATOM      7  C   UNL     1     -15.723 -41.240  -9.821  1.00  0.00     0.075 C 
ATOM      8  O   UNL     1     -16.264 -40.260 -10.399  1.00  0.00    -0.545 OA
ATOM      9  O   UNL     1     -15.857 -42.507 -10.378  1.00  0.00    -0.545 OA
ENDBRANCH   1   7
BRANCH   2  10
ATOM     10  O   UNL     1     -13.943 -38.899  -9.423  1.00  0.00    -0.507 OA
ATOM     11  H   UNL     1     -13.782 -39.125 -10.395  1.00  0.00     0.293 HD
ENDBRANCH   2  10
TORSDOF 2
ENDMDL
MODEL 9
REMARK VINA RESULT:    -4.284      8.454      9.680
REMARK INTER + INTRA:          -4.908
REMARK INTER:                  -4.673
REMARK INTRA:                  -0.235
REMARK UNBOUND:                -0.249
REMARK SMILES O=C([O-])c1ccccc1O
REMARK SMILES IDX 4 1 9 2 5 3 8 4 6 5 7 6 2 7 1 8 3 9 10 10
REMARK H PARENT 10 11
REMARK Flexibility Score: inf
ROOT
ATOM      1  C   UNL     1     -15.158 -47.194  -3.405  1.00  0.00     0.039 A 
ATOM      2  C   UNL     1     -14.875 -48.545  -3.076  1.00  0.00     0.124 A 
ATOM      3  C   UNL     1     -14.749 -46.700  -4.658  1.00  0.00     0.014 A 
ATOM      4  C   UNL     1     -14.256 -49.373  -4.021  1.00  0.00     0.047 A 
ATOM      5  C   UNL     1     -14.114 -47.534  -5.580  1.00  0.00     0.001 A 
ATOM      6  C   UNL     1     -13.876 -48.871  -5.266  1.00  0.00     0.004 A 
ENDROOT
BRANCH   1   7
ATOM      7  C   UNL     1     -15.900 -46.295  -2.495  1.00  0.00     0.075 C 
ATOM      8  O   UNL     1     -16.983 -45.772  -2.868  1.00  0.00    -0.545 OA
ATOM      9  O   UNL     1     -15.455 -46.070  -1.197  1.00  0.00    -0.545 OA
ENDBRANCH   1   7
BRANCH   2  10
ATOM     10  O   UNL     1     -15.158 -49.088  -1.821  1.00  0.00    -0.507 OA
ATOM     11  H   UNL     1     -15.858 -49.801  -1.669  1.00  0.00     0.293 HD
ENDBRANCH   2  10
TORSDOF 2
ENDMDL
