MODEL 1
REMARK VINA RESULT:    -2.540      0.000      0.000
REMARK INTER + INTRA:          -3.813
REMARK INTER:                  -3.505
REMARK INTRA:                  -0.308
REMARK UNBOUND:                -0.308
REMARK SMILES CCCCCCCCO
REMARK SMILES IDX 5 1 4 2 3 3 2 4 1 5 6 6 7 7 8 8 9 9
REMARK H PARENT 9 10
REMARK Flexibility Score: inf
ROOT
ATOM      1  C   UNL     1     232.187 241.421 234.160  1.00  0.00     0.000 C 
ENDROOT
BRANCH   1   2
ATOM      2  C   UNL     1     232.383 239.931 234.475  1.00  0.00    -0.000 C 
BRANCH   2   3
ATOM      3  C   UNL     1     231.445 239.024 233.661  1.00  0.00    -0.000 C 
BRANCH   3   4
ATOM      4  C   UNL     1     232.205 237.965 232.848  1.00  0.00    -0.003 C 
ATOM      5  C   UNL     1     233.184 238.618 231.875  1.00  0.00     0.004 C 
ENDBRANCH   3   4
ENDBRANCH   2   3
ENDBRANCH   1   2
BRANCH   1   6
ATOM      6  C   UNL     1     230.904 241.956 234.809  1.00  0.00     0.002 C 
BRANCH   6   7
ATOM      7  C   UNL     1     229.994 242.618 233.769  1.00  0.00     0.028 C 
BRANCH   7   8
ATOM      8  C   UNL     1     228.531 242.234 233.991  1.00  0.00     0.156 C 
BRANCH   8   9
ATOM      9  O   UNL     1     228.463 240.925 234.484  1.00  0.00    -0.396 OA
ATOM     10  H   UNL     1     227.501 240.682 234.484  1.00  0.00     0.210 HD
ENDBRANCH   8   9
ENDBRANCH   7   8
ENDBRANCH   6   7
ENDBRANCH   1   6
TORSDOF 7
ENDMDL
MODEL 2
REMARK VINA RESULT:    -2.531     12.273     14.290
REMARK INTER + INTRA:          -3.800
REMARK INTER:                  -3.333
REMARK INTRA:                  -0.468
REMARK UNBOUND:                -0.308
REMARK SMILES CCCCCCCCO
REMARK SMILES IDX 5 1 4 2 3 3 2 4 1 5 6 6 7 7 8 8 9 9
REMARK H PARENT 9 10
REMARK Flexibility Score: inf
ROOT
ATOM      1  C   UNL     1     235.919 228.117 235.276  1.00  0.00     0.000 C 
ENDROOT
BRANCH   1   2
ATOM      2  C   UNL     1     236.645 229.445 235.018  1.00  0.00    -0.000 C 
BRANCH   2   3
ATOM      3  C   UNL     1     235.797 230.435 234.203  1.00  0.00    -0.000 C 
BRANCH   3   4
ATOM      4  C   UNL     1     236.208 230.487 232.724  1.00  0.00    -0.003 C 
ATOM      5  C   UNL     1     235.316 229.584 231.875  1.00  0.00     0.004 C 
ENDBRANCH   3   4
ENDBRANCH   2   3
ENDBRANCH   1   2
BRANCH   1   6
ATOM      6  C   UNL     1     236.550 226.979 234.465  1.00  0.00     0.002 C 
BRANCH   6   7
ATOM      7  C   UNL     1     237.952 227.361 233.976  1.00  0.00     0.028 C 
BRANCH   7   8
ATOM      8  C   UNL     1     238.925 226.192 234.121  1.00  0.00     0.156 C 
BRANCH   8   9
ATOM      9  O   UNL     1     239.798 226.173 233.026  1.00  0.00    -0.396 OA
ATOM     10  H   UNL     1     240.647 226.572 233.345  1.00  0.00     0.210 HD
ENDBRANCH   8   9
ENDBRANCH   7   8
ENDBRANCH   6   7
ENDBRANCH   1   6
TORSDOF 7
ENDMDL
MODEL 3
REMARK VINA RESULT:    -2.508     10.332     11.956
REMARK INTER + INTRA:          -3.768
REMARK INTER:                  -3.418
REMARK INTRA:                  -0.350
REMARK UNBOUND:                -0.308
REMARK SMILES CCCCCCCCO
REMARK SMILES IDX 5 1 4 2 3 3 2 4 1 5 6 6 7 7 8 8 9 9
REMARK H PARENT 9 10
REMARK Flexibility Score: inf
ROOT
ATOM      1  C   UNL     1     226.834 229.692 235.260  1.00  0.00     0.000 C 
ENDROOT
BRANCH   1   2
ATOM      2  C   UNL     1     226.291 228.488 234.477  1.00  0.00    -0.000 C 
BRANCH   2   3
ATOM      3  C   UNL     1     225.559 228.901 233.189  1.00  0.00    -0.000 C 
BRANCH   3   4
ATOM      4  C   UNL     1     225.499 227.768 232.154  1.00  0.00    -0.003 C 
ATOM      5  C   UNL     1     225.803 226.419 232.799  1.00  0.00     0.004 C 
ENDBRANCH   3   4
ENDBRANCH   2   3
ENDBRANCH   1   2
BRANCH   1   6
ATOM      6  C   UNL     1     228.286 229.994 234.868  1.00  0.00     0.002 C 
BRANCH   6   7
ATOM      7  C   UNL     1     228.373 231.256 234.002  1.00  0.00     0.028 C 
BRANCH   7   8
ATOM      8  C   UNL     1     227.154 232.154 234.211  1.00  0.00     0.156 C 
BRANCH   8   9
ATOM      9  O   UNL     1     226.683 232.598 232.969  1.00  0.00    -0.396 OA
ATOM     10  H   UNL     1     226.468 233.559 233.085  1.00  0.00     0.210 HD
ENDBRANCH   8   9
ENDBRANCH   7   8
ENDBRANCH   6   7
ENDBRANCH   1   6
TORSDOF 7
ENDMDL
MODEL 4
REMARK VINA RESULT:    -2.503      9.727     11.407
REMARK INTER + INTRA:          -3.762
REMARK INTER:                  -3.599
REMARK INTRA:                  -0.163
REMARK UNBOUND:                -0.308
REMARK SMILES CCCCCCCCO
REMARK SMILES IDX 5 1 4 2 3 3 2 4 1 5 6 6 7 7 8 8 9 9
REMARK H PARENT 9 10
REMARK Flexibility Score: inf
ROOT
ATOM      1  C   UNL     1     226.670 231.035 234.631  1.00  0.00     0.000 C 
ENDROOT
BRANCH   1   2
ATOM      2  C   UNL     1     226.532 229.610 234.077  1.00  0.00    -0.000 C 
BRANCH   2   3
ATOM      3  C   UNL     1     225.191 229.381 233.360  1.00  0.00    -0.000 C 
BRANCH   3   4
ATOM      4  C   UNL     1     225.301 228.368 232.210  1.00  0.00    -0.003 C 
ATOM      5  C   UNL     1     225.754 227.004 232.722  1.00  0.00     0.004 C 
ENDBRANCH   3   4
ENDBRANCH   2   3
ENDBRANCH   1   2
BRANCH   1   6
ATOM      6  C   UNL     1     227.522 231.907 233.699  1.00  0.00     0.002 C 
BRANCH   6   7
ATOM      7  C   UNL     1     229.010 231.564 233.831  1.00  0.00     0.028 C 
BRANCH   7   8
ATOM      8  C   UNL     1     229.871 232.508 232.993  1.00  0.00     0.156 C 
BRANCH   8   9
ATOM      9  O   UNL     1     230.843 231.768 232.309  1.00  0.00    -0.396 OA
ATOM     10  H   UNL     1     230.433 230.886 232.116  1.00  0.00     0.210 HD
ENDBRANCH   8   9
ENDBRANCH   7   8
ENDBRANCH   6   7
ENDBRANCH   1   6
TORSDOF 7
ENDMDL
MODEL 5
REMARK VINA RESULT:    -2.492      9.006     10.843
REMARK INTER + INTRA:          -3.747
REMARK INTER:                  -3.446
REMARK INTRA:                  -0.300
REMARK UNBOUND:                -0.308
REMARK SMILES CCCCCCCCO
REMARK SMILES IDX 5 1 4 2 3 3 2 4 1 5 6 6 7 7 8 8 9 9
REMARK H PARENT 9 10
REMARK Flexibility Score: inf
ROOT
ATOM      1  C   UNL     1     241.028 238.435 234.463  1.00  0.00     0.000 C 
ENDROOT
BRANCH   1   2
ATOM      2  C   UNL     1     242.209 239.402 234.289  1.00  0.00    -0.000 C 
BRANCH   2   3
ATOM      3  C   UNL     1     243.069 239.071 233.059  1.00  0.00    -0.000 C 
BRANCH   3   4
ATOM      4  C   UNL     1     243.253 240.276 232.125  1.00  0.00    -0.003 C 
ATOM      5  C   UNL     1     242.640 241.536 232.728  1.00  0.00     0.004 C 
ENDBRANCH   3   4
ENDBRANCH   2   3
ENDBRANCH   1   2
BRANCH   1   6
ATOM      6  C   UNL     1     241.317 237.088 233.790  1.00  0.00     0.002 C 
BRANCH   6   7
ATOM      7  C   UNL     1     240.021 236.308 233.537  1.00  0.00     0.028 C 
BRANCH   7   8
ATOM      8  C   UNL     1     238.794 237.192 233.755  1.00  0.00     0.156 C 
BRANCH   8   9
ATOM      9  O   UNL     1     237.910 237.036 232.681  1.00  0.00    -0.396 OA
ATOM     10  H   UNL     1     238.278 237.583 231.941  1.00  0.00     0.210 HD
ENDBRANCH   8   9
ENDBRANCH   7   8
ENDBRANCH   6   7
ENDBRANCH   1   6
TORSDOF 7
ENDMDL
MODEL 6
REMARK VINA RESULT:    -2.491     11.443     14.008
REMARK INTER + INTRA:          -3.745
REMARK INTER:                  -3.482
REMARK INTRA:                  -0.263
REMARK UNBOUND:                -0.308
REMARK SMILES CCCCCCCCO
REMARK SMILES IDX 5 1 4 2 3 3 2 4 1 5 6 6 7 7 8 8 9 9
REMARK H PARENT 9 10
REMARK Flexibility Score: inf
ROOT
ATOM      1  C   UNL     1     236.219 227.234 233.557  1.00  0.00     0.000 C 
ENDROOT
BRANCH   1   2
ATOM      2  C   UNL     1     236.063 228.761 233.620  1.00  0.00    -0.000 C 
BRANCH   2   3
ATOM      3  C   UNL     1     235.507 229.354 232.315  1.00  0.00    -0.000 C 
BRANCH   3   4
ATOM      4  C   UNL     1     235.850 230.842 232.149  1.00  0.00    -0.003 C 
ATOM      5  C   UNL     1     236.228 231.471 233.487  1.00  0.00     0.004 C 
ENDBRANCH   3   4
ENDBRANCH   2   3
ENDBRANCH   1   2
BRANCH   1   6
ATOM      6  C   UNL     1     237.579 226.798 234.115  1.00  0.00     0.002 C 
BRANCH   6   7
ATOM      7  C   UNL     1     238.072 227.771 235.192  1.00  0.00     0.028 C 
BRANCH   7   8
ATOM      8  C   UNL     1     239.599 227.808 235.246  1.00  0.00     0.156 C 
BRANCH   8   9
ATOM      9  O   UNL     1     240.051 229.062 234.819  1.00  0.00    -0.396 OA
ATOM     10  H   UNL     1     240.809 229.298 235.412  1.00  0.00     0.210 HD
ENDBRANCH   8   9
ENDBRANCH   7   8
ENDBRANCH   6   7
ENDBRANCH   1   6
TORSDOF 7
ENDMDL
MODEL 7
REMARK VINA RESULT:    -2.479      9.728     11.013
REMARK INTER + INTRA:          -3.729
REMARK INTER:                  -3.496
REMARK INTRA:                  -0.233
REMARK UNBOUND:                -0.308
REMARK SMILES CCCCCCCCO
REMARK SMILES IDX 5 1 4 2 3 3 2 4 1 5 6 6 7 7 8 8 9 9
REMARK H PARENT 9 10
REMARK Flexibility Score: inf
ROOT
ATOM      1  C   UNL     1     241.877 237.395 235.053  1.00  0.00     0.000 C 
ENDROOT
BRANCH   1   2
ATOM      2  C   UNL     1     240.934 236.212 234.790  1.00  0.00    -0.000 C 
BRANCH   2   3
ATOM      3  C   UNL     1     240.442 236.159 233.334  1.00  0.00    -0.000 C 
BRANCH   3   4
ATOM      4  C   UNL     1     238.929 235.917 233.229  1.00  0.00    -0.003 C 
ATOM      5  C   UNL     1     238.562 235.316 231.875  1.00  0.00     0.004 C 
ENDBRANCH   3   4
ENDBRANCH   2   3
ENDBRANCH   1   2
BRANCH   1   6
ATOM      6  C   UNL     1     241.715 238.476 233.977  1.00  0.00     0.002 C 
BRANCH   6   7
ATOM      7  C   UNL     1     243.067 238.834 233.347  1.00  0.00     0.028 C 
BRANCH   7   8
ATOM      8  C   UNL     1     243.058 240.259 232.795  1.00  0.00     0.156 C 
BRANCH   8   9
ATOM      9  O   UNL     1     241.959 240.953 233.314  1.00  0.00    -0.396 OA
ATOM     10  H   UNL     1     241.686 240.464 234.132  1.00  0.00     0.210 HD
ENDBRANCH   8   9
ENDBRANCH   7   8
ENDBRANCH   6   7
ENDBRANCH   1   6
TORSDOF 7
ENDMDL
MODEL 8
REMARK VINA RESULT:    -2.473      8.934     10.691
REMARK INTER + INTRA:          -3.721
REMARK INTER:                  -3.455
REMARK INTRA:                  -0.266
REMARK UNBOUND:                -0.308
REMARK SMILES CCCCCCCCO
REMARK SMILES IDX 5 1 4 2 3 3 2 4 1 5 6 6 7 7 8 8 9 9
REMARK H PARENT 9 10
REMARK Flexibility Score: inf
ROOT
ATOM      1  C   UNL     1     228.258 230.500 234.550  1.00  0.00     0.000 C 
ENDROOT
BRANCH   1   2
ATOM      2  C   UNL     1     229.460 231.167 233.867  1.00  0.00    -0.000 C 
BRANCH   2   3
ATOM      3  C   UNL     1     229.086 232.481 233.162  1.00  0.00    -0.000 C 
BRANCH   3   4
ATOM      4  C   UNL     1     230.054 232.837 232.024  1.00  0.00    -0.003 C 
ATOM      5  C   UNL     1     231.504 232.769 232.495  1.00  0.00     0.004 C 
ENDBRANCH   3   4
ENDBRANCH   2   3
ENDBRANCH   1   2
BRANCH   1   6
ATOM      6  C   UNL     1     226.938 230.986 233.938  1.00  0.00     0.002 C 
BRANCH   6   7
ATOM      7  C   UNL     1     225.897 229.861 233.908  1.00  0.00     0.028 C 
BRANCH   7   8
ATOM      8  C   UNL     1     226.503 228.535 234.367  1.00  0.00     0.156 C 
BRANCH   8   9
ATOM      9  O   UNL     1     226.487 227.623 233.304  1.00  0.00    -0.396 OA
ATOM     10  H   UNL     1     227.430 227.524 233.014  1.00  0.00     0.210 HD
ENDBRANCH   8   9
ENDBRANCH   7   8
ENDBRANCH   6   7
ENDBRANCH   1   6
TORSDOF 7
ENDMDL
MODEL 9
REMARK VINA RESULT:    -1.641      8.937     10.394
REMARK INTER + INTRA:          -2.572
REMARK INTER:                  -2.124
REMARK INTRA:                  -0.448
REMARK UNBOUND:                -0.308
REMARK SMILES CCCCCCCCO
REMARK SMILES IDX 5 1 4 2 3 3 2 4 1 5 6 6 7 7 8 8 9 9
REMARK H PARENT 9 10
REMARK Flexibility Score: inf
ROOT
ATOM      1  C   UNL     1     240.097 235.800 235.313  1.00  0.00     0.000 C 
ENDROOT
BRANCH   1   2
ATOM      2  C   UNL     1     238.998 236.765 234.844  1.00  0.00    -0.000 C 
BRANCH   2   3
ATOM      3  C   UNL     1     237.862 236.049 234.094  1.00  0.00    -0.000 C 
BRANCH   3   4
ATOM      4  C   UNL     1     237.902 236.302 232.580  1.00  0.00    -0.003 C 
ATOM      5  C   UNL     1     238.785 235.277 231.875  1.00  0.00     0.004 C 
ENDBRANCH   3   4
ENDBRANCH   2   3
ENDBRANCH   1   2
BRANCH   1   6
ATOM      6  C   UNL     1     241.477 236.266 234.835  1.00  0.00     0.002 C 
BRANCH   6   7
ATOM      7  C   UNL     1     241.352 237.363 233.771  1.00  0.00     0.028 C 
BRANCH   7   8
ATOM      8  C   UNL     1     242.437 238.425 233.942  1.00  0.00     0.156 C 
BRANCH   8   9
ATOM      9  O   UNL     1     242.003 239.631 233.378  1.00  0.00    -0.396 OA
ATOM     10  H   UNL     1     242.502 240.348 233.846  1.00  0.00     0.210 HD
ENDBRANCH   8   9
ENDBRANCH   7   8
ENDBRANCH   6   7
ENDBRANCH   1   6
TORSDOF 7
ENDMDL
