MODEL 1
REMARK VINA RESULT:    -4.934      0.000      0.000
REMARK INTER + INTRA:          -7.238
REMARK INTER:                  -6.953
REMARK INTRA:                  -0.285
REMARK UNBOUND:                -0.285
REMARK SMILES C=CCCCCCCC(=O)[O-]
REMARK SMILES IDX 6 1 7 2 8 3 9 4 10 5 11 6 5 7 4 8 3 9 2 10 1 11
REMARK H PARENT
REMARK Flexibility Score: inf
ROOT
ATOM      1  C   UNL     1      -3.550   6.880   4.790  1.00  0.00     0.000 C 
ENDROOT
BRANCH   1   2
ATOM      2  C   UNL     1      -3.587   5.347   4.926  1.00  0.00     0.006 C 
BRANCH   2   3
ATOM      3  C   UNL     1      -2.226   4.708   5.246  1.00  0.00     0.053 C 
BRANCH   3   4
ATOM      4  C   UNL     1      -2.373   3.343   5.842  1.00  0.00     0.041 C 
ATOM      5  O   UNL     1      -2.722   2.371   5.121  1.00  0.00    -0.550 OA
ATOM      6  O   UNL     1      -2.092   3.136   7.186  1.00  0.00    -0.550 OA
ENDBRANCH   3   4
ENDBRANCH   2   3
ENDBRANCH   1   2
BRANCH   1   7
ATOM      7  C   UNL     1      -4.272   7.599   5.940  1.00  0.00     0.000 C 
BRANCH   7   8
ATOM      8  C   UNL     1      -5.071   6.605   6.792  1.00  0.00     0.004 C 
BRANCH   8   9
ATOM      9  C   UNL     1      -5.705   7.303   8.001  1.00  0.00     0.027 C 
BRANCH   9  10
ATOM     10  C   UNL     1      -6.693   6.405   8.693  1.00  0.00    -0.035 C 
ATOM     11  C   UNL     1      -7.798   5.969   8.079  1.00  0.00     0.004 C 
ENDBRANCH   9  10
ENDBRANCH   8   9
ENDBRANCH   7   8
ENDBRANCH   1   7
TORSDOF 7
ENDMDL
MODEL 2
REMARK VINA RESULT:    -4.905      2.676      4.134
REMARK INTER + INTRA:          -7.197
REMARK INTER:                  -6.974
REMARK INTRA:                  -0.222
REMARK UNBOUND:                -0.285
REMARK SMILES C=CCCCCCCC(=O)[O-]
REMARK SMILES IDX 6 1 7 2 8 3 9 4 10 5 11 6 5 7 4 8 3 9 2 10 1 11
REMARK H PARENT
REMARK Flexibility Score: inf
ROOT
ATOM      1  C   UNL     1      -2.357   3.147   5.927  1.00  0.00     0.000 C 
ENDROOT
BRANCH   1   2
ATOM      2  C   UNL     1      -2.161   3.305   7.446  1.00  0.00     0.006 C 
BRANCH   2   3
ATOM      3  C   UNL     1      -0.924   2.580   8.001  1.00  0.00     0.053 C 
BRANCH   3   4
ATOM      4  C   UNL     1      -1.221   1.867   9.283  1.00  0.00     0.041 C 
ATOM      5  O   UNL     1      -2.348   1.992   9.832  1.00  0.00    -0.550 OA
ATOM      6  O   UNL     1      -0.265   1.038   9.856  1.00  0.00    -0.550 OA
ENDBRANCH   3   4
ENDBRANCH   2   3
ENDBRANCH   1   2
BRANCH   1   7
ATOM      7  C   UNL     1      -2.070   4.442   5.151  1.00  0.00     0.000 C 
BRANCH   7   8
ATOM      8  C   UNL     1      -3.287   5.375   5.170  1.00  0.00     0.004 C 
BRANCH   8   9
ATOM      9  C   UNL     1      -3.110   6.530   4.176  1.00  0.00     0.027 C 
BRANCH   9  10
ATOM     10  C   UNL     1      -3.787   7.780   4.667  1.00  0.00    -0.035 C 
ATOM     11  C   UNL     1      -4.239   7.890   5.920  1.00  0.00     0.004 C 
ENDBRANCH   9  10
ENDBRANCH   8   9
ENDBRANCH   7   8
ENDBRANCH   1   7
TORSDOF 7
ENDMDL
MODEL 3
REMARK VINA RESULT:    -4.890      2.611      4.819
REMARK INTER + INTRA:          -7.176
REMARK INTER:                  -6.932
REMARK INTRA:                  -0.243
REMARK UNBOUND:                -0.285
REMARK SMILES C=CCCCCCCC(=O)[O-]
REMARK SMILES IDX 6 1 7 2 8 3 9 4 10 5 11 6 5 7 4 8 3 9 2 10 1 11
REMARK H PARENT
REMARK Flexibility Score: inf
ROOT
ATOM      1  C   UNL     1      -4.309   7.932   6.221  1.00  0.00     0.000 C 
ENDROOT
BRANCH   1   2
ATOM      2  C   UNL     1      -5.084   6.734   6.799  1.00  0.00     0.006 C 
BRANCH   2   3
ATOM      3  C   UNL     1      -5.944   7.073   8.028  1.00  0.00     0.053 C 
BRANCH   3   4
ATOM      4  C   UNL     1      -6.916   5.981   8.350  1.00  0.00     0.041 C 
ATOM      5  O   UNL     1      -8.093   6.027   7.904  1.00  0.00    -0.550 OA
ATOM      6  O   UNL     1      -6.513   4.894   9.115  1.00  0.00    -0.550 OA
ENDBRANCH   3   4
ENDBRANCH   2   3
ENDBRANCH   1   2
BRANCH   1   7
ATOM      7  C   UNL     1      -3.666   7.625   4.860  1.00  0.00     0.000 C 
BRANCH   7   8
ATOM      8  C   UNL     1      -3.828   6.143   4.498  1.00  0.00     0.004 C 
BRANCH   8   9
ATOM      9  C   UNL     1      -2.556   5.353   4.831  1.00  0.00     0.027 C 
BRANCH   9  10
ATOM     10  C   UNL     1      -2.858   4.192   5.738  1.00  0.00    -0.035 C 
ATOM     11  C   UNL     1      -2.152   3.058   5.687  1.00  0.00     0.004 C 
ENDBRANCH   9  10
ENDBRANCH   8   9
ENDBRANCH   7   8
ENDBRANCH   1   7
TORSDOF 7
ENDMDL
MODEL 4
REMARK VINA RESULT:    -4.760      3.242      5.394
REMARK INTER + INTRA:          -6.993
REMARK INTER:                  -6.649
REMARK INTRA:                  -0.344
REMARK UNBOUND:                -0.285
REMARK SMILES C=CCCCCCCC(=O)[O-]
REMARK SMILES IDX 6 1 7 2 8 3 9 4 10 5 11 6 5 7 4 8 3 9 2 10 1 11
REMARK H PARENT
REMARK Flexibility Score: inf
ROOT
ATOM      1  C   UNL     1      -5.132   6.918   6.773  1.00  0.00     0.000 C 
ENDROOT
BRANCH   1   2
ATOM      2  C   UNL     1      -5.783   7.320   8.110  1.00  0.00     0.006 C 
BRANCH   2   3
ATOM      3  C   UNL     1      -6.683   6.236   8.724  1.00  0.00     0.053 C 
BRANCH   3   4
ATOM      4  C   UNL     1      -8.098   6.346   8.248  1.00  0.00     0.041 C 
ATOM      5  O   UNL     1      -8.754   7.402   8.447  1.00  0.00    -0.550 OA
ATOM      6  O   UNL     1      -8.682   5.294   7.554  1.00  0.00    -0.550 OA
ENDBRANCH   3   4
ENDBRANCH   2   3
ENDBRANCH   1   2
BRANCH   1   7
ATOM      7  C   UNL     1      -4.245   8.026   6.185  1.00  0.00     0.000 C 
BRANCH   7   8
ATOM      8  C   UNL     1      -3.710   7.626   4.804  1.00  0.00     0.004 C 
BRANCH   8   9
ATOM      9  C   UNL     1      -3.885   6.122   4.560  1.00  0.00     0.027 C 
BRANCH   9  10
ATOM     10  C   UNL     1      -2.615   5.371   4.850  1.00  0.00    -0.035 C 
ATOM     11  C   UNL     1      -2.600   4.295   5.643  1.00  0.00     0.004 C 
ENDBRANCH   9  10
ENDBRANCH   8   9
ENDBRANCH   7   8
ENDBRANCH   1   7
TORSDOF 7
ENDMDL
MODEL 5
REMARK VINA RESULT:    -4.522      2.576      3.750
REMARK INTER + INTRA:          -6.657
REMARK INTER:                  -6.309
REMARK INTRA:                  -0.348
REMARK UNBOUND:                -0.285
REMARK SMILES C=CCCCCCCC(=O)[O-]
REMARK SMILES IDX 6 1 7 2 8 3 9 4 10 5 11 6 5 7 4 8 3 9 2 10 1 11
REMARK H PARENT
REMARK Flexibility Score: inf
ROOT
ATOM      1  C   UNL     1      -5.797   6.613   7.669  1.00  0.00     0.000 C 
ENDROOT
BRANCH   1   2
ATOM      2  C   UNL     1      -4.810   7.350   6.745  1.00  0.00     0.006 C 
BRANCH   2   3
ATOM      3  C   UNL     1      -4.173   6.461   5.665  1.00  0.00     0.053 C 
BRANCH   3   4
ATOM      4  C   UNL     1      -3.507   7.268   4.595  1.00  0.00     0.041 C 
ATOM      5  O   UNL     1      -3.834   8.471   4.412  1.00  0.00    -0.550 OA
ATOM      6  O   UNL     1      -2.501   6.704   3.821  1.00  0.00    -0.550 OA
ENDBRANCH   3   4
ENDBRANCH   2   3
ENDBRANCH   1   2
BRANCH   1   7
ATOM      7  C   UNL     1      -6.116   7.400   8.949  1.00  0.00     0.000 C 
BRANCH   7   8
ATOM      8  C   UNL     1      -7.628   7.443   9.205  1.00  0.00     0.004 C 
BRANCH   8   9
ATOM      9  C   UNL     1      -8.382   6.569   8.195  1.00  0.00     0.027 C 
BRANCH   9  10
ATOM     10  C   UNL     1      -8.980   5.360   8.862  1.00  0.00    -0.035 C 
ATOM     11  C   UNL     1      -8.723   4.121   8.433  1.00  0.00     0.004 C 
ENDBRANCH   9  10
ENDBRANCH   8   9
ENDBRANCH   7   8
ENDBRANCH   1   7
TORSDOF 7
ENDMDL
MODEL 6
REMARK VINA RESULT:    -4.174     17.026     18.039
REMARK INTER + INTRA:          -6.167
REMARK INTER:                  -5.510
REMARK INTRA:                  -0.657
REMARK UNBOUND:                -0.285
REMARK SMILES C=CCCCCCCC(=O)[O-]
REMARK SMILES IDX 6 1 7 2 8 3 9 4 10 5 11 6 5 7 4 8 3 9 2 10 1 11
REMARK H PARENT
REMARK Flexibility Score: inf
ROOT
ATOM      1  C   UNL     1      -0.330  -6.096  -7.017  1.00  0.00     0.000 C 
ENDROOT
BRANCH   1   2
ATOM      2  C   UNL     1       0.539  -5.034  -6.317  1.00  0.00     0.006 C 
BRANCH   2   3
ATOM      3  C   UNL     1       2.029  -5.093  -6.691  1.00  0.00     0.053 C 
BRANCH   3   4
ATOM      4  C   UNL     1       2.240  -5.015  -8.171  1.00  0.00     0.041 C 
ATOM      5  O   UNL     1       2.760  -5.981  -8.790  1.00  0.00    -0.550 OA
ATOM      6  O   UNL     1       1.831  -3.888  -8.873  1.00  0.00    -0.550 OA
ENDBRANCH   3   4
ENDBRANCH   2   3
ENDBRANCH   1   2
BRANCH   1   7
ATOM      7  C   UNL     1      -1.417  -5.481  -7.910  1.00  0.00     0.000 C 
BRANCH   7   8
ATOM      8  C   UNL     1      -1.968  -4.188  -7.295  1.00  0.00     0.004 C 
BRANCH   8   9
ATOM      9  C   UNL     1      -1.934  -3.038  -8.309  1.00  0.00     0.027 C 
BRANCH   9  10
ATOM     10  C   UNL     1      -0.965  -1.968  -7.887  1.00  0.00    -0.035 C 
ATOM     11  C   UNL     1      -0.391  -1.149  -8.774  1.00  0.00     0.004 C 
ENDBRANCH   9  10
ENDBRANCH   8   9
ENDBRANCH   7   8
ENDBRANCH   1   7
TORSDOF 7
ENDMDL
MODEL 7
REMARK VINA RESULT:    -4.138     14.401     16.852
REMARK INTER + INTRA:          -6.116
REMARK INTER:                  -5.750
REMARK INTRA:                  -0.366
REMARK UNBOUND:                -0.285
REMARK SMILES C=CCCCCCCC(=O)[O-]
REMARK SMILES IDX 6 1 7 2 8 3 9 4 10 5 11 6 5 7 4 8 3 9 2 10 1 11
REMARK H PARENT
REMARK Flexibility Score: inf
ROOT
ATOM      1  C   UNL     1       7.142   5.299  -3.969  1.00  0.00     0.000 C 
ENDROOT
BRANCH   1   2
ATOM      2  C   UNL     1       7.110   6.286  -2.787  1.00  0.00     0.006 C 
BRANCH   2   3
ATOM      3  C   UNL     1       8.096   5.949  -1.657  1.00  0.00     0.053 C 
BRANCH   3   4
ATOM      4  C   UNL     1       7.935   4.542  -1.174  1.00  0.00     0.041 C 
ATOM      5  O   UNL     1       8.912   3.747  -1.200  1.00  0.00    -0.550 OA
ATOM      6  O   UNL     1       6.716   4.117  -0.663  1.00  0.00    -0.550 OA
ENDBRANCH   3   4
ENDBRANCH   2   3
ENDBRANCH   1   2
BRANCH   1   7
ATOM      7  C   UNL     1       8.304   5.567  -4.937  1.00  0.00     0.000 C 
BRANCH   7   8
ATOM      8  C   UNL     1       7.792   6.135  -6.267  1.00  0.00     0.004 C 
BRANCH   8   9
ATOM      9  C   UNL     1       7.816   5.067  -7.367  1.00  0.00     0.027 C 
BRANCH   9  10
ATOM     10  C   UNL     1       9.193   4.487  -7.533  1.00  0.00    -0.035 C 
ATOM     11  C   UNL     1       9.393   3.310  -8.136  1.00  0.00     0.004 C 
ENDBRANCH   9  10
ENDBRANCH   8   9
ENDBRANCH   7   8
ENDBRANCH   1   7
TORSDOF 7
ENDMDL
MODEL 8
REMARK VINA RESULT:    -4.116     12.696     13.846
REMARK INTER + INTRA:          -6.086
REMARK INTER:                  -5.785
REMARK INTRA:                  -0.301
REMARK UNBOUND:                -0.285
REMARK SMILES C=CCCCCCCC(=O)[O-]
REMARK SMILES IDX 6 1 7 2 8 3 9 4 10 5 11 6 5 7 4 8 3 9 2 10 1 11
REMARK H PARENT
REMARK Flexibility Score: inf
ROOT
ATOM      1  C   UNL     1       7.406   7.418  -2.693  1.00  0.00     0.000 C 
ENDROOT
BRANCH   1   2
ATOM      2  C   UNL     1       7.013   5.957  -2.981  1.00  0.00     0.006 C 
BRANCH   2   3
ATOM      3  C   UNL     1       8.074   4.925  -2.564  1.00  0.00     0.053 C 
BRANCH   3   4
ATOM      4  C   UNL     1       7.899   4.483  -1.145  1.00  0.00     0.041 C 
ATOM      5  O   UNL     1       6.765   4.127  -0.727  1.00  0.00    -0.550 OA
ATOM      6  O   UNL     1       8.994   4.431  -0.293  1.00  0.00    -0.550 OA
ENDBRANCH   3   4
ENDBRANCH   2   3
ENDBRANCH   1   2
BRANCH   1   7
ATOM      7  C   UNL     1       6.325   8.183  -1.914  1.00  0.00     0.000 C 
BRANCH   7   8
ATOM      8  C   UNL     1       6.607   9.690  -1.919  1.00  0.00     0.004 C 
BRANCH   8   9
ATOM      9  C   UNL     1       5.497  10.460  -1.193  1.00  0.00     0.027 C 
BRANCH   9  10
ATOM     10  C   UNL     1       4.141  10.103  -1.735  1.00  0.00    -0.035 C 
ATOM     11  C   UNL     1       3.612  10.740  -2.785  1.00  0.00     0.004 C 
ENDBRANCH   9  10
ENDBRANCH   8   9
ENDBRANCH   7   8
ENDBRANCH   1   7
TORSDOF 7
ENDMDL
MODEL 9
REMARK VINA RESULT:    -3.991     15.713     18.263
REMARK INTER + INTRA:          -5.908
REMARK INTER:                  -5.485
REMARK INTRA:                  -0.423
REMARK UNBOUND:                -0.285
REMARK SMILES C=CCCCCCCC(=O)[O-]
REMARK SMILES IDX 6 1 7 2 8 3 9 4 10 5 11 6 5 7 4 8 3 9 2 10 1 11
REMARK H PARENT
REMARK Flexibility Score: inf
ROOT
ATOM      1  C   UNL     1       7.670   6.192  -6.639  1.00  0.00     0.000 C 
ENDROOT
BRANCH   1   2
ATOM      2  C   UNL     1       8.036   5.521  -5.302  1.00  0.00     0.006 C 
BRANCH   2   3
ATOM      3  C   UNL     1       7.977   6.462  -4.087  1.00  0.00     0.053 C 
BRANCH   3   4
ATOM      4  C   UNL     1       6.938   6.034  -3.098  1.00  0.00     0.041 C 
ATOM      5  O   UNL     1       6.655   6.772  -2.117  1.00  0.00    -0.550 OA
ATOM      6  O   UNL     1       6.259   4.836  -3.276  1.00  0.00    -0.550 OA
ENDBRANCH   3   4
ENDBRANCH   2   3
ENDBRANCH   1   2
BRANCH   1   7
ATOM      7  C   UNL     1       7.742   5.224  -7.830  1.00  0.00     0.000 C 
BRANCH   7   8
ATOM      8  C   UNL     1       8.841   5.644  -8.814  1.00  0.00     0.004 C 
BRANCH   8   9
ATOM      9  C   UNL     1       9.777   4.471  -9.127  1.00  0.00     0.027 C 
BRANCH   9  10
ATOM     10  C   UNL     1       9.346   3.222  -8.406  1.00  0.00    -0.035 C 
ATOM     11  C   UNL     1      10.198   2.508  -7.665  1.00  0.00     0.004 C 
ENDBRANCH   9  10
ENDBRANCH   8   9
ENDBRANCH   7   8
ENDBRANCH   1   7
TORSDOF 7
ENDMDL
