MODEL 1
REMARK VINA RESULT:    -4.056      0.000      0.000
REMARK INTER + INTRA:          -4.741
REMARK INTER:                  -4.649
REMARK INTRA:                  -0.092
REMARK UNBOUND:                -0.092
REMARK SMILES COc1cc(C(=O)[O-])ccc1O
REMARK SMILES IDX 5 1 9 2 4 3 10 4 3 5 11 6 6 7 7 8 8 9 2 10 1 11 12 12
REMARK H PARENT 12 13
REMARK Flexibility Score: inf
ROOT
ATOM      1  C   UNL     1      -3.100   4.842  -2.748  1.00  0.00     0.001 A 
ATOM      2  C   UNL     1      -3.933   3.716  -2.652  1.00  0.00     0.014 A 
ATOM      3  C   UNL     1      -1.808   4.692  -3.281  1.00  0.00     0.060 A 
ATOM      4  C   UNL     1      -3.485   2.465  -3.080  1.00  0.00     0.051 A 
ATOM      5  C   UNL     1      -1.349   3.432  -3.715  1.00  0.00     0.161 A 
ATOM      6  C   UNL     1      -2.201   2.317  -3.610  1.00  0.00     0.157 A 
ENDROOT
BRANCH   1   7
ATOM      7  C   UNL     1      -3.573   6.170  -2.296  1.00  0.00     0.072 C 
ATOM      8  O   UNL     1      -3.639   7.136  -3.102  1.00  0.00    -0.545 OA
ATOM      9  O   UNL     1      -3.953   6.371  -0.973  1.00  0.00    -0.545 OA
ENDBRANCH   1   7
BRANCH   5  10
ATOM     10  O   UNL     1      -0.063   3.252  -4.252  1.00  0.00    -0.493 OA
ATOM     11  C   UNL     1       0.273   3.432  -5.623  1.00  0.00     0.278 C 
ENDBRANCH   5  10
BRANCH   6  12
ATOM     12  O   UNL     1      -1.787   1.052  -4.027  1.00  0.00    -0.504 OA
ATOM     13  H   UNL     1      -1.268   0.909  -4.885  1.00  0.00     0.293 HD
ENDBRANCH   6  12
TORSDOF 3
ENDMDL
MODEL 2
REMARK VINA RESULT:    -3.839      2.615      4.092
REMARK INTER + INTRA:          -4.493
REMARK INTER:                  -4.397
REMARK INTRA:                  -0.096
REMARK UNBOUND:                -0.092
REMARK SMILES COc1cc(C(=O)[O-])ccc1O
REMARK SMILES IDX 5 1 9 2 4 3 10 4 3 5 11 6 6 7 7 8 8 9 2 10 1 11 12 12
REMARK H PARENT 12 13
REMARK Flexibility Score: inf
ROOT
ATOM      1  C   UNL     1       0.576   4.314  -3.598  1.00  0.00     0.001 A 
ATOM      2  C   UNL     1       0.860   4.146  -4.963  1.00  0.00     0.014 A 
ATOM      3  C   UNL     1      -0.502   3.611  -3.033  1.00  0.00     0.060 A 
ATOM      4  C   UNL     1       0.081   3.293  -5.748  1.00  0.00     0.051 A 
ATOM      5  C   UNL     1      -1.292   2.749  -3.820  1.00  0.00     0.161 A 
ATOM      6  C   UNL     1      -0.990   2.595  -5.186  1.00  0.00     0.157 A 
ENDROOT
BRANCH   1   7
ATOM      7  C   UNL     1       1.400   5.217  -2.763  1.00  0.00     0.072 C 
ATOM      8  O   UNL     1       2.580   4.904  -2.453  1.00  0.00    -0.545 OA
ATOM      9  O   UNL     1       0.884   6.426  -2.310  1.00  0.00    -0.545 OA
ENDBRANCH   1   7
BRANCH   5  10
ATOM     10  O   UNL     1      -2.375   2.034  -3.283  1.00  0.00    -0.493 OA
ATOM     11  C   UNL     1      -3.688   2.558  -3.117  1.00  0.00     0.278 C 
ENDBRANCH   5  10
BRANCH   6  12
ATOM     12  O   UNL     1      -1.746   1.752  -6.001  1.00  0.00    -0.504 OA
ATOM     13  H   UNL     1      -1.741   1.830  -7.011  1.00  0.00     0.293 HD
ENDBRANCH   6  12
TORSDOF 3
ENDMDL
MODEL 3
REMARK VINA RESULT:    -3.823      1.353      4.267
REMARK INTER + INTRA:          -4.474
REMARK INTER:                  -4.389
REMARK INTRA:                  -0.085
REMARK UNBOUND:                -0.092
REMARK SMILES COc1cc(C(=O)[O-])ccc1O
REMARK SMILES IDX 5 1 9 2 4 3 10 4 3 5 11 6 6 7 7 8 8 9 2 10 1 11 12 12
REMARK H PARENT 12 13
REMARK Flexibility Score: inf
ROOT
ATOM      1  C   UNL     1      -2.410   3.024  -3.718  1.00  0.00     0.001 A 
ATOM      2  C   UNL     1      -3.462   2.769  -2.824  1.00  0.00     0.014 A 
ATOM      3  C   UNL     1      -1.867   4.320  -3.782  1.00  0.00     0.060 A 
ATOM      4  C   UNL     1      -3.963   3.787  -2.011  1.00  0.00     0.051 A 
ATOM      5  C   UNL     1      -2.369   5.352  -2.963  1.00  0.00     0.161 A 
ATOM      6  C   UNL     1      -3.424   5.074  -2.074  1.00  0.00     0.157 A 
ENDROOT
BRANCH   1   7
ATOM      7  C   UNL     1      -1.877   1.947  -4.581  1.00  0.00     0.072 C 
ATOM      8  O   UNL     1      -1.749   0.774  -4.138  1.00  0.00    -0.545 OA
ATOM      9  O   UNL     1      -1.510   2.212  -5.896  1.00  0.00    -0.545 OA
ENDBRANCH   1   7
BRANCH   5  10
ATOM     10  O   UNL     1      -1.846   6.655  -3.005  1.00  0.00    -0.493 OA
ATOM     11  C   UNL     1      -0.459   6.971  -2.992  1.00  0.00     0.278 C 
ENDBRANCH   5  10
BRANCH   6  12
ATOM     12  O   UNL     1      -3.950   6.066  -1.247  1.00  0.00    -0.504 OA
ATOM     13  H   UNL     1      -3.406   6.498  -0.509  1.00  0.00     0.293 HD
ENDBRANCH   6  12
TORSDOF 3
ENDMDL
MODEL 4
REMARK VINA RESULT:    -3.774      1.577      4.162
REMARK INTER + INTRA:          -4.418
REMARK INTER:                  -4.339
REMARK INTRA:                  -0.079
REMARK UNBOUND:                -0.092
REMARK SMILES COc1cc(C(=O)[O-])ccc1O
REMARK SMILES IDX 5 1 9 2 4 3 10 4 3 5 11 6 6 7 7 8 8 9 2 10 1 11 12 12
REMARK H PARENT 12 13
REMARK Flexibility Score: inf
ROOT
ATOM      1  C   UNL     1      -0.697   3.680  -4.095  1.00  0.00     0.001 A 
ATOM      2  C   UNL     1      -1.175   2.424  -4.501  1.00  0.00     0.014 A 
ATOM      3  C   UNL     1      -1.513   4.494  -3.291  1.00  0.00     0.060 A 
ATOM      4  C   UNL     1      -2.444   1.991  -4.113  1.00  0.00     0.051 A 
ATOM      5  C   UNL     1      -2.795   4.062  -2.895  1.00  0.00     0.161 A 
ATOM      6  C   UNL     1      -3.255   2.800  -3.314  1.00  0.00     0.157 A 
ENDROOT
BRANCH   1   7
ATOM      7  C   UNL     1       0.648   4.142  -4.505  1.00  0.00     0.072 C 
ATOM      8  O   UNL     1       1.371   4.798  -3.708  1.00  0.00    -0.545 OA
ATOM      9  O   UNL     1       1.136   3.858  -5.776  1.00  0.00    -0.545 OA
ENDBRANCH   1   7
BRANCH   5  10
ATOM     10  O   UNL     1      -3.633   4.854  -2.092  1.00  0.00    -0.493 OA
ATOM     11  C   UNL     1      -3.595   6.276  -2.041  1.00  0.00     0.278 C 
ENDBRANCH   5  10
BRANCH   6  12
ATOM     12  O   UNL     1      -4.517   2.334  -2.945  1.00  0.00    -0.504 OA
ATOM     13  H   UNL     1      -4.867   1.431  -3.241  1.00  0.00     0.293 HD
ENDBRANCH   6  12
TORSDOF 3
ENDMDL
MODEL 5
REMARK VINA RESULT:    -3.762      2.967      4.582
REMARK INTER + INTRA:          -4.404
REMARK INTER:                  -4.310
REMARK INTRA:                  -0.094
REMARK UNBOUND:                -0.092
REMARK SMILES COc1cc(C(=O)[O-])ccc1O
REMARK SMILES IDX 5 1 9 2 4 3 10 4 3 5 11 6 6 7 7 8 8 9 2 10 1 11 12 12
REMARK H PARENT 12 13
REMARK Flexibility Score: inf
ROOT
ATOM      1  C   UNL     1      -0.743   2.874  -3.999  1.00  0.00     0.001 A 
ATOM      2  C   UNL     1      -0.416   3.186  -5.328  1.00  0.00     0.014 A 
ATOM      3  C   UNL     1      -0.049   3.514  -2.957  1.00  0.00     0.060 A 
ATOM      4  C   UNL     1       0.585   4.117  -5.611  1.00  0.00     0.051 A 
ATOM      5  C   UNL     1       0.963   4.454  -3.236  1.00  0.00     0.161 A 
ATOM      6  C   UNL     1       1.275   4.751  -4.576  1.00  0.00     0.157 A 
ENDROOT
BRANCH   1   7
ATOM      7  C   UNL     1      -1.804   1.888  -3.695  1.00  0.00     0.072 C 
ATOM      8  O   UNL     1      -1.748   0.721  -4.166  1.00  0.00    -0.545 OA
ATOM      9  O   UNL     1      -2.880   2.235  -2.884  1.00  0.00    -0.545 OA
ENDBRANCH   1   7
BRANCH   5  10
ATOM     10  O   UNL     1       1.674   5.108  -2.216  1.00  0.00    -0.493 OA
ATOM     11  C   UNL     1       2.569   4.467  -1.315  1.00  0.00     0.278 C 
ENDBRANCH   5  10
BRANCH   6  12
ATOM     12  O   UNL     1       2.269   5.676  -4.897  1.00  0.00    -0.504 OA
ATOM     13  H   UNL     1       3.106   5.784  -4.338  1.00  0.00     0.293 HD
ENDBRANCH   6  12
TORSDOF 3
ENDMDL
MODEL 6
REMARK VINA RESULT:    -3.638      6.853      9.094
REMARK INTER + INTRA:          -4.262
REMARK INTER:                  -4.179
REMARK INTRA:                  -0.083
REMARK UNBOUND:                -0.092
REMARK SMILES COc1cc(C(=O)[O-])ccc1O
REMARK SMILES IDX 5 1 9 2 4 3 10 4 3 5 11 6 6 7 7 8 8 9 2 10 1 11 12 12
REMARK H PARENT 12 13
REMARK Flexibility Score: inf
ROOT
ATOM      1  C   UNL     1      -5.487   5.290   3.569  1.00  0.00     0.001 A 
ATOM      2  C   UNL     1      -5.560   5.682   4.915  1.00  0.00     0.014 A 
ATOM      3  C   UNL     1      -6.572   4.600   2.999  1.00  0.00     0.060 A 
ATOM      4  C   UNL     1      -6.693   5.390   5.677  1.00  0.00     0.051 A 
ATOM      5  C   UNL     1      -7.718   4.302   3.763  1.00  0.00     0.161 A 
ATOM      6  C   UNL     1      -7.770   4.704   5.111  1.00  0.00     0.157 A 
ENDROOT
BRANCH   1   7
ATOM      7  C   UNL     1      -4.288   5.599   2.759  1.00  0.00     0.072 C 
ATOM      8  O   UNL     1      -3.205   5.925   3.315  1.00  0.00    -0.545 OA
ATOM      9  O   UNL     1      -4.338   5.533   1.371  1.00  0.00    -0.545 OA
ENDBRANCH   1   7
BRANCH   5  10
ATOM     10  O   UNL     1      -8.816   3.614   3.220  1.00  0.00    -0.493 OA
ATOM     11  C   UNL     1      -9.242   3.711   1.866  1.00  0.00     0.278 C 
ENDBRANCH   5  10
BRANCH   6  12
ATOM     12  O   UNL     1      -8.885   4.429   5.902  1.00  0.00    -0.504 OA
ATOM     13  H   UNL     1      -9.780   4.172   5.504  1.00  0.00     0.293 HD
ENDBRANCH   6  12
TORSDOF 3
ENDMDL
MODEL 7
REMARK VINA RESULT:    -3.601     11.699     13.418
REMARK INTER + INTRA:          -4.220
REMARK INTER:                  -4.116
REMARK INTRA:                  -0.104
REMARK UNBOUND:                -0.092
REMARK SMILES COc1cc(C(=O)[O-])ccc1O
REMARK SMILES IDX 5 1 9 2 4 3 10 4 3 5 11 6 6 7 7 8 8 9 2 10 1 11 12 12
REMARK H PARENT 12 13
REMARK Flexibility Score: inf
ROOT
ATOM      1  C   UNL     1      -4.396  -8.645   0.023  1.00  0.00     0.001 A 
ATOM      2  C   UNL     1      -4.442  -7.450  -0.711  1.00  0.00     0.014 A 
ATOM      3  C   UNL     1      -3.245  -9.450  -0.054  1.00  0.00     0.060 A 
ATOM      4  C   UNL     1      -3.362  -7.066  -1.508  1.00  0.00     0.051 A 
ATOM      5  C   UNL     1      -2.151  -9.068  -0.856  1.00  0.00     0.161 A 
ATOM      6  C   UNL     1      -2.219  -7.866  -1.584  1.00  0.00     0.157 A 
ENDROOT
BRANCH   1   7
ATOM      7  C   UNL     1      -5.539  -9.055   0.869  1.00  0.00     0.072 C 
ATOM      8  O   UNL     1      -5.495 -10.125   1.533  1.00  0.00    -0.545 OA
ATOM      9  O   UNL     1      -6.681  -8.264   0.945  1.00  0.00    -0.545 OA
ENDBRANCH   1   7
BRANCH   5  10
ATOM     10  O   UNL     1      -0.989  -9.852  -0.952  1.00  0.00    -0.493 OA
ATOM     11  C   UNL     1       0.051  -9.879   0.020  1.00  0.00     0.278 C 
ENDBRANCH   5  10
BRANCH   6  12
ATOM     12  O   UNL     1      -1.159  -7.450  -2.390  1.00  0.00    -0.504 OA
ATOM     13  H   UNL     1      -0.407  -8.074  -2.656  1.00  0.00     0.293 HD
ENDBRANCH   6  12
TORSDOF 3
ENDMDL
MODEL 8
REMARK VINA RESULT:    -3.599     11.997     13.837
REMARK INTER + INTRA:          -4.217
REMARK INTER:                  -4.125
REMARK INTRA:                  -0.092
REMARK UNBOUND:                -0.092
REMARK SMILES COc1cc(C(=O)[O-])ccc1O
REMARK SMILES IDX 5 1 9 2 4 3 10 4 3 5 11 6 6 7 7 8 8 9 2 10 1 11 12 12
REMARK H PARENT 12 13
REMARK Flexibility Score: inf
ROOT
ATOM      1  C   UNL     1      -9.635  -5.648   0.481  1.00  0.00     0.001 A 
ATOM      2  C   UNL     1      -8.438  -5.293   1.124  1.00  0.00     0.014 A 
ATOM      3  C   UNL     1     -10.126  -6.958   0.626  1.00  0.00     0.060 A 
ATOM      4  C   UNL     1      -7.745  -6.228   1.896  1.00  0.00     0.051 A 
ATOM      5  C   UNL     1      -9.431  -7.906   1.404  1.00  0.00     0.161 A 
ATOM      6  C   UNL     1      -8.233  -7.528   2.040  1.00  0.00     0.157 A 
ENDROOT
BRANCH   1   7
ATOM      7  C   UNL     1     -10.372  -4.660  -0.337  1.00  0.00     0.072 C 
ATOM      8  O   UNL     1     -11.120  -5.037  -1.278  1.00  0.00    -0.545 OA
ATOM      9  O   UNL     1     -10.251  -3.298  -0.079  1.00  0.00    -0.545 OA
ENDBRANCH   1   7
BRANCH   5  10
ATOM     10  O   UNL     1      -9.897  -9.221   1.567  1.00  0.00    -0.493 OA
ATOM     11  C   UNL     1     -10.157 -10.125   0.498  1.00  0.00     0.278 C 
ENDBRANCH   5  10
BRANCH   6  12
ATOM     12  O   UNL     1      -7.514  -8.435   2.818  1.00  0.00    -0.504 OA
ATOM     13  H   UNL     1      -7.660  -8.526   3.816  1.00  0.00     0.293 HD
ENDBRANCH   6  12
TORSDOF 3
ENDMDL
MODEL 9
REMARK VINA RESULT:    -3.588      2.487      4.480
REMARK INTER + INTRA:          -4.205
REMARK INTER:                  -4.110
REMARK INTRA:                  -0.095
REMARK UNBOUND:                -0.092
REMARK SMILES COc1cc(C(=O)[O-])ccc1O
REMARK SMILES IDX 5 1 9 2 4 3 10 4 3 5 11 6 6 7 7 8 8 9 2 10 1 11 12 12
REMARK H PARENT 12 13
REMARK Flexibility Score: inf
ROOT
ATOM      1  C   UNL     1      -1.196   3.608  -3.837  1.00  0.00     0.001 A 
ATOM      2  C   UNL     1      -1.931   4.803  -3.797  1.00  0.00     0.014 A 
ATOM      3  C   UNL     1       0.143   3.614  -3.410  1.00  0.00     0.060 A 
ATOM      4  C   UNL     1      -1.339   5.983  -3.341  1.00  0.00     0.051 A 
ATOM      5  C   UNL     1       0.747   4.802  -2.949  1.00  0.00     0.161 A 
ATOM      6  C   UNL     1      -0.008   5.989  -2.918  1.00  0.00     0.157 A 
ENDROOT
BRANCH   1   7
ATOM      7  C   UNL     1      -1.821   2.356  -4.319  1.00  0.00     0.072 C 
ATOM      8  O   UNL     1      -2.178   1.462  -3.505  1.00  0.00    -0.545 OA
ATOM      9  O   UNL     1      -2.026   2.146  -5.678  1.00  0.00    -0.545 OA
ENDBRANCH   1   7
BRANCH   5  10
ATOM     10  O   UNL     1       2.083   4.838  -2.517  1.00  0.00    -0.493 OA
ATOM     11  C   UNL     1       2.549   4.304  -1.283  1.00  0.00     0.278 C 
ENDBRANCH   5  10
BRANCH   6  12
ATOM     12  O   UNL     1       0.550   7.186  -2.469  1.00  0.00    -0.504 OA
ATOM     13  H   UNL     1       1.537   7.392  -2.567  1.00  0.00     0.293 HD
ENDBRANCH   6  12
TORSDOF 3
ENDMDL
