MODEL 1
REMARK VINA RESULT:     0.029      0.000      0.000
REMARK INTER + INTRA:          -0.823
REMARK INTER:                   0.055
REMARK INTRA:                  -0.878
REMARK UNBOUND:                -0.878
REMARK SMILES CCCCCCCCC=CCCCCCCCC(=O)[O-]
REMARK SMILES IDX 10 1 9 2 11 3 12 4 13 5 14 6 15 7 16 8 17 9 18 10 19 11
REMARK SMILES IDX 20 12 8 13 7 14 6 15 5 16 4 17 3 18 2 19 1 20
REMARK H PARENT
REMARK Flexibility Score: inf
ROOT
ATOM      1  C   UNL     1     123.690 131.591 124.343  1.00  0.00    -0.031 C 
ATOM      2  C   UNL     1     124.051 131.617 125.636  1.00  0.00    -0.031 C 
ENDROOT
BRANCH   1   3
ATOM      3  C   UNL     1     124.704 131.725 123.240  1.00  0.00     0.027 C 
BRANCH   3   4
ATOM      4  C   UNL     1     125.854 132.655 123.652  1.00  0.00     0.004 C 
BRANCH   4   5
ATOM      5  C   UNL     1     125.457 134.139 123.612  1.00  0.00     0.000 C 
BRANCH   5   6
ATOM      6  C   UNL     1     125.769 134.871 124.926  1.00  0.00     0.000 C 
BRANCH   6   7
ATOM      7  C   UNL     1     125.775 133.896 126.110  1.00  0.00     0.000 C 
BRANCH   7   8
ATOM      8  C   UNL     1     125.094 134.516 127.338  1.00  0.00     0.006 C 
BRANCH   8   9
ATOM      9  C   UNL     1     123.653 134.954 127.045  1.00  0.00     0.053 C 
BRANCH   9  10
ATOM     10  C   UNL     1     122.825 135.016 128.293  1.00  0.00     0.041 C 
ATOM     11  O   UNL     1     123.177 134.376 129.319  1.00  0.00    -0.550 OA
ATOM     12  O   UNL     1     121.684 135.808 128.333  1.00  0.00    -0.550 OA
ENDBRANCH   9  10
ENDBRANCH   8   9
ENDBRANCH   7   8
ENDBRANCH   6   7
ENDBRANCH   5   6
ENDBRANCH   4   5
ENDBRANCH   3   4
ENDBRANCH   1   3
BRANCH   2  13
ATOM     13  C   UNL     1     123.037 131.480 126.738  1.00  0.00     0.027 C 
BRANCH  13  14
ATOM     14  C   UNL     1     123.723 131.400 128.112  1.00  0.00     0.004 C 
BRANCH  14  15
ATOM     15  C   UNL     1     122.785 130.880 129.213  1.00  0.00     0.000 C 
BRANCH  15  16
ATOM     16  C   UNL     1     122.811 129.347 129.336  1.00  0.00     0.000 C 
BRANCH  16  17
ATOM     17  C   UNL     1     121.541 128.681 128.777  1.00  0.00    -0.000 C 
BRANCH  17  18
ATOM     18  C   UNL     1     121.658 127.168 128.500  1.00  0.00    -0.000 C 
BRANCH  18  19
ATOM     19  C   UNL     1     121.440 126.758 127.033  1.00  0.00    -0.003 C 
ATOM     20  C   UNL     1     122.413 125.675 126.567  1.00  0.00     0.004 C 
ENDBRANCH  18  19
ENDBRANCH  17  18
ENDBRANCH  16  17
ENDBRANCH  15  16
ENDBRANCH  14  15
ENDBRANCH  13  14
ENDBRANCH   2  13
TORSDOF 15
ENDMDL
MODEL 2
REMARK VINA RESULT:     0.287      1.318      1.910
REMARK INTER + INTRA:          -0.340
REMARK INTER:                   0.395
REMARK INTRA:                  -0.735
REMARK UNBOUND:                -0.878
REMARK SMILES CCCCCCCCC=CCCCCCCCC(=O)[O-]
REMARK SMILES IDX 10 1 9 2 11 3 12 4 13 5 14 6 15 7 16 8 17 9 18 10 19 11
REMARK SMILES IDX 20 12 8 13 7 14 6 15 5 16 4 17 3 18 2 19 1 20
REMARK H PARENT
REMARK Flexibility Score: inf
ROOT
ATOM      1  C   UNL     1     124.721 131.802 124.331  1.00  0.00    -0.031 C 
ATOM      2  C   UNL     1     123.523 132.030 124.890  1.00  0.00    -0.031 C 
ENDROOT
BRANCH   1   3
ATOM      3  C   UNL     1     125.473 132.885 123.608  1.00  0.00     0.027 C 
BRANCH   3   4
ATOM      4  C   UNL     1     125.933 133.984 124.578  1.00  0.00     0.004 C 
BRANCH   4   5
ATOM      5  C   UNL     1     125.752 133.586 126.051  1.00  0.00     0.000 C 
BRANCH   5   6
ATOM      6  C   UNL     1     125.118 134.704 126.893  1.00  0.00     0.000 C 
BRANCH   6   7
ATOM      7  C   UNL     1     123.948 134.166 127.726  1.00  0.00     0.000 C 
BRANCH   7   8
ATOM      8  C   UNL     1     123.297 135.287 128.549  1.00  0.00     0.006 C 
BRANCH   8   9
ATOM      9  C   UNL     1     121.765 135.247 128.477  1.00  0.00     0.053 C 
BRANCH   9  10
ATOM     10  C   UNL     1     121.207 136.472 127.817  1.00  0.00     0.041 C 
ATOM     11  O   UNL     1     121.008 136.487 126.574  1.00  0.00    -0.550 OA
ATOM     12  O   UNL     1     120.875 137.584 128.581  1.00  0.00    -0.550 OA
ENDBRANCH   9  10
ENDBRANCH   8   9
ENDBRANCH   7   8
ENDBRANCH   6   7
ENDBRANCH   5   6
ENDBRANCH   4   5
ENDBRANCH   3   4
ENDBRANCH   1   3
BRANCH   2  13
ATOM     13  C   UNL     1     122.773 130.948 125.616  1.00  0.00     0.027 C 
BRANCH  13  14
ATOM     14  C   UNL     1     122.463 131.366 127.063  1.00  0.00     0.004 C 
BRANCH  14  15
ATOM     15  C   UNL     1     123.487 130.815 128.069  1.00  0.00     0.000 C 
BRANCH  15  16
ATOM     16  C   UNL     1     122.820 130.173 129.299  1.00  0.00     0.000 C 
BRANCH  16  17
ATOM     17  C   UNL     1     121.675 129.215 128.925  1.00  0.00    -0.000 C 
BRANCH  17  18
ATOM     18  C   UNL     1     122.054 127.721 128.877  1.00  0.00    -0.000 C 
BRANCH  18  19
ATOM     19  C   UNL     1     121.316 126.897 127.807  1.00  0.00    -0.003 C 
ATOM     20  C   UNL     1     121.079 125.447 128.231  1.00  0.00     0.004 C 
ENDBRANCH  18  19
ENDBRANCH  17  18
ENDBRANCH  16  17
ENDBRANCH  15  16
ENDBRANCH  14  15
ENDBRANCH  13  14
ENDBRANCH   2  13
TORSDOF 15
ENDMDL
MODEL 3
REMARK VINA RESULT:     0.353      3.223      7.059
REMARK INTER + INTRA:          -0.215
REMARK INTER:                   0.434
REMARK INTRA:                  -0.649
REMARK UNBOUND:                -0.878
REMARK SMILES CCCCCCCCC=CCCCCCCCC(=O)[O-]
REMARK SMILES IDX 10 1 9 2 11 3 12 4 13 5 14 6 15 7 16 8 17 9 18 10 19 11
REMARK SMILES IDX 20 12 8 13 7 14 6 15 5 16 4 17 3 18 2 19 1 20
REMARK H PARENT
REMARK Flexibility Score: inf
ROOT
ATOM      1  C   UNL     1     123.386 132.001 125.117  1.00  0.00    -0.031 C 
ATOM      2  C   UNL     1     124.334 131.521 124.297  1.00  0.00    -0.031 C 
ENDROOT
BRANCH   1   3
ATOM      3  C   UNL     1     122.973 131.265 126.361  1.00  0.00     0.027 C 
BRANCH   3   4
ATOM      4  C   UNL     1     124.006 131.446 127.483  1.00  0.00     0.004 C 
BRANCH   4   5
ATOM      5  C   UNL     1     123.392 131.294 128.883  1.00  0.00     0.000 C 
BRANCH   5   6
ATOM      6  C   UNL     1     123.179 129.825 129.280  1.00  0.00     0.000 C 
BRANCH   6   7
ATOM      7  C   UNL     1     121.690 129.459 129.249  1.00  0.00     0.000 C 
BRANCH   7   8
ATOM      8  C   UNL     1     121.499 127.938 129.156  1.00  0.00     0.006 C 
BRANCH   8   9
ATOM      9  C   UNL     1     121.286 127.465 127.712  1.00  0.00     0.053 C 
BRANCH   9  10
ATOM     10  C   UNL     1     121.571 126.001 127.558  1.00  0.00     0.041 C 
ATOM     11  O   UNL     1     121.065 125.170 128.356  1.00  0.00    -0.550 OA
ATOM     12  O   UNL     1     122.367 125.554 126.511  1.00  0.00    -0.550 OA
ENDBRANCH   9  10
ENDBRANCH   8   9
ENDBRANCH   7   8
ENDBRANCH   6   7
ENDBRANCH   5   6
ENDBRANCH   4   5
ENDBRANCH   3   4
ENDBRANCH   1   3
BRANCH   2  13
ATOM     13  C   UNL     1     124.749 132.259 123.055  1.00  0.00     0.027 C 
BRANCH  13  14
ATOM     14  C   UNL     1     125.396 133.609 123.405  1.00  0.00     0.004 C 
BRANCH  14  15
ATOM     15  C   UNL     1     126.143 133.577 124.749  1.00  0.00     0.000 C 
BRANCH  15  16
ATOM     16  C   UNL     1     125.673 134.680 125.713  1.00  0.00     0.000 C 
BRANCH  16  17
ATOM     17  C   UNL     1     125.229 134.130 127.080  1.00  0.00    -0.000 C 
BRANCH  17  18
ATOM     18  C   UNL     1     124.438 135.118 127.962  1.00  0.00    -0.000 C 
BRANCH  18  19
ATOM     19  C   UNL     1     123.064 134.611 128.434  1.00  0.00    -0.003 C 
ATOM     20  C   UNL     1     121.930 135.588 128.123  1.00  0.00     0.004 C 
ENDBRANCH  18  19
ENDBRANCH  17  18
ENDBRANCH  16  17
ENDBRANCH  15  16
ENDBRANCH  14  15
ENDBRANCH  13  14
ENDBRANCH   2  13
TORSDOF 15
ENDMDL
MODEL 4
REMARK VINA RESULT:     0.491      2.174      4.486
REMARK INTER + INTRA:           0.043
REMARK INTER:                   0.769
REMARK INTRA:                  -0.726
REMARK UNBOUND:                -0.878
REMARK SMILES CCCCCCCCC=CCCCCCCCC(=O)[O-]
REMARK SMILES IDX 10 1 9 2 11 3 12 4 13 5 14 6 15 7 16 8 17 9 18 10 19 11
REMARK SMILES IDX 20 12 8 13 7 14 6 15 5 16 4 17 3 18 2 19 1 20
REMARK H PARENT
REMARK Flexibility Score: inf
ROOT
ATOM      1  C   UNL     1     125.853 134.555 125.232  1.00  0.00    -0.031 C 
ATOM      2  C   UNL     1     125.862 133.214 125.204  1.00  0.00    -0.031 C 
ENDROOT
BRANCH   1   3
ATOM      3  C   UNL     1     125.853 135.316 126.530  1.00  0.00     0.027 C 
BRANCH   3   4
ATOM      4  C   UNL     1     124.911 134.666 127.554  1.00  0.00     0.004 C 
BRANCH   4   5
ATOM      5  C   UNL     1     123.466 135.174 127.434  1.00  0.00     0.000 C 
BRANCH   5   6
ATOM      6  C   UNL     1     122.652 134.956 128.719  1.00  0.00     0.000 C 
BRANCH   6   7
ATOM      7  C   UNL     1     121.218 135.473 128.554  1.00  0.00     0.000 C 
BRANCH   7   8
ATOM      8  C   UNL     1     120.994 136.038 127.144  1.00  0.00     0.006 C 
BRANCH   8   9
ATOM      9  C   UNL     1     120.894 137.569 127.139  1.00  0.00     0.053 C 
BRANCH   9  10
ATOM     10  C   UNL     1     120.979 138.128 125.751  1.00  0.00     0.041 C 
ATOM     11  O   UNL     1     120.875 137.367 124.754  1.00  0.00    -0.550 OA
ATOM     12  O   UNL     1     121.138 139.495 125.560  1.00  0.00    -0.550 OA
ENDBRANCH   9  10
ENDBRANCH   8   9
ENDBRANCH   7   8
ENDBRANCH   6   7
ENDBRANCH   5   6
ENDBRANCH   4   5
ENDBRANCH   3   4
ENDBRANCH   1   3
BRANCH   2  13
ATOM     13  C   UNL     1     125.866 132.454 123.906  1.00  0.00     0.027 C 
BRANCH  13  14
ATOM     14  C   UNL     1     124.437 132.082 123.479  1.00  0.00     0.004 C 
BRANCH  14  15
ATOM     15  C   UNL     1     123.715 131.212 124.522  1.00  0.00     0.000 C 
BRANCH  15  16
ATOM     16  C   UNL     1     123.353 131.995 125.796  1.00  0.00     0.000 C 
BRANCH  16  17
ATOM     17  C   UNL     1     123.909 131.345 127.075  1.00  0.00    -0.000 C 
BRANCH  17  18
ATOM     18  C   UNL     1     122.924 131.274 128.260  1.00  0.00    -0.000 C 
BRANCH  18  19
ATOM     19  C   UNL     1     123.149 130.094 129.222  1.00  0.00    -0.003 C 
ATOM     20  C   UNL     1     121.990 129.097 129.223  1.00  0.00     0.004 C 
ENDBRANCH  18  19
ENDBRANCH  17  18
ENDBRANCH  16  17
ENDBRANCH  15  16
ENDBRANCH  14  15
ENDBRANCH  13  14
ENDBRANCH   2  13
TORSDOF 15
ENDMDL
MODEL 5
REMARK VINA RESULT:     0.591      2.477      4.049
REMARK INTER + INTRA:           0.232
REMARK INTER:                   0.355
REMARK INTRA:                  -0.123
REMARK UNBOUND:                -0.878
REMARK SMILES CCCCCCCCC=CCCCCCCCC(=O)[O-]
REMARK SMILES IDX 10 1 9 2 11 3 12 4 13 5 14 6 15 7 16 8 17 9 18 10 19 11
REMARK SMILES IDX 20 12 8 13 7 14 6 15 5 16 4 17 3 18 2 19 1 20
REMARK H PARENT
REMARK Flexibility Score: inf
ROOT
ATOM      1  C   UNL     1     123.505 132.492 128.232  1.00  0.00    -0.031 C 
ATOM      2  C   UNL     1     123.048 131.750 129.252  1.00  0.00    -0.031 C 
ENDROOT
BRANCH   1   3
ATOM      3  C   UNL     1     123.362 133.989 128.220  1.00  0.00     0.027 C 
BRANCH   3   4
ATOM      4  C   UNL     1     124.673 134.670 127.801  1.00  0.00     0.004 C 
BRANCH   4   5
ATOM      5  C   UNL     1     125.234 134.112 126.484  1.00  0.00     0.000 C 
BRANCH   5   6
ATOM      6  C   UNL     1     125.762 132.676 126.626  1.00  0.00     0.000 C 
BRANCH   6   7
ATOM      7  C   UNL     1     126.147 132.095 125.260  1.00  0.00     0.000 C 
BRANCH   7   8
ATOM      8  C   UNL     1     125.001 132.255 124.251  1.00  0.00     0.006 C 
BRANCH   8   9
ATOM      9  C   UNL     1     125.451 132.961 122.966  1.00  0.00     0.053 C 
BRANCH   9  10
ATOM     10  C   UNL     1     125.326 134.451 123.077  1.00  0.00     0.041 C 
ATOM     11  O   UNL     1     126.340 135.155 123.321  1.00  0.00    -0.550 OA
ATOM     12  O   UNL     1     124.095 135.063 122.875  1.00  0.00    -0.550 OA
ENDBRANCH   9  10
ENDBRANCH   8   9
ENDBRANCH   7   8
ENDBRANCH   6   7
ENDBRANCH   5   6
ENDBRANCH   4   5
ENDBRANCH   3   4
ENDBRANCH   1   3
BRANCH   2  13
ATOM     13  C   UNL     1     123.195 130.253 129.264  1.00  0.00     0.027 C 
BRANCH  13  14
ATOM     14  C   UNL     1     121.999 129.575 128.577  1.00  0.00     0.004 C 
BRANCH  14  15
ATOM     15  C   UNL     1     121.550 128.294 129.298  1.00  0.00     0.000 C 
BRANCH  15  16
ATOM     16  C   UNL     1     120.882 127.284 128.348  1.00  0.00     0.000 C 
BRANCH  16  17
ATOM     17  C   UNL     1     121.899 126.406 127.599  1.00  0.00    -0.000 C 
BRANCH  17  18
ATOM     18  C   UNL     1     121.497 124.925 127.435  1.00  0.00    -0.000 C 
BRANCH  18  19
ATOM     19  C   UNL     1     121.058 124.224 128.732  1.00  0.00    -0.003 C 
ATOM     20  C   UNL     1     121.395 122.733 128.746  1.00  0.00     0.004 C 
ENDBRANCH  18  19
ENDBRANCH  17  18
ENDBRANCH  16  17
ENDBRANCH  15  16
ENDBRANCH  14  15
ENDBRANCH  13  14
ENDBRANCH   2  13
TORSDOF 15
ENDMDL
MODEL 6
REMARK VINA RESULT:     0.786      1.485      2.608
REMARK INTER + INTRA:           0.596
REMARK INTER:                   1.729
REMARK INTRA:                  -1.133
REMARK UNBOUND:                -0.878
REMARK SMILES CCCCCCCCC=CCCCCCCCC(=O)[O-]
REMARK SMILES IDX 10 1 9 2 11 3 12 4 13 5 14 6 15 7 16 8 17 9 18 10 19 11
REMARK SMILES IDX 20 12 8 13 7 14 6 15 5 16 4 17 3 18 2 19 1 20
REMARK H PARENT
REMARK Flexibility Score: inf
ROOT
ATOM      1  C   UNL     1     123.124 131.256 127.141  1.00  0.00    -0.031 C 
ATOM      2  C   UNL     1     123.393 131.681 128.386  1.00  0.00    -0.031 C 
ENDROOT
BRANCH   1   3
ATOM      3  C   UNL     1     123.511 132.062 125.932  1.00  0.00     0.027 C 
BRANCH   3   4
ATOM      4  C   UNL     1     125.035 132.226 125.839  1.00  0.00     0.004 C 
BRANCH   4   5
ATOM      5  C   UNL     1     125.485 133.684 126.026  1.00  0.00     0.000 C 
BRANCH   5   6
ATOM      6  C   UNL     1     124.334 134.609 126.451  1.00  0.00     0.000 C 
BRANCH   6   7
ATOM      7  C   UNL     1     124.475 135.020 127.922  1.00  0.00     0.000 C 
BRANCH   7   8
ATOM      8  C   UNL     1     123.129 134.920 128.653  1.00  0.00     0.006 C 
BRANCH   8   9
ATOM      9  C   UNL     1     121.937 134.997 127.691  1.00  0.00     0.053 C 
BRANCH   9  10
ATOM     10  C   UNL     1     121.269 136.338 127.737  1.00  0.00     0.041 C 
ATOM     11  O   UNL     1     120.876 136.813 128.835  1.00  0.00    -0.550 OA
ATOM     12  O   UNL     1     121.112 137.078 126.572  1.00  0.00    -0.550 OA
ENDBRANCH   9  10
ENDBRANCH   8   9
ENDBRANCH   7   8
ENDBRANCH   6   7
ENDBRANCH   5   6
ENDBRANCH   4   5
ENDBRANCH   3   4
ENDBRANCH   1   3
BRANCH   2  13
ATOM     13  C   UNL     1     123.009 130.872 129.594  1.00  0.00     0.027 C 
BRANCH  13  14
ATOM     14  C   UNL     1     122.957 129.372 129.261  1.00  0.00     0.004 C 
BRANCH  14  15
ATOM     15  C   UNL     1     121.553 128.907 128.844  1.00  0.00     0.000 C 
BRANCH  15  16
ATOM     16  C   UNL     1     121.394 127.377 128.906  1.00  0.00     0.000 C 
BRANCH  16  17
ATOM     17  C   UNL     1     121.702 126.690 127.564  1.00  0.00    -0.000 C 
BRANCH  17  18
ATOM     18  C   UNL     1     121.369 125.185 127.503  1.00  0.00    -0.000 C 
BRANCH  18  19
ATOM     19  C   UNL     1     121.108 124.521 128.866  1.00  0.00    -0.003 C 
ATOM     20  C   UNL     1     121.383 123.017 128.859  1.00  0.00     0.004 C 
ENDBRANCH  18  19
ENDBRANCH  17  18
ENDBRANCH  16  17
ENDBRANCH  15  16
ENDBRANCH  14  15
ENDBRANCH  13  14
ENDBRANCH   2  13
TORSDOF 15
ENDMDL
MODEL 7
REMARK VINA RESULT:     0.849      3.911      8.151
REMARK INTER + INTRA:           0.715
REMARK INTER:                   0.721
REMARK INTRA:                  -0.006
REMARK UNBOUND:                -0.878
REMARK SMILES CCCCCCCCC=CCCCCCCCC(=O)[O-]
REMARK SMILES IDX 10 1 9 2 11 3 12 4 13 5 14 6 15 7 16 8 17 9 18 10 19 11
REMARK SMILES IDX 20 12 8 13 7 14 6 15 5 16 4 17 3 18 2 19 1 20
REMARK H PARENT
REMARK Flexibility Score: inf
ROOT
ATOM      1  C   UNL     1     123.401 132.505 128.622  1.00  0.00    -0.031 C 
ATOM      2  C   UNL     1     123.116 133.784 128.913  1.00  0.00    -0.031 C 
ENDROOT
BRANCH   1   3
ATOM      3  C   UNL     1     122.974 131.379 129.522  1.00  0.00     0.027 C 
BRANCH   3   4
ATOM      4  C   UNL     1     122.992 130.035 128.777  1.00  0.00     0.004 C 
BRANCH   4   5
ATOM      5  C   UNL     1     121.651 129.292 128.866  1.00  0.00     0.000 C 
BRANCH   5   6
ATOM      6  C   UNL     1     121.820 127.804 129.212  1.00  0.00     0.000 C 
BRANCH   6   7
ATOM      7  C   UNL     1     121.681 126.931 127.959  1.00  0.00     0.000 C 
BRANCH   7   8
ATOM      8  C   UNL     1     120.883 125.655 128.263  1.00  0.00     0.006 C 
BRANCH   8   9
ATOM      9  C   UNL     1     121.535 124.404 127.661  1.00  0.00     0.053 C 
BRANCH   9  10
ATOM     10  C   UNL     1     121.587 123.274 128.645  1.00  0.00     0.041 C 
ATOM     11  O   UNL     1     121.700 122.087 128.241  1.00  0.00    -0.550 OA
ATOM     12  O   UNL     1     121.544 123.537 130.008  1.00  0.00    -0.550 OA
ENDBRANCH   9  10
ENDBRANCH   8   9
ENDBRANCH   7   8
ENDBRANCH   6   7
ENDBRANCH   5   6
ENDBRANCH   4   5
ENDBRANCH   3   4
ENDBRANCH   1   3
BRANCH   2  13
ATOM     13  C   UNL     1     123.541 134.910 128.011  1.00  0.00     0.027 C 
BRANCH  13  14
ATOM     14  C   UNL     1     124.397 134.391 126.845  1.00  0.00     0.004 C 
BRANCH  14  15
ATOM     15  C   UNL     1     125.490 133.411 127.303  1.00  0.00     0.000 C 
BRANCH  15  16
ATOM     16  C   UNL     1     125.792 132.329 126.252  1.00  0.00     0.000 C 
BRANCH  16  17
ATOM     17  C   UNL     1     124.613 132.081 125.294  1.00  0.00    -0.000 C 
BRANCH  17  18
ATOM     18  C   UNL     1     124.984 132.000 123.799  1.00  0.00    -0.000 C 
BRANCH  18  19
ATOM     19  C   UNL     1     125.997 133.056 123.323  1.00  0.00    -0.003 C 
ATOM     20  C   UNL     1     125.334 134.359 122.876  1.00  0.00     0.004 C 
ENDBRANCH  18  19
ENDBRANCH  17  18
ENDBRANCH  16  17
ENDBRANCH  15  16
ENDBRANCH  14  15
ENDBRANCH  13  14
ENDBRANCH   2  13
TORSDOF 15
ENDMDL
MODEL 8
REMARK VINA RESULT:     1.101      4.188      8.511
REMARK INTER + INTRA:           1.188
REMARK INTER:                   2.262
REMARK INTRA:                  -1.074
REMARK UNBOUND:                -0.878
REMARK SMILES CCCCCCCCC=CCCCCCCCC(=O)[O-]
REMARK SMILES IDX 10 1 9 2 11 3 12 4 13 5 14 6 15 7 16 8 17 9 18 10 19 11
REMARK SMILES IDX 20 12 8 13 7 14 6 15 5 16 4 17 3 18 2 19 1 20
REMARK H PARENT
REMARK Flexibility Score: inf
ROOT
ATOM      1  C   UNL     1     124.017 131.369 128.459  1.00  0.00    -0.031 C 
ATOM      2  C   UNL     1     123.979 132.087 127.326  1.00  0.00    -0.031 C 
ENDROOT
BRANCH   1   3
ATOM      3  C   UNL     1     122.759 130.951 129.169  1.00  0.00     0.027 C 
BRANCH   3   4
ATOM      4  C   UNL     1     122.694 129.425 129.332  1.00  0.00     0.004 C 
BRANCH   4   5
ATOM      5  C   UNL     1     121.393 128.826 128.776  1.00  0.00     0.000 C 
BRANCH   5   6
ATOM      6  C   UNL     1     121.333 127.298 128.924  1.00  0.00     0.000 C 
BRANCH   6   7
ATOM      7  C   UNL     1     121.735 126.603 127.618  1.00  0.00     0.000 C 
BRANCH   7   8
ATOM      8  C   UNL     1     121.175 125.175 127.558  1.00  0.00     0.006 C 
BRANCH   8   9
ATOM      9  C   UNL     1     120.933 124.586 128.954  1.00  0.00     0.053 C 
BRANCH   9  10
ATOM     10  C   UNL     1     121.616 123.263 129.126  1.00  0.00     0.041 C 
ATOM     11  O   UNL     1     122.208 122.991 130.203  1.00  0.00    -0.550 OA
ATOM     12  O   UNL     1     121.569 122.318 128.108  1.00  0.00    -0.550 OA
ENDBRANCH   9  10
ENDBRANCH   8   9
ENDBRANCH   7   8
ENDBRANCH   6   7
ENDBRANCH   5   6
ENDBRANCH   4   5
ENDBRANCH   3   4
ENDBRANCH   1   3
BRANCH   2  13
ATOM     13  C   UNL     1     125.237 132.502 126.614  1.00  0.00     0.027 C 
BRANCH  13  14
ATOM     14  C   UNL     1     125.295 134.028 126.440  1.00  0.00     0.004 C 
BRANCH  14  15
ATOM     15  C   UNL     1     123.951 134.710 126.744  1.00  0.00     0.000 C 
BRANCH  15  16
ATOM     16  C   UNL     1     123.925 135.370 128.134  1.00  0.00     0.000 C 
BRANCH  16  17
ATOM     17  C   UNL     1     122.685 134.979 128.958  1.00  0.00    -0.000 C 
BRANCH  17  18
ATOM     18  C   UNL     1     121.328 135.265 128.282  1.00  0.00    -0.000 C 
BRANCH  18  19
ATOM     19  C   UNL     1     120.927 136.749 128.231  1.00  0.00    -0.003 C 
ATOM     20  C   UNL     1     120.899 137.310 126.809  1.00  0.00     0.004 C 
ENDBRANCH  18  19
ENDBRANCH  17  18
ENDBRANCH  16  17
ENDBRANCH  15  16
ENDBRANCH  14  15
ENDBRANCH  13  14
ENDBRANCH   2  13
TORSDOF 15
ENDMDL
MODEL 9
REMARK VINA RESULT:     1.556      2.378      6.756
REMARK INTER + INTRA:           2.042
REMARK INTER:                   1.923
REMARK INTRA:                   0.119
REMARK UNBOUND:                -0.878
REMARK SMILES CCCCCCCCC=CCCCCCCCC(=O)[O-]
REMARK SMILES IDX 10 1 9 2 11 3 12 4 13 5 14 6 15 7 16 8 17 9 18 10 19 11
REMARK SMILES IDX 20 12 8 13 7 14 6 15 5 16 4 17 3 18 2 19 1 20
REMARK H PARENT
REMARK Flexibility Score: inf
ROOT
ATOM      1  C   UNL     1     124.662 134.060 126.916  1.00  0.00    -0.031 C 
ATOM      2  C   UNL     1     125.551 133.055 126.917  1.00  0.00    -0.031 C 
ENDROOT
BRANCH   1   3
ATOM      3  C   UNL     1     124.694 135.142 127.960  1.00  0.00     0.027 C 
BRANCH   3   4
ATOM      4  C   UNL     1     123.305 135.360 128.577  1.00  0.00     0.004 C 
BRANCH   4   5
ATOM      5  C   UNL     1     122.565 134.041 128.850  1.00  0.00     0.000 C 
BRANCH   5   6
ATOM      6  C   UNL     1     123.520 132.888 129.196  1.00  0.00     0.000 C 
BRANCH   6   7
ATOM      7  C   UNL     1     122.739 131.631 129.598  1.00  0.00     0.000 C 
BRANCH   7   8
ATOM      8  C   UNL     1     123.328 130.379 128.932  1.00  0.00     0.006 C 
BRANCH   8   9
ATOM      9  C   UNL     1     122.751 129.083 129.516  1.00  0.00     0.053 C 
BRANCH   9  10
ATOM     10  C   UNL     1     121.596 128.574 128.707  1.00  0.00     0.041 C 
ATOM     11  O   UNL     1     120.943 129.359 127.971  1.00  0.00    -0.550 OA
ATOM     12  O   UNL     1     121.265 127.225 128.739  1.00  0.00    -0.550 OA
ENDBRANCH   9  10
ENDBRANCH   8   9
ENDBRANCH   7   8
ENDBRANCH   6   7
ENDBRANCH   5   6
ENDBRANCH   4   5
ENDBRANCH   3   4
ENDBRANCH   1   3
BRANCH   2  13
ATOM     13  C   UNL     1     125.521 131.976 125.870  1.00  0.00     0.027 C 
BRANCH  13  14
ATOM     14  C   UNL     1     124.170 131.956 125.136  1.00  0.00     0.004 C 
BRANCH  14  15
ATOM     15  C   UNL     1     124.289 131.446 123.691  1.00  0.00     0.000 C 
BRANCH  15  16
ATOM     16  C   UNL     1     125.603 131.880 123.017  1.00  0.00     0.000 C 
BRANCH  16  17
ATOM     17  C   UNL     1     126.000 133.327 123.360  1.00  0.00    -0.000 C 
BRANCH  17  18
ATOM     18  C   UNL     1     124.970 134.405 122.963  1.00  0.00    -0.000 C 
BRANCH  18  19
ATOM     19  C   UNL     1     125.528 135.836 122.875  1.00  0.00    -0.003 C 
ATOM     20  C   UNL     1     126.555 136.143 123.966  1.00  0.00     0.004 C 
ENDBRANCH  18  19
ENDBRANCH  17  18
ENDBRANCH  16  17
ENDBRANCH  15  16
ENDBRANCH  14  15
ENDBRANCH  13  14
ENDBRANCH   2  13
TORSDOF 15
ENDMDL
