MODEL 1
REMARK VINA RESULT:    -1.127      0.000      0.000
REMARK INTER + INTRA:          -1.160
REMARK INTER:                  -1.160
REMARK INTRA:                   0.000
REMARK UNBOUND:                 0.000
REMARK SMILES Oc1ccc2[nH]ccc2c1
REMARK SMILES IDX 3 1 4 2 5 3 9 4 8 5 7 6 6 7 10 8 2 9 1 11
REMARK H PARENT 6 10 1 12
REMARK Flexibility Score: inf
ROOT
ATOM      1  C   UNL     1      18.533   8.729 133.035  1.00  0.00     0.048 A 
ATOM      2  C   UNL     1      17.280   9.208 133.459  1.00  0.00     0.030 A 
ATOM      3  C   UNL     1      16.172   8.931 132.659  1.00  0.00     0.046 A 
ATOM      4  C   UNL     1      16.284   8.216 131.497  1.00  0.00     0.003 A 
ATOM      5  C   UNL     1      15.023   8.118 130.951  1.00  0.00     0.028 A 
ATOM      6  C   UNL     1      14.191   8.797 131.835  1.00  0.00     0.083 A 
ATOM      7  N   UNL     1      14.896   9.292 132.877  1.00  0.00    -0.361 N 
ATOM      8  C   UNL     1      17.509   7.727 131.049  1.00  0.00     0.056 A 
ATOM      9  C   UNL     1      18.651   7.990 131.835  1.00  0.00     0.116 A 
ATOM     10  H   UNL     1      14.523   9.841 133.683  1.00  0.00     0.166 HD
ENDROOT
BRANCH   9  11
ATOM     11  O   UNL     1      19.903   7.526 131.437  1.00  0.00    -0.508 OA
ATOM     12  H   UNL     1      20.287   6.663 131.803  1.00  0.00     0.293 HD
ENDBRANCH   9  11
TORSDOF 1
ENDMDL
MODEL 2
REMARK VINA RESULT:    -1.072      2.653      4.117
REMARK INTER + INTRA:          -1.103
REMARK INTER:                  -1.103
REMARK INTRA:                   0.000
REMARK UNBOUND:                 0.000
REMARK SMILES Oc1ccc2[nH]ccc2c1
REMARK SMILES IDX 3 1 4 2 5 3 9 4 8 5 7 6 6 7 10 8 2 9 1 11
REMARK H PARENT 6 10 1 12
REMARK Flexibility Score: inf
ROOT
ATOM      1  C   UNL     1      14.457   8.384 131.524  1.00  0.00     0.048 A 
ATOM      2  C   UNL     1      15.656   7.977 130.909  1.00  0.00     0.030 A 
ATOM      3  C   UNL     1      16.854   8.280 131.553  1.00  0.00     0.046 A 
ATOM      4  C   UNL     1      16.880   8.950 132.747  1.00  0.00     0.003 A 
ATOM      5  C   UNL     1      18.201   9.089 133.112  1.00  0.00     0.028 A 
ATOM      6  C   UNL     1      18.926   8.481 132.093  1.00  0.00     0.083 A 
ATOM      7  N   UNL     1      18.099   7.987 131.142  1.00  0.00    -0.361 N 
ATOM      8  C   UNL     1      15.713   9.366 133.383  1.00  0.00     0.056 A 
ATOM      9  C   UNL     1      14.482   9.075 132.758  1.00  0.00     0.116 A 
ATOM     10  H   UNL     1      18.376   7.483 130.271  1.00  0.00     0.166 HD
ENDROOT
BRANCH   9  11
ATOM     11  O   UNL     1      13.282   9.467 133.347  1.00  0.00    -0.508 OA
ATOM     12  H   UNL     1      13.234  10.263 133.971  1.00  0.00     0.293 HD
ENDBRANCH   9  11
TORSDOF 1
ENDMDL
MODEL 3
REMARK VINA RESULT:    -0.813      2.411      3.715
REMARK INTER + INTRA:          -0.837
REMARK INTER:                  -0.837
REMARK INTRA:                   0.000
REMARK UNBOUND:                 0.000
REMARK SMILES Oc1ccc2[nH]ccc2c1
REMARK SMILES IDX 3 1 4 2 5 3 9 4 8 5 7 6 6 7 10 8 2 9 1 11
REMARK H PARENT 6 10 1 12
REMARK Flexibility Score: inf
ROOT
ATOM      1  C   UNL     1      14.492   7.997 130.495  1.00  0.00     0.048 A 
ATOM      2  C   UNL     1      15.327   9.115 130.312  1.00  0.00     0.030 A 
ATOM      3  C   UNL     1      16.473   9.207 131.099  1.00  0.00     0.046 A 
ATOM      4  C   UNL     1      16.790   8.249 132.025  1.00  0.00     0.003 A 
ATOM      5  C   UNL     1      17.968   8.632 132.626  1.00  0.00     0.028 A 
ATOM      6  C   UNL     1      18.313   9.834 132.018  1.00  0.00     0.083 A 
ATOM      7  N   UNL     1      17.398  10.182 131.085  1.00  0.00    -0.361 N 
ATOM      8  C   UNL     1      15.986   7.131 132.231  1.00  0.00     0.056 A 
ATOM      9  C   UNL     1      14.817   7.006 131.450  1.00  0.00     0.116 A 
ATOM     10  H   UNL     1      17.410  11.033 130.481  1.00  0.00     0.166 HD
ENDROOT
BRANCH   9  11
ATOM     11  O   UNL     1      13.973   5.909 131.613  1.00  0.00    -0.508 OA
ATOM     12  H   UNL     1      14.254   4.980 131.323  1.00  0.00     0.293 HD
ENDBRANCH   9  11
TORSDOF 1
ENDMDL
MODEL 4
REMARK VINA RESULT:    -0.701      1.846      1.958
REMARK INTER + INTRA:          -0.721
REMARK INTER:                  -0.721
REMARK INTRA:                   0.000
REMARK UNBOUND:                 0.000
REMARK SMILES Oc1ccc2[nH]ccc2c1
REMARK SMILES IDX 3 1 4 2 5 3 9 4 8 5 7 6 6 7 10 8 2 9 1 11
REMARK H PARENT 6 10 1 12
REMARK Flexibility Score: inf
ROOT
ATOM      1  C   UNL     1      18.267   9.113 132.265  1.00  0.00     0.048 A 
ATOM      2  C   UNL     1      17.414   8.061 132.645  1.00  0.00     0.030 A 
ATOM      3  C   UNL     1      16.197   7.935 131.976  1.00  0.00     0.046 A 
ATOM      4  C   UNL     1      15.831   8.800 130.979  1.00  0.00     0.003 A 
ATOM      5  C   UNL     1      14.590   8.407 130.530  1.00  0.00     0.028 A 
ATOM      6  C   UNL     1      14.259   7.296 131.298  1.00  0.00     0.083 A 
ATOM      7  N   UNL     1      15.244   7.010 132.180  1.00  0.00    -0.361 N 
ATOM      8  C   UNL     1      16.652   9.851 130.579  1.00  0.00     0.056 A 
ATOM      9  C   UNL     1      17.891  10.007 131.235  1.00  0.00     0.116 A 
ATOM     10  H   UNL     1      15.257   6.231 132.875  1.00  0.00     0.166 HD
ENDROOT
BRANCH   9  11
ATOM     11  O   UNL     1      18.754  11.040 130.878  1.00  0.00    -0.508 OA
ATOM     12  H   UNL     1      19.731  10.867 130.674  1.00  0.00     0.293 HD
ENDBRANCH   9  11
TORSDOF 1
ENDMDL
MODEL 5
REMARK VINA RESULT:    -0.570      7.569      8.849
REMARK INTER + INTRA:          -0.587
REMARK INTER:                  -0.587
REMARK INTRA:                   0.000
REMARK UNBOUND:                 0.000
REMARK SMILES Oc1ccc2[nH]ccc2c1
REMARK SMILES IDX 3 1 4 2 5 3 9 4 8 5 7 6 6 7 10 8 2 9 1 11
REMARK H PARENT 6 10 1 12
REMARK Flexibility Score: inf
ROOT
ATOM      1  C   UNL     1      13.644   8.318 126.199  1.00  0.00     0.048 A 
ATOM      2  C   UNL     1      13.946   8.771 124.902  1.00  0.00     0.030 A 
ATOM      3  C   UNL     1      13.633   7.936 123.831  1.00  0.00     0.046 A 
ATOM      4  C   UNL     1      13.051   6.711 124.020  1.00  0.00     0.003 A 
ATOM      5  C   UNL     1      12.875   6.143 122.777  1.00  0.00     0.028 A 
ATOM      6  C   UNL     1      13.373   7.079 121.876  1.00  0.00     0.083 A 
ATOM      7  N   UNL     1      13.835   8.173 122.524  1.00  0.00    -0.361 N 
ATOM      8  C   UNL     1      12.739   6.232 125.290  1.00  0.00     0.056 A 
ATOM      9  C   UNL     1      13.042   7.053 126.397  1.00  0.00     0.116 A 
ATOM     10  H   UNL     1      14.261   9.024 122.094  1.00  0.00     0.166 HD
ENDROOT
BRANCH   9  11
ATOM     11  O   UNL     1      12.753   6.627 127.691  1.00  0.00    -0.508 OA
ATOM     12  H   UNL     1      12.475   7.282 128.413  1.00  0.00     0.293 HD
ENDBRANCH   9  11
TORSDOF 1
ENDMDL
MODEL 6
REMARK VINA RESULT:    -0.290      7.747      8.924
REMARK INTER + INTRA:          -0.298
REMARK INTER:                  -0.298
REMARK INTRA:                   0.000
REMARK UNBOUND:                 0.000
REMARK SMILES Oc1ccc2[nH]ccc2c1
REMARK SMILES IDX 3 1 4 2 5 3 9 4 8 5 7 6 6 7 10 8 2 9 1 11
REMARK H PARENT 6 10 1 12
REMARK Flexibility Score: inf
ROOT
ATOM      1  C   UNL     1      21.836   5.428 140.554  1.00  0.00     0.048 A 
ATOM      2  C   UNL     1      22.226   6.124 139.394  1.00  0.00     0.030 A 
ATOM      3  C   UNL     1      21.241   6.807 138.683  1.00  0.00     0.046 A 
ATOM      4  C   UNL     1      19.933   6.811 139.087  1.00  0.00     0.003 A 
ATOM      5  C   UNL     1      19.224   7.567 138.180  1.00  0.00     0.028 A 
ATOM      6  C   UNL     1      20.165   7.994 137.248  1.00  0.00     0.083 A 
ATOM      7  N   UNL     1      21.396   7.527 137.559  1.00  0.00    -0.361 N 
ATOM      8  C   UNL     1      19.513   6.133 140.229  1.00  0.00     0.056 A 
ATOM      9  C   UNL     1      20.485   5.431 140.974  1.00  0.00     0.116 A 
ATOM     10  H   UNL     1      22.282   7.695 137.033  1.00  0.00     0.166 HD
ENDROOT
BRANCH   9  11
ATOM     11  O   UNL     1      20.125   4.734 142.125  1.00  0.00    -0.508 OA
ATOM     12  H   UNL     1      19.246   4.912 142.597  1.00  0.00     0.293 HD
ENDBRANCH   9  11
TORSDOF 1
ENDMDL
MODEL 7
REMARK VINA RESULT:    -0.233      2.290      3.515
REMARK INTER + INTRA:          -0.240
REMARK INTER:                  -0.240
REMARK INTRA:                   0.000
REMARK UNBOUND:                 0.000
REMARK SMILES Oc1ccc2[nH]ccc2c1
REMARK SMILES IDX 3 1 4 2 5 3 9 4 8 5 7 6 6 7 10 8 2 9 1 11
REMARK H PARENT 6 10 1 12
REMARK Flexibility Score: inf
ROOT
ATOM      1  C   UNL     1      14.732   8.912 132.316  1.00  0.00     0.048 A 
ATOM      2  C   UNL     1      15.804   9.350 133.114  1.00  0.00     0.030 A 
ATOM      3  C   UNL     1      17.081   8.885 132.803  1.00  0.00     0.046 A 
ATOM      4  C   UNL     1      17.299   8.029 131.757  1.00  0.00     0.003 A 
ATOM      5  C   UNL     1      18.650   7.764 131.717  1.00  0.00     0.028 A 
ATOM      6  C   UNL     1      19.195   8.493 132.770  1.00  0.00     0.083 A 
ATOM      7  N   UNL     1      18.232   9.176 133.430  1.00  0.00    -0.361 N 
ATOM      8  C   UNL     1      16.260   7.576 130.947  1.00  0.00     0.056 A 
ATOM      9  C   UNL     1      14.955   8.028 131.235  1.00  0.00     0.116 A 
ATOM     10  H   UNL     1      18.362   9.801 134.257  1.00  0.00     0.166 HD
ENDROOT
BRANCH   9  11
ATOM     11  O   UNL     1      13.876   7.608 130.460  1.00  0.00    -0.508 OA
ATOM     12  H   UNL     1      13.603   6.633 130.418  1.00  0.00     0.293 HD
ENDBRANCH   9  11
TORSDOF 1
ENDMDL
MODEL 8
REMARK VINA RESULT:    -0.023      1.677      1.974
REMARK INTER + INTRA:          -0.024
REMARK INTER:                  -0.024
REMARK INTRA:                   0.000
REMARK UNBOUND:                 0.000
REMARK SMILES Oc1ccc2[nH]ccc2c1
REMARK SMILES IDX 3 1 4 2 5 3 9 4 8 5 7 6 6 7 10 8 2 9 1 11
REMARK H PARENT 6 10 1 12
REMARK Flexibility Score: inf
ROOT
ATOM      1  C   UNL     1      17.624   9.829 131.657  1.00  0.00     0.048 A 
ATOM      2  C   UNL     1      16.467   9.835 130.857  1.00  0.00     0.030 A 
ATOM      3  C   UNL     1      15.656   8.702 130.877  1.00  0.00     0.046 A 
ATOM      4  C   UNL     1      15.962   7.611 131.646  1.00  0.00     0.003 A 
ATOM      5  C   UNL     1      14.972   6.674 131.444  1.00  0.00     0.028 A 
ATOM      6  C   UNL     1      14.095   7.262 130.538  1.00  0.00     0.083 A 
ATOM      7  N   UNL     1      14.516   8.501 130.195  1.00  0.00    -0.361 N 
ATOM      8  C   UNL     1      17.099   7.572 132.449  1.00  0.00     0.056 A 
ATOM      9  C   UNL     1      17.943   8.704 132.452  1.00  0.00     0.116 A 
ATOM     10  H   UNL     1      14.049   9.161 129.535  1.00  0.00     0.166 HD
ENDROOT
BRANCH   9  11
ATOM     11  O   UNL     1      19.094   8.723 133.236  1.00  0.00    -0.508 OA
ATOM     12  H   UNL     1      19.265   9.462 133.907  1.00  0.00     0.293 HD
ENDBRANCH   9  11
TORSDOF 1
ENDMDL
MODEL 9
REMARK VINA RESULT:     0.016      7.171      8.549
REMARK INTER + INTRA:           0.016
REMARK INTER:                   0.016
REMARK INTRA:                   0.000
REMARK UNBOUND:                 0.000
REMARK SMILES Oc1ccc2[nH]ccc2c1
REMARK SMILES IDX 3 1 4 2 5 3 9 4 8 5 7 6 6 7 10 8 2 9 1 11
REMARK H PARENT 6 10 1 12
REMARK Flexibility Score: inf
ROOT
ATOM      1  C   UNL     1      19.379   7.874 137.860  1.00  0.00     0.048 A 
ATOM      2  C   UNL     1      19.057   7.625 139.207  1.00  0.00     0.030 A 
ATOM      3  C   UNL     1      19.901   6.788 139.934  1.00  0.00     0.046 A 
ATOM      4  C   UNL     1      21.012   6.219 139.370  1.00  0.00     0.003 A 
ATOM      5  C   UNL     1      21.623   5.458 140.341  1.00  0.00     0.028 A 
ATOM      6  C   UNL     1      20.830   5.609 141.474  1.00  0.00     0.083 A 
ATOM      7  N   UNL     1      19.779   6.422 141.221  1.00  0.00    -0.361 N 
ATOM      8  C   UNL     1      21.359   6.445 138.040  1.00  0.00     0.056 A 
ATOM      9  C   UNL     1      20.525   7.288 137.275  1.00  0.00     0.116 A 
ATOM     10  H   UNL     1      19.030   6.705 141.891  1.00  0.00     0.166 HD
ENDROOT
BRANCH   9  11
ATOM     11  O   UNL     1      20.822   7.551 135.939  1.00  0.00    -0.508 OA
ATOM     12  H   UNL     1      20.840   6.811 135.247  1.00  0.00     0.293 HD
ENDBRANCH   9  11
TORSDOF 1
ENDMDL
