MODEL 1
REMARK VINA RESULT:    -2.631      0.000      0.000
REMARK INTER + INTRA:          -4.078
REMARK INTER:                  -3.554
REMARK INTRA:                  -0.523
REMARK UNBOUND:                -0.523
REMARK SMILES [NH3+]CCCC[C@H]([NH3+])C(=O)[O-]
REMARK SMILES IDX 4 1 3 2 2 3 1 4 5 8 6 9 7 10 8 14 9 15 10 16
REMARK H PARENT 1 5 1 6 1 7 7 11 7 12 7 13
REMARK Flexibility Score: inf
ROOT
ATOM      1  C   UNL     1      -4.461   6.364   0.078  1.00  0.00     0.012 C 
ENDROOT
BRANCH   1   2
ATOM      2  C   UNL     1      -3.439   5.213   0.115  1.00  0.00     0.061 C 
BRANCH   2   3
ATOM      3  C   UNL     1      -4.056   3.801   0.110  1.00  0.00     0.258 C 
BRANCH   3   4
ATOM      4  N   UNL     1      -4.094   3.205   1.447  1.00  0.00    -0.358 N 
ATOM      5  H   UNL     1      -4.434   3.902   2.148  1.00  0.00     0.344 HD
ATOM      6  H   UNL     1      -4.711   2.362   1.451  1.00  0.00     0.344 HD
ATOM      7  H   UNL     1      -3.128   2.905   1.713  1.00  0.00     0.344 HD
ENDBRANCH   3   4
ENDBRANCH   2   3
ENDBRANCH   1   2
BRANCH   1   8
ATOM      8  C   UNL     1      -5.894   5.882  -0.205  1.00  0.00     0.072 C 
BRANCH   8   9
ATOM      9  C   UNL     1      -6.816   6.040   1.024  1.00  0.00     0.227 C 
BRANCH   9  10
ATOM     10  N   UNL     1      -6.037   6.445   2.201  1.00  0.00    -0.350 N 
ATOM     11  H   UNL     1      -5.589   7.374   2.028  1.00  0.00     0.345 HD
ATOM     12  H   UNL     1      -5.280   5.746   2.382  1.00  0.00     0.345 HD
ATOM     13  H   UNL     1      -6.651   6.510   3.046  1.00  0.00     0.345 HD
ENDBRANCH   9  10
BRANCH   9  14
ATOM     14  C   UNL     1      -7.556   4.760   1.315  1.00  0.00     0.099 C 
ATOM     15  O   UNL     1      -8.700   4.565   0.824  1.00  0.00    -0.544 OA
ATOM     16  O   UNL     1      -6.984   3.787   2.125  1.00  0.00    -0.544 OA
ENDBRANCH   9  14
ENDBRANCH   8   9
ENDBRANCH   1   8
TORSDOF 7
ENDMDL
MODEL 2
REMARK VINA RESULT:    -2.628      2.587      4.512
REMARK INTER + INTRA:          -4.073
REMARK INTER:                  -3.955
REMARK INTRA:                  -0.118
REMARK UNBOUND:                -0.523
REMARK SMILES [NH3+]CCCC[C@H]([NH3+])C(=O)[O-]
REMARK SMILES IDX 4 1 3 2 2 3 1 4 5 8 6 9 7 10 8 14 9 15 10 16
REMARK H PARENT 1 5 1 6 1 7 7 11 7 12 7 13
REMARK Flexibility Score: inf
ROOT
ATOM      1  C   UNL     1      -3.709   5.223   0.308  1.00  0.00     0.012 C 
ENDROOT
BRANCH   1   2
ATOM      2  C   UNL     1      -4.748   6.094  -0.420  1.00  0.00     0.061 C 
BRANCH   2   3
ATOM      3  C   UNL     1      -6.146   6.111   0.227  1.00  0.00     0.258 C 
BRANCH   3   4
ATOM      4  N   UNL     1      -6.088   6.345   1.671  1.00  0.00    -0.358 N 
ATOM      5  H   UNL     1      -5.157   6.057   2.051  1.00  0.00     0.344 HD
ATOM      6  H   UNL     1      -6.266   7.352   1.883  1.00  0.00     0.344 HD
ATOM      7  H   UNL     1      -6.831   5.776   2.138  1.00  0.00     0.344 HD
ENDBRANCH   3   4
ENDBRANCH   2   3
ENDBRANCH   1   2
BRANCH   1   8
ATOM      8  C   UNL     1      -3.887   3.721   0.028  1.00  0.00     0.072 C 
BRANCH   8   9
ATOM      9  C   UNL     1      -2.605   2.915   0.334  1.00  0.00     0.227 C 
BRANCH   9  10
ATOM     10  N   UNL     1      -2.296   2.002  -0.774  1.00  0.00    -0.350 N 
ATOM     11  H   UNL     1      -3.169   1.781  -1.306  1.00  0.00     0.345 HD
ATOM     12  H   UNL     1      -1.907   1.107  -0.398  1.00  0.00     0.345 HD
ATOM     13  H   UNL     1      -1.597   2.433  -1.424  1.00  0.00     0.345 HD
ENDBRANCH   9  10
BRANCH   9  14
ATOM     14  C   UNL     1      -2.747   2.136   1.615  1.00  0.00     0.099 C 
ATOM     15  O   UNL     1      -3.716   2.360   2.387  1.00  0.00    -0.544 OA
ATOM     16  O   UNL     1      -1.811   1.166   1.954  1.00  0.00    -0.544 OA
ENDBRANCH   9  14
ENDBRANCH   8   9
ENDBRANCH   1   8
TORSDOF 7
ENDMDL
MODEL 3
REMARK VINA RESULT:    -2.621      2.104      3.667
REMARK INTER + INTRA:          -4.064
REMARK INTER:                  -3.577
REMARK INTRA:                  -0.487
REMARK UNBOUND:                -0.523
REMARK SMILES [NH3+]CCCC[C@H]([NH3+])C(=O)[O-]
REMARK SMILES IDX 4 1 3 2 2 3 1 4 5 8 6 9 7 10 8 14 9 15 10 16
REMARK H PARENT 1 5 1 6 1 7 7 11 7 12 7 13
REMARK Flexibility Score: inf
ROOT
ATOM      1  C   UNL     1      -4.981   5.864  -0.323  1.00  0.00     0.012 C 
ENDROOT
BRANCH   1   2
ATOM      2  C   UNL     1      -5.921   6.275   0.826  1.00  0.00     0.061 C 
BRANCH   2   3
ATOM      3  C   UNL     1      -5.231   6.455   2.192  1.00  0.00     0.258 C 
BRANCH   3   4
ATOM      4  N   UNL     1      -5.756   5.537   3.205  1.00  0.00    -0.358 N 
ATOM      5  H   UNL     1      -5.077   4.763   3.384  1.00  0.00     0.344 HD
ATOM      6  H   UNL     1      -5.955   6.051   4.093  1.00  0.00     0.344 HD
ATOM      7  H   UNL     1      -6.652   5.124   2.858  1.00  0.00     0.344 HD
ENDBRANCH   3   4
ENDBRANCH   2   3
ENDBRANCH   1   2
BRANCH   1   8
ATOM      8  C   UNL     1      -3.731   5.113   0.168  1.00  0.00     0.072 C 
BRANCH   8   9
ATOM      9  C   UNL     1      -3.864   3.584  -0.005  1.00  0.00     0.227 C 
BRANCH   9  10
ATOM     10  N   UNL     1      -5.159   3.247  -0.611  1.00  0.00    -0.350 N 
ATOM     11  H   UNL     1      -5.891   3.918  -0.280  1.00  0.00     0.345 HD
ATOM     12  H   UNL     1      -5.444   2.283  -0.322  1.00  0.00     0.345 HD
ATOM     13  H   UNL     1      -5.100   3.289  -1.654  1.00  0.00     0.345 HD
ENDBRANCH   9  10
BRANCH   9  14
ATOM     14  C   UNL     1      -3.716   2.874   1.315  1.00  0.00     0.099 C 
ATOM     15  O   UNL     1      -4.632   2.943   2.177  1.00  0.00    -0.544 OA
ATOM     16  O   UNL     1      -2.569   2.141   1.593  1.00  0.00    -0.544 OA
ENDBRANCH   9  14
ENDBRANCH   8   9
ENDBRANCH   1   8
TORSDOF 7
ENDMDL
MODEL 4
REMARK VINA RESULT:    -2.596      2.665      3.666
REMARK INTER + INTRA:          -4.030
REMARK INTER:                  -3.448
REMARK INTRA:                  -0.582
REMARK UNBOUND:                -0.523
REMARK SMILES [NH3+]CCCC[C@H]([NH3+])C(=O)[O-]
REMARK SMILES IDX 4 1 3 2 2 3 1 4 5 8 6 9 7 10 8 14 9 15 10 16
REMARK H PARENT 1 5 1 6 1 7 7 11 7 12 7 13
REMARK Flexibility Score: inf
ROOT
ATOM      1  C   UNL     1      -5.493   6.251   1.231  1.00  0.00     0.012 C 
ENDROOT
BRANCH   1   2
ATOM      2  C   UNL     1      -4.965   6.620   2.629  1.00  0.00     0.061 C 
BRANCH   2   3
ATOM      3  C   UNL     1      -4.918   5.452   3.633  1.00  0.00     0.258 C 
BRANCH   3   4
ATOM      4  N   UNL     1      -5.837   4.371   3.270  1.00  0.00    -0.358 N 
ATOM      5  H   UNL     1      -6.059   3.784   4.107  1.00  0.00     0.344 HD
ATOM      6  H   UNL     1      -6.716   4.763   2.864  1.00  0.00     0.344 HD
ATOM      7  H   UNL     1      -5.384   3.767   2.547  1.00  0.00     0.344 HD
ENDBRANCH   3   4
ENDBRANCH   2   3
ENDBRANCH   1   2
BRANCH   1   8
ATOM      8  C   UNL     1      -4.366   5.975   0.220  1.00  0.00     0.072 C 
BRANCH   8   9
ATOM      9  C   UNL     1      -4.401   4.525  -0.310  1.00  0.00     0.227 C 
BRANCH   9  10
ATOM     10  N   UNL     1      -5.761   3.978  -0.220  1.00  0.00    -0.350 N 
ATOM     11  H   UNL     1      -6.352   4.594   0.385  1.00  0.00     0.345 HD
ATOM     12  H   UNL     1      -5.733   3.026   0.211  1.00  0.00     0.345 HD
ATOM     13  H   UNL     1      -6.195   3.911  -1.170  1.00  0.00     0.345 HD
ENDBRANCH   9  10
BRANCH   9  14
ATOM     14  C   UNL     1      -3.445   3.646   0.453  1.00  0.00     0.099 C 
ATOM     15  O   UNL     1      -3.858   2.949   1.418  1.00  0.00    -0.544 OA
ATOM     16  O   UNL     1      -2.102   3.597   0.098  1.00  0.00    -0.544 OA
ENDBRANCH   9  14
ENDBRANCH   8   9
ENDBRANCH   1   8
TORSDOF 7
ENDMDL
MODEL 5
REMARK VINA RESULT:    -2.560      1.078      1.294
REMARK INTER + INTRA:          -3.981
REMARK INTER:                  -3.378
REMARK INTRA:                  -0.602
REMARK UNBOUND:                -0.523
REMARK SMILES [NH3+]CCCC[C@H]([NH3+])C(=O)[O-]
REMARK SMILES IDX 4 1 3 2 2 3 1 4 5 8 6 9 7 10 8 14 9 15 10 16
REMARK H PARENT 1 5 1 6 1 7 7 11 7 12 7 13
REMARK Flexibility Score: inf
ROOT
ATOM      1  C   UNL     1      -3.735   5.281   0.220  1.00  0.00     0.012 C 
ENDROOT
BRANCH   1   2
ATOM      2  C   UNL     1      -3.680   3.753   0.039  1.00  0.00     0.061 C 
BRANCH   2   3
ATOM      3  C   UNL     1      -3.739   2.944   1.349  1.00  0.00     0.258 C 
BRANCH   3   4
ATOM      4  N   UNL     1      -5.114   2.688   1.784  1.00  0.00    -0.358 N 
ATOM      5  H   UNL     1      -5.367   3.310   2.585  1.00  0.00     0.344 HD
ATOM      6  H   UNL     1      -5.779   2.836   0.991  1.00  0.00     0.344 HD
ATOM      7  H   UNL     1      -5.193   1.692   2.094  1.00  0.00     0.344 HD
ENDBRANCH   3   4
ENDBRANCH   2   3
ENDBRANCH   1   2
BRANCH   1   8
ATOM      8  C   UNL     1      -5.035   5.901  -0.323  1.00  0.00     0.072 C 
BRANCH   8   9
ATOM      9  C   UNL     1      -5.982   6.356   0.809  1.00  0.00     0.227 C 
BRANCH   9  10
ATOM     10  N   UNL     1      -5.303   6.274   2.109  1.00  0.00    -0.350 N 
ATOM     11  H   UNL     1      -4.343   5.877   1.985  1.00  0.00     0.345 HD
ATOM     12  H   UNL     1      -5.838   5.642   2.748  1.00  0.00     0.345 HD
ATOM     13  H   UNL     1      -5.229   7.221   2.547  1.00  0.00     0.345 HD
ENDBRANCH   9  10
BRANCH   9  14
ATOM     14  C   UNL     1      -7.237   5.525   0.833  1.00  0.00     0.099 C 
ATOM     15  O   UNL     1      -8.300   5.998   1.315  1.00  0.00    -0.544 OA
ATOM     16  O   UNL     1      -7.232   4.231   0.325  1.00  0.00    -0.544 OA
ENDBRANCH   9  14
ENDBRANCH   8   9
ENDBRANCH   1   8
TORSDOF 7
ENDMDL
MODEL 6
REMARK VINA RESULT:    -2.554      1.803      3.487
REMARK INTER + INTRA:          -3.973
REMARK INTER:                  -3.461
REMARK INTRA:                  -0.512
REMARK UNBOUND:                -0.523
REMARK SMILES [NH3+]CCCC[C@H]([NH3+])C(=O)[O-]
REMARK SMILES IDX 4 1 3 2 2 3 1 4 5 8 6 9 7 10 8 14 9 15 10 16
REMARK H PARENT 1 5 1 6 1 7 7 11 7 12 7 13
REMARK Flexibility Score: inf
ROOT
ATOM      1  C   UNL     1      -4.904   6.288   0.367  1.00  0.00     0.012 C 
ENDROOT
BRANCH   1   2
ATOM      2  C   UNL     1      -5.093   6.474   1.883  1.00  0.00     0.061 C 
BRANCH   2   3
ATOM      3  C   UNL     1      -6.529   6.236   2.389  1.00  0.00     0.258 C 
BRANCH   3   4
ATOM      4  N   UNL     1      -7.430   5.797   1.322  1.00  0.00    -0.358 N 
ATOM      5  H   UNL     1      -7.989   4.970   1.632  1.00  0.00     0.344 HD
ATOM      6  H   UNL     1      -8.068   6.576   1.042  1.00  0.00     0.344 HD
ATOM      7  H   UNL     1      -6.862   5.524   0.488  1.00  0.00     0.344 HD
ENDBRANCH   3   4
ENDBRANCH   2   3
ENDBRANCH   1   2
BRANCH   1   8
ATOM      8  C   UNL     1      -3.695   5.401   0.020  1.00  0.00     0.072 C 
BRANCH   8   9
ATOM      9  C   UNL     1      -3.834   3.975   0.598  1.00  0.00     0.227 C 
BRANCH   9  10
ATOM     10  N   UNL     1      -2.659   3.164   0.251  1.00  0.00    -0.350 N 
ATOM     11  H   UNL     1      -2.300   2.676   1.104  1.00  0.00     0.345 HD
ATOM     12  H   UNL     1      -1.899   3.781  -0.117  1.00  0.00     0.345 HD
ATOM     13  H   UNL     1      -2.904   2.452  -0.475  1.00  0.00     0.345 HD
ENDBRANCH   9  10
BRANCH   9  14
ATOM     14  C   UNL     1      -5.085   3.305   0.094  1.00  0.00     0.099 C 
ATOM     15  O   UNL     1      -6.040   3.072   0.882  1.00  0.00    -0.544 OA
ATOM     16  O   UNL     1      -5.196   2.939  -1.242  1.00  0.00    -0.544 OA
ENDBRANCH   9  14
ENDBRANCH   8   9
ENDBRANCH   1   8
TORSDOF 7
ENDMDL
MODEL 7
REMARK VINA RESULT:    -2.514     11.503     13.198
REMARK INTER + INTRA:          -3.919
REMARK INTER:                  -3.448
REMARK INTRA:                  -0.471
REMARK UNBOUND:                -0.523
REMARK SMILES [NH3+]CCCC[C@H]([NH3+])C(=O)[O-]
REMARK SMILES IDX 4 1 3 2 2 3 1 4 5 8 6 9 7 10 8 14 9 15 10 16
REMARK H PARENT 1 5 1 6 1 7 7 11 7 12 7 13
REMARK Flexibility Score: inf
ROOT
ATOM      1  C   UNL     1       3.661  -4.549  -0.388  1.00  0.00     0.012 C 
ENDROOT
BRANCH   1   2
ATOM      2  C   UNL     1       4.823  -5.324  -1.036  1.00  0.00     0.061 C 
BRANCH   2   3
ATOM      3  C   UNL     1       6.181  -5.165  -0.324  1.00  0.00     0.258 C 
BRANCH   3   4
ATOM      4  N   UNL     1       6.482  -3.768  -0.004  1.00  0.00    -0.358 N 
ATOM      5  H   UNL     1       5.974  -3.126  -0.655  1.00  0.00     0.344 HD
ATOM      6  H   UNL     1       6.219  -3.557   0.985  1.00  0.00     0.344 HD
ATOM      7  H   UNL     1       7.510  -3.609  -0.110  1.00  0.00     0.344 HD
ENDBRANCH   3   4
ENDBRANCH   2   3
ENDBRANCH   1   2
BRANCH   1   8
ATOM      8  C   UNL     1       3.014  -3.532  -1.345  1.00  0.00     0.072 C 
BRANCH   8   9
ATOM      9  C   UNL     1       3.041  -2.097  -0.774  1.00  0.00     0.227 C 
BRANCH   9  10
ATOM     10  N   UNL     1       1.700  -1.499  -0.825  1.00  0.00    -0.350 N 
ATOM     11  H   UNL     1       1.112  -1.879  -0.048  1.00  0.00     0.345 HD
ATOM     12  H   UNL     1       1.239  -1.742  -1.732  1.00  0.00     0.345 HD
ATOM     13  H   UNL     1       1.757  -0.458  -0.738  1.00  0.00     0.345 HD
ENDBRANCH   9  10
BRANCH   9  14
ATOM     14  C   UNL     1       4.017  -1.231  -1.528  1.00  0.00     0.099 C 
ATOM     15  O   UNL     1       5.214  -1.597  -1.662  1.00  0.00    -0.544 OA
ATOM     16  O   UNL     1       3.604  -0.025  -2.080  1.00  0.00    -0.544 OA
ENDBRANCH   9  14
ENDBRANCH   8   9
ENDBRANCH   1   8
TORSDOF 7
ENDMDL
MODEL 8
REMARK VINA RESULT:    -2.471     11.318     13.325
REMARK INTER + INTRA:          -3.860
REMARK INTER:                  -3.361
REMARK INTRA:                  -0.500
REMARK UNBOUND:                -0.523
REMARK SMILES [NH3+]CCCC[C@H]([NH3+])C(=O)[O-]
REMARK SMILES IDX 4 1 3 2 2 3 1 4 5 8 6 9 7 10 8 14 9 15 10 16
REMARK H PARENT 1 5 1 6 1 7 7 11 7 12 7 13
REMARK Flexibility Score: inf
ROOT
ATOM      1  C   UNL     1       3.005  -4.620  -1.550  1.00  0.00     0.012 C 
ENDROOT
BRANCH   1   2
ATOM      2  C   UNL     1       1.719  -3.778  -1.632  1.00  0.00     0.061 C 
BRANCH   2   3
ATOM      3  C   UNL     1       1.337  -3.052  -0.327  1.00  0.00     0.258 C 
BRANCH   3   4
ATOM      4  N   UNL     1       1.452  -1.597  -0.445  1.00  0.00    -0.358 N 
ATOM      5  H   UNL     1       1.059  -1.129   0.403  1.00  0.00     0.344 HD
ATOM      6  H   UNL     1       2.451  -1.322  -0.577  1.00  0.00     0.344 HD
ATOM      7  H   UNL     1       0.913  -1.281  -1.284  1.00  0.00     0.344 HD
ENDBRANCH   3   4
ENDBRANCH   2   3
ENDBRANCH   1   2
BRANCH   1   8
ATOM      8  C   UNL     1       3.890  -4.244  -0.348  1.00  0.00     0.072 C 
BRANCH   8   9
ATOM      9  C   UNL     1       5.241  -3.636  -0.787  1.00  0.00     0.227 C 
BRANCH   9  10
ATOM     10  N   UNL     1       6.347  -4.257  -0.048  1.00  0.00    -0.350 N 
ATOM     11  H   UNL     1       7.064  -3.534   0.194  1.00  0.00     0.345 HD
ATOM     12  H   UNL     1       6.806  -4.985  -0.642  1.00  0.00     0.345 HD
ATOM     13  H   UNL     1       5.999  -4.704   0.832  1.00  0.00     0.345 HD
ENDBRANCH   9  10
BRANCH   9  14
ATOM     14  C   UNL     1       5.258  -2.144  -0.576  1.00  0.00     0.099 C 
ATOM     15  O   UNL     1       6.136  -1.619   0.157  1.00  0.00    -0.544 OA
ATOM     16  O   UNL     1       4.305  -1.338  -1.188  1.00  0.00    -0.544 OA
ENDBRANCH   9  14
ENDBRANCH   8   9
ENDBRANCH   1   8
TORSDOF 7
ENDMDL
MODEL 9
REMARK VINA RESULT:    -2.460      2.281      2.836
REMARK INTER + INTRA:          -3.846
REMARK INTER:                  -3.360
REMARK INTRA:                  -0.486
REMARK UNBOUND:                -0.523
REMARK SMILES [NH3+]CCCC[C@H]([NH3+])C(=O)[O-]
REMARK SMILES IDX 4 1 3 2 2 3 1 4 5 8 6 9 7 10 8 14 9 15 10 16
REMARK H PARENT 1 5 1 6 1 7 7 11 7 12 7 13
REMARK Flexibility Score: inf
ROOT
ATOM      1  C   UNL     1      -5.720   6.233   0.768  1.00  0.00     0.012 C 
ENDROOT
BRANCH   1   2
ATOM      2  C   UNL     1      -4.548   6.241  -0.230  1.00  0.00     0.061 C 
BRANCH   2   3
ATOM      3  C   UNL     1      -3.422   5.237   0.087  1.00  0.00     0.258 C 
BRANCH   3   4
ATOM      4  N   UNL     1      -3.880   3.848   0.021  1.00  0.00    -0.358 N 
ATOM      5  H   UNL     1      -3.126   3.199   0.343  1.00  0.00     0.344 HD
ATOM      6  H   UNL     1      -4.737   3.720   0.604  1.00  0.00     0.344 HD
ATOM      7  H   UNL     1      -4.121   3.616  -0.970  1.00  0.00     0.344 HD
ENDBRANCH   3   4
ENDBRANCH   2   3
ENDBRANCH   1   2
BRANCH   1   8
ATOM      8  C   UNL     1      -5.275   6.514   2.214  1.00  0.00     0.072 C 
BRANCH   8   9
ATOM      9  C   UNL     1      -5.896   5.517   3.218  1.00  0.00     0.227 C 
BRANCH   9  10
ATOM     10  N   UNL     1      -6.394   6.227   4.403  1.00  0.00    -0.350 N 
ATOM     11  H   UNL     1      -5.922   5.860   5.262  1.00  0.00     0.345 HD
ATOM     12  H   UNL     1      -7.423   6.068   4.504  1.00  0.00     0.345 HD
ATOM     13  H   UNL     1      -6.212   7.254   4.322  1.00  0.00     0.345 HD
ENDBRANCH   9  10
BRANCH   9  14
ATOM     14  C   UNL     1      -4.895   4.470   3.631  1.00  0.00     0.099 C 
ATOM     15  O   UNL     1      -4.264   4.590   4.715  1.00  0.00    -0.544 OA
ATOM     16  O   UNL     1      -4.660   3.366   2.821  1.00  0.00    -0.544 OA
ENDBRANCH   9  14
ENDBRANCH   8   9
ENDBRANCH   1   8
TORSDOF 7
ENDMDL
