MODEL 1
REMARK VINA RESULT:    -6.684      0.000      0.000
REMARK INTER + INTRA:         -10.326
REMARK INTER:                  -9.029
REMARK INTRA:                  -1.297
REMARK UNBOUND:                -1.297
REMARK SMILES COc1ccc([C@@H]2CC(=O)c3c(O)cc(O[C@@H]4O[C@H](CO[C@H]5O[C@H](C)[C@H](O)[C@H](O)[C@@H]5O)[C@H](O)[C@@H](O)[C@H]4O)cc3O2)cc1O
REMARK SMILES IDX 19 1 32 2 34 3 36 4 17 5 18 6 20 7 21 8 22 9 25 10 24 11
REMARK SMILES IDX 26 12 23 13 28 14 30 15 27 16 29 18 31 20 33 22 35 24 16 26
REMARK SMILES IDX 15 27 14 28 38 29 12 30 39 31 11 32 40 33 9 34 7 35 10 36
REMARK SMILES IDX 8 37 13 38 6 40 41 41 5 42 42 43 4 44 3 45 43 46 2 48 1 49
REMARK SMILES IDX 37 50
REMARK H PARENT 27 17 29 19 31 21 33 23 35 25 13 39 43 47 37 51
REMARK Flexibility Score: inf
ROOT
ATOM      1  C   UNL     1      17.687  -7.325  13.272  1.00  0.00     0.180 C 
ATOM      2  C   UNL     1      17.205  -7.906  11.808  1.00  0.00     0.177 C 
ATOM      3  C   UNL     1      18.415  -7.340  11.134  1.00  0.00     0.180 C 
ATOM      4  C   UNL     1      18.959  -5.765  11.595  1.00  0.00     0.214 C 
ATOM      5  C   UNL     1      18.535  -5.099  13.443  1.00  0.00     0.339 C 
ATOM      6  O   UNL     1      17.338  -5.929  13.487  1.00  0.00    -0.332 OA
ENDROOT
BRANCH   1   7
ATOM      7  C   UNL     1      19.316  -7.452  13.709  1.00  0.00     0.198 C 
BRANCH   7   8
ATOM      8  O   UNL     1      19.966  -8.036  15.002  1.00  0.00    -0.347 OA
BRANCH   8   9
ATOM      9  C   UNL     1      20.548  -8.653  16.369  1.00  0.00     0.281 C 
ATOM     10  C   UNL     1      23.445  -9.335  17.567  1.00  0.00     0.041 C 
ATOM     11  C   UNL     1      22.291  -8.469  18.208  1.00  0.00     0.150 C 
ATOM     12  C   UNL     1      21.288  -8.412  19.700  1.00  0.00     0.174 C 
ATOM     13  O   UNL     1      21.642  -7.856  17.032  1.00  0.00    -0.344 OA
ATOM     14  C   UNL     1      19.891  -7.894  18.866  1.00  0.00     0.179 C 
ATOM     15  C   UNL     1      19.455  -8.838  17.599  1.00  0.00     0.202 C 
BRANCH  12  16
ATOM     16  O   UNL     1      20.567  -8.917  20.833  1.00  0.00    -0.388 OA
ATOM     17  H   UNL     1      19.567  -8.968  20.835  1.00  0.00     0.211 HD
ENDBRANCH  12  16
BRANCH  14  18
ATOM     18  O   UNL     1      18.782  -7.341  19.726  1.00  0.00    -0.387 OA
ATOM     19  H   UNL     1      19.013  -6.447  20.087  1.00  0.00     0.211 HD
ENDBRANCH  14  18
BRANCH  15  20
ATOM     20  O   UNL     1      18.796 -10.076  17.788  1.00  0.00    -0.385 OA
ATOM     21  H   UNL     1      17.788  -9.996  17.894  1.00  0.00     0.211 HD
ENDBRANCH  15  20
ENDBRANCH   8   9
ENDBRANCH   7   8
ENDBRANCH   1   7
BRANCH   2  22
ATOM     22  O   UNL     1      17.160  -9.355  11.698  1.00  0.00    -0.387 OA
ATOM     23  H   UNL     1      17.134  -9.577  10.704  1.00  0.00     0.211 HD
ENDBRANCH   2  22
BRANCH   3  24
ATOM     24  O   UNL     1      18.406  -7.383   9.684  1.00  0.00    -0.387 OA
ATOM     25  H   UNL     1      19.253  -6.933   9.404  1.00  0.00     0.211 HD
ENDBRANCH   3  24
BRANCH   5  26
ATOM     26  O   UNL     1      19.361  -5.013  15.134  1.00  0.00    -0.462 OA
BRANCH  26  27
ATOM     27  C   UNL     1      20.761  -4.814  16.252  1.00  0.00     0.130 A 
ATOM     28  C   UNL     1      20.626  -3.965  17.480  1.00  0.00     0.093 A 
ATOM     29  C   UNL     1      22.458  -4.496  16.367  1.00  0.00     0.094 A 
ATOM     30  C   UNL     1      21.201  -2.631  17.496  1.00  0.00     0.133 A 
ATOM     31  C   UNL     1      23.394  -3.342  17.330  1.00  0.00     0.138 A 
ATOM     32  C   UNL     1      22.493  -2.575  18.138  1.00  0.00     0.102 A 
ATOM     33  O   UNL     1      24.723  -2.535  17.320  1.00  0.00    -0.484 OA
ATOM     34  C   UNL     1      23.222  -1.639  19.206  1.00  0.00     0.174 C 
ATOM     35  C   UNL     1      25.504  -1.751  18.539  1.00  0.00     0.211 C 
ATOM     36  O   UNL     1      22.597  -0.591  19.620  1.00  0.00    -0.294 OA
ATOM     37  C   UNL     1      24.595  -2.089  19.661  1.00  0.00     0.131 C 
BRANCH  30  38
ATOM     38  O   UNL     1      20.486  -1.490  17.169  1.00  0.00    -0.507 OA
ATOM     39  H   UNL     1      20.695  -0.824  17.881  1.00  0.00     0.293 HD
ENDBRANCH  30  38
BRANCH  35  40
ATOM     40  C   UNL     1      27.036  -1.003  19.359  1.00  0.00    -0.003 A 
ATOM     41  C   UNL     1      28.646  -1.108  19.945  1.00  0.00     0.057 A 
ATOM     42  C   UNL     1      26.903   0.467  19.858  1.00  0.00     0.011 A 
ATOM     43  C   UNL     1      29.981  -0.114  20.918  1.00  0.00     0.158 A 
ATOM     44  C   UNL     1      27.754   0.727  21.133  1.00  0.00     0.051 A 
ATOM     45  C   UNL     1      28.860  -0.313  20.962  1.00  0.00     0.160 A 
BRANCH  43  46
ATOM     46  O   UNL     1      30.618   1.342  21.278  1.00  0.00    -0.504 OA
ATOM     47  H   UNL     1      30.736   1.619  22.251  1.00  0.00     0.293 HD
ENDBRANCH  43  46
BRANCH  45  48
ATOM     48  O   UNL     1      30.477  -0.843  21.408  1.00  0.00    -0.493 OA
ATOM     49  C   UNL     1      32.068  -1.074  21.555  1.00  0.00     0.278 C 
ENDBRANCH  45  48
ENDBRANCH  35  40
ENDBRANCH  26  27
ENDBRANCH   5  26
BRANCH   4  50
ATOM     50  O   UNL     1      18.897  -4.810  10.530  1.00  0.00    -0.384 OA
ATOM     51  H   UNL     1      18.467  -4.198   9.795  1.00  0.00     0.211 HD
ENDBRANCH   4  50
TORSDOF 15
ENDMDL
MODEL 2
REMARK VINA RESULT:    -6.418      3.865      6.038
REMARK INTER + INTRA:          -9.966
REMARK INTER:                  -9.230
REMARK INTRA:                  -0.736
REMARK UNBOUND:                -1.297
REMARK SMILES COc1ccc([C@@H]2CC(=O)c3c(O)cc(O[C@@H]4O[C@H](CO[C@H]5O[C@H](C)[C@H](O)[C@H](O)[C@@H]5O)[C@H](O)[C@@H](O)[C@H]4O)cc3O2)cc1O
REMARK SMILES IDX 19 1 32 2 34 3 36 4 17 5 18 6 20 7 21 8 22 9 25 10 24 11
REMARK SMILES IDX 26 12 23 13 28 14 30 15 27 16 29 18 31 20 33 22 35 24 16 26
REMARK SMILES IDX 15 27 14 28 38 29 12 30 39 31 11 32 40 33 9 34 7 35 10 36
REMARK SMILES IDX 8 37 13 38 6 40 41 41 5 42 42 43 4 44 3 45 43 46 2 48 1 49
REMARK SMILES IDX 37 50
REMARK H PARENT 27 17 29 19 31 21 33 23 35 25 13 39 43 47 37 51
REMARK Flexibility Score: inf
ROOT
ATOM      1  C   UNL     1      18.793  -6.894  20.658  1.00  0.00     0.180 C 
ATOM      2  C   UNL     1      17.631  -8.062  20.712  1.00  0.00     0.177 C 
ATOM      3  C   UNL     1      17.257  -7.817  19.284  1.00  0.00     0.180 C 
ATOM      4  C   UNL     1      17.186  -6.188  18.714  1.00  0.00     0.214 C 
ATOM      5  C   UNL     1      18.315  -4.796  19.622  1.00  0.00     0.339 C 
ATOM      6  O   UNL     1      18.275  -5.551  20.869  1.00  0.00    -0.332 OA
ENDROOT
BRANCH   1   7
ATOM      7  C   UNL     1      19.784  -6.784  19.292  1.00  0.00     0.198 C 
BRANCH   7   8
ATOM      8  O   UNL     1      19.883  -7.720  18.047  1.00  0.00    -0.347 OA
BRANCH   8   9
ATOM      9  C   UNL     1      20.034  -8.614  16.718  1.00  0.00     0.281 C 
ATOM     10  C   UNL     1      18.055 -10.122  14.692  1.00  0.00     0.041 C 
ATOM     11  C   UNL     1      19.194  -9.078  14.366  1.00  0.00     0.150 C 
ATOM     12  C   UNL     1      20.692  -8.949  13.379  1.00  0.00     0.174 C 
ATOM     13  O   UNL     1      19.183  -8.193  15.547  1.00  0.00    -0.344 OA
ATOM     14  C   UNL     1      21.508  -8.011  14.549  1.00  0.00     0.179 C 
ATOM     15  C   UNL     1      21.548  -8.666  16.051  1.00  0.00     0.202 C 
BRANCH  12  16
ATOM     16  O   UNL     1      21.891  -9.389  12.724  1.00  0.00    -0.388 OA
ATOM     17  H   UNL     1      22.523  -8.737  12.301  1.00  0.00     0.211 HD
ENDBRANCH  12  16
BRANCH  14  18
ATOM     18  O   UNL     1      22.752  -7.306  14.071  1.00  0.00    -0.387 OA
ATOM     19  H   UNL     1      23.243  -6.885  14.824  1.00  0.00     0.211 HD
ENDBRANCH  14  18
BRANCH  15  20
ATOM     20  O   UNL     1      22.437  -9.718  16.378  1.00  0.00    -0.385 OA
ATOM     21  H   UNL     1      21.975 -10.558  16.718  1.00  0.00     0.211 HD
ENDBRANCH  15  20
ENDBRANCH   8   9
ENDBRANCH   7   8
ENDBRANCH   1   7
BRANCH   2  22
ATOM     22  O   UNL     1      18.121  -9.416  20.912  1.00  0.00    -0.387 OA
ATOM     23  H   UNL     1      17.372  -9.939  21.365  1.00  0.00     0.211 HD
ENDBRANCH   2  22
BRANCH   3  24
ATOM     24  O   UNL     1      16.053  -8.485  18.827  1.00  0.00    -0.387 OA
ATOM     25  H   UNL     1      15.916  -8.165  17.890  1.00  0.00     0.211 HD
ENDBRANCH   3  24
BRANCH   5  26
ATOM     26  O   UNL     1      19.992  -3.969  19.387  1.00  0.00    -0.462 OA
BRANCH  26  27
ATOM     27  C   UNL     1      21.610  -3.761  18.620  1.00  0.00     0.130 A 
ATOM     28  C   UNL     1      22.643  -2.890  19.271  1.00  0.00     0.093 A 
ATOM     29  C   UNL     1      22.457  -3.453  17.144  1.00  0.00     0.094 A 
ATOM     30  C   UNL     1      22.894  -1.561  18.743  1.00  0.00     0.133 A 
ATOM     31  C   UNL     1      23.720  -2.289  16.712  1.00  0.00     0.138 A 
ATOM     32  C   UNL     1      24.039  -1.502  17.865  1.00  0.00     0.102 A 
ATOM     33  O   UNL     1      24.287  -1.491  15.504  1.00  0.00    -0.484 OA
ATOM     34  C   UNL     1      25.308  -0.554  17.669  1.00  0.00     0.174 C 
ATOM     35  C   UNL     1      25.716  -0.693  15.328  1.00  0.00     0.211 C 
ATOM     36  O   UNL     1      25.391   0.506  18.398  1.00  0.00    -0.294 OA
ATOM     37  C   UNL     1      26.326  -1.005  16.643  1.00  0.00     0.131 C 
BRANCH  30  38
ATOM     38  O   UNL     1      22.272  -0.420  19.226  1.00  0.00    -0.507 OA
ATOM     39  H   UNL     1      21.444  -0.310  18.681  1.00  0.00     0.293 HD
ENDBRANCH  30  38
BRANCH  35  40
ATOM     40  C   UNL     1      27.118   0.058  14.304  1.00  0.00    -0.003 A 
ATOM     41  C   UNL     1      28.765   0.476  14.064  1.00  0.00     0.057 A 
ATOM     42  C   UNL     1      26.706   0.729  12.958  1.00  0.00     0.011 A 
ATOM     43  C   UNL     1      29.938   1.424  12.863  1.00  0.00     0.158 A 
ATOM     44  C   UNL     1      27.617   1.940  12.610  1.00  0.00     0.051 A 
ATOM     45  C   UNL     1      28.907   1.550  13.332  1.00  0.00     0.160 A 
BRANCH  43  46
ATOM     46  O   UNL     1      30.257   1.884  11.332  1.00  0.00    -0.504 OA
ATOM     47  H   UNL     1      29.609   2.494  10.839  1.00  0.00     0.293 HD
ENDBRANCH  43  46
BRANCH  45  48
ATOM     48  O   UNL     1      30.643   1.781  13.489  1.00  0.00    -0.493 OA
ATOM     49  C   UNL     1      32.133   2.266  13.880  1.00  0.00     0.278 C 
ENDBRANCH  45  48
ENDBRANCH  35  40
ENDBRANCH  26  27
ENDBRANCH   5  26
BRANCH   4  50
ATOM     50  O   UNL     1      15.875  -5.789  18.298  1.00  0.00    -0.384 OA
ATOM     51  H   UNL     1      14.926  -5.872  17.859  1.00  0.00     0.211 HD
ENDBRANCH   4  50
TORSDOF 15
ENDMDL
MODEL 3
REMARK VINA RESULT:    -6.130      4.462     14.577
REMARK INTER + INTRA:          -9.578
REMARK INTER:                  -8.538
REMARK INTRA:                  -1.040
REMARK UNBOUND:                -1.297
REMARK SMILES COc1ccc([C@@H]2CC(=O)c3c(O)cc(O[C@@H]4O[C@H](CO[C@H]5O[C@H](C)[C@H](O)[C@H](O)[C@@H]5O)[C@H](O)[C@@H](O)[C@H]4O)cc3O2)cc1O
REMARK SMILES IDX 19 1 32 2 34 3 36 4 17 5 18 6 20 7 21 8 22 9 25 10 24 11
REMARK SMILES IDX 26 12 23 13 28 14 30 15 27 16 29 18 31 20 33 22 35 24 16 26
REMARK SMILES IDX 15 27 14 28 38 29 12 30 39 31 11 32 40 33 9 34 7 35 10 36
REMARK SMILES IDX 8 37 13 38 6 40 41 41 5 42 42 43 4 44 3 45 43 46 2 48 1 49
REMARK SMILES IDX 37 50
REMARK H PARENT 27 17 29 19 31 21 33 23 35 25 13 39 43 47 37 51
REMARK Flexibility Score: inf
ROOT
ATOM      1  C   UNL     1      32.468   1.371  21.594  1.00  0.00     0.180 C 
ATOM      2  C   UNL     1      33.963   1.208  22.270  1.00  0.00     0.177 C 
ATOM      3  C   UNL     1      34.030  -0.235  21.882  1.00  0.00     0.180 C 
ATOM      4  C   UNL     1      32.610  -1.205  22.051  1.00  0.00     0.214 C 
ATOM      5  C   UNL     1      30.813  -0.310  21.964  1.00  0.00     0.339 C 
ATOM      6  O   UNL     1      31.388   0.933  22.463  1.00  0.00    -0.332 OA
ENDROOT
BRANCH   1   7
ATOM      7  C   UNL     1      32.162   0.645  20.097  1.00  0.00     0.198 C 
BRANCH   7   8
ATOM      8  O   UNL     1      32.524   1.125  18.657  1.00  0.00    -0.347 OA
BRANCH   8   9
ATOM      9  C   UNL     1      32.810   1.589  17.143  1.00  0.00     0.281 C 
ATOM     10  C   UNL     1      31.066   2.634  14.661  1.00  0.00     0.041 C 
ATOM     11  C   UNL     1      32.339   3.296  15.322  1.00  0.00     0.150 C 
ATOM     12  C   UNL     1      33.987   3.852  14.864  1.00  0.00     0.174 C 
ATOM     13  O   UNL     1      32.213   2.914  16.741  1.00  0.00    -0.344 OA
ATOM     14  C   UNL     1      34.679   3.353  16.343  1.00  0.00     0.179 C 
ATOM     15  C   UNL     1      34.403   1.786  16.738  1.00  0.00     0.202 C 
BRANCH  12  16
ATOM     16  O   UNL     1      35.232   3.865  14.150  1.00  0.00    -0.388 OA
ATOM     17  H   UNL     1      35.443   3.171  13.459  1.00  0.00     0.211 HD
ENDBRANCH  12  16
BRANCH  14  18
ATOM     18  O   UNL     1      36.048   3.908  16.645  1.00  0.00    -0.387 OA
ATOM     19  H   UNL     1      36.102   4.258  17.572  1.00  0.00     0.211 HD
ENDBRANCH  14  18
BRANCH  15  20
ATOM     20  O   UNL     1      35.120   0.729  16.127  1.00  0.00    -0.385 OA
ATOM     21  H   UNL     1      36.082   0.645  16.445  1.00  0.00     0.211 HD
ENDBRANCH  15  20
ENDBRANCH   8   9
ENDBRANCH   7   8
ENDBRANCH   1   7
BRANCH   2  22
ATOM     22  O   UNL     1      35.018   1.982  21.637  1.00  0.00    -0.387 OA
ATOM     23  H   UNL     1      34.831   2.963  21.842  1.00  0.00     0.211 HD
ENDBRANCH   2  22
BRANCH   3  24
ATOM     24  O   UNL     1      35.133  -0.987  22.450  1.00  0.00    -0.387 OA
ATOM     25  H   UNL     1      35.822  -0.303  22.687  1.00  0.00     0.211 HD
ENDBRANCH   3  24
BRANCH   5  26
ATOM     26  O   UNL     1      29.469   0.031  20.688  1.00  0.00    -0.462 OA
BRANCH  26  27
ATOM     27  C   UNL     1      27.982  -0.360  19.747  1.00  0.00     0.130 A 
ATOM     28  C   UNL     1      26.815   0.580  19.762  1.00  0.00     0.093 A 
ATOM     29  C   UNL     1      26.832  -1.589  19.349  1.00  0.00     0.094 A 
ATOM     30  C   UNL     1      25.652   0.266  20.573  1.00  0.00     0.133 A 
ATOM     31  C   UNL     1      25.062  -1.622  19.378  1.00  0.00     0.138 A 
ATOM     32  C   UNL     1      24.582  -0.347  19.823  1.00  0.00     0.102 A 
ATOM     33  O   UNL     1      23.859  -2.592  19.547  1.00  0.00    -0.484 OA
ATOM     34  C   UNL     1      23.000  -0.173  19.698  1.00  0.00     0.174 C 
ATOM     35  C   UNL     1      22.262  -2.382  19.206  1.00  0.00     0.211 C 
ATOM     36  O   UNL     1      22.419   0.669  20.481  1.00  0.00    -0.294 OA
ATOM     37  C   UNL     1      22.318  -1.013  18.638  1.00  0.00     0.131 C 
BRANCH  30  38
ATOM     38  O   UNL     1      25.477   0.734  21.866  1.00  0.00    -0.507 OA
ATOM     39  H   UNL     1      25.245  -0.065  22.416  1.00  0.00     0.293 HD
ENDBRANCH  30  38
BRANCH  35  40
ATOM     40  C   UNL     1      20.523  -3.009  18.802  1.00  0.00    -0.003 A 
ATOM     41  C   UNL     1      19.076  -2.977  17.880  1.00  0.00     0.057 A 
ATOM     42  C   UNL     1      19.948  -4.105  19.749  1.00  0.00     0.011 A 
ATOM     43  C   UNL     1      17.302  -3.727  17.802  1.00  0.00     0.158 A 
ATOM     44  C   UNL     1      18.405  -3.985  19.907  1.00  0.00     0.051 A 
ATOM     45  C   UNL     1      18.028  -3.324  18.582  1.00  0.00     0.160 A 
BRANCH  43  46
ATOM     46  O   UNL     1      16.337  -5.008  18.095  1.00  0.00    -0.504 OA
ATOM     47  H   UNL     1      16.615  -5.708  18.780  1.00  0.00     0.293 HD
ENDBRANCH  43  46
BRANCH  45  48
ATOM     48  O   UNL     1      16.765  -2.968  17.411  1.00  0.00    -0.493 OA
ATOM     49  C   UNL     1      15.882  -2.710  16.083  1.00  0.00     0.278 C 
ENDBRANCH  45  48
ENDBRANCH  35  40
ENDBRANCH  26  27
ENDBRANCH   5  26
BRANCH   4  50
ATOM     50  O   UNL     1      32.760  -2.271  22.995  1.00  0.00    -0.384 OA
ATOM     51  H   UNL     1      32.578  -2.841  23.856  1.00  0.00     0.211 HD
ENDBRANCH   4  50
TORSDOF 15
ENDMDL
MODEL 4
REMARK VINA RESULT:    -5.998      3.604     14.103
REMARK INTER + INTRA:          -9.399
REMARK INTER:                  -8.388
REMARK INTRA:                  -1.011
REMARK UNBOUND:                -1.297
REMARK SMILES COc1ccc([C@@H]2CC(=O)c3c(O)cc(O[C@@H]4O[C@H](CO[C@H]5O[C@H](C)[C@H](O)[C@H](O)[C@@H]5O)[C@H](O)[C@@H](O)[C@H]4O)cc3O2)cc1O
REMARK SMILES IDX 19 1 32 2 34 3 36 4 17 5 18 6 20 7 21 8 22 9 25 10 24 11
REMARK SMILES IDX 26 12 23 13 28 14 30 15 27 16 29 18 31 20 33 22 35 24 16 26
REMARK SMILES IDX 15 27 14 28 38 29 12 30 39 31 11 32 40 33 9 34 7 35 10 36
REMARK SMILES IDX 8 37 13 38 6 40 41 41 5 42 42 43 4 44 3 45 43 46 2 48 1 49
REMARK SMILES IDX 37 50
REMARK H PARENT 27 17 29 19 31 21 33 23 35 25 13 39 43 47 37 51
REMARK Flexibility Score: inf
ROOT
ATOM      1  C   UNL     1      30.445   1.300  21.514  1.00  0.00     0.180 C 
ATOM      2  C   UNL     1      31.849   1.302  22.378  1.00  0.00     0.177 C 
ATOM      3  C   UNL     1      32.380   0.138  21.602  1.00  0.00     0.180 C 
ATOM      4  C   UNL     1      31.305  -1.155  21.208  1.00  0.00     0.214 C 
ATOM      5  C   UNL     1      29.340  -0.766  21.054  1.00  0.00     0.339 C 
ATOM      6  O   UNL     1      29.467   0.339  21.996  1.00  0.00    -0.332 OA
ENDROOT
BRANCH   1   7
ATOM      7  C   UNL     1      30.514   1.068  19.839  1.00  0.00     0.198 C 
BRANCH   7   8
ATOM      8  O   UNL     1      31.514   1.641  18.787  1.00  0.00    -0.347 OA
BRANCH   8   9
ATOM      9  C   UNL     1      32.612   2.234  17.771  1.00  0.00     0.281 C 
ATOM     10  C   UNL     1      35.793   2.648  17.767  1.00  0.00     0.041 C 
ATOM     11  C   UNL     1      34.891   1.924  16.693  1.00  0.00     0.150 C 
ATOM     12  C   UNL     1      34.513   2.014  14.936  1.00  0.00     0.174 C 
ATOM     13  O   UNL     1      33.803   1.348  17.506  1.00  0.00    -0.344 OA
ATOM     14  C   UNL     1      32.868   1.619  15.164  1.00  0.00     0.179 C 
ATOM     15  C   UNL     1      32.074   2.566  16.241  1.00  0.00     0.202 C 
BRANCH  12  16
ATOM     16  O   UNL     1      34.311   2.623  13.653  1.00  0.00    -0.388 OA
ATOM     17  H   UNL     1      35.072   2.762  13.016  1.00  0.00     0.211 HD
ENDBRANCH  12  16
BRANCH  14  18
ATOM     18  O   UNL     1      32.115   1.209  13.923  1.00  0.00    -0.387 OA
ATOM     19  H   UNL     1      32.733   1.007  13.173  1.00  0.00     0.211 HD
ENDBRANCH  14  18
BRANCH  15  20
ATOM     20  O   UNL     1      31.641   3.871  15.904  1.00  0.00    -0.385 OA
ATOM     21  H   UNL     1      32.336   4.593  16.074  1.00  0.00     0.211 HD
ENDBRANCH  15  20
ENDBRANCH   8   9
ENDBRANCH   7   8
ENDBRANCH   1   7
BRANCH   2  22
ATOM     22  O   UNL     1      32.680   2.482  22.211  1.00  0.00    -0.387 OA
ATOM     23  H   UNL     1      32.830   2.600  21.210  1.00  0.00     0.211 HD
ENDBRANCH   2  22
BRANCH   3  24
ATOM     24  O   UNL     1      33.598  -0.458  22.118  1.00  0.00    -0.387 OA
ATOM     25  H   UNL     1      33.895   0.150  22.854  1.00  0.00     0.211 HD
ENDBRANCH   3  24
BRANCH   5  26
ATOM     26  O   UNL     1      28.084  -0.366  19.708  1.00  0.00    -0.462 OA
BRANCH  26  27
ATOM     27  C   UNL     1      26.620  -0.679  18.704  1.00  0.00     0.130 A 
ATOM     28  C   UNL     1      25.284  -0.155  19.140  1.00  0.00     0.093 A 
ATOM     29  C   UNL     1      25.729  -1.868  17.818  1.00  0.00     0.094 A 
ATOM     30  C   UNL     1      24.322  -1.061  19.742  1.00  0.00     0.133 A 
ATOM     31  C   UNL     1      24.025  -2.349  17.847  1.00  0.00     0.138 A 
ATOM     32  C   UNL     1      23.332  -1.545  18.809  1.00  0.00     0.102 A 
ATOM     33  O   UNL     1      23.092  -3.565  17.584  1.00  0.00    -0.484 OA
ATOM     34  C   UNL     1      21.747  -1.734  18.787  1.00  0.00     0.174 C 
ATOM     35  C   UNL     1      21.460  -3.635  17.384  1.00  0.00     0.211 C 
ATOM     36  O   UNL     1      21.091  -1.474  19.865  1.00  0.00    -0.294 OA
ATOM     37  C   UNL     1      21.147  -2.188  17.472  1.00  0.00     0.131 C 
BRANCH  30  38
ATOM     38  O   UNL     1      24.200  -1.242  21.111  1.00  0.00    -0.507 OA
ATOM     39  H   UNL     1      25.104  -1.062  21.491  1.00  0.00     0.293 HD
ENDBRANCH  30  38
BRANCH  35  40
ATOM     40  C   UNL     1      19.866  -4.443  16.762  1.00  0.00    -0.003 A 
ATOM     41  C   UNL     1      18.735  -4.811  15.525  1.00  0.00     0.057 A 
ATOM     42  C   UNL     1      18.987  -5.151  17.837  1.00  0.00     0.011 A 
ATOM     43  C   UNL     1      17.010  -5.618  15.228  1.00  0.00     0.158 A 
ATOM     44  C   UNL     1      17.471  -5.053  17.505  1.00  0.00     0.051 A 
ATOM     45  C   UNL     1      17.515  -4.929  15.982  1.00  0.00     0.160 A 
BRANCH  43  46
ATOM     46  O   UNL     1      15.927  -6.751  15.677  1.00  0.00    -0.504 OA
ATOM     47  H   UNL     1      16.206  -7.729  15.731  1.00  0.00     0.293 HD
ENDBRANCH  43  46
BRANCH  45  48
ATOM     48  O   UNL     1      16.648  -5.075  14.458  1.00  0.00    -0.493 OA
ATOM     49  C   UNL     1      16.204  -5.228  12.913  1.00  0.00     0.278 C 
ENDBRANCH  45  48
ENDBRANCH  35  40
ENDBRANCH  26  27
ENDBRANCH   5  26
BRANCH   4  50
ATOM     50  O   UNL     1      31.675  -2.402  21.806  1.00  0.00    -0.384 OA
ATOM     51  H   UNL     1      31.917  -3.084  22.566  1.00  0.00     0.211 HD
ENDBRANCH   4  50
TORSDOF 15
ENDMDL
MODEL 5
REMARK VINA RESULT:    -5.953      3.758      6.148
REMARK INTER + INTRA:          -9.338
REMARK INTER:                  -8.731
REMARK INTRA:                  -0.607
REMARK UNBOUND:                -1.297
REMARK SMILES COc1ccc([C@@H]2CC(=O)c3c(O)cc(O[C@@H]4O[C@H](CO[C@H]5O[C@H](C)[C@H](O)[C@H](O)[C@@H]5O)[C@H](O)[C@@H](O)[C@H]4O)cc3O2)cc1O
REMARK SMILES IDX 19 1 32 2 34 3 36 4 17 5 18 6 20 7 21 8 22 9 25 10 24 11
REMARK SMILES IDX 26 12 23 13 28 14 30 15 27 16 29 18 31 20 33 22 35 24 16 26
REMARK SMILES IDX 15 27 14 28 38 29 12 30 39 31 11 32 40 33 9 34 7 35 10 36
REMARK SMILES IDX 8 37 13 38 6 40 41 41 5 42 42 43 4 44 3 45 43 46 2 48 1 49
REMARK SMILES IDX 37 50
REMARK H PARENT 27 17 29 19 31 21 33 23 35 25 13 39 43 47 37 51
REMARK Flexibility Score: inf
ROOT
ATOM      1  C   UNL     1      19.391  -7.490  19.762  1.00  0.00     0.180 C 
ATOM      2  C   UNL     1      18.340  -8.757  19.835  1.00  0.00     0.177 C 
ATOM      3  C   UNL     1      17.580  -8.252  18.649  1.00  0.00     0.180 C 
ATOM      4  C   UNL     1      17.286  -6.554  18.516  1.00  0.00     0.214 C 
ATOM      5  C   UNL     1      18.560  -5.280  19.406  1.00  0.00     0.339 C 
ATOM      6  O   UNL     1      18.894  -6.285  20.407  1.00  0.00    -0.332 OA
ENDROOT
BRANCH   1   7
ATOM      7  C   UNL     1      19.966  -6.986  18.253  1.00  0.00     0.198 C 
BRANCH   7   8
ATOM      8  O   UNL     1      19.677  -7.554  16.829  1.00  0.00    -0.347 OA
BRANCH   8   9
ATOM      9  C   UNL     1      19.441  -8.075  15.325  1.00  0.00     0.281 C 
ATOM     10  C   UNL     1      17.456 -10.124  13.857  1.00  0.00     0.041 C 
ATOM     11  C   UNL     1      17.753  -8.613  13.505  1.00  0.00     0.150 C 
ATOM     12  C   UNL     1      18.330  -7.616  12.123  1.00  0.00     0.174 C 
ATOM     13  O   UNL     1      18.021  -8.010  14.825  1.00  0.00    -0.344 OA
ATOM     14  C   UNL     1      19.201  -6.543  13.126  1.00  0.00     0.179 C 
ATOM     15  C   UNL     1      20.267  -7.263  14.142  1.00  0.00     0.202 C 
BRANCH  12  16
ATOM     16  O   UNL     1      19.071  -7.297  10.937  1.00  0.00    -0.388 OA
ATOM     17  H   UNL     1      19.933  -7.760  10.720  1.00  0.00     0.211 HD
ENDBRANCH  12  16
BRANCH  14  18
ATOM     18  O   UNL     1      19.630  -5.249  12.482  1.00  0.00    -0.387 OA
ATOM     19  H   UNL     1      18.985  -4.518  12.671  1.00  0.00     0.211 HD
ENDBRANCH  14  18
BRANCH  15  20
ATOM     20  O   UNL     1      21.519  -7.742  13.688  1.00  0.00    -0.385 OA
ATOM     21  H   UNL     1      22.030  -7.079  13.111  1.00  0.00     0.211 HD
ENDBRANCH  15  20
ENDBRANCH   8   9
ENDBRANCH   7   8
ENDBRANCH   1   7
BRANCH   2  22
ATOM     22  O   UNL     1      18.924 -10.064  19.579  1.00  0.00    -0.387 OA
ATOM     23  H   UNL     1      19.907 -10.006  19.843  1.00  0.00     0.211 HD
ENDBRANCH   2  22
BRANCH   3  24
ATOM     24  O   UNL     1      16.327  -8.927  18.372  1.00  0.00    -0.387 OA
ATOM     25  H   UNL     1      16.137  -8.741  17.408  1.00  0.00     0.211 HD
ENDBRANCH   3  24
BRANCH   5  26
ATOM     26  O   UNL     1      20.071  -4.251  18.951  1.00  0.00    -0.462 OA
BRANCH  26  27
ATOM     27  C   UNL     1      21.706  -3.989  18.239  1.00  0.00     0.130 A 
ATOM     28  C   UNL     1      22.704  -3.123  18.948  1.00  0.00     0.093 A 
ATOM     29  C   UNL     1      22.589  -3.615  16.799  1.00  0.00     0.094 A 
ATOM     30  C   UNL     1      22.946  -1.772  18.474  1.00  0.00     0.133 A 
ATOM     31  C   UNL     1      23.842  -2.416  16.443  1.00  0.00     0.138 A 
ATOM     32  C   UNL     1      24.114  -1.664  17.632  1.00  0.00     0.102 A 
ATOM     33  O   UNL     1      24.429  -1.567  15.280  1.00  0.00    -0.484 OA
ATOM     34  C   UNL     1      25.370  -0.687  17.505  1.00  0.00     0.174 C 
ATOM     35  C   UNL     1      25.847  -0.738  15.173  1.00  0.00     0.211 C 
ATOM     36  O   UNL     1      25.413   0.348  18.271  1.00  0.00    -0.294 OA
ATOM     37  C   UNL     1      26.426  -1.086  16.494  1.00  0.00     0.131 C 
BRANCH  30  38
ATOM     38  O   UNL     1      22.289  -0.660  18.976  1.00  0.00    -0.507 OA
ATOM     39  H   UNL     1      22.877   0.119  18.771  1.00  0.00     0.293 HD
ENDBRANCH  30  38
BRANCH  35  40
ATOM     40  C   UNL     1      27.263   0.072  14.216  1.00  0.00    -0.003 A 
ATOM     41  C   UNL     1      28.907   0.530  14.041  1.00  0.00     0.057 A 
ATOM     42  C   UNL     1      26.879   0.773  12.878  1.00  0.00     0.011 A 
ATOM     43  C   UNL     1      30.096   1.538  12.905  1.00  0.00     0.158 A 
ATOM     44  C   UNL     1      27.774   2.013  12.594  1.00  0.00     0.051 A 
ATOM     45  C   UNL     1      29.049   1.629  13.345  1.00  0.00     0.160 A 
BRANCH  43  46
ATOM     46  O   UNL     1      30.453   2.049  11.400  1.00  0.00    -0.504 OA
ATOM     47  H   UNL     1      29.767   2.581  10.867  1.00  0.00     0.293 HD
ENDBRANCH  43  46
BRANCH  45  48
ATOM     48  O   UNL     1      30.774   1.891  13.564  1.00  0.00    -0.493 OA
ATOM     49  C   UNL     1      32.247   2.280  14.100  1.00  0.00     0.278 C 
ENDBRANCH  45  48
ENDBRANCH  35  40
ENDBRANCH  26  27
ENDBRANCH   5  26
BRANCH   4  50
ATOM     50  O   UNL     1      15.896  -6.215  18.554  1.00  0.00    -0.384 OA
ATOM     51  H   UNL     1      14.857  -6.359  18.526  1.00  0.00     0.211 HD
ENDBRANCH   4  50
TORSDOF 15
ENDMDL
MODEL 6
REMARK VINA RESULT:    -5.899      2.442      4.891
REMARK INTER + INTRA:          -9.266
REMARK INTER:                  -7.882
REMARK INTRA:                  -1.384
REMARK UNBOUND:                -1.297
REMARK SMILES COc1ccc([C@@H]2CC(=O)c3c(O)cc(O[C@@H]4O[C@H](CO[C@H]5O[C@H](C)[C@H](O)[C@H](O)[C@@H]5O)[C@H](O)[C@@H](O)[C@H]4O)cc3O2)cc1O
REMARK SMILES IDX 19 1 32 2 34 3 36 4 17 5 18 6 20 7 21 8 22 9 25 10 24 11
REMARK SMILES IDX 26 12 23 13 28 14 30 15 27 16 29 18 31 20 33 22 35 24 16 26
REMARK SMILES IDX 15 27 14 28 38 29 12 30 39 31 11 32 40 33 9 34 7 35 10 36
REMARK SMILES IDX 8 37 13 38 6 40 41 41 5 42 42 43 4 44 3 45 43 46 2 48 1 49
REMARK SMILES IDX 37 50
REMARK H PARENT 27 17 29 19 31 21 33 23 35 25 13 39 43 47 37 51
REMARK Flexibility Score: inf
ROOT
ATOM      1  C   UNL     1      19.070  -5.606  20.584  1.00  0.00     0.180 C 
ATOM      2  C   UNL     1      18.566  -7.145  20.890  1.00  0.00     0.177 C 
ATOM      3  C   UNL     1      18.202  -7.358  19.454  1.00  0.00     0.180 C 
ATOM      4  C   UNL     1      17.429  -6.072  18.596  1.00  0.00     0.214 C 
ATOM      5  C   UNL     1      17.750  -4.181  19.195  1.00  0.00     0.339 C 
ATOM      6  O   UNL     1      17.988  -4.635  20.560  1.00  0.00    -0.332 OA
ENDROOT
BRANCH   1   7
ATOM      7  C   UNL     1      19.977  -5.302  19.190  1.00  0.00     0.198 C 
BRANCH   7   8
ATOM      8  O   UNL     1      20.786  -6.283  18.285  1.00  0.00    -0.347 OA
BRANCH   8   9
ATOM      9  C   UNL     1      21.634  -7.221  17.291  1.00  0.00     0.281 C 
ATOM     10  C   UNL     1      22.993 -10.125  17.427  1.00  0.00     0.041 C 
ATOM     11  C   UNL     1      21.979  -9.558  16.356  1.00  0.00     0.150 C 
ATOM     12  C   UNL     1      21.868  -9.294  14.580  1.00  0.00     0.174 C 
ATOM     13  O   UNL     1      21.140  -8.638  17.148  1.00  0.00    -0.344 OA
ATOM     14  C   UNL     1      21.003  -7.831  14.747  1.00  0.00     0.179 C 
ATOM     15  C   UNL     1      21.715  -6.718  15.716  1.00  0.00     0.202 C 
BRANCH  12  16
ATOM     16  O   UNL     1      22.326  -9.010  13.251  1.00  0.00    -0.388 OA
ATOM     17  H   UNL     1      22.314  -9.710  12.534  1.00  0.00     0.211 HD
ENDBRANCH  12  16
BRANCH  14  18
ATOM     18  O   UNL     1      20.327  -7.325  13.498  1.00  0.00    -0.387 OA
ATOM     19  H   UNL     1      19.340  -7.302  13.603  1.00  0.00     0.211 HD
ENDBRANCH  14  18
BRANCH  15  20
ATOM     20  O   UNL     1      22.810  -5.938  15.272  1.00  0.00    -0.385 OA
ATOM     21  H   UNL     1      22.570  -5.263  14.550  1.00  0.00     0.211 HD
ENDBRANCH  15  20
ENDBRANCH   8   9
ENDBRANCH   7   8
ENDBRANCH   1   7
BRANCH   2  22
ATOM     22  O   UNL     1      19.606  -8.065  21.321  1.00  0.00    -0.387 OA
ATOM     23  H   UNL     1      19.510  -8.170  22.330  1.00  0.00     0.211 HD
ENDBRANCH   2  22
BRANCH   3  24
ATOM     24  O   UNL     1      17.460  -8.572  19.168  1.00  0.00    -0.387 OA
ATOM     25  H   UNL     1      17.848  -8.920  18.315  1.00  0.00     0.211 HD
ENDBRANCH   3  24
BRANCH   5  26
ATOM     26  O   UNL     1      18.877  -2.736  18.757  1.00  0.00    -0.462 OA
BRANCH  26  27
ATOM     27  C   UNL     1      20.377  -1.746  18.888  1.00  0.00     0.130 A 
ATOM     28  C   UNL     1      21.358  -1.716  17.754  1.00  0.00     0.093 A 
ATOM     29  C   UNL     1      21.714  -1.313  19.896  1.00  0.00     0.094 A 
ATOM     30  C   UNL     1      22.585  -2.488  17.848  1.00  0.00     0.133 A 
ATOM     31  C   UNL     1      23.462  -1.281  19.613  1.00  0.00     0.138 A 
ATOM     32  C   UNL     1      23.722  -1.703  18.269  1.00  0.00     0.102 A 
ATOM     33  O   UNL     1      24.824  -1.412  20.352  1.00  0.00    -0.484 OA
ATOM     34  C   UNL     1      25.242  -1.523  17.817  1.00  0.00     0.174 C 
ATOM     35  C   UNL     1      26.345  -1.015  19.865  1.00  0.00     0.211 C 
ATOM     36  O   UNL     1      25.689  -2.281  16.876  1.00  0.00    -0.294 OA
ATOM     37  C   UNL     1      26.027  -0.443  18.534  1.00  0.00     0.131 C 
BRANCH  30  38
ATOM     38  O   UNL     1      22.717  -3.771  17.342  1.00  0.00    -0.507 OA
ATOM     39  H   UNL     1      22.764  -3.671  16.352  1.00  0.00     0.293 HD
ENDBRANCH  30  38
BRANCH  35  40
ATOM     40  C   UNL     1      28.153  -0.554  20.176  1.00  0.00    -0.003 A 
ATOM     41  C   UNL     1      29.779  -0.960  20.545  1.00  0.00     0.057 A 
ATOM     42  C   UNL     1      28.489   0.968  20.166  1.00  0.00     0.011 A 
ATOM     43  C   UNL     1      31.494  -0.173  20.942  1.00  0.00     0.158 A 
ATOM     44  C   UNL     1      29.636   1.316  21.156  1.00  0.00     0.051 A 
ATOM     45  C   UNL     1      30.396  -0.009  21.198  1.00  0.00     0.160 A 
BRANCH  43  46
ATOM     46  O   UNL     1      32.524   1.068  20.706  1.00  0.00    -0.504 OA
ATOM     47  H   UNL     1      33.181   1.043  19.929  1.00  0.00     0.293 HD
ENDBRANCH  43  46
BRANCH  45  48
ATOM     48  O   UNL     1      31.896  -0.845  21.579  1.00  0.00    -0.493 OA
ATOM     49  C   UNL     1      33.397  -1.259  22.006  1.00  0.00     0.278 C 
ENDBRANCH  45  48
ENDBRANCH  35  40
ENDBRANCH  26  27
ENDBRANCH   5  26
BRANCH   4  50
ATOM     50  O   UNL     1      16.107  -6.399  18.156  1.00  0.00    -0.384 OA
ATOM     51  H   UNL     1      15.271  -6.430  17.522  1.00  0.00     0.211 HD
ENDBRANCH   4  50
TORSDOF 15
ENDMDL
MODEL 7
REMARK VINA RESULT:    -5.811      4.708     14.600
REMARK INTER + INTRA:          -9.146
REMARK INTER:                  -8.383
REMARK INTRA:                  -0.763
REMARK UNBOUND:                -1.297
REMARK SMILES COc1ccc([C@@H]2CC(=O)c3c(O)cc(O[C@@H]4O[C@H](CO[C@H]5O[C@H](C)[C@H](O)[C@H](O)[C@@H]5O)[C@H](O)[C@@H](O)[C@H]4O)cc3O2)cc1O
REMARK SMILES IDX 19 1 32 2 34 3 36 4 17 5 18 6 20 7 21 8 22 9 25 10 24 11
REMARK SMILES IDX 26 12 23 13 28 14 30 15 27 16 29 18 31 20 33 22 35 24 16 26
REMARK SMILES IDX 15 27 14 28 38 29 12 30 39 31 11 32 40 33 9 34 7 35 10 36
REMARK SMILES IDX 8 37 13 38 6 40 41 41 5 42 42 43 4 44 3 45 43 46 2 48 1 49
REMARK SMILES IDX 37 50
REMARK H PARENT 27 17 29 19 31 21 33 23 35 25 13 39 43 47 37 51
REMARK Flexibility Score: inf
ROOT
ATOM      1  C   UNL     1      32.388   1.416  21.874  1.00  0.00     0.180 C 
ATOM      2  C   UNL     1      33.856   1.322  22.617  1.00  0.00     0.177 C 
ATOM      3  C   UNL     1      34.131  -0.015  22.004  1.00  0.00     0.180 C 
ATOM      4  C   UNL     1      32.843  -1.163  21.910  1.00  0.00     0.214 C 
ATOM      5  C   UNL     1      30.951  -0.490  21.846  1.00  0.00     0.339 C 
ATOM      6  O   UNL     1      31.333   0.709  22.582  1.00  0.00    -0.332 OA
ENDROOT
BRANCH   1   7
ATOM      7  C   UNL     1      32.253   0.928  20.261  1.00  0.00     0.198 C 
BRANCH   7   8
ATOM      8  O   UNL     1      32.894   1.531  18.972  1.00  0.00    -0.347 OA
BRANCH   8   9
ATOM      9  C   UNL     1      33.643   2.139  17.685  1.00  0.00     0.281 C 
ATOM     10  C   UNL     1      36.088   4.146  17.147  1.00  0.00     0.041 C 
ATOM     11  C   UNL     1      35.865   2.687  16.583  1.00  0.00     0.150 C 
ATOM     12  C   UNL     1      35.746   1.832  15.006  1.00  0.00     0.174 C 
ATOM     13  O   UNL     1      35.145   2.013  17.681  1.00  0.00    -0.344 OA
ATOM     14  C   UNL     1      34.546   0.753  15.562  1.00  0.00     0.179 C 
ATOM     15  C   UNL     1      33.231   1.470  16.227  1.00  0.00     0.202 C 
BRANCH  12  16
ATOM     16  O   UNL     1      35.435   1.648  13.617  1.00  0.00    -0.388 OA
ATOM     17  H   UNL     1      34.494   1.722  13.280  1.00  0.00     0.211 HD
ENDBRANCH  12  16
BRANCH  14  18
ATOM     18  O   UNL     1      34.306  -0.461  14.700  1.00  0.00    -0.387 OA
ATOM     19  H   UNL     1      34.305  -1.294  15.239  1.00  0.00     0.211 HD
ENDBRANCH  14  18
BRANCH  15  20
ATOM     20  O   UNL     1      32.225   2.065  15.428  1.00  0.00    -0.385 OA
ATOM     21  H   UNL     1      31.954   1.506  14.623  1.00  0.00     0.211 HD
ENDBRANCH  15  20
ENDBRANCH   8   9
ENDBRANCH   7   8
ENDBRANCH   1   7
BRANCH   2  22
ATOM     22  O   UNL     1      34.831   2.315  22.195  1.00  0.00    -0.387 OA
ATOM     23  H   UNL     1      34.355   3.216  22.194  1.00  0.00     0.211 HD
ENDBRANCH   2  22
BRANCH   3  24
ATOM     24  O   UNL     1      35.293  -0.714  22.516  1.00  0.00    -0.387 OA
ATOM     25  H   UNL     1      35.926  -0.771  21.744  1.00  0.00     0.211 HD
ENDBRANCH   3  24
BRANCH   5  26
ATOM     26  O   UNL     1      29.637  -0.099  20.553  1.00  0.00    -0.462 OA
BRANCH  26  27
ATOM     27  C   UNL     1      28.076  -0.359  19.690  1.00  0.00     0.130 A 
ATOM     28  C   UNL     1      26.976   0.653  19.807  1.00  0.00     0.093 A 
ATOM     29  C   UNL     1      26.826  -1.496  19.320  1.00  0.00     0.094 A 
ATOM     30  C   UNL     1      25.844   0.384  20.675  1.00  0.00     0.133 A 
ATOM     31  C   UNL     1      25.062  -1.416  19.455  1.00  0.00     0.138 A 
ATOM     32  C   UNL     1      24.694  -0.131  19.970  1.00  0.00     0.102 A 
ATOM     33  O   UNL     1      23.809  -2.313  19.662  1.00  0.00    -0.484 OA
ATOM     34  C   UNL     1      23.123   0.148  19.947  1.00  0.00     0.174 C 
ATOM     35  C   UNL     1      22.212  -1.989  19.425  1.00  0.00     0.211 C 
ATOM     36  O   UNL     1      22.645   0.996  20.792  1.00  0.00    -0.294 OA
ATOM     37  C   UNL     1      22.326  -0.606  18.902  1.00  0.00     0.131 C 
BRANCH  30  38
ATOM     38  O   UNL     1      25.775   0.812  21.992  1.00  0.00    -0.507 OA
ATOM     39  H   UNL     1      26.719   0.935  22.288  1.00  0.00     0.293 HD
ENDBRANCH  30  38
BRANCH  35  40
ATOM     40  C   UNL     1      20.415  -2.487  19.106  1.00  0.00    -0.003 A 
ATOM     41  C   UNL     1      18.906  -3.125  19.614  1.00  0.00     0.057 A 
ATOM     42  C   UNL     1      19.906  -2.332  17.641  1.00  0.00     0.011 A 
ATOM     43  C   UNL     1      17.174  -3.654  18.953  1.00  0.00     0.158 A 
ATOM     44  C   UNL     1      18.858  -3.419  17.272  1.00  0.00     0.051 A 
ATOM     45  C   UNL     1      18.269  -3.733  18.647  1.00  0.00     0.160 A 
BRANCH  43  46
ATOM     46  O   UNL     1      15.985  -3.408  17.865  1.00  0.00    -0.504 OA
ATOM     47  H   UNL     1      15.016  -3.359  18.173  1.00  0.00     0.293 HD
ENDBRANCH  43  46
BRANCH  45  48
ATOM     48  O   UNL     1      16.935  -4.419  19.565  1.00  0.00    -0.493 OA
ATOM     49  C   UNL     1      15.924  -5.366  20.397  1.00  0.00     0.278 C 
ENDBRANCH  45  48
ENDBRANCH  35  40
ENDBRANCH  26  27
ENDBRANCH   5  26
BRANCH   4  50
ATOM     50  O   UNL     1      33.084  -2.349  22.675  1.00  0.00    -0.384 OA
ATOM     51  H   UNL     1      32.939  -3.326  23.029  1.00  0.00     0.211 HD
ENDBRANCH   4  50
TORSDOF 15
ENDMDL
MODEL 8
REMARK VINA RESULT:    -5.748      4.604     11.318
REMARK INTER + INTRA:          -9.061
REMARK INTER:                  -7.882
REMARK INTRA:                  -1.180
REMARK UNBOUND:                -1.297
REMARK SMILES COc1ccc([C@@H]2CC(=O)c3c(O)cc(O[C@@H]4O[C@H](CO[C@H]5O[C@H](C)[C@H](O)[C@H](O)[C@@H]5O)[C@H](O)[C@@H](O)[C@H]4O)cc3O2)cc1O
REMARK SMILES IDX 19 1 32 2 34 3 36 4 17 5 18 6 20 7 21 8 22 9 25 10 24 11
REMARK SMILES IDX 26 12 23 13 28 14 30 15 27 16 29 18 31 20 33 22 35 24 16 26
REMARK SMILES IDX 15 27 14 28 38 29 12 30 39 31 11 32 40 33 9 34 7 35 10 36
REMARK SMILES IDX 8 37 13 38 6 40 41 41 5 42 42 43 4 44 3 45 43 46 2 48 1 49
REMARK SMILES IDX 37 50
REMARK H PARENT 27 17 29 19 31 21 33 23 35 25 13 39 43 47 37 51
REMARK Flexibility Score: inf
ROOT
ATOM      1  C   UNL     1      18.741  -7.527  18.474  1.00  0.00     0.180 C 
ATOM      2  C   UNL     1      19.766  -8.239  19.550  1.00  0.00     0.177 C 
ATOM      3  C   UNL     1      20.945  -7.981  18.667  1.00  0.00     0.180 C 
ATOM      4  C   UNL     1      20.769  -8.209  16.963  1.00  0.00     0.214 C 
ATOM      5  C   UNL     1      18.945  -8.014  16.145  1.00  0.00     0.339 C 
ATOM      6  O   UNL     1      18.319  -8.413  17.400  1.00  0.00    -0.332 OA
ENDROOT
BRANCH   1   7
ATOM      7  C   UNL     1      19.218  -6.094  17.712  1.00  0.00     0.198 C 
BRANCH   7   8
ATOM      8  O   UNL     1      19.686  -4.739  18.328  1.00  0.00    -0.347 OA
BRANCH   8   9
ATOM      9  C   UNL     1      20.101  -3.352  19.030  1.00  0.00     0.281 C 
ATOM     10  C   UNL     1      20.346  -2.246  22.032  1.00  0.00     0.041 C 
ATOM     11  C   UNL     1      21.426  -2.222  20.880  1.00  0.00     0.150 C 
ATOM     12  C   UNL     1      22.440  -1.043  19.977  1.00  0.00     0.174 C 
ATOM     13  O   UNL     1      21.133  -3.455  20.124  1.00  0.00    -0.344 OA
ATOM     14  C   UNL     1      22.300  -1.893  18.503  1.00  0.00     0.179 C 
ATOM     15  C   UNL     1      20.762  -2.207  18.033  1.00  0.00     0.202 C 
BRANCH  12  16
ATOM     16  O   UNL     1      22.793   0.204  19.361  1.00  0.00    -0.388 OA
ATOM     17  H   UNL     1      22.327   1.057  19.605  1.00  0.00     0.211 HD
ENDBRANCH  12  16
BRANCH  14  18
ATOM     18  O   UNL     1      23.283  -1.504  17.427  1.00  0.00    -0.387 OA
ATOM     19  H   UNL     1      22.885  -1.592  16.522  1.00  0.00     0.211 HD
ENDBRANCH  14  18
BRANCH  15  20
ATOM     20  O   UNL     1      19.944  -1.208  17.453  1.00  0.00    -0.385 OA
ATOM     21  H   UNL     1      20.017  -1.151  16.440  1.00  0.00     0.211 HD
ENDBRANCH  15  20
ENDBRANCH   8   9
ENDBRANCH   7   8
ENDBRANCH   1   7
BRANCH   2  22
ATOM     22  O   UNL     1      19.895  -7.559  20.829  1.00  0.00    -0.387 OA
ATOM     23  H   UNL     1      18.961  -7.250  21.096  1.00  0.00     0.211 HD
ENDBRANCH   2  22
BRANCH   3  24
ATOM     24  O   UNL     1      22.181  -8.630  19.062  1.00  0.00    -0.387 OA
ATOM     25  H   UNL     1      22.887  -8.222  18.485  1.00  0.00     0.211 HD
ENDBRANCH   3  24
BRANCH   5  26
ATOM     26  O   UNL     1      17.925  -6.691  15.273  1.00  0.00    -0.462 OA
BRANCH  26  27
ATOM     27  C   UNL     1      17.218  -5.868  13.833  1.00  0.00     0.130 A 
ATOM     28  C   UNL     1      17.762  -6.150  12.464  1.00  0.00     0.093 A 
ATOM     29  C   UNL     1      16.682  -4.361  13.175  1.00  0.00     0.094 A 
ATOM     30  C   UNL     1      18.642  -5.185  11.830  1.00  0.00     0.133 A 
ATOM     31  C   UNL     1      17.045  -3.522  11.659  1.00  0.00     0.138 A 
ATOM     32  C   UNL     1      17.960  -4.319  10.896  1.00  0.00     0.102 A 
ATOM     33  O   UNL     1      17.126  -2.100  11.036  1.00  0.00    -0.484 OA
ATOM     34  C   UNL     1      18.210  -3.777   9.416  1.00  0.00     0.174 C 
ATOM     35  C   UNL     1      17.190  -1.626   9.461  1.00  0.00     0.211 C 
ATOM     36  O   UNL     1      19.319  -4.085   8.837  1.00  0.00    -0.294 OA
ATOM     37  C   UNL     1      17.092  -2.955   8.809  1.00  0.00     0.131 C 
BRANCH  30  38
ATOM     38  O   UNL     1      20.024  -5.247  11.907  1.00  0.00    -0.507 OA
ATOM     39  H   UNL     1      20.248  -6.215  11.994  1.00  0.00     0.293 HD
ENDBRANCH  30  38
BRANCH  35  40
ATOM     40  C   UNL     1      16.957  -0.376   8.060  1.00  0.00    -0.003 A 
ATOM     41  C   UNL     1      16.956   0.059   6.401  1.00  0.00     0.057 A 
ATOM     42  C   UNL     1      16.630   1.087   8.489  1.00  0.00     0.011 A 
ATOM     43  C   UNL     1      16.779   1.575   5.222  1.00  0.00     0.158 A 
ATOM     44  C   UNL     1      17.230   2.129   7.504  1.00  0.00     0.051 A 
ATOM     45  C   UNL     1      17.278   1.313   6.212  1.00  0.00     0.160 A 
BRANCH  43  46
ATOM     46  O   UNL     1      16.102   3.033   4.951  1.00  0.00    -0.504 OA
ATOM     47  H   UNL     1      16.593   3.725   4.388  1.00  0.00     0.293 HD
ENDBRANCH  43  46
BRANCH  45  48
ATOM     48  O   UNL     1      17.386   1.324   4.456  1.00  0.00    -0.493 OA
ATOM     49  C   UNL     1      17.275   1.016   2.875  1.00  0.00     0.278 C 
ENDBRANCH  45  48
ENDBRANCH  35  40
ENDBRANCH  26  27
ENDBRANCH   5  26
BRANCH   4  50
ATOM     50  O   UNL     1      21.608  -9.244  16.440  1.00  0.00    -0.384 OA
ATOM     51  H   UNL     1      22.311 -10.023  16.444  1.00  0.00     0.211 HD
ENDBRANCH   4  50
TORSDOF 15
ENDMDL
MODEL 9
REMARK VINA RESULT:    -5.659      6.444      8.723
REMARK INTER + INTRA:          -8.941
REMARK INTER:                  -7.708
REMARK INTRA:                  -1.233
REMARK UNBOUND:                -1.297
REMARK SMILES COc1ccc([C@@H]2CC(=O)c3c(O)cc(O[C@@H]4O[C@H](CO[C@H]5O[C@H](C)[C@H](O)[C@H](O)[C@@H]5O)[C@H](O)[C@@H](O)[C@H]4O)cc3O2)cc1O
REMARK SMILES IDX 19 1 32 2 34 3 36 4 17 5 18 6 20 7 21 8 22 9 25 10 24 11
REMARK SMILES IDX 26 12 23 13 28 14 30 15 27 16 29 18 31 20 33 22 35 24 16 26
REMARK SMILES IDX 15 27 14 28 38 29 12 30 39 31 11 32 40 33 9 34 7 35 10 36
REMARK SMILES IDX 8 37 13 38 6 40 41 41 5 42 42 43 4 44 3 45 43 46 2 48 1 49
REMARK SMILES IDX 37 50
REMARK H PARENT 27 17 29 19 31 21 33 23 35 25 13 39 43 47 37 51
REMARK Flexibility Score: inf
ROOT
ATOM      1  C   UNL     1      21.726  -3.328  19.638  1.00  0.00     0.180 C 
ATOM      2  C   UNL     1      20.189  -3.691  20.109  1.00  0.00     0.177 C 
ATOM      3  C   UNL     1      19.635  -3.262  18.787  1.00  0.00     0.180 C 
ATOM      4  C   UNL     1      20.276  -1.841  18.043  1.00  0.00     0.214 C 
ATOM      5  C   UNL     1      22.158  -1.287  18.476  1.00  0.00     0.339 C 
ATOM      6  O   UNL     1      22.062  -1.920  19.786  1.00  0.00    -0.332 OA
ENDROOT
BRANCH   1   7
ATOM      7  C   UNL     1      22.226  -3.747  18.078  1.00  0.00     0.198 C 
BRANCH   7   8
ATOM      8  O   UNL     1      22.363  -5.152  17.411  1.00  0.00    -0.347 OA
BRANCH   8   9
ATOM      9  C   UNL     1      22.529  -6.634  16.810  1.00  0.00     0.281 C 
ATOM     10  C   UNL     1      23.695  -9.443  17.834  1.00  0.00     0.041 C 
ATOM     11  C   UNL     1      22.276  -9.129  17.214  1.00  0.00     0.150 C 
ATOM     12  C   UNL     1      21.236  -9.649  15.842  1.00  0.00     0.174 C 
ATOM     13  O   UNL     1      22.009  -7.753  17.675  1.00  0.00    -0.344 OA
ATOM     14  C   UNL     1      20.623  -8.078  15.575  1.00  0.00     0.179 C 
ATOM     15  C   UNL     1      21.764  -6.920  15.370  1.00  0.00     0.202 C 
BRANCH  12  16
ATOM     16  O   UNL     1      20.916 -10.125  14.526  1.00  0.00    -0.388 OA
ATOM     17  H   UNL     1      21.633 -10.402  13.884  1.00  0.00     0.211 HD
ENDBRANCH  12  16
BRANCH  14  18
ATOM     18  O   UNL     1      19.392  -7.994  14.708  1.00  0.00    -0.387 OA
ATOM     19  H   UNL     1      19.565  -8.344  13.796  1.00  0.00     0.211 HD
ENDBRANCH  14  18
BRANCH  15  20
ATOM     20  O   UNL     1      22.465  -6.776  14.148  1.00  0.00    -0.385 OA
ATOM     21  H   UNL     1      21.908  -6.992  13.325  1.00  0.00     0.211 HD
ENDBRANCH  15  20
ENDBRANCH   8   9
ENDBRANCH   7   8
ENDBRANCH   1   7
BRANCH   2  22
ATOM     22  O   UNL     1      19.935  -5.099  20.366  1.00  0.00    -0.387 OA
ATOM     23  H   UNL     1      18.969  -5.281  20.093  1.00  0.00     0.211 HD
ENDBRANCH   2  22
BRANCH   3  24
ATOM     24  O   UNL     1      18.189  -3.172  18.711  1.00  0.00    -0.387 OA
ATOM     25  H   UNL     1      17.966  -2.259  19.049  1.00  0.00     0.211 HD
ENDBRANCH   3  24
BRANCH   5  26
ATOM     26  O   UNL     1      23.887  -1.485  17.755  1.00  0.00    -0.462 OA
BRANCH  26  27
ATOM     27  C   UNL     1      25.168  -1.242  16.510  1.00  0.00     0.130 A 
ATOM     28  C   UNL     1      25.287   0.074  15.801  1.00  0.00     0.093 A 
ATOM     29  C   UNL     1      25.955  -1.919  15.127  1.00  0.00     0.094 A 
ATOM     30  C   UNL     1      24.791   0.204  14.443  1.00  0.00     0.133 A 
ATOM     31  C   UNL     1      26.312  -1.269  13.518  1.00  0.00     0.138 A 
ATOM     32  C   UNL     1      25.825   0.076  13.443  1.00  0.00     0.102 A 
ATOM     33  O   UNL     1      26.529  -1.707  12.042  1.00  0.00    -0.484 OA
ATOM     34  C   UNL     1      26.264   0.849  12.118  1.00  0.00     0.174 C 
ATOM     35  C   UNL     1      27.177  -0.888  10.770  1.00  0.00     0.211 C 
ATOM     36  O   UNL     1      25.525   1.823  11.711  1.00  0.00    -0.294 OA
ATOM     37  C   UNL     1      27.543   0.373  11.460  1.00  0.00     0.131 C 
BRANCH  30  38
ATOM     38  O   UNL     1      23.517   0.659  14.137  1.00  0.00    -0.507 OA
ATOM     39  H   UNL     1      23.326   0.334  13.214  1.00  0.00     0.293 HD
ENDBRANCH  30  38
BRANCH  35  40
ATOM     40  C   UNL     1      28.021  -0.783   9.080  1.00  0.00    -0.003 A 
ATOM     41  C   UNL     1      29.411  -0.628   8.087  1.00  0.00     0.057 A 
ATOM     42  C   UNL     1      27.079  -0.782   7.838  1.00  0.00     0.011 A 
ATOM     43  C   UNL     1      29.956  -0.415   6.249  1.00  0.00     0.158 A 
ATOM     44  C   UNL     1      27.655   0.073   6.673  1.00  0.00     0.051 A 
ATOM     45  C   UNL     1      29.153  -0.022   6.957  1.00  0.00     0.160 A 
BRANCH  43  46
ATOM     46  O   UNL     1      29.651  -0.732   4.681  1.00  0.00    -0.504 OA
ATOM     47  H   UNL     1      30.294  -1.310   4.143  1.00  0.00     0.293 HD
ENDBRANCH  43  46
BRANCH  45  48
ATOM     48  O   UNL     1      30.792   0.145   6.337  1.00  0.00    -0.493 OA
ATOM     49  C   UNL     1      32.290  -0.084   5.779  1.00  0.00     0.278 C 
ENDBRANCH  45  48
ENDBRANCH  35  40
ENDBRANCH  26  27
ENDBRANCH   5  26
BRANCH   4  50
ATOM     50  O   UNL     1      19.310  -0.795  17.892  1.00  0.00    -0.384 OA
ATOM     51  H   UNL     1      18.381  -0.312  17.952  1.00  0.00     0.211 HD
ENDBRANCH   4  50
TORSDOF 15
ENDMDL
