MODEL 1
REMARK VINA RESULT:    -4.014      0.000      0.000
REMARK INTER + INTRA:          -6.697
REMARK INTER:                  -5.657
REMARK INTRA:                  -1.040
REMARK UNBOUND:                -1.040
REMARK SMILES OCC1=C[C@@H](O)[C@H]2C=CO[C@H](O[C@@H]3O[C@@H](CO)[C@H](O)[C@H](O)[C@H]3O)[C@@H]12
REMARK SMILES IDX 12 1 11 2 8 3 9 4 7 5 10 6 24 7 5 8 3 9 4 10 6 11 2 13 1 14
REMARK SMILES IDX 13 16 22 17 14 18 20 19 15 20 18 21 23 22 21 24 16 26 17 27
REMARK SMILES IDX 19 29
REMARK H PARENT 6 12 1 15 23 23 21 25 17 28 19 30
REMARK Flexibility Score: inf
ROOT
ATOM      1  O   UNL     1       0.945  -6.328 -22.269  1.00  0.00    -0.310 OA
ENDROOT
BRANCH   1   2
ATOM      2  C   UNL     1       1.514  -6.650 -23.556  1.00  0.00     0.316 C 
ATOM      3  C   UNL     1       4.217  -7.265 -22.882  1.00  0.00     0.018 C 
ATOM      4  C   UNL     1       3.893  -5.993 -23.209  1.00  0.00     0.186 C 
ATOM      5  C   UNL     1       3.476  -8.434 -23.548  1.00  0.00     0.061 C 
ATOM      6  O   UNL     1       2.642  -5.790 -23.798  1.00  0.00    -0.472 OA
ATOM      7  C   UNL     1       1.957  -8.193 -23.632  1.00  0.00     0.096 C 
ATOM      8  C   UNL     1       3.881  -8.799 -24.990  1.00  0.00     0.145 C 
ATOM      9  C   UNL     1       1.543  -8.804 -24.935  1.00  0.00    -0.036 C 
ATOM     10  C   UNL     1       2.585  -9.112 -25.712  1.00  0.00     0.007 C 
BRANCH   8  11
ATOM     11  O   UNL     1       4.571  -7.758 -25.639  1.00  0.00    -0.388 OA
ATOM     12  H   UNL     1       4.258  -6.888 -25.259  1.00  0.00     0.211 HD
ENDBRANCH   8  11
BRANCH   9  13
ATOM     13  C   UNL     1       0.075  -9.120 -25.292  1.00  0.00     0.187 C 
BRANCH  13  14
ATOM     14  O   UNL     1      -0.647  -7.980 -25.574  1.00  0.00    -0.392 OA
ATOM     15  H   UNL     1      -0.247  -7.549 -26.407  1.00  0.00     0.211 HD
ENDBRANCH  13  14
ENDBRANCH   9  13
ENDBRANCH   1   2
BRANCH   1  16
ATOM     16  C   UNL     1      -0.277  -7.045 -22.096  1.00  0.00     0.286 C 
ATOM     17  C   UNL     1      -0.598  -7.273 -20.617  1.00  0.00     0.202 C 
ATOM     18  O   UNL     1      -1.326  -6.509 -22.881  1.00  0.00    -0.341 OA
ATOM     19  C   UNL     1      -1.340  -6.089 -19.977  1.00  0.00     0.179 C 
ATOM     20  C   UNL     1      -2.040  -5.440 -22.298  1.00  0.00     0.178 C 
ATOM     21  C   UNL     1      -2.545  -5.810 -20.841  1.00  0.00     0.177 C 
BRANCH  17  22
ATOM     22  O   UNL     1      -1.413  -8.432 -20.501  1.00  0.00    -0.385 OA
ATOM     23  H   UNL     1      -1.296  -8.793 -19.567  1.00  0.00     0.211 HD
ENDBRANCH  17  22
BRANCH  19  24
ATOM     24  O   UNL     1      -0.561  -4.925 -19.830  1.00  0.00    -0.387 OA
ATOM     25  H   UNL     1      -0.018  -5.018 -18.976  1.00  0.00     0.211 HD
ENDBRANCH  19  24
BRANCH  20  26
ATOM     26  C   UNL     1      -3.248  -5.115 -23.198  1.00  0.00     0.191 C 
BRANCH  26  27
ATOM     27  O   UNL     1      -3.592  -3.738 -23.113  1.00  0.00    -0.394 OA
ATOM     28  H   UNL     1      -2.918  -3.293 -22.519  1.00  0.00     0.210 HD
ENDBRANCH  26  27
ENDBRANCH  20  26
BRANCH  21  29
ATOM     29  O   UNL     1      -3.425  -4.851 -20.281  1.00  0.00    -0.387 OA
ATOM     30  H   UNL     1      -2.893  -4.390 -19.577  1.00  0.00     0.211 HD
ENDBRANCH  21  29
ENDBRANCH   1  16
TORSDOF 10
ENDMDL
MODEL 2
REMARK VINA RESULT:    -4.002      2.083      4.112
REMARK INTER + INTRA:          -6.680
REMARK INTER:                  -5.567
REMARK INTRA:                  -1.113
REMARK UNBOUND:                -1.040
REMARK SMILES OCC1=C[C@@H](O)[C@H]2C=CO[C@H](O[C@@H]3O[C@@H](CO)[C@H](O)[C@H](O)[C@H]3O)[C@@H]12
REMARK SMILES IDX 12 1 11 2 8 3 9 4 7 5 10 6 24 7 5 8 3 9 4 10 6 11 2 13 1 14
REMARK SMILES IDX 13 16 22 17 14 18 20 19 15 20 18 21 23 22 21 24 16 26 17 27
REMARK SMILES IDX 19 29
REMARK H PARENT 6 12 1 15 23 23 21 25 17 28 19 30
REMARK Flexibility Score: inf
ROOT
ATOM      1  O   UNL     1      -0.938  -6.268 -23.969  1.00  0.00    -0.310 OA
ENDROOT
BRANCH   1   2
ATOM      2  C   UNL     1      -0.278  -6.806 -22.804  1.00  0.00     0.316 C 
ATOM      3  C   UNL     1       2.469  -6.278 -23.370  1.00  0.00     0.018 C 
ATOM      4  C   UNL     1       1.930  -7.457 -23.758  1.00  0.00     0.186 C 
ATOM      5  C   UNL     1       1.973  -5.605 -22.082  1.00  0.00     0.061 C 
ATOM      6  O   UNL     1       0.683  -7.792 -23.223  1.00  0.00    -0.472 OA
ATOM      7  C   UNL     1       0.439  -5.650 -21.949  1.00  0.00     0.096 C 
ATOM      8  C   UNL     1       2.484  -6.174 -20.743  1.00  0.00     0.145 C 
ATOM      9  C   UNL     1       0.185  -5.832 -20.485  1.00  0.00    -0.036 C 
ATOM     10  C   UNL     1       1.291  -6.156 -19.808  1.00  0.00     0.007 C 
BRANCH   8  11
ATOM     11  O   UNL     1       2.996  -7.479 -20.870  1.00  0.00    -0.388 OA
ATOM     12  H   UNL     1       3.596  -7.506 -21.670  1.00  0.00     0.211 HD
ENDBRANCH   8  11
BRANCH   9  13
ATOM     13  C   UNL     1      -1.188  -5.585 -19.827  1.00  0.00     0.187 C 
BRANCH  13  14
ATOM     14  O   UNL     1      -1.565  -4.260 -19.894  1.00  0.00    -0.392 OA
ATOM     15  H   UNL     1      -2.432  -4.151 -19.369  1.00  0.00     0.211 HD
ENDBRANCH  13  14
ENDBRANCH   9  13
ENDBRANCH   1   2
BRANCH   1  16
ATOM     16  C   UNL     1      -2.307  -6.668 -23.968  1.00  0.00     0.286 C 
ATOM     17  C   UNL     1      -3.008  -6.295 -22.659  1.00  0.00     0.202 C 
ATOM     18  O   UNL     1      -2.975  -6.288 -25.157  1.00  0.00    -0.341 OA
ATOM     19  C   UNL     1      -3.552  -4.858 -22.661  1.00  0.00     0.179 C 
ATOM     20  C   UNL     1      -3.509  -4.981 -25.166  1.00  0.00     0.178 C 
ATOM     21  C   UNL     1      -4.412  -4.717 -23.892  1.00  0.00     0.177 C 
BRANCH  17  22
ATOM     22  O   UNL     1      -4.095  -7.188 -22.454  1.00  0.00    -0.385 OA
ATOM     23  H   UNL     1      -3.800  -7.875 -21.777  1.00  0.00     0.211 HD
ENDBRANCH  17  22
BRANCH  19  24
ATOM     24  O   UNL     1      -2.558  -3.861 -22.640  1.00  0.00    -0.387 OA
ATOM     25  H   UNL     1      -2.227  -3.767 -21.683  1.00  0.00     0.211 HD
ENDBRANCH  19  24
BRANCH  20  26
ATOM     26  C   UNL     1      -4.353  -4.810 -26.445  1.00  0.00     0.191 C 
BRANCH  26  27
ATOM     27  O   UNL     1      -4.781  -3.464 -26.597  1.00  0.00    -0.394 OA
ATOM     28  H   UNL     1      -4.401  -3.119 -27.458  1.00  0.00     0.210 HD
ENDBRANCH  26  27
ENDBRANCH  20  26
BRANCH  21  29
ATOM     29  O   UNL     1      -5.125  -3.493 -23.939  1.00  0.00    -0.387 OA
ATOM     30  H   UNL     1      -5.984  -3.710 -24.393  1.00  0.00     0.211 HD
ENDBRANCH  21  29
ENDBRANCH   1  16
TORSDOF 10
ENDMDL
MODEL 3
REMARK VINA RESULT:    -3.990      5.032      7.236
REMARK INTER + INTRA:          -6.663
REMARK INTER:                  -5.596
REMARK INTRA:                  -1.066
REMARK UNBOUND:                -1.040
REMARK SMILES OCC1=C[C@@H](O)[C@H]2C=CO[C@H](O[C@@H]3O[C@@H](CO)[C@H](O)[C@H](O)[C@H]3O)[C@@H]12
REMARK SMILES IDX 12 1 11 2 8 3 9 4 7 5 10 6 24 7 5 8 3 9 4 10 6 11 2 13 1 14
REMARK SMILES IDX 13 16 22 17 14 18 20 19 15 20 18 21 23 22 21 24 16 26 17 27
REMARK SMILES IDX 19 29
REMARK H PARENT 6 12 1 15 23 23 21 25 17 28 19 30
REMARK Flexibility Score: inf
ROOT
ATOM      1  O   UNL     1      -3.306  -5.195 -27.228  1.00  0.00    -0.310 OA
ENDROOT
BRANCH   1   2
ATOM      2  C   UNL     1      -3.994  -5.694 -28.394  1.00  0.00     0.316 C 
ATOM      3  C   UNL     1      -3.253  -3.792 -30.388  1.00  0.00     0.018 C 
ATOM      4  C   UNL     1      -4.378  -3.585 -29.666  1.00  0.00     0.186 C 
ATOM      5  C   UNL     1      -2.820  -5.227 -30.726  1.00  0.00     0.061 C 
ATOM      6  O   UNL     1      -4.852  -4.661 -28.910  1.00  0.00    -0.472 OA
ATOM      7  C   UNL     1      -2.958  -6.179 -29.523  1.00  0.00     0.096 C 
ATOM      8  C   UNL     1      -3.573  -5.945 -31.864  1.00  0.00     0.145 C 
ATOM      9  C   UNL     1      -3.386  -7.487 -30.115  1.00  0.00    -0.036 C 
ATOM     10  C   UNL     1      -3.763  -7.373 -31.392  1.00  0.00     0.007 C 
BRANCH   8  11
ATOM     11  O   UNL     1      -4.815  -5.348 -32.151  1.00  0.00    -0.388 OA
ATOM     12  H   UNL     1      -4.649  -4.502 -32.656  1.00  0.00     0.211 HD
ENDBRANCH   8  11
BRANCH   9  13
ATOM     13  C   UNL     1      -3.313  -8.825 -29.351  1.00  0.00     0.187 C 
BRANCH  13  14
ATOM     14  O   UNL     1      -2.033  -9.113 -28.928  1.00  0.00    -0.392 OA
ATOM     15  H   UNL     1      -1.653  -9.836 -29.538  1.00  0.00     0.211 HD
ENDBRANCH  13  14
ENDBRANCH   9  13
ENDBRANCH   1   2
BRANCH   1  16
ATOM     16  C   UNL     1      -3.831  -5.824 -26.060  1.00  0.00     0.286 C 
ATOM     17  C   UNL     1      -3.728  -7.350 -26.140  1.00  0.00     0.202 C 
ATOM     18  O   UNL     1      -3.342  -5.235 -24.869  1.00  0.00    -0.341 OA
ATOM     19  C   UNL     1      -2.366  -7.883 -25.671  1.00  0.00     0.179 C 
ATOM     20  C   UNL     1      -2.105  -5.733 -24.405  1.00  0.00     0.178 C 
ATOM     21  C   UNL     1      -2.124  -7.314 -24.295  1.00  0.00     0.177 C 
BRANCH  17  22
ATOM     22  O   UNL     1      -4.742  -7.919 -25.322  1.00  0.00    -0.385 OA
ATOM     23  H   UNL     1      -4.316  -8.652 -24.776  1.00  0.00     0.211 HD
ENDBRANCH  17  22
BRANCH  19  24
ATOM     24  O   UNL     1      -1.293  -7.570 -26.527  1.00  0.00    -0.387 OA
ATOM     25  H   UNL     1      -1.439  -6.629 -26.882  1.00  0.00     0.211 HD
ENDBRANCH  19  24
BRANCH  20  26
ATOM     26  C   UNL     1      -1.825  -5.120 -23.018  1.00  0.00     0.191 C 
BRANCH  26  27
ATOM     27  O   UNL     1      -2.641  -3.979 -22.791  1.00  0.00    -0.394 OA
ATOM     28  H   UNL     1      -3.529  -4.302 -22.455  1.00  0.00     0.210 HD
ENDBRANCH  26  27
ENDBRANCH  20  26
BRANCH  21  29
ATOM     29  O   UNL     1      -0.981  -7.856 -23.658  1.00  0.00    -0.387 OA
ATOM     30  H   UNL     1      -1.258  -8.009 -22.714  1.00  0.00     0.211 HD
ENDBRANCH  21  29
ENDBRANCH   1  16
TORSDOF 10
ENDMDL
MODEL 4
REMARK VINA RESULT:    -3.989      3.338      5.961
REMARK INTER + INTRA:          -6.662
REMARK INTER:                  -5.416
REMARK INTRA:                  -1.245
REMARK UNBOUND:                -1.040
REMARK SMILES OCC1=C[C@@H](O)[C@H]2C=CO[C@H](O[C@@H]3O[C@@H](CO)[C@H](O)[C@H](O)[C@H]3O)[C@@H]12
REMARK SMILES IDX 12 1 11 2 8 3 9 4 7 5 10 6 24 7 5 8 3 9 4 10 6 11 2 13 1 14
REMARK SMILES IDX 13 16 22 17 14 18 20 19 15 20 18 21 23 22 21 24 16 26 17 27
REMARK SMILES IDX 19 29
REMARK H PARENT 6 12 1 15 23 23 21 25 17 28 19 30
REMARK Flexibility Score: inf
ROOT
ATOM      1  O   UNL     1      -1.372  -6.121 -25.741  1.00  0.00    -0.310 OA
ENDROOT
BRANCH   1   2
ATOM      2  C   UNL     1      -1.575  -6.572 -24.385  1.00  0.00     0.316 C 
ATOM      3  C   UNL     1       1.049  -6.364 -23.283  1.00  0.00     0.018 C 
ATOM      4  C   UNL     1       0.664  -7.528 -23.855  1.00  0.00     0.186 C 
ATOM      5  C   UNL     1       0.012  -5.498 -22.552  1.00  0.00     0.061 C 
ATOM      6  O   UNL     1      -0.698  -7.683 -24.124  1.00  0.00    -0.472 OA
ATOM      7  C   UNL     1      -1.314  -5.390 -23.329  1.00  0.00     0.096 C 
ATOM      8  C   UNL     1      -0.415  -5.945 -21.139  1.00  0.00     0.145 C 
ATOM      9  C   UNL     1      -2.377  -5.371 -22.275  1.00  0.00    -0.036 C 
ATOM     10  C   UNL     1      -1.911  -5.708 -21.069  1.00  0.00     0.007 C 
BRANCH   8  11
ATOM     11  O   UNL     1      -0.114  -7.297 -20.885  1.00  0.00    -0.388 OA
ATOM     12  H   UNL     1      -0.679  -7.608 -20.122  1.00  0.00     0.211 HD
ENDBRANCH   8  11
BRANCH   9  13
ATOM     13  C   UNL     1      -3.829  -4.924 -22.545  1.00  0.00     0.187 C 
BRANCH  13  14
ATOM     14  O   UNL     1      -3.889  -3.670 -23.115  1.00  0.00    -0.392 OA
ATOM     15  H   UNL     1      -4.591  -3.691 -23.854  1.00  0.00     0.211 HD
ENDBRANCH  13  14
ENDBRANCH   9  13
ENDBRANCH   1   2
BRANCH   1  16
ATOM     16  C   UNL     1      -2.300  -6.775 -26.605  1.00  0.00     0.286 C 
ATOM     17  C   UNL     1      -3.730  -6.703 -26.062  1.00  0.00     0.202 C 
ATOM     18  O   UNL     1      -2.133  -6.393 -27.957  1.00  0.00    -0.341 OA
ATOM     19  C   UNL     1      -4.455  -5.408 -26.458  1.00  0.00     0.179 C 
ATOM     20  C   UNL     1      -2.817  -5.221 -28.349  1.00  0.00     0.178 C 
ATOM     21  C   UNL     1      -4.351  -5.290 -27.959  1.00  0.00     0.177 C 
BRANCH  17  22
ATOM     22  O   UNL     1      -4.468  -7.807 -26.571  1.00  0.00    -0.385 OA
ATOM     23  H   UNL     1      -5.266  -7.942 -25.971  1.00  0.00     0.211 HD
ENDBRANCH  17  22
BRANCH  19  24
ATOM     24  O   UNL     1      -3.953  -4.247 -25.839  1.00  0.00    -0.387 OA
ATOM     25  H   UNL     1      -3.250  -4.532 -25.162  1.00  0.00     0.211 HD
ENDBRANCH  19  24
BRANCH  20  26
ATOM     26  C   UNL     1      -2.677  -5.065 -29.877  1.00  0.00     0.191 C 
BRANCH  26  27
ATOM     27  O   UNL     1      -2.944  -3.729 -30.280  1.00  0.00    -0.394 OA
ATOM     28  H   UNL     1      -2.655  -3.123 -29.535  1.00  0.00     0.210 HD
ENDBRANCH  26  27
ENDBRANCH  20  26
BRANCH  21  29
ATOM     29  O   UNL     1      -5.125  -4.230 -28.492  1.00  0.00    -0.387 OA
ATOM     30  H   UNL     1      -4.912  -3.441 -27.924  1.00  0.00     0.211 HD
ENDBRANCH  21  29
ENDBRANCH   1  16
TORSDOF 10
ENDMDL
MODEL 5
REMARK VINA RESULT:    -3.904      1.869      3.391
REMARK INTER + INTRA:          -6.542
REMARK INTER:                  -5.351
REMARK INTRA:                  -1.190
REMARK UNBOUND:                -1.040
REMARK SMILES OCC1=C[C@@H](O)[C@H]2C=CO[C@H](O[C@@H]3O[C@@H](CO)[C@H](O)[C@H](O)[C@H]3O)[C@@H]12
REMARK SMILES IDX 12 1 11 2 8 3 9 4 7 5 10 6 24 7 5 8 3 9 4 10 6 11 2 13 1 14
REMARK SMILES IDX 13 16 22 17 14 18 20 19 15 20 18 21 23 22 21 24 16 26 17 27
REMARK SMILES IDX 19 29
REMARK H PARENT 6 12 1 15 23 23 21 25 17 28 19 30
REMARK Flexibility Score: inf
ROOT
ATOM      1  O   UNL     1      -0.092  -6.045 -23.259  1.00  0.00    -0.310 OA
ENDROOT
BRANCH   1   2
ATOM      2  C   UNL     1       0.820  -6.711 -22.359  1.00  0.00     0.316 C 
ATOM      3  C   UNL     1       3.219  -6.814 -23.900  1.00  0.00     0.018 C 
ATOM      4  C   UNL     1       2.346  -7.845 -23.970  1.00  0.00     0.186 C 
ATOM      5  C   UNL     1       3.375  -6.038 -22.583  1.00  0.00     0.061 C 
ATOM      6  O   UNL     1       1.338  -7.888 -23.002  1.00  0.00    -0.472 OA
ATOM      7  C   UNL     1       2.020  -5.738 -21.915  1.00  0.00     0.096 C 
ATOM      8  C   UNL     1       4.208  -6.699 -21.466  1.00  0.00     0.145 C 
ATOM      9  C   UNL     1       2.283  -5.850 -20.445  1.00  0.00    -0.036 C 
ATOM     10  C   UNL     1       3.466  -6.409 -20.176  1.00  0.00     0.007 C 
BRANCH   8  11
ATOM     11  O   UNL     1       4.358  -8.086 -21.652  1.00  0.00    -0.388 OA
ATOM     12  H   UNL     1       3.454  -8.482 -21.812  1.00  0.00     0.211 HD
ENDBRANCH   8  11
BRANCH   9  13
ATOM     13  C   UNL     1       1.324  -5.298 -19.370  1.00  0.00     0.187 C 
BRANCH  13  14
ATOM     14  O   UNL     1       0.653  -4.173 -19.801  1.00  0.00    -0.392 OA
ATOM     15  H   UNL     1       0.743  -4.119 -20.815  1.00  0.00     0.211 HD
ENDBRANCH  13  14
ENDBRANCH   9  13
ENDBRANCH   1   2
BRANCH   1  16
ATOM     16  C   UNL     1      -1.337  -6.740 -23.275  1.00  0.00     0.286 C 
ATOM     17  C   UNL     1      -1.894  -6.943 -21.863  1.00  0.00     0.202 C 
ATOM     18  O   UNL     1      -2.239  -6.199 -24.222  1.00  0.00    -0.341 OA
ATOM     19  C   UNL     1      -2.707  -5.740 -21.362  1.00  0.00     0.179 C 
ATOM     20  C   UNL     1      -3.018  -5.111 -23.771  1.00  0.00     0.178 C 
ATOM     21  C   UNL     1      -3.754  -5.453 -22.410  1.00  0.00     0.177 C 
BRANCH  17  22
ATOM     22  O   UNL     1      -2.737  -8.088 -21.865  1.00  0.00    -0.385 OA
ATOM     23  H   UNL     1      -3.545  -7.872 -21.303  1.00  0.00     0.211 HD
ENDBRANCH  17  22
BRANCH  19  24
ATOM     24  O   UNL     1      -1.941  -4.586 -21.105  1.00  0.00    -0.387 OA
ATOM     25  H   UNL     1      -2.583  -3.812 -20.953  1.00  0.00     0.211 HD
ENDBRANCH  19  24
BRANCH  20  26
ATOM     26  C   UNL     1      -4.062  -4.779 -24.855  1.00  0.00     0.191 C 
BRANCH  26  27
ATOM     27  O   UNL     1      -4.703  -3.540 -24.584  1.00  0.00    -0.394 OA
ATOM     28  H   UNL     1      -5.145  -3.234 -25.430  1.00  0.00     0.210 HD
ENDBRANCH  26  27
ENDBRANCH  20  26
BRANCH  21  29
ATOM     29  O   UNL     1      -4.695  -4.474 -22.007  1.00  0.00    -0.387 OA
ATOM     30  H   UNL     1      -5.374  -4.970 -21.472  1.00  0.00     0.211 HD
ENDBRANCH  21  29
ENDBRANCH   1  16
TORSDOF 10
ENDMDL
MODEL 6
REMARK VINA RESULT:    -3.775     10.339     12.328
REMARK INTER + INTRA:          -6.359
REMARK INTER:                  -5.217
REMARK INTRA:                  -1.143
REMARK UNBOUND:                -1.040
REMARK SMILES OCC1=C[C@@H](O)[C@H]2C=CO[C@H](O[C@@H]3O[C@@H](CO)[C@H](O)[C@H](O)[C@H]3O)[C@@H]12
REMARK SMILES IDX 12 1 11 2 8 3 9 4 7 5 10 6 24 7 5 8 3 9 4 10 6 11 2 13 1 14
REMARK SMILES IDX 13 16 22 17 14 18 20 19 15 20 18 21 23 22 21 24 16 26 17 27
REMARK SMILES IDX 19 29
REMARK H PARENT 6 12 1 15 23 23 21 25 17 28 19 30
REMARK Flexibility Score: inf
ROOT
ATOM      1  O   UNL     1      10.993  -3.955 -21.275  1.00  0.00    -0.310 OA
ENDROOT
BRANCH   1   2
ATOM      2  C   UNL     1      12.167  -4.573 -21.843  1.00  0.00     0.316 C 
ATOM      3  C   UNL     1      11.041  -6.294 -23.822  1.00  0.00     0.018 C 
ATOM      4  C   UNL     1      11.248  -6.772 -22.573  1.00  0.00     0.186 C 
ATOM      5  C   UNL     1      12.002  -5.247 -24.403  1.00  0.00     0.061 C 
ATOM      6  O   UNL     1      12.048  -6.002 -21.724  1.00  0.00    -0.472 OA
ATOM      7  C   UNL     1      12.364  -4.152 -23.381  1.00  0.00     0.096 C 
ATOM      8  C   UNL     1      13.366  -5.747 -24.919  1.00  0.00     0.145 C 
ATOM      9  C   UNL     1      13.796  -3.820 -23.665  1.00  0.00    -0.036 C 
ATOM     10  C   UNL     1      14.377  -4.705 -24.481  1.00  0.00     0.007 C 
BRANCH   8  11
ATOM     11  O   UNL     1      13.707  -7.014 -24.409  1.00  0.00    -0.388 OA
ATOM     12  H   UNL     1      12.945  -7.344 -23.853  1.00  0.00     0.211 HD
ENDBRANCH   8  11
BRANCH   9  13
ATOM     13  C   UNL     1      14.489  -2.546 -23.139  1.00  0.00     0.187 C 
BRANCH  13  14
ATOM     14  O   UNL     1      13.583  -1.610 -22.689  1.00  0.00    -0.392 OA
ATOM     15  H   UNL     1      13.311  -1.027 -23.480  1.00  0.00     0.211 HD
ENDBRANCH  13  14
ENDBRANCH   9  13
ENDBRANCH   1   2
BRANCH   1  16
ATOM     16  C   UNL     1      11.070  -4.008 -19.851  1.00  0.00     0.286 C 
ATOM     17  C   UNL     1      12.323  -3.304 -19.322  1.00  0.00     0.202 C 
ATOM     18  O   UNL     1       9.849  -3.640 -19.236  1.00  0.00    -0.341 OA
ATOM     19  C   UNL     1      12.126  -1.792 -19.138  1.00  0.00     0.179 C 
ATOM     20  C   UNL     1       9.663  -2.256 -19.029  1.00  0.00     0.178 C 
ATOM     21  C   UNL     1      10.900  -1.612 -18.277  1.00  0.00     0.177 C 
BRANCH  17  22
ATOM     22  O   UNL     1      12.669  -3.871 -18.065  1.00  0.00    -0.385 OA
ATOM     23  H   UNL     1      13.673  -3.955 -18.036  1.00  0.00     0.211 HD
ENDBRANCH  17  22
BRANCH  19  24
ATOM     24  O   UNL     1      11.991  -1.071 -20.340  1.00  0.00    -0.387 OA
ATOM     25  H   UNL     1      11.887  -0.087 -20.106  1.00  0.00     0.211 HD
ENDBRANCH  19  24
BRANCH  20  26
ATOM     26  C   UNL     1       8.385  -2.058 -18.189  1.00  0.00     0.191 C 
BRANCH  26  27
ATOM     27  O   UNL     1       7.686  -0.888 -18.593  1.00  0.00    -0.394 OA
ATOM     28  H   UNL     1       8.367  -0.185 -18.806  1.00  0.00     0.210 HD
ENDBRANCH  26  27
ENDBRANCH  20  26
BRANCH  21  29
ATOM     29  O   UNL     1      10.690  -0.270 -17.875  1.00  0.00    -0.387 OA
ATOM     30  H   UNL     1      10.708  -0.291 -16.880  1.00  0.00     0.211 HD
ENDBRANCH  21  29
ENDBRANCH   1  16
TORSDOF 10
ENDMDL
MODEL 7
REMARK VINA RESULT:    -3.706      1.862      5.894
REMARK INTER + INTRA:          -6.262
REMARK INTER:                  -5.101
REMARK INTRA:                  -1.161
REMARK UNBOUND:                -1.040
REMARK SMILES OCC1=C[C@@H](O)[C@H]2C=CO[C@H](O[C@@H]3O[C@@H](CO)[C@H](O)[C@H](O)[C@H]3O)[C@@H]12
REMARK SMILES IDX 12 1 11 2 8 3 9 4 7 5 10 6 24 7 5 8 3 9 4 10 6 11 2 13 1 14
REMARK SMILES IDX 13 16 22 17 14 18 20 19 15 20 18 21 23 22 21 24 16 26 17 27
REMARK SMILES IDX 19 29
REMARK H PARENT 6 12 1 15 23 23 21 25 17 28 19 30
REMARK Flexibility Score: inf
ROOT
ATOM      1  O   UNL     1      -0.369  -7.590 -22.724  1.00  0.00    -0.310 OA
ENDROOT
BRANCH   1   2
ATOM      2  C   UNL     1      -1.710  -7.679 -23.250  1.00  0.00     0.316 C 
ATOM      3  C   UNL     1      -2.759  -5.091 -22.663  1.00  0.00     0.018 C 
ATOM      4  C   UNL     1      -2.918  -6.086 -21.762  1.00  0.00     0.186 C 
ATOM      5  C   UNL     1      -2.754  -5.418 -24.164  1.00  0.00     0.061 C 
ATOM      6  O   UNL     1      -2.647  -7.386 -22.198  1.00  0.00    -0.472 OA
ATOM      7  C   UNL     1      -1.922  -6.675 -24.487  1.00  0.00     0.096 C 
ATOM      8  C   UNL     1      -4.115  -5.685 -24.836  1.00  0.00     0.145 C 
ATOM      9  C   UNL     1      -2.661  -7.348 -25.602  1.00  0.00    -0.036 C 
ATOM     10  C   UNL     1      -3.884  -6.843 -25.787  1.00  0.00     0.007 C 
BRANCH   8  11
ATOM     11  O   UNL     1      -5.125  -5.999 -23.907  1.00  0.00    -0.388 OA
ATOM     12  H   UNL     1      -4.862  -5.627 -23.018  1.00  0.00     0.211 HD
ENDBRANCH   8  11
BRANCH   9  13
ATOM     13  C   UNL     1      -2.036  -8.445 -26.489  1.00  0.00     0.187 C 
BRANCH  13  14
ATOM     14  O   UNL     1      -0.659  -8.382 -26.500  1.00  0.00    -0.392 OA
ATOM     15  H   UNL     1      -0.298  -9.309 -26.278  1.00  0.00     0.211 HD
ENDBRANCH  13  14
ENDBRANCH   9  13
ENDBRANCH   1   2
BRANCH   1  16
ATOM     16  C   UNL     1       0.434  -6.801 -23.600  1.00  0.00     0.286 C 
ATOM     17  C   UNL     1       0.988  -5.558 -22.899  1.00  0.00     0.202 C 
ATOM     18  O   UNL     1       1.379  -7.583 -24.308  1.00  0.00    -0.341 OA
ATOM     19  C   UNL     1       2.295  -5.832 -22.139  1.00  0.00     0.179 C 
ATOM     20  C   UNL     1       2.599  -7.820 -23.639  1.00  0.00     0.178 C 
ATOM     21  C   UNL     1       3.246  -6.469 -23.121  1.00  0.00     0.177 C 
BRANCH  17  22
ATOM     22  O   UNL     1       1.236  -4.555 -23.876  1.00  0.00    -0.385 OA
ATOM     23  H   UNL     1       2.083  -4.806 -24.361  1.00  0.00     0.211 HD
ENDBRANCH  17  22
BRANCH  19  24
ATOM     24  O   UNL     1       2.146  -6.647 -21.001  1.00  0.00    -0.387 OA
ATOM     25  H   UNL     1       3.061  -6.753 -20.569  1.00  0.00     0.211 HD
ENDBRANCH  19  24
BRANCH  20  26
ATOM     26  C   UNL     1       3.564  -8.515 -24.620  1.00  0.00     0.191 C 
BRANCH  26  27
ATOM     27  O   UNL     1       4.252  -7.562 -25.419  1.00  0.00    -0.394 OA
ATOM     28  H   UNL     1       4.357  -7.954 -26.336  1.00  0.00     0.210 HD
ENDBRANCH  26  27
ENDBRANCH  20  26
BRANCH  21  29
ATOM     29  O   UNL     1       4.559  -6.623 -22.610  1.00  0.00    -0.387 OA
ATOM     30  H   UNL     1       4.771  -7.590 -22.725  1.00  0.00     0.211 HD
ENDBRANCH  21  29
ENDBRANCH   1  16
TORSDOF 10
ENDMDL
MODEL 8
REMARK VINA RESULT:    -3.669      2.244      6.104
REMARK INTER + INTRA:          -6.210
REMARK INTER:                  -5.286
REMARK INTRA:                  -0.924
REMARK UNBOUND:                -1.040
REMARK SMILES OCC1=C[C@@H](O)[C@H]2C=CO[C@H](O[C@@H]3O[C@@H](CO)[C@H](O)[C@H](O)[C@H]3O)[C@@H]12
REMARK SMILES IDX 12 1 11 2 8 3 9 4 7 5 10 6 24 7 5 8 3 9 4 10 6 11 2 13 1 14
REMARK SMILES IDX 13 16 22 17 14 18 20 19 15 20 18 21 23 22 21 24 16 26 17 27
REMARK SMILES IDX 19 29
REMARK H PARENT 6 12 1 15 23 23 21 25 17 28 19 30
REMARK Flexibility Score: inf
ROOT
ATOM      1  O   UNL     1      -0.584  -6.796 -24.215  1.00  0.00    -0.310 OA
ENDROOT
BRANCH   1   2
ATOM      2  C   UNL     1      -1.606  -6.161 -25.012  1.00  0.00     0.316 C 
ATOM      3  C   UNL     1      -3.115  -8.394 -25.948  1.00  0.00     0.018 C 
ATOM      4  C   UNL     1      -2.082  -7.939 -26.692  1.00  0.00     0.186 C 
ATOM      5  C   UNL     1      -3.945  -7.406 -25.114  1.00  0.00     0.061 C 
ATOM      6  O   UNL     1      -1.555  -6.690 -26.348  1.00  0.00    -0.472 OA
ATOM      7  C   UNL     1      -3.066  -6.379 -24.376  1.00  0.00     0.096 C 
ATOM      8  C   UNL     1      -4.983  -6.546 -25.862  1.00  0.00     0.145 C 
ATOM      9  C   UNL     1      -3.856  -5.107 -24.403  1.00  0.00    -0.036 C 
ATOM     10  C   UNL     1      -4.894  -5.165 -25.242  1.00  0.00     0.007 C 
BRANCH   8  11
ATOM     11  O   UNL     1      -4.738  -6.484 -27.247  1.00  0.00    -0.388 OA
ATOM     12  H   UNL     1      -3.766  -6.295 -27.387  1.00  0.00     0.211 HD
ENDBRANCH   8  11
BRANCH   9  13
ATOM     13  C   UNL     1      -3.547  -3.900 -23.494  1.00  0.00     0.187 C 
BRANCH  13  14
ATOM     14  O   UNL     1      -2.770  -4.251 -22.410  1.00  0.00    -0.392 OA
ATOM     15  H   UNL     1      -2.744  -5.269 -22.356  1.00  0.00     0.211 HD
ENDBRANCH  13  14
ENDBRANCH   9  13
ENDBRANCH   1   2
BRANCH   1  16
ATOM     16  C   UNL     1       0.026  -5.828 -23.363  1.00  0.00     0.286 C 
ATOM     17  C   UNL     1      -0.075  -6.225 -21.887  1.00  0.00     0.202 C 
ATOM     18  O   UNL     1       1.314  -5.454 -23.815  1.00  0.00    -0.341 OA
ATOM     19  C   UNL     1       1.059  -7.159 -21.440  1.00  0.00     0.179 C 
ATOM     20  C   UNL     1       2.375  -6.283 -23.389  1.00  0.00     0.178 C 
ATOM     21  C   UNL     1       2.355  -6.484 -21.818  1.00  0.00     0.177 C 
BRANCH  17  22
ATOM     22  O   UNL     1      -0.028  -5.046 -21.094  1.00  0.00    -0.385 OA
ATOM     23  H   UNL     1      -0.973  -4.709 -20.993  1.00  0.00     0.211 HD
ENDBRANCH  17  22
BRANCH  19  24
ATOM     24  O   UNL     1       1.001  -8.452 -21.994  1.00  0.00    -0.387 OA
ATOM     25  H   UNL     1       1.910  -8.889 -21.868  1.00  0.00     0.211 HD
ENDBRANCH  19  24
BRANCH  20  26
ATOM     26  C   UNL     1       3.704  -5.626 -23.812  1.00  0.00     0.191 C 
BRANCH  26  27
ATOM     27  O   UNL     1       4.661  -6.607 -24.188  1.00  0.00    -0.394 OA
ATOM     28  H   UNL     1       5.551  -6.152 -24.259  1.00  0.00     0.210 HD
ENDBRANCH  26  27
ENDBRANCH  20  26
BRANCH  21  29
ATOM     29  O   UNL     1       3.500  -7.149 -21.312  1.00  0.00    -0.387 OA
ATOM     30  H   UNL     1       3.539  -8.012 -21.806  1.00  0.00     0.211 HD
ENDBRANCH  21  29
ENDBRANCH   1  16
TORSDOF 10
ENDMDL
MODEL 9
REMARK VINA RESULT:    -2.649     12.097     14.402
REMARK INTER + INTRA:          -4.772
REMARK INTER:                  -3.816
REMARK INTRA:                  -0.957
REMARK UNBOUND:                -1.040
REMARK SMILES OCC1=C[C@@H](O)[C@H]2C=CO[C@H](O[C@@H]3O[C@@H](CO)[C@H](O)[C@H](O)[C@H]3O)[C@@H]12
REMARK SMILES IDX 12 1 11 2 8 3 9 4 7 5 10 6 24 7 5 8 3 9 4 10 6 11 2 13 1 14
REMARK SMILES IDX 13 16 22 17 14 18 20 19 15 20 18 21 23 22 21 24 16 26 17 27
REMARK SMILES IDX 19 29
REMARK H PARENT 6 12 1 15 23 23 21 25 17 28 19 30
REMARK Flexibility Score: inf
ROOT
ATOM      1  O   UNL     1      -2.215  -1.818 -34.842  1.00  0.00    -0.310 OA
ENDROOT
BRANCH   1   2
ATOM      2  C   UNL     1      -2.479  -3.011 -34.073  1.00  0.00     0.316 C 
ATOM      3  C   UNL     1      -5.124  -2.536 -33.114  1.00  0.00     0.018 C 
ATOM      4  C   UNL     1      -4.070  -2.141 -32.364  1.00  0.00     0.186 C 
ATOM      5  C   UNL     1      -5.009  -3.799 -33.980  1.00  0.00     0.061 C 
ATOM      6  O   UNL     1      -2.814  -2.636 -32.726  1.00  0.00    -0.472 OA
ATOM      7  C   UNL     1      -3.664  -3.878 -34.726  1.00  0.00     0.096 C 
ATOM      8  C   UNL     1      -5.125  -5.161 -33.266  1.00  0.00     0.145 C 
ATOM      9  C   UNL     1      -3.316  -5.335 -34.737  1.00  0.00    -0.036 C 
ATOM     10  C   UNL     1      -4.084  -6.053 -33.913  1.00  0.00     0.007 C 
BRANCH   8  11
ATOM     11  O   UNL     1      -4.903  -5.065 -31.879  1.00  0.00    -0.388 OA
ATOM     12  H   UNL     1      -4.459  -4.189 -31.691  1.00  0.00     0.211 HD
ENDBRANCH   8  11
BRANCH   9  13
ATOM     13  C   UNL     1      -2.244  -5.941 -35.667  1.00  0.00     0.187 C 
BRANCH  13  14
ATOM     14  O   UNL     1      -2.060  -5.190 -36.808  1.00  0.00    -0.392 OA
ATOM     15  H   UNL     1      -1.397  -4.445 -36.593  1.00  0.00     0.211 HD
ENDBRANCH  13  14
ENDBRANCH   9  13
ENDBRANCH   1   2
BRANCH   1  16
ATOM     16  C   UNL     1      -1.090  -2.037 -35.691  1.00  0.00     0.286 C 
ATOM     17  C   UNL     1      -1.397  -1.680 -37.147  1.00  0.00     0.202 C 
ATOM     18  O   UNL     1       0.098  -1.484 -35.156  1.00  0.00    -0.341 OA
ATOM     19  C   UNL     1      -1.188  -0.189 -37.454  1.00  0.00     0.179 C 
ATOM     20  C   UNL     1       0.324  -0.122 -35.453  1.00  0.00     0.178 C 
ATOM     21  C   UNL     1       0.212   0.157 -37.009  1.00  0.00     0.177 C 
BRANCH  17  22
ATOM     22  O   UNL     1      -0.543  -2.439 -37.993  1.00  0.00    -0.385 OA
ATOM     23  H   UNL     1       0.271  -2.692 -37.455  1.00  0.00     0.211 HD
ENDBRANCH  17  22
BRANCH  19  24
ATOM     24  O   UNL     1      -2.123   0.668 -36.841  1.00  0.00    -0.387 OA
ATOM     25  H   UNL     1      -2.048   1.580 -37.284  1.00  0.00     0.211 HD
ENDBRANCH  19  24
BRANCH  20  26
ATOM     26  C   UNL     1       1.736   0.255 -34.959  1.00  0.00     0.191 C 
BRANCH  26  27
ATOM     27  O   UNL     1       2.729  -0.170 -35.883  1.00  0.00    -0.394 OA
ATOM     28  H   UNL     1       2.514  -1.112 -36.149  1.00  0.00     0.210 HD
ENDBRANCH  26  27
ENDBRANCH  20  26
BRANCH  21  29
ATOM     29  O   UNL     1       0.613   1.462 -37.386  1.00  0.00    -0.387 OA
ATOM     30  H   UNL     1       1.216   1.770 -36.656  1.00  0.00     0.211 HD
ENDBRANCH  21  29
ENDBRANCH   1  16
TORSDOF 10
ENDMDL
