MODEL 1
REMARK VINA RESULT:    -3.846      0.000      0.000
REMARK INTER + INTRA:          -8.330
REMARK INTER:                  -6.544
REMARK INTRA:                  -1.785
REMARK UNBOUND:                -1.785
REMARK SMILES CCCCCCCCCCCCCC(=O)[O-]
REMARK SMILES IDX 8 1 9 2 10 3 11 4 12 5 13 6 14 7 15 8 16 9 7 10 6 11 5 12
REMARK SMILES IDX 4 13 3 14 2 15 1 16
REMARK H PARENT
REMARK Flexibility Score: inf
ROOT
ATOM      1  C   UNL     1     -24.515  -8.870  -6.353  1.00  0.00     0.000 C 
ENDROOT
BRANCH   1   2
ATOM      2  C   UNL     1     -23.666  -7.600  -6.519  1.00  0.00     0.000 C 
BRANCH   2   3
ATOM      3  C   UNL     1     -24.474  -6.417  -7.075  1.00  0.00     0.000 C 
BRANCH   3   4
ATOM      4  C   UNL     1     -25.988  -6.591  -6.885  1.00  0.00     0.000 C 
BRANCH   4   5
ATOM      5  C   UNL     1     -26.536  -5.570  -5.881  1.00  0.00     0.006 C 
BRANCH   5   6
ATOM      6  C   UNL     1     -26.597  -6.163  -4.471  1.00  0.00     0.053 C 
BRANCH   6   7
ATOM      7  C   UNL     1     -25.583  -5.510  -3.584  1.00  0.00     0.041 C 
ATOM      8  O   UNL     1     -25.874  -4.457  -2.958  1.00  0.00    -0.550 OA
ATOM      9  O   UNL     1     -24.334  -6.093  -3.410  1.00  0.00    -0.550 OA
ENDBRANCH   6   7
ENDBRANCH   5   6
ENDBRANCH   4   5
ENDBRANCH   3   4
ENDBRANCH   2   3
ENDBRANCH   1   2
BRANCH   1  10
ATOM     10  C   UNL     1     -24.505  -9.350  -4.897  1.00  0.00     0.000 C 
BRANCH  10  11
ATOM     11  C   UNL     1     -23.091  -9.291  -4.307  1.00  0.00    -0.000 C 
BRANCH  11  12
ATOM     12  C   UNL     1     -22.502 -10.699  -4.146  1.00  0.00    -0.000 C 
BRANCH  12  13
ATOM     13  C   UNL     1     -21.247 -10.925  -5.007  1.00  0.00    -0.000 C 
BRANCH  13  14
ATOM     14  C   UNL     1     -21.516 -11.448  -6.432  1.00  0.00    -0.000 C 
BRANCH  14  15
ATOM     15  C   UNL     1     -21.349 -10.403  -7.550  1.00  0.00    -0.003 C 
ATOM     16  C   UNL     1     -20.254  -9.382  -7.251  1.00  0.00     0.004 C 
ENDBRANCH  14  15
ENDBRANCH  13  14
ENDBRANCH  12  13
ENDBRANCH  11  12
ENDBRANCH  10  11
ENDBRANCH   1  10
TORSDOF 12
ENDMDL
MODEL 2
REMARK VINA RESULT:    -3.778      1.990      4.046
REMARK INTER + INTRA:          -8.213
REMARK INTER:                  -6.415
REMARK INTRA:                  -1.798
REMARK UNBOUND:                -1.785
REMARK SMILES CCCCCCCCCCCCCC(=O)[O-]
REMARK SMILES IDX 8 1 9 2 10 3 11 4 12 5 13 6 14 7 15 8 16 9 7 10 6 11 5 12
REMARK SMILES IDX 4 13 3 14 2 15 1 16
REMARK H PARENT
REMARK Flexibility Score: inf
ROOT
ATOM      1  C   UNL     1     -20.903 -10.237  -4.620  1.00  0.00     0.000 C 
ENDROOT
BRANCH   1   2
ATOM      2  C   UNL     1     -21.127 -11.264  -5.740  1.00  0.00     0.000 C 
BRANCH   2   3
ATOM      3  C   UNL     1     -22.226 -10.835  -6.725  1.00  0.00     0.000 C 
BRANCH   3   4
ATOM      4  C   UNL     1     -22.814  -9.455  -6.394  1.00  0.00     0.000 C 
BRANCH   4   5
ATOM      5  C   UNL     1     -24.299  -9.562  -6.033  1.00  0.00     0.006 C 
BRANCH   5   6
ATOM      6  C   UNL     1     -24.582  -8.923  -4.671  1.00  0.00     0.053 C 
BRANCH   6   7
ATOM      7  C   UNL     1     -25.430  -7.700  -4.832  1.00  0.00     0.041 C 
ATOM      8  O   UNL     1     -25.945  -7.149  -3.824  1.00  0.00    -0.550 OA
ATOM      9  O   UNL     1     -25.610  -7.139  -6.090  1.00  0.00    -0.550 OA
ENDBRANCH   6   7
ENDBRANCH   5   6
ENDBRANCH   4   5
ENDBRANCH   3   4
ENDBRANCH   2   3
ENDBRANCH   1   2
BRANCH   1  10
ATOM     10  C   UNL     1     -19.423  -9.849  -4.519  1.00  0.00     0.000 C 
BRANCH  10  11
ATOM     11  C   UNL     1     -18.519 -11.005  -4.964  1.00  0.00    -0.000 C 
BRANCH  11  12
ATOM     12  C   UNL     1     -17.424 -10.511  -5.921  1.00  0.00    -0.000 C 
BRANCH  12  13
ATOM     13  C   UNL     1     -17.828  -9.236  -6.684  1.00  0.00    -0.000 C 
BRANCH  13  14
ATOM     14  C   UNL     1     -18.378  -9.470  -8.105  1.00  0.00    -0.000 C 
BRANCH  14  15
ATOM     15  C   UNL     1     -19.690  -8.731  -8.424  1.00  0.00    -0.003 C 
ATOM     16  C   UNL     1     -19.919  -7.513  -7.531  1.00  0.00     0.004 C 
ENDBRANCH  14  15
ENDBRANCH  13  14
ENDBRANCH  12  13
ENDBRANCH  11  12
ENDBRANCH  10  11
ENDBRANCH   1  10
TORSDOF 12
ENDMDL
MODEL 3
REMARK VINA RESULT:    -3.741      3.581      6.382
REMARK INTER + INTRA:          -8.151
REMARK INTER:                  -6.501
REMARK INTRA:                  -1.650
REMARK UNBOUND:                -1.785
REMARK SMILES CCCCCCCCCCCCCC(=O)[O-]
REMARK SMILES IDX 8 1 9 2 10 3 11 4 12 5 13 6 14 7 15 8 16 9 7 10 6 11 5 12
REMARK SMILES IDX 4 13 3 14 2 15 1 16
REMARK H PARENT
REMARK Flexibility Score: inf
ROOT
ATOM      1  C   UNL     1     -22.446  -8.333  -8.027  1.00  0.00     0.000 C 
ENDROOT
BRANCH   1   2
ATOM      2  C   UNL     1     -22.315  -9.854  -8.192  1.00  0.00     0.000 C 
BRANCH   2   3
ATOM      3  C   UNL     1     -21.036 -10.412  -7.549  1.00  0.00     0.000 C 
BRANCH   3   4
ATOM      4  C   UNL     1     -21.321 -11.245  -6.289  1.00  0.00     0.000 C 
BRANCH   4   5
ATOM      5  C   UNL     1     -20.532 -10.711  -5.088  1.00  0.00     0.006 C 
BRANCH   5   6
ATOM      6  C   UNL     1     -19.450  -9.724  -5.535  1.00  0.00     0.053 C 
BRANCH   6   7
ATOM      7  C   UNL     1     -18.089 -10.305  -5.317  1.00  0.00     0.041 C 
ATOM      8  O   UNL     1     -17.961 -11.512  -4.983  1.00  0.00    -0.550 OA
ATOM      9  O   UNL     1     -16.958  -9.526  -5.529  1.00  0.00    -0.550 OA
ENDBRANCH   6   7
ENDBRANCH   5   6
ENDBRANCH   4   5
ENDBRANCH   3   4
ENDBRANCH   2   3
ENDBRANCH   1   2
BRANCH   1  10
ATOM     10  C   UNL     1     -23.337  -7.986  -6.829  1.00  0.00     0.000 C 
BRANCH  10  11
ATOM     11  C   UNL     1     -24.365  -9.094  -6.566  1.00  0.00    -0.000 C 
BRANCH  11  12
ATOM     12  C   UNL     1     -24.489  -9.383  -5.064  1.00  0.00    -0.000 C 
BRANCH  12  13
ATOM     13  C   UNL     1     -23.579  -8.488  -4.204  1.00  0.00    -0.000 C 
BRANCH  13  14
ATOM     14  C   UNL     1     -24.294  -7.331  -3.479  1.00  0.00    -0.000 C 
BRANCH  14  15
ATOM     15  C   UNL     1     -25.825  -7.309  -3.642  1.00  0.00    -0.003 C 
ATOM     16  C   UNL     1     -26.317  -6.140  -4.493  1.00  0.00     0.004 C 
ENDBRANCH  14  15
ENDBRANCH  13  14
ENDBRANCH  12  13
ENDBRANCH  11  12
ENDBRANCH  10  11
ENDBRANCH   1  10
TORSDOF 12
ENDMDL
MODEL 4
REMARK VINA RESULT:    -3.741      2.455      6.153
REMARK INTER + INTRA:          -8.151
REMARK INTER:                  -6.464
REMARK INTRA:                  -1.687
REMARK UNBOUND:                -1.785
REMARK SMILES CCCCCCCCCCCCCC(=O)[O-]
REMARK SMILES IDX 8 1 9 2 10 3 11 4 12 5 13 6 14 7 15 8 16 9 7 10 6 11 5 12
REMARK SMILES IDX 4 13 3 14 2 15 1 16
REMARK H PARENT
REMARK Flexibility Score: inf
ROOT
ATOM      1  C   UNL     1     -23.010  -8.711  -4.346  1.00  0.00     0.000 C 
ENDROOT
BRANCH   1   2
ATOM      2  C   UNL     1     -22.023  -9.820  -3.953  1.00  0.00     0.000 C 
BRANCH   2   3
ATOM      3  C   UNL     1     -22.361 -11.171  -4.603  1.00  0.00     0.000 C 
BRANCH   3   4
ATOM      4  C   UNL     1     -21.301 -11.621  -5.621  1.00  0.00     0.000 C 
BRANCH   4   5
ATOM      5  C   UNL     1     -21.503 -10.921  -6.969  1.00  0.00     0.006 C 
BRANCH   5   6
ATOM      6  C   UNL     1     -20.204 -10.267  -7.448  1.00  0.00     0.053 C 
BRANCH   6   7
ATOM      7  C   UNL     1     -20.412  -8.805  -7.692  1.00  0.00     0.041 C 
ATOM      8  O   UNL     1     -20.901  -8.408  -8.782  1.00  0.00    -0.550 OA
ATOM      9  O   UNL     1     -20.111  -7.884  -6.696  1.00  0.00    -0.550 OA
ENDBRANCH   6   7
ENDBRANCH   5   6
ENDBRANCH   4   5
ENDBRANCH   3   4
ENDBRANCH   2   3
ENDBRANCH   1   2
BRANCH   1  10
ATOM     10  C   UNL     1     -24.288  -9.304  -4.951  1.00  0.00     0.000 C 
BRANCH  10  11
ATOM     11  C   UNL     1     -24.541  -8.748  -6.358  1.00  0.00    -0.000 C 
BRANCH  11  12
ATOM     12  C   UNL     1     -23.731  -7.466  -6.597  1.00  0.00    -0.000 C 
BRANCH  12  13
ATOM     13  C   UNL     1     -24.616  -6.248  -6.916  1.00  0.00    -0.000 C 
BRANCH  13  14
ATOM     14  C   UNL     1     -26.135  -6.506  -6.843  1.00  0.00    -0.000 C 
BRANCH  14  15
ATOM     15  C   UNL     1     -26.875  -5.722  -5.744  1.00  0.00    -0.003 C 
ATOM     16  C   UNL     1     -26.494  -6.171  -4.334  1.00  0.00     0.004 C 
ENDBRANCH  14  15
ENDBRANCH  13  14
ENDBRANCH  12  13
ENDBRANCH  11  12
ENDBRANCH  10  11
ENDBRANCH   1  10
TORSDOF 12
ENDMDL
MODEL 5
REMARK VINA RESULT:    -3.737      1.306      2.980
REMARK INTER + INTRA:          -8.144
REMARK INTER:                  -6.468
REMARK INTRA:                  -1.676
REMARK UNBOUND:                -1.785
REMARK SMILES CCCCCCCCCCCCCC(=O)[O-]
REMARK SMILES IDX 8 1 9 2 10 3 11 4 12 5 13 6 14 7 15 8 16 9 7 10 6 11 5 12
REMARK SMILES IDX 4 13 3 14 2 15 1 16
REMARK H PARENT
REMARK Flexibility Score: inf
ROOT
ATOM      1  C   UNL     1     -21.941 -10.028  -3.725  1.00  0.00     0.000 C 
ENDROOT
BRANCH   1   2
ATOM      2  C   UNL     1     -22.979  -8.935  -4.023  1.00  0.00     0.000 C 
BRANCH   2   3
ATOM      3  C   UNL     1     -24.227  -9.481  -4.733  1.00  0.00     0.000 C 
BRANCH   3   4
ATOM      4  C   UNL     1     -24.445  -8.852  -6.118  1.00  0.00     0.000 C 
BRANCH   4   5
ATOM      5  C   UNL     1     -24.427  -7.322  -6.034  1.00  0.00     0.006 C 
BRANCH   5   6
ATOM      6  C   UNL     1     -25.780  -6.733  -6.443  1.00  0.00     0.053 C 
BRANCH   6   7
ATOM      7  C   UNL     1     -26.506  -6.208  -5.244  1.00  0.00     0.041 C 
ATOM      8  O   UNL     1     -26.215  -6.627  -4.094  1.00  0.00    -0.550 OA
ATOM      9  O   UNL     1     -27.473  -5.221  -5.394  1.00  0.00    -0.550 OA
ENDBRANCH   6   7
ENDBRANCH   5   6
ENDBRANCH   4   5
ENDBRANCH   3   4
ENDBRANCH   2   3
ENDBRANCH   1   2
BRANCH   1  10
ATOM     10  C   UNL     1     -22.283 -11.326  -4.466  1.00  0.00     0.000 C 
BRANCH  10  11
ATOM     11  C   UNL     1     -21.240 -11.636  -5.546  1.00  0.00    -0.000 C 
BRANCH  11  12
ATOM     12  C   UNL     1     -21.708 -11.138  -6.921  1.00  0.00    -0.000 C 
BRANCH  12  13
ATOM     13  C   UNL     1     -20.704 -10.177  -7.583  1.00  0.00    -0.000 C 
BRANCH  13  14
ATOM     14  C   UNL     1     -20.478  -8.848  -6.835  1.00  0.00    -0.000 C 
BRANCH  14  15
ATOM     15  C   UNL     1     -19.089  -8.694  -6.189  1.00  0.00    -0.003 C 
ATOM     16  C   UNL     1     -18.121  -9.806  -6.588  1.00  0.00     0.004 C 
ENDBRANCH  14  15
ENDBRANCH  13  14
ENDBRANCH  12  13
ENDBRANCH  11  12
ENDBRANCH  10  11
ENDBRANCH   1  10
TORSDOF 12
ENDMDL
MODEL 6
REMARK VINA RESULT:    -3.708      1.877      3.944
REMARK INTER + INTRA:          -8.095
REMARK INTER:                  -6.455
REMARK INTRA:                  -1.640
REMARK UNBOUND:                -1.785
REMARK SMILES CCCCCCCCCCCCCC(=O)[O-]
REMARK SMILES IDX 8 1 9 2 10 3 11 4 12 5 13 6 14 7 15 8 16 9 7 10 6 11 5 12
REMARK SMILES IDX 4 13 3 14 2 15 1 16
REMARK H PARENT
REMARK Flexibility Score: inf
ROOT
ATOM      1  C   UNL     1     -21.104 -10.867  -5.281  1.00  0.00     0.000 C 
ENDROOT
BRANCH   1   2
ATOM      2  C   UNL     1     -22.333 -10.862  -4.359  1.00  0.00     0.000 C 
BRANCH   2   3
ATOM      3  C   UNL     1     -22.973  -9.471  -4.232  1.00  0.00     0.000 C 
BRANCH   3   4
ATOM      4  C   UNL     1     -24.446  -9.455  -4.668  1.00  0.00     0.000 C 
BRANCH   4   5
ATOM      5  C   UNL     1     -24.581  -9.024  -6.132  1.00  0.00     0.006 C 
BRANCH   5   6
ATOM      6  C   UNL     1     -23.925  -7.661  -6.367  1.00  0.00     0.053 C 
BRANCH   6   7
ATOM      7  C   UNL     1     -24.963  -6.622  -6.656  1.00  0.00     0.041 C 
ATOM      8  O   UNL     1     -26.052  -6.622  -6.025  1.00  0.00    -0.550 OA
ATOM      9  O   UNL     1     -24.707  -5.625  -7.589  1.00  0.00    -0.550 OA
ENDBRANCH   6   7
ENDBRANCH   5   6
ENDBRANCH   4   5
ENDBRANCH   3   4
ENDBRANCH   2   3
ENDBRANCH   1   2
BRANCH   1  10
ATOM     10  C   UNL     1     -21.476 -11.352  -6.687  1.00  0.00     0.000 C 
BRANCH  10  11
ATOM     11  C   UNL     1     -21.567 -10.177  -7.669  1.00  0.00    -0.000 C 
BRANCH  11  12
ATOM     12  C   UNL     1     -20.600  -9.052  -7.272  1.00  0.00    -0.000 C 
BRANCH  12  13
ATOM     13  C   UNL     1     -19.336  -9.011  -8.150  1.00  0.00    -0.000 C 
BRANCH  13  14
ATOM     14  C   UNL     1     -18.139  -9.822  -7.613  1.00  0.00    -0.000 C 
BRANCH  14  15
ATOM     15  C   UNL     1     -17.786  -9.560  -6.138  1.00  0.00    -0.003 C 
ATOM     16  C   UNL     1     -17.531 -10.843  -5.350  1.00  0.00     0.004 C 
ENDBRANCH  14  15
ENDBRANCH  13  14
ENDBRANCH  12  13
ENDBRANCH  11  12
ENDBRANCH  10  11
ENDBRANCH   1  10
TORSDOF 12
ENDMDL
MODEL 7
REMARK VINA RESULT:    -3.696      2.817      6.496
REMARK INTER + INTRA:          -8.074
REMARK INTER:                  -6.716
REMARK INTRA:                  -1.358
REMARK UNBOUND:                -1.785
REMARK SMILES CCCCCCCCCCCCCC(=O)[O-]
REMARK SMILES IDX 8 1 9 2 10 3 11 4 12 5 13 6 14 7 15 8 16 9 7 10 6 11 5 12
REMARK SMILES IDX 4 13 3 14 2 15 1 16
REMARK H PARENT
REMARK Flexibility Score: inf
ROOT
ATOM      1  C   UNL     1     -24.540  -9.468  -5.203  1.00  0.00     0.000 C 
ENDROOT
BRANCH   1   2
ATOM      2  C   UNL     1     -23.554  -8.778  -4.249  1.00  0.00     0.000 C 
BRANCH   2   3
ATOM      3  C   UNL     1     -22.211  -9.518  -4.148  1.00  0.00     0.000 C 
BRANCH   3   4
ATOM      4  C   UNL     1     -22.349 -11.032  -4.375  1.00  0.00     0.000 C 
BRANCH   4   5
ATOM      5  C   UNL     1     -21.517 -11.485  -5.580  1.00  0.00     0.006 C 
BRANCH   5   6
ATOM      6  C   UNL     1     -20.382 -10.499  -5.866  1.00  0.00     0.053 C 
BRANCH   6   7
ATOM      7  C   UNL     1     -20.386 -10.098  -7.308  1.00  0.00     0.041 C 
ATOM      8  O   UNL     1     -21.466 -10.071  -7.955  1.00  0.00    -0.550 OA
ATOM      9  O   UNL     1     -19.204  -9.708  -7.925  1.00  0.00    -0.550 OA
ENDBRANCH   6   7
ENDBRANCH   5   6
ENDBRANCH   4   5
ENDBRANCH   3   4
ENDBRANCH   2   3
ENDBRANCH   1   2
BRANCH   1  10
ATOM     10  C   UNL     1     -24.577  -8.758  -6.561  1.00  0.00     0.000 C 
BRANCH  10  11
ATOM     11  C   UNL     1     -24.636  -7.235  -6.386  1.00  0.00    -0.000 C 
BRANCH  11  12
ATOM     12  C   UNL     1     -26.002  -6.685  -6.819  1.00  0.00    -0.000 C 
BRANCH  12  13
ATOM     13  C   UNL     1     -26.588  -5.678  -5.813  1.00  0.00    -0.000 C 
BRANCH  13  14
ATOM     14  C   UNL     1     -26.558  -6.132  -4.339  1.00  0.00    -0.000 C 
BRANCH  14  15
ATOM     15  C   UNL     1     -25.724  -5.240  -3.402  1.00  0.00    -0.003 C 
ATOM     16  C   UNL     1     -24.985  -4.126  -4.141  1.00  0.00     0.004 C 
ENDBRANCH  14  15
ENDBRANCH  13  14
ENDBRANCH  12  13
ENDBRANCH  11  12
ENDBRANCH  10  11
ENDBRANCH   1  10
TORSDOF 12
ENDMDL
MODEL 8
REMARK VINA RESULT:    -3.687      2.541      5.910
REMARK INTER + INTRA:          -8.059
REMARK INTER:                  -6.490
REMARK INTRA:                  -1.569
REMARK UNBOUND:                -1.785
REMARK SMILES CCCCCCCCCCCCCC(=O)[O-]
REMARK SMILES IDX 8 1 9 2 10 3 11 4 12 5 13 6 14 7 15 8 16 9 7 10 6 11 5 12
REMARK SMILES IDX 4 13 3 14 2 15 1 16
REMARK H PARENT
REMARK Flexibility Score: inf
ROOT
ATOM      1  C   UNL     1     -24.472  -9.083  -5.073  1.00  0.00     0.000 C 
ENDROOT
BRANCH   1   2
ATOM      2  C   UNL     1     -24.388  -9.283  -6.593  1.00  0.00     0.000 C 
BRANCH   2   3
ATOM      3  C   UNL     1     -23.042  -8.826  -7.177  1.00  0.00     0.000 C 
BRANCH   3   4
ATOM      4  C   UNL     1     -22.358  -9.917  -8.015  1.00  0.00     0.000 C 
BRANCH   4   5
ATOM      5  C   UNL     1     -20.925 -10.163  -7.533  1.00  0.00     0.006 C 
BRANCH   5   6
ATOM      6  C   UNL     1     -20.913 -10.734  -6.112  1.00  0.00     0.053 C 
BRANCH   6   7
ATOM      7  C   UNL     1     -19.951  -9.977  -5.251  1.00  0.00     0.041 C 
ATOM      8  O   UNL     1     -20.101  -8.740  -5.071  1.00  0.00    -0.550 OA
ATOM      9  O   UNL     1     -18.918 -10.646  -4.608  1.00  0.00    -0.550 OA
ENDBRANCH   6   7
ENDBRANCH   5   6
ENDBRANCH   4   5
ENDBRANCH   3   4
ENDBRANCH   2   3
ENDBRANCH   1   2
BRANCH   1  10
ATOM     10  C   UNL     1     -23.542  -7.953  -4.615  1.00  0.00     0.000 C 
BRANCH  10  11
ATOM     11  C   UNL     1     -24.343  -6.782  -4.034  1.00  0.00    -0.000 C 
BRANCH  11  12
ATOM     12  C   UNL     1     -25.850  -7.067  -4.083  1.00  0.00    -0.000 C 
BRANCH  12  13
ATOM     13  C   UNL     1     -26.699  -5.787  -4.183  1.00  0.00    -0.000 C 
BRANCH  13  14
ATOM     14  C   UNL     1     -27.142  -5.405  -5.610  1.00  0.00    -0.000 C 
BRANCH  14  15
ATOM     15  C   UNL     1     -26.566  -6.292  -6.729  1.00  0.00    -0.003 C 
ATOM     16  C   UNL     1     -25.451  -5.607  -7.517  1.00  0.00     0.004 C 
ENDBRANCH  14  15
ENDBRANCH  13  14
ENDBRANCH  12  13
ENDBRANCH  11  12
ENDBRANCH  10  11
ENDBRANCH   1  10
TORSDOF 12
ENDMDL
MODEL 9
REMARK VINA RESULT:    -3.656      2.871      5.997
REMARK INTER + INTRA:          -8.006
REMARK INTER:                  -6.075
REMARK INTRA:                  -1.931
REMARK UNBOUND:                -1.785
REMARK SMILES CCCCCCCCCCCCCC(=O)[O-]
REMARK SMILES IDX 8 1 9 2 10 3 11 4 12 5 13 6 14 7 15 8 16 9 7 10 6 11 5 12
REMARK SMILES IDX 4 13 3 14 2 15 1 16
REMARK H PARENT
REMARK Flexibility Score: inf
ROOT
ATOM      1  C   UNL     1     -23.753  -6.373  -6.997  1.00  0.00     0.000 C 
ENDROOT
BRANCH   1   2
ATOM      2  C   UNL     1     -23.247  -7.551  -6.152  1.00  0.00     0.000 C 
BRANCH   2   3
ATOM      3  C   UNL     1     -24.111  -8.812  -6.316  1.00  0.00     0.000 C 
BRANCH   3   4
ATOM      4  C   UNL     1     -24.283  -9.588  -5.001  1.00  0.00     0.000 C 
BRANCH   4   5
ATOM      5  C   UNL     1     -22.964  -9.652  -4.225  1.00  0.00     0.006 C 
BRANCH   5   6
ATOM      6  C   UNL     1     -22.346 -11.050  -4.303  1.00  0.00     0.053 C 
BRANCH   6   7
ATOM      7  C   UNL     1     -21.303 -11.104  -5.374  1.00  0.00     0.041 C 
ATOM      8  O   UNL     1     -21.516 -11.749  -6.434  1.00  0.00    -0.550 OA
ATOM      9  O   UNL     1     -20.114 -10.401  -5.223  1.00  0.00    -0.550 OA
ENDBRANCH   6   7
ENDBRANCH   5   6
ENDBRANCH   4   5
ENDBRANCH   3   4
ENDBRANCH   2   3
ENDBRANCH   1   2
BRANCH   1  10
ATOM     10  C   UNL     1     -25.279  -6.416  -7.141  1.00  0.00     0.000 C 
BRANCH  10  11
ATOM     11  C   UNL     1     -25.930  -5.199  -6.472  1.00  0.00    -0.000 C 
BRANCH  11  12
ATOM     12  C   UNL     1     -27.059  -5.631  -5.525  1.00  0.00    -0.000 C 
BRANCH  12  13
ATOM     13  C   UNL     1     -26.652  -5.570  -4.042  1.00  0.00    -0.000 C 
BRANCH  13  14
ATOM     14  C   UNL     1     -25.942  -6.829  -3.505  1.00  0.00    -0.000 C 
BRANCH  14  15
ATOM     15  C   UNL     1     -24.621  -6.562  -2.761  1.00  0.00    -0.003 C 
ATOM     16  C   UNL     1     -23.919  -5.291  -3.233  1.00  0.00     0.004 C 
ENDBRANCH  14  15
ENDBRANCH  13  14
ENDBRANCH  12  13
ENDBRANCH  11  12
ENDBRANCH  10  11
ENDBRANCH   1  10
TORSDOF 12
ENDMDL
