MODEL 1
REMARK VINA RESULT:    -3.702      0.000      0.000
REMARK INTER + INTRA:          -4.289
REMARK INTER:                  -4.026
REMARK INTRA:                  -0.263
REMARK UNBOUND:                -0.263
REMARK SMILES C[C@H]1[C@H]2C3=CC[C@H]4[C@]5(C)CC[C@H](O)C(C)(C)[C@@H]5CC[C@@]4(C)[C@@]3(C)CC[C@@]2(C(=O)[O-])CC[C@@H]1C
REMARK SMILES IDX 26 1 30 2 25 3 3 4 31 5 24 6 4 7 2 8 32 9 22 10 5 11 1 12
REMARK SMILES IDX 33 13 23 14 20 15 6 16 7 17 19 18 21 19 8 20 18 21 17 22
REMARK SMILES IDX 10 23 9 24 14 25 11 26 12 27 15 28 16 29 27 30 28 31 29 32
REMARK SMILES IDX 13 33
REMARK H PARENT 13 34
REMARK Flexibility Score: inf
ROOT
ATOM      1  C   UNL     1      -8.079  -7.567   6.933  1.00  0.00     0.017 C 
ATOM      2  C   UNL     1      -9.306  -7.392   5.977  1.00  0.00     0.014 C 
ATOM      3  C   UNL     1      -8.193  -6.529   8.108  1.00  0.00     0.014 C 
ATOM      4  C   UNL     1      -6.720  -7.434   6.116  1.00  0.00     0.030 C 
ATOM      5  C   UNL     1      -9.054  -8.032   4.612  1.00  0.00     0.004 C 
ATOM      6  C   UNL     1      -6.969  -5.627   8.344  1.00  0.00     0.013 C 
ATOM      7  C   UNL     1      -5.484  -7.010   6.938  1.00  0.00    -0.063 C 
ATOM      8  C   UNL     1      -6.850  -6.654   4.761  1.00  0.00    -0.003 C 
ATOM      9  C   UNL     1      -7.953  -7.276   3.833  1.00  0.00    -0.011 C 
ATOM     10  C   UNL     1      -5.593  -6.371   8.320  1.00  0.00    -0.006 C 
ATOM     11  C   UNL     1      -4.282  -7.337   6.449  1.00  0.00    -0.027 C 
ATOM     12  C   UNL     1      -7.050  -5.135   4.912  1.00  0.00     0.008 C 
ATOM     13  C   UNL     1      -7.333  -8.204   2.776  1.00  0.00     0.008 C 
ATOM     14  C   UNL     1      -5.610  -7.528   9.368  1.00  0.00     0.017 C 
ATOM     15  C   UNL     1      -4.347  -5.380   8.631  1.00  0.00    -0.020 C 
ATOM     16  C   UNL     1      -2.975  -6.883   7.010  1.00  0.00     0.032 C 
ATOM     17  C   UNL     1      -2.961  -6.115   8.380  1.00  0.00     0.006 C 
ATOM     18  C   UNL     1      -4.354  -4.146   7.691  1.00  0.00     0.008 C 
ATOM     19  C   UNL     1      -4.468  -4.909  10.125  1.00  0.00     0.012 C 
ATOM     20  C   UNL     1      -1.621  -5.221   8.492  1.00  0.00    -0.025 C 
ATOM     21  C   UNL     1      -3.136  -3.221   7.833  1.00  0.00     0.005 C 
ATOM     22  C   UNL     1      -1.750  -3.904   7.620  1.00  0.00     0.003 C 
ATOM     23  C   UNL     1      -1.280  -4.834   9.968  1.00  0.00     0.010 C 
ATOM     24  C   UNL     1      -0.439  -6.130   8.000  1.00  0.00     0.012 C 
ATOM     25  C   UNL     1      -0.546  -2.864   7.797  1.00  0.00    -0.006 C 
ATOM     26  C   UNL     1      -0.063  -3.904  10.120  1.00  0.00     0.033 C 
ATOM     27  C   UNL     1      -0.209  -2.610   9.307  1.00  0.00     0.120 C 
ATOM     28  C   UNL     1      -0.878  -1.499   7.124  1.00  0.00     0.014 C 
ATOM     29  C   UNL     1       0.734  -3.359   7.059  1.00  0.00     0.014 C 
ENDROOT
BRANCH   1  30
ATOM     30  C   UNL     1      -8.222  -8.974   7.537  1.00  0.00     0.048 C 
ATOM     31  O   UNL     1      -8.987  -9.209   8.511  1.00  0.00    -0.550 OA
ATOM     32  O   UNL     1      -7.493 -10.032   7.002  1.00  0.00    -0.550 OA
ENDBRANCH   1  30
BRANCH  27  33
ATOM     33  O   UNL     1      -1.191  -1.810   9.925  1.00  0.00    -0.393 OA
ATOM     34  H   UNL     1      -2.018  -2.355  10.001  1.00  0.00     0.210 HD
ENDBRANCH  27  33
TORSDOF 2
ENDMDL
MODEL 2
REMARK VINA RESULT:    -2.311      3.628      8.745
REMARK INTER + INTRA:          -2.777
REMARK INTER:                  -2.774
REMARK INTRA:                  -0.003
REMARK UNBOUND:                -0.263
REMARK SMILES C[C@H]1[C@H]2C3=CC[C@H]4[C@]5(C)CC[C@H](O)C(C)(C)[C@@H]5CC[C@@]4(C)[C@@]3(C)CC[C@@]2(C(=O)[O-])CC[C@@H]1C
REMARK SMILES IDX 26 1 30 2 25 3 3 4 31 5 24 6 4 7 2 8 32 9 22 10 5 11 1 12
REMARK SMILES IDX 33 13 23 14 20 15 6 16 7 17 19 18 21 19 8 20 18 21 17 22
REMARK SMILES IDX 10 23 9 24 14 25 11 26 12 27 15 28 16 29 27 30 28 31 29 32
REMARK SMILES IDX 13 33
REMARK H PARENT 13 34
REMARK Flexibility Score: inf
ROOT
ATOM      1  C   UNL     1       0.461  -0.635   9.045  1.00  0.00     0.017 C 
ATOM      2  C   UNL     1       1.608   0.158   9.758  1.00  0.00     0.014 C 
ATOM      3  C   UNL     1      -0.571  -1.124  10.125  1.00  0.00     0.014 C 
ATOM      4  C   UNL     1       1.069  -1.826   8.182  1.00  0.00     0.030 C 
ATOM      5  C   UNL     1       2.847   0.279   8.870  1.00  0.00     0.004 C 
ATOM      6  C   UNL     1      -0.900  -2.627  10.124  1.00  0.00     0.013 C 
ATOM      7  C   UNL     1       0.113  -3.006   7.905  1.00  0.00    -0.063 C 
ATOM      8  C   UNL     1       2.500  -2.289   8.629  1.00  0.00    -0.003 C 
ATOM      9  C   UNL     1       3.519  -1.096   8.653  1.00  0.00    -0.011 C 
ATOM     10  C   UNL     1      -1.163  -3.238   8.707  1.00  0.00    -0.006 C 
ATOM     11  C   UNL     1       0.376  -3.769   6.837  1.00  0.00    -0.027 C 
ATOM     12  C   UNL     1       2.535  -3.070   9.955  1.00  0.00     0.008 C 
ATOM     13  C   UNL     1       4.368  -1.063   7.372  1.00  0.00     0.008 C 
ATOM     14  C   UNL     1      -2.308  -2.444   8.004  1.00  0.00     0.017 C 
ATOM     15  C   UNL     1      -1.562  -4.809   8.776  1.00  0.00    -0.020 C 
ATOM     16  C   UNL     1      -0.331  -5.039   6.495  1.00  0.00     0.032 C 
ATOM     17  C   UNL     1      -1.602  -5.448   7.322  1.00  0.00     0.006 C 
ATOM     18  C   UNL     1      -0.512  -5.627   9.573  1.00  0.00     0.008 C 
ATOM     19  C   UNL     1      -2.963  -4.922   9.475  1.00  0.00     0.012 C 
ATOM     20  C   UNL     1      -1.829  -7.044   7.222  1.00  0.00    -0.025 C 
ATOM     21  C   UNL     1      -0.746  -7.146   9.577  1.00  0.00     0.005 C 
ATOM     22  C   UNL     1      -0.819  -7.814   8.170  1.00  0.00     0.003 C 
ATOM     23  C   UNL     1      -3.293  -7.464   7.574  1.00  0.00     0.010 C 
ATOM     24  C   UNL     1      -1.619  -7.428   5.714  1.00  0.00     0.012 C 
ATOM     25  C   UNL     1      -1.074  -9.390   8.277  1.00  0.00    -0.006 C 
ATOM     26  C   UNL     1      -3.537  -8.984   7.583  1.00  0.00     0.033 C 
ATOM     27  C   UNL     1      -2.584  -9.724   8.534  1.00  0.00     0.120 C 
ATOM     28  C   UNL     1      -0.223 -10.021   9.421  1.00  0.00     0.014 C 
ATOM     29  C   UNL     1      -0.595 -10.124   6.989  1.00  0.00     0.014 C 
ENDROOT
BRANCH   1  30
ATOM     30  C   UNL     1      -0.252   0.388   8.145  1.00  0.00     0.048 C 
ATOM     31  O   UNL     1      -0.734   0.072   7.024  1.00  0.00    -0.550 OA
ATOM     32  O   UNL     1      -0.380   1.707   8.569  1.00  0.00    -0.550 OA
ENDBRANCH   1  30
BRANCH  27  33
ATOM     33  O   UNL     1      -2.959  -9.419   9.858  1.00  0.00    -0.393 OA
ATOM     34  H   UNL     1      -2.563  -8.539  10.088  1.00  0.00     0.210 HD
ENDBRANCH  27  33
TORSDOF 2
ENDMDL
MODEL 3
REMARK VINA RESULT:    -1.292      2.107      8.499
REMARK INTER + INTRA:          -1.668
REMARK INTER:                  -2.281
REMARK INTRA:                   0.613
REMARK UNBOUND:                -0.263
REMARK SMILES C[C@H]1[C@H]2C3=CC[C@H]4[C@]5(C)CC[C@H](O)C(C)(C)[C@@H]5CC[C@@]4(C)[C@@]3(C)CC[C@@]2(C(=O)[O-])CC[C@@H]1C
REMARK SMILES IDX 26 1 30 2 25 3 3 4 31 5 24 6 4 7 2 8 32 9 22 10 5 11 1 12
REMARK SMILES IDX 33 13 23 14 20 15 6 16 7 17 19 18 21 19 8 20 18 21 17 22
REMARK SMILES IDX 10 23 9 24 14 25 11 26 12 27 15 28 16 29 27 30 28 31 29 32
REMARK SMILES IDX 13 33
REMARK H PARENT 13 34
REMARK Flexibility Score: inf
ROOT
ATOM      1  C   UNL     1       1.519  -2.296   8.516  1.00  0.00     0.017 C 
ATOM      2  C   UNL     1       2.116  -0.932   8.032  1.00  0.00     0.014 C 
ATOM      3  C   UNL     1       1.571  -3.327   7.331  1.00  0.00     0.014 C 
ATOM      4  C   UNL     1       0.050  -2.081   9.090  1.00  0.00     0.030 C 
ATOM      5  C   UNL     1       1.707   0.221   8.949  1.00  0.00     0.004 C 
ATOM      6  C   UNL     1       0.246  -4.024   6.974  1.00  0.00     0.013 C 
ATOM      7  C   UNL     1      -0.866  -3.323   9.063  1.00  0.00    -0.063 C 
ATOM      8  C   UNL     1      -0.666  -0.782   8.577  1.00  0.00    -0.003 C 
ATOM      9  C   UNL     1       0.190   0.504   8.853  1.00  0.00    -0.011 C 
ATOM     10  C   UNL     1      -0.570  -4.548   8.203  1.00  0.00    -0.006 C 
ATOM     11  C   UNL     1      -1.887  -3.350   9.929  1.00  0.00    -0.027 C 
ATOM     12  C   UNL     1      -1.117  -0.838   7.106  1.00  0.00     0.008 C 
ATOM     13  C   UNL     1      -0.285   1.227  10.123  1.00  0.00     0.008 C 
ATOM     14  C   UNL     1       0.325  -5.507   9.049  1.00  0.00     0.017 C 
ATOM     15  C   UNL     1      -1.924  -5.323   7.761  1.00  0.00    -0.020 C 
ATOM     16  C   UNL     1      -2.967  -4.380   9.950  1.00  0.00     0.032 C 
ATOM     17  C   UNL     1      -2.832  -5.642   9.025  1.00  0.00     0.006 C 
ATOM     18  C   UNL     1      -2.795  -4.453   6.817  1.00  0.00     0.008 C 
ATOM     19  C   UNL     1      -1.505  -6.646   7.026  1.00  0.00     0.012 C 
ATOM     20  C   UNL     1      -4.293  -6.272   8.744  1.00  0.00    -0.025 C 
ATOM     21  C   UNL     1      -4.158  -5.062   6.453  1.00  0.00     0.005 C 
ATOM     22  C   UNL     1      -5.075  -5.416   7.664  1.00  0.00     0.003 C 
ATOM     23  C   UNL     1      -4.223  -7.761   8.274  1.00  0.00     0.010 C 
ATOM     24  C   UNL     1      -5.041  -6.289  10.125  1.00  0.00     0.012 C 
ATOM     25  C   UNL     1      -6.464  -6.051   7.186  1.00  0.00    -0.006 C 
ATOM     26  C   UNL     1      -5.583  -8.380   7.905  1.00  0.00     0.033 C 
ATOM     27  C   UNL     1      -6.321  -7.571   6.827  1.00  0.00     0.120 C 
ATOM     28  C   UNL     1      -7.030  -5.298   5.945  1.00  0.00     0.014 C 
ATOM     29  C   UNL     1      -7.563  -5.880   8.277  1.00  0.00     0.014 C 
ENDROOT
BRANCH   1  30
ATOM     30  C   UNL     1       2.470  -2.798   9.615  1.00  0.00     0.048 C 
ATOM     31  O   UNL     1       2.359  -3.947  10.122  1.00  0.00    -0.550 OA
ATOM     32  O   UNL     1       3.492  -1.972  10.072  1.00  0.00    -0.550 OA
ENDBRANCH   1  30
BRANCH  27  33
ATOM     33  O   UNL     1      -5.644  -7.748   5.604  1.00  0.00    -0.393 OA
ATOM     34  H   UNL     1      -4.907  -8.395   5.758  1.00  0.00     0.210 HD
ENDBRANCH  27  33
TORSDOF 2
ENDMDL
