MODEL 1
REMARK VINA RESULT:    -4.275      0.000      0.000
REMARK INTER + INTRA:          -6.891
REMARK INTER:                  -6.274
REMARK INTRA:                  -0.617
REMARK UNBOUND:                -0.617
REMARK SMILES C=C1C=C[C@H](C(C)C)CCC(C)=CCC1
REMARK SMILES IDX 3 1 4 2 5 3 9 4 10 5 11 6 12 7 13 8 6 10 7 11 8 12 2 13 1 14
REMARK SMILES IDX 15 15 14 16
REMARK H PARENT
REMARK Flexibility Score: 70.00
ROOT
ATOM      1  C   UNL     1     103.919 108.039 127.216  1.00  0.00    -0.001 C 
ATOM      2  C   UNL     1     104.741 109.081 127.017  1.00  0.00    -0.023 C 
ENDROOT
BRANCH   2   3
ATOM      3  C   UNL     1     105.725 109.637 128.028  1.00  0.00     0.014 C 
BRANCH   3   4
ATOM      4  C   UNL     1     107.133 109.071 127.716  1.00  0.00     0.012 C 
BRANCH   4   5
ATOM      5  C   UNL     1     107.850 108.470 128.940  1.00  0.00     0.031 C 
BRANCH   5   6
ATOM      6  C   UNL     1     108.125 106.985 128.774  1.00  0.00    -0.077 C 
ATOM      7  C   UNL     1     109.472 106.570 128.238  1.00  0.00     0.039 C 
ATOM      8  C   UNL     1     107.246 106.004 129.094  1.00  0.00    -0.028 CG0
ATOM      9  G   UNL     1     105.882 106.188 129.716  1.00  0.00     0.000 G0
ENDBRANCH   5   6
ENDBRANCH   4   5
ENDBRANCH   3   4
BRANCH   3  10
ATOM     10  C   UNL     1     105.695 111.198 127.986  1.00  0.00    -0.010 C 
ATOM     11  C   UNL     1     105.175 111.709 126.627  1.00  0.00     0.008 C 
ATOM     12  C   UNL     1     104.822 111.798 129.104  1.00  0.00     0.008 C 
ENDBRANCH   3  10
ENDBRANCH   2   3
BRANCH   1  13
ATOM     13  C   UNL     1     103.877 107.193 128.431  1.00  0.00    -0.055 C 
ATOM     14  C   UNL     1     102.984 107.503 129.375  1.00  0.00     0.012 C 
BRANCH  13  15
ATOM     15  C   UNL     1     104.775 105.985 128.639  1.00  0.00     0.039 C 
BRANCH  15  16
ATOM     16  C   UNL     1     105.882 106.168 129.703  1.00  0.00     0.032 CG0
ATOM     17  G   UNL     1     107.254 106.005 129.093  1.00  0.00     0.000 G0
ENDBRANCH  15  16
ENDBRANCH  13  15
ENDBRANCH   1  13
TORSDOF 1
ENDMDL
MODEL 2
REMARK VINA RESULT:    -4.243      1.986      4.415
REMARK INTER + INTRA:          -6.845
REMARK INTER:                  -6.246
REMARK INTRA:                  -0.599
REMARK UNBOUND:                -0.617
REMARK SMILES C=C1C=C[C@H](C(C)C)CCC(C)=CCC1
REMARK SMILES IDX 3 1 4 2 5 3 9 4 10 5 11 6 12 7 13 8 6 10 7 11 8 12 2 13 1 14
REMARK SMILES IDX 15 15 14 16
REMARK H PARENT
REMARK Flexibility Score: 70.00
ROOT
ATOM      1  C   UNL     1     104.004 104.242 127.188  1.00  0.00    -0.001 C 
ATOM      2  C   UNL     1     102.966 105.092 127.196  1.00  0.00    -0.023 C 
ENDROOT
BRANCH   2   3
ATOM      3  C   UNL     1     102.574 105.998 128.346  1.00  0.00     0.014 C 
BRANCH   3   4
ATOM      4  C   UNL     1     103.089 107.430 128.052  1.00  0.00     0.012 C 
BRANCH   4   5
ATOM      5  C   UNL     1     104.064 107.973 129.114  1.00  0.00     0.031 C 
BRANCH   5   6
ATOM      6  C   UNL     1     105.457 108.204 128.551  1.00  0.00    -0.077 C 
ATOM      7  C   UNL     1     105.739 109.526 127.881  1.00  0.00     0.039 C 
ATOM      8  C   UNL     1     106.471 107.309 128.627  1.00  0.00    -0.028 CG0
ATOM      9  G   UNL     1     106.434 105.967 129.318  1.00  0.00     0.000 G0
ENDBRANCH   5   6
ENDBRANCH   4   5
ENDBRANCH   3   4
BRANCH   3  10
ATOM     10  C   UNL     1     101.024 105.959 128.539  1.00  0.00    -0.010 C 
ATOM     11  C   UNL     1     100.583 104.662 129.247  1.00  0.00     0.008 C 
ATOM     12  C   UNL     1     100.503 107.162 129.347  1.00  0.00     0.008 C 
ENDBRANCH   3  10
ENDBRANCH   2   3
BRANCH   1  13
ATOM     13  C   UNL     1     105.003 104.089 128.272  1.00  0.00    -0.055 C 
ATOM     14  C   UNL     1     104.712 103.252 129.271  1.00  0.00     0.012 C 
BRANCH  13  15
ATOM     15  C   UNL     1     106.338 104.813 128.286  1.00  0.00     0.039 C 
BRANCH  15  16
ATOM     16  C   UNL     1     106.450 105.960 129.317  1.00  0.00     0.032 CG0
ATOM     17  G   UNL     1     106.481 107.306 128.632  1.00  0.00     0.000 G0
ENDBRANCH  15  16
ENDBRANCH  13  15
ENDBRANCH   1  13
TORSDOF 1
ENDMDL
MODEL 3
REMARK VINA RESULT:    -4.234      3.100      6.514
REMARK INTER + INTRA:          -6.831
REMARK INTER:                  -6.263
REMARK INTRA:                  -0.568
REMARK UNBOUND:                -0.617
REMARK SMILES C=C1C=C[C@H](C(C)C)CCC(C)=CCC1
REMARK SMILES IDX 3 1 4 2 5 3 9 4 10 5 11 6 12 7 13 8 6 10 7 11 8 12 2 13 1 14
REMARK SMILES IDX 15 15 14 16
REMARK H PARENT
REMARK Flexibility Score: 70.00
ROOT
ATOM      1  C   UNL     1     108.614 104.800 127.114  1.00  0.00    -0.001 C 
ATOM      2  C   UNL     1     107.893 103.691 126.893  1.00  0.00    -0.023 C 
ENDROOT
BRANCH   2   3
ATOM      3  C   UNL     1     107.237 102.835 127.958  1.00  0.00     0.014 C 
BRANCH   3   4
ATOM      4  C   UNL     1     105.703 102.856 127.741  1.00  0.00     0.012 C 
BRANCH   4   5
ATOM      5  C   UNL     1     104.922 103.558 128.868  1.00  0.00     0.031 C 
BRANCH   5   6
ATOM      6  C   UNL     1     104.658 105.022 128.559  1.00  0.00    -0.077 C 
ATOM      7  C   UNL     1     103.412 105.368 127.783  1.00  0.00     0.039 C 
ATOM      8  C   UNL     1     105.457 106.043 128.952  1.00  0.00    -0.028 CG0
ATOM      9  G   UNL     1     106.703 105.934 129.799  1.00  0.00     0.000 G0
ENDBRANCH   5   6
ENDBRANCH   4   5
ENDBRANCH   3   4
BRANCH   3  10
ATOM     10  C   UNL     1     107.821 101.387 127.900  1.00  0.00    -0.010 C 
ATOM     11  C   UNL     1     107.324 100.538 129.087  1.00  0.00     0.008 C 
ATOM     12  C   UNL     1     107.459 100.662 126.590  1.00  0.00     0.008 C 
ENDBRANCH   3  10
ENDBRANCH   2   3
BRANCH   1  13
ATOM     13  C   UNL     1     108.837 105.436 128.433  1.00  0.00    -0.055 C 
ATOM     14  C   UNL     1     109.915 105.062 129.129  1.00  0.00     0.012 C 
BRANCH  13  15
ATOM     15  C   UNL     1     107.922 106.501 129.014  1.00  0.00     0.039 C 
BRANCH  15  16
ATOM     16  C   UNL     1     106.703 105.959 129.796  1.00  0.00     0.032 CG0
ATOM     17  G   UNL     1     105.448 106.024 128.958  1.00  0.00     0.000 G0
ENDBRANCH  15  16
ENDBRANCH  13  15
ENDBRANCH   1  13
TORSDOF 1
ENDMDL
MODEL 4
REMARK VINA RESULT:    -4.148      2.339      4.681
REMARK INTER + INTRA:          -6.705
REMARK INTER:                  -6.088
REMARK INTRA:                  -0.618
REMARK UNBOUND:                -0.617
REMARK SMILES C=C1C=C[C@H](C(C)C)CCC(C)=CCC1
REMARK SMILES IDX 3 1 4 2 5 3 9 4 10 5 11 6 12 7 13 8 6 10 7 11 8 12 2 13 1 14
REMARK SMILES IDX 15 15 14 16
REMARK H PARENT
REMARK Flexibility Score: 70.00
ROOT
ATOM      1  C   UNL     1     108.287 108.374 127.194  1.00  0.00    -0.001 C 
ATOM      2  C   UNL     1     109.406 107.663 126.987  1.00  0.00    -0.023 C 
ENDROOT
BRANCH   2   3
ATOM      3  C   UNL     1     109.998 106.647 127.945  1.00  0.00     0.014 C 
BRANCH   3   4
ATOM      4  C   UNL     1     109.678 105.224 127.423  1.00  0.00     0.012 C 
BRANCH   4   5
ATOM      5  C   UNL     1     109.118 104.275 128.499  1.00  0.00     0.031 C 
BRANCH   5   6
ATOM      6  C   UNL     1     107.666 103.905 128.242  1.00  0.00    -0.077 C 
ATOM      7  C   UNL     1     107.382 102.594 127.552  1.00  0.00     0.039 C 
ATOM      8  C   UNL     1     106.607 104.666 128.608  1.00  0.00    -0.028 CG0
ATOM      9  G   UNL     1     106.657 105.967 129.374  1.00  0.00     0.000 G0
ENDBRANCH   5   6
ENDBRANCH   4   5
ENDBRANCH   3   4
BRANCH   3  10
ATOM     10  C   UNL     1     111.535 106.892 128.084  1.00  0.00    -0.010 C 
ATOM     11  C   UNL     1     112.122 107.495 126.793  1.00  0.00     0.008 C 
ATOM     12  C   UNL     1     111.876 107.823 129.263  1.00  0.00     0.008 C 
ENDBRANCH   3  10
ENDBRANCH   2   3
BRANCH   1  13
ATOM     13  C   UNL     1     107.383 108.241 128.360  1.00  0.00    -0.055 C 
ATOM     14  C   UNL     1     107.518 109.122 129.355  1.00  0.00     0.012 C 
BRANCH  13  15
ATOM     15  C   UNL     1     106.304 107.177 128.464  1.00  0.00     0.039 C 
BRANCH  15  16
ATOM     16  C   UNL     1     106.649 105.983 129.384  1.00  0.00     0.032 CG0
ATOM     17  G   UNL     1     106.617 104.681 128.618  1.00  0.00     0.000 G0
ENDBRANCH  15  16
ENDBRANCH  13  15
ENDBRANCH   1  13
TORSDOF 1
ENDMDL
MODEL 5
REMARK VINA RESULT:    -4.142      2.944      5.805
REMARK INTER + INTRA:          -6.696
REMARK INTER:                  -6.222
REMARK INTRA:                  -0.474
REMARK UNBOUND:                -0.617
REMARK SMILES C=C1C=C[C@H](C(C)C)CCC(C)=CCC1
REMARK SMILES IDX 3 1 4 2 5 3 9 4 10 5 11 6 12 7 13 8 6 10 7 11 8 12 2 13 1 14
REMARK SMILES IDX 15 15 14 16
REMARK H PARENT
REMARK Flexibility Score: 70.00
ROOT
ATOM      1  C   UNL     1     104.812 104.056 129.204  1.00  0.00    -0.001 C 
ATOM      2  C   UNL     1     105.510 102.913 129.119  1.00  0.00    -0.023 C 
ENDROOT
BRANCH   2   3
ATOM      3  C   UNL     1     106.618 102.626 128.125  1.00  0.00     0.014 C 
BRANCH   3   4
ATOM      4  C   UNL     1     107.932 103.259 128.646  1.00  0.00     0.012 C 
BRANCH   4   5
ATOM      5  C   UNL     1     108.575 104.258 127.665  1.00  0.00     0.031 C 
BRANCH   5   6
ATOM      6  C   UNL     1     109.064 105.517 128.363  1.00  0.00    -0.077 C 
ATOM      7  C   UNL     1     110.454 105.505 128.950  1.00  0.00     0.039 C 
ATOM      8  C   UNL     1     108.342 106.658 128.477  1.00  0.00    -0.028 CG0
ATOM      9  G   UNL     1     106.971 106.914 127.898  1.00  0.00     0.000 G0
ENDBRANCH   5   6
ENDBRANCH   4   5
ENDBRANCH   3   4
BRANCH   3  10
ATOM     10  C   UNL     1     106.749 101.082 127.918  1.00  0.00    -0.010 C 
ATOM     11  C   UNL     1     107.503 100.757 126.613  1.00  0.00     0.008 C 
ATOM     12  C   UNL     1     107.473 100.394 129.091  1.00  0.00     0.008 C 
ENDBRANCH   3  10
ENDBRANCH   2   3
BRANCH   1  13
ATOM     13  C   UNL     1     105.047 105.274 128.394  1.00  0.00    -0.055 C 
ATOM     14  C   UNL     1     104.495 105.329 127.179  1.00  0.00     0.012 C 
BRANCH  13  15
ATOM     15  C   UNL     1     105.857 106.461 128.886  1.00  0.00     0.039 C 
BRANCH  15  16
ATOM     16  C   UNL     1     106.965 106.942 127.921  1.00  0.00     0.032 CG0
ATOM     17  G   UNL     1     108.337 106.648 128.479  1.00  0.00     0.000 G0
ENDBRANCH  15  16
ENDBRANCH  13  15
ENDBRANCH   1  13
TORSDOF 1
ENDMDL
MODEL 6
REMARK VINA RESULT:    -4.126      2.433      4.726
REMARK INTER + INTRA:          -6.673
REMARK INTER:                  -6.108
REMARK INTRA:                  -0.565
REMARK UNBOUND:                -0.617
REMARK SMILES C=C1C=C[C@H](C(C)C)CCC(C)=CCC1
REMARK SMILES IDX 3 1 4 2 5 3 9 4 10 5 11 6 12 7 13 8 6 10 7 11 8 12 2 13 1 14
REMARK SMILES IDX 15 15 14 16
REMARK H PARENT
REMARK Flexibility Score: 70.00
ROOT
ATOM      1  C   UNL     1     104.058 108.243 128.879  1.00  0.00    -0.001 C 
ATOM      2  C   UNL     1     103.037 107.432 129.195  1.00  0.00    -0.023 C 
ENDROOT
BRANCH   2   3
ATOM      3  C   UNL     1     102.432 106.378 128.289  1.00  0.00     0.014 C 
BRANCH   3   4
ATOM      4  C   UNL     1     103.152 105.029 128.542  1.00  0.00     0.012 C 
BRANCH   4   5
ATOM      5  C   UNL     1     103.546 104.280 127.255  1.00  0.00     0.031 C 
BRANCH   5   6
ATOM      6  C   UNL     1     105.028 103.951 127.211  1.00  0.00    -0.077 C 
ATOM      7  C   UNL     1     105.457 102.565 127.624  1.00  0.00     0.039 C 
ATOM      8  C   UNL     1     105.992 104.813 126.808  1.00  0.00    -0.028 CG0
ATOM      9  G   UNL     1     105.782 106.213 126.281  1.00  0.00     0.000 G0
ENDBRANCH   5   6
ENDBRANCH   4   5
ENDBRANCH   3   4
BRANCH   3  10
ATOM     10  C   UNL     1     100.894 106.283 128.549  1.00  0.00    -0.010 C 
ATOM     11  C   UNL     1     100.535 104.984 129.298  1.00  0.00     0.008 C 
ATOM     12  C   UNL     1     100.362 107.481 129.358  1.00  0.00     0.008 C 
ENDBRANCH   3  10
ENDBRANCH   2   3
BRANCH   1  13
ATOM     13  C   UNL     1     104.832 108.205 127.616  1.00  0.00    -0.055 C 
ATOM     14  C   UNL     1     104.483 109.056 126.648  1.00  0.00     0.012 C 
BRANCH  13  15
ATOM     15  C   UNL     1     106.008 107.272 127.385  1.00  0.00     0.039 C 
BRANCH  15  16
ATOM     16  C   UNL     1     105.797 106.218 126.273  1.00  0.00     0.032 CG0
ATOM     17  G   UNL     1     106.004 104.819 126.803  1.00  0.00     0.000 G0
ENDBRANCH  15  16
ENDBRANCH  13  15
ENDBRANCH   1  13
TORSDOF 1
ENDMDL
MODEL 7
REMARK VINA RESULT:    -4.054      2.980      5.377
REMARK INTER + INTRA:          -6.566
REMARK INTER:                  -5.937
REMARK INTRA:                  -0.630
REMARK UNBOUND:                -0.617
REMARK SMILES C=C1C=C[C@H](C(C)C)CCC(C)=CCC1
REMARK SMILES IDX 3 1 4 2 5 3 9 4 10 5 11 6 12 7 13 8 6 10 7 11 8 12 2 13 1 14
REMARK SMILES IDX 15 15 14 16
REMARK H PARENT
REMARK Flexibility Score: 70.00
ROOT
ATOM      1  C   UNL     1     101.496 107.232 125.601  1.00  0.00    -0.001 C 
ATOM      2  C   UNL     1     101.665 106.937 126.899  1.00  0.00    -0.023 C 
ENDROOT
BRANCH   2   3
ATOM      3  C   UNL     1     102.995 106.684 127.582  1.00  0.00     0.014 C 
BRANCH   3   4
ATOM      4  C   UNL     1     103.372 107.933 128.418  1.00  0.00     0.012 C 
BRANCH   4   5
ATOM      5  C   UNL     1     104.799 108.452 128.155  1.00  0.00     0.031 C 
BRANCH   5   6
ATOM      6  C   UNL     1     104.801 109.802 127.457  1.00  0.00    -0.077 C 
ATOM      7  C   UNL     1     104.913 111.040 128.311  1.00  0.00     0.039 C 
ATOM      8  C   UNL     1     104.728 109.969 126.114  1.00  0.00    -0.028 CG0
ATOM      9  G   UNL     1     104.690 108.874 125.074  1.00  0.00     0.000 G0
ENDBRANCH   5   6
ENDBRANCH   4   5
ENDBRANCH   3   4
BRANCH   3  10
ATOM     10  C   UNL     1     102.896 105.396 128.460  1.00  0.00    -0.010 C 
ATOM     11  C   UNL     1     101.436 105.100 128.854  1.00  0.00     0.008 C 
ATOM     12  C   UNL     1     103.476 104.157 127.751  1.00  0.00     0.008 C 
ENDBRANCH   3  10
ENDBRANCH   2   3
BRANCH   1  13
ATOM     13  C   UNL     1     102.581 107.441 124.614  1.00  0.00    -0.055 C 
ATOM     14  C   UNL     1     102.933 106.405 123.849  1.00  0.00     0.012 C 
BRANCH  13  15
ATOM     15  C   UNL     1     103.285 108.772 124.416  1.00  0.00     0.039 C 
BRANCH  15  16
ATOM     16  C   UNL     1     104.688 108.871 125.060  1.00  0.00     0.032 CG0
ATOM     17  G   UNL     1     104.729 109.957 126.109  1.00  0.00     0.000 G0
ENDBRANCH  15  16
ENDBRANCH  13  15
ENDBRANCH   1  13
TORSDOF 1
ENDMDL
MODEL 8
REMARK VINA RESULT:    -3.986      1.272      3.533
REMARK INTER + INTRA:          -6.467
REMARK INTER:                  -5.933
REMARK INTRA:                  -0.534
REMARK UNBOUND:                -0.617
REMARK SMILES C=C1C=C[C@H](C(C)C)CCC(C)=CCC1
REMARK SMILES IDX 3 1 4 2 5 3 9 4 10 5 11 6 12 7 13 8 6 10 7 11 8 12 2 13 1 14
REMARK SMILES IDX 15 15 14 16
REMARK H PARENT
REMARK Flexibility Score: 70.00
ROOT
ATOM      1  C   UNL     1     107.838 108.929 129.109  1.00  0.00    -0.001 C 
ATOM      2  C   UNL     1     106.707 109.649 129.046  1.00  0.00    -0.023 C 
ENDROOT
BRANCH   2   3
ATOM      3  C   UNL     1     105.609 109.481 128.014  1.00  0.00     0.014 C 
BRANCH   3   4
ATOM      4  C   UNL     1     104.643 108.366 128.490  1.00  0.00     0.012 C 
BRANCH   4   5
ATOM      5  C   UNL     1     104.322 107.315 127.411  1.00  0.00     0.031 C 
BRANCH   5   6
ATOM      6  C   UNL     1     104.456 105.894 127.933  1.00  0.00    -0.077 C 
ATOM      7  C   UNL     1     103.210 105.202 128.427  1.00  0.00     0.039 C 
ATOM      8  C   UNL     1     105.618 105.198 127.966  1.00  0.00    -0.028 CG0
ATOM      9  G   UNL     1     106.959 105.664 127.452  1.00  0.00     0.000 G0
ENDBRANCH   5   6
ENDBRANCH   4   5
ENDBRANCH   3   4
BRANCH   3  10
ATOM     10  C   UNL     1     104.875 110.844 127.803  1.00  0.00    -0.010 C 
ATOM     11  C   UNL     1     105.010 111.748 129.044  1.00  0.00     0.008 C 
ATOM     12  C   UNL     1     105.405 111.610 126.576  1.00  0.00     0.008 C 
ENDBRANCH   3  10
ENDBRANCH   2   3
BRANCH   1  13
ATOM     13  C   UNL     1     108.185 107.788 128.231  1.00  0.00    -0.055 C 
ATOM     14  C   UNL     1     108.895 108.044 127.129  1.00  0.00     0.012 C 
BRANCH  13  15
ATOM     15  C   UNL     1     107.798 106.350 128.537  1.00  0.00     0.039 C 
BRANCH  15  16
ATOM     16  C   UNL     1     106.969 105.649 127.436  1.00  0.00     0.032 CG0
ATOM     17  G   UNL     1     105.627 105.204 127.968  1.00  0.00     0.000 G0
ENDBRANCH  15  16
ENDBRANCH  13  15
ENDBRANCH   1  13
TORSDOF 1
ENDMDL
MODEL 9
REMARK VINA RESULT:    -3.949      4.717      7.002
REMARK INTER + INTRA:          -6.413
REMARK INTER:                  -5.892
REMARK INTRA:                  -0.521
REMARK UNBOUND:                -0.617
REMARK SMILES C=C1C=C[C@H](C(C)C)CCC(C)=CCC1
REMARK SMILES IDX 3 1 4 2 5 3 9 4 10 5 11 6 12 7 13 8 6 10 7 11 8 12 2 13 1 14
REMARK SMILES IDX 15 15 14 16
REMARK H PARENT
REMARK Flexibility Score: 70.00
ROOT
ATOM      1  C   UNL     1     105.203 101.816 124.682  1.00  0.00    -0.001 C 
ATOM      2  C   UNL     1     105.723 101.577 125.895  1.00  0.00    -0.023 C 
ENDROOT
BRANCH   2   3
ATOM      3  C   UNL     1     106.107 102.631 126.916  1.00  0.00     0.014 C 
BRANCH   3   4
ATOM      4  C   UNL     1     104.873 102.944 127.798  1.00  0.00     0.012 C 
BRANCH   4   5
ATOM      5  C   UNL     1     104.572 104.449 127.939  1.00  0.00     0.031 C 
BRANCH   5   6
ATOM      6  C   UNL     1     103.126 104.780 127.609  1.00  0.00    -0.077 C 
ATOM      7  C   UNL     1     102.136 104.837 128.745  1.00  0.00     0.039 C 
ATOM      8  C   UNL     1     102.668 105.047 126.362  1.00  0.00    -0.028 CG0
ATOM      9  G   UNL     1     103.494 105.122 125.099  1.00  0.00     0.000 G0
ENDBRANCH   5   6
ENDBRANCH   4   5
ENDBRANCH   3   4
BRANCH   3  10
ATOM     10  C   UNL     1     107.321 102.125 127.760  1.00  0.00    -0.010 C 
ATOM     11  C   UNL     1     108.034 103.295 128.468  1.00  0.00     0.008 C 
ATOM     12  C   UNL     1     106.906 101.087 128.819  1.00  0.00     0.008 C 
ENDBRANCH   3  10
ENDBRANCH   2   3
BRANCH   1  13
ATOM     13  C   UNL     1     104.837 103.148 124.146  1.00  0.00    -0.055 C 
ATOM     14  C   UNL     1     105.755 103.804 123.432  1.00  0.00     0.012 C 
BRANCH  13  15
ATOM     15  C   UNL     1     103.472 103.783 124.348  1.00  0.00     0.039 C 
BRANCH  15  16
ATOM     16  C   UNL     1     103.484 105.133 125.100  1.00  0.00     0.032 CG0
ATOM     17  G   UNL     1     102.657 105.059 126.362  1.00  0.00     0.000 G0
ENDBRANCH  15  16
ENDBRANCH  13  15
ENDBRANCH   1  13
TORSDOF 1
ENDMDL
