MODEL 1
REMARK VINA RESULT:    -6.759      0.000      0.000
REMARK INTER + INTRA:         -10.411
REMARK INTER:                  -8.933
REMARK INTRA:                  -1.479
REMARK UNBOUND:                -1.479
REMARK SMILES CC[C@@H](C=C[C@@H](C)[C@@H]1CC[C@H]2[C@@H]3CC=C4C[C@H](O)CC[C@@]4(C)[C@H]3CC[C@]21C)C(C)C
REMARK SMILES IDX 6 1 7 2 5 3 4 4 3 5 2 6 1 7 28 8 29 9 30 10 8 11 9 12 26 13
REMARK SMILES IDX 10 14 11 15 25 16 27 17 12 18 24 19 23 20 13 21 21 22 14 23
REMARK SMILES IDX 15 24 20 25 22 26 16 27 19 28 17 29 18 30
REMARK H PARENT 18 31
REMARK Flexibility Score: inf
ROOT
ATOM      1  C   UNL     1     113.155 121.228 121.754  1.00  0.00     0.012 C 
ATOM      2  C   UNL     1     112.145 120.566 120.802  1.00  0.00     0.012 C 
ENDROOT
BRANCH   1   3
ATOM      3  C   UNL     1     114.339 121.803 120.998  1.00  0.00    -0.028 C 
ATOM      4  C   UNL     1     114.832 123.025 121.267  1.00  0.00    -0.027 C 
BRANCH   4   5
ATOM      5  C   UNL     1     116.029 123.602 120.529  1.00  0.00     0.014 C 
BRANCH   5   6
ATOM      6  C   UNL     1     116.782 122.496 119.741  1.00  0.00     0.004 C 
ATOM      7  C   UNL     1     117.976 121.920 120.506  1.00  0.00     0.004 C 
ENDBRANCH   5   6
BRANCH   5   8
ATOM      8  C   UNL     1     116.962 124.385 121.507  1.00  0.00    -0.011 C 
ATOM      9  C   UNL     1     116.198 124.835 122.766  1.00  0.00     0.008 C 
ATOM     10  C   UNL     1     117.600 125.619 120.845  1.00  0.00     0.008 C 
ENDBRANCH   5   8
ENDBRANCH   4   5
ENDBRANCH   1   3
BRANCH   1  11
ATOM     11  C   UNL     1     113.519 120.318 122.985  1.00  0.00     0.002 C 
ATOM     12  C   UNL     1     112.312 119.543 123.502  1.00  0.00     0.005 C 
ATOM     13  C   UNL     1     114.237 120.883 124.267  1.00  0.00    -0.026 C 
ATOM     14  C   UNL     1     112.804 118.892 124.775  1.00  0.00     0.005 C 
ATOM     15  C   UNL     1     113.771 119.899 125.424  1.00  0.00    -0.001 C 
ATOM     16  C   UNL     1     115.789 120.961 124.043  1.00  0.00     0.007 C 
ATOM     17  C   UNL     1     113.749 122.310 124.639  1.00  0.00     0.012 C 
ATOM     18  C   UNL     1     114.849 119.150 126.294  1.00  0.00     0.000 C 
ATOM     19  C   UNL     1     116.578 119.805 124.634  1.00  0.00     0.005 C 
ATOM     20  C   UNL     1     116.275 119.691 126.134  1.00  0.00     0.003 C 
ATOM     21  C   UNL     1     114.480 119.208 127.784  1.00  0.00     0.031 C 
ATOM     22  C   UNL     1     117.339 118.839 126.943  1.00  0.00    -0.008 C 
ATOM     23  C   UNL     1     115.472 118.462 128.623  1.00  0.00    -0.027 C 
ATOM     24  C   UNL     1     116.771 118.325 128.279  1.00  0.00    -0.065 C 
ATOM     25  C   UNL     1     117.813 117.586 126.136  1.00  0.00     0.014 C 
ATOM     26  C   UNL     1     118.549 119.763 127.243  1.00  0.00     0.016 C 
ATOM     27  C   UNL     1     117.645 117.406 129.106  1.00  0.00     0.063 C 
ATOM     28  C   UNL     1     118.697 116.615 126.947  1.00  0.00     0.033 C 
ATOM     29  C   UNL     1     118.025 116.184 128.264  1.00  0.00     0.118 C 
BRANCH  29  30
ATOM     30  O   UNL     1     118.902 115.374 129.002  1.00  0.00    -0.393 OA
ATOM     31  H   UNL     1     118.664 115.492 129.959  1.00  0.00     0.210 HD
ENDBRANCH  29  30
ENDBRANCH   1  11
TORSDOF 6
ENDMDL
MODEL 2
REMARK VINA RESULT:    -6.751      4.579      7.082
REMARK INTER + INTRA:         -10.401
REMARK INTER:                  -9.294
REMARK INTRA:                  -1.106
REMARK UNBOUND:                -1.479
REMARK SMILES CC[C@@H](C=C[C@@H](C)[C@@H]1CC[C@H]2[C@@H]3CC=C4C[C@H](O)CC[C@@]4(C)[C@H]3CC[C@]21C)C(C)C
REMARK SMILES IDX 6 1 7 2 5 3 4 4 3 5 2 6 1 7 28 8 29 9 30 10 8 11 9 12 26 13
REMARK SMILES IDX 10 14 11 15 25 16 27 17 12 18 24 19 23 20 13 21 21 22 14 23
REMARK SMILES IDX 15 24 20 25 22 26 16 27 19 28 17 29 18 30
REMARK H PARENT 18 31
REMARK Flexibility Score: inf
ROOT
ATOM      1  C   UNL     1     114.235 124.528 122.668  1.00  0.00     0.012 C 
ATOM      2  C   UNL     1     113.493 125.698 122.002  1.00  0.00     0.012 C 
ENDROOT
BRANCH   1   3
ATOM      3  C   UNL     1     114.533 124.816 124.129  1.00  0.00    -0.028 C 
ATOM      4  C   UNL     1     114.278 126.014 124.685  1.00  0.00    -0.027 C 
BRANCH   4   5
ATOM      5  C   UNL     1     114.555 126.309 126.151  1.00  0.00     0.014 C 
BRANCH   5   6
ATOM      6  C   UNL     1     113.485 127.271 126.735  1.00  0.00     0.004 C 
ATOM      7  C   UNL     1     112.430 127.691 125.709  1.00  0.00     0.004 C 
ENDBRANCH   5   6
BRANCH   5   8
ATOM      8  C   UNL     1     116.012 126.836 126.348  1.00  0.00    -0.011 C 
ATOM      9  C   UNL     1     116.133 127.669 127.637  1.00  0.00     0.008 C 
ATOM     10  C   UNL     1     116.493 127.686 125.159  1.00  0.00     0.008 C 
ENDBRANCH   5   8
ENDBRANCH   4   5
ENDBRANCH   1   3
BRANCH   1  11
ATOM     11  C   UNL     1     115.458 124.019 121.820  1.00  0.00     0.002 C 
ATOM     12  C   UNL     1     115.301 124.339 120.338  1.00  0.00     0.005 C 
ATOM     13  C   UNL     1     115.962 122.528 121.876  1.00  0.00    -0.026 C 
ATOM     14  C   UNL     1     116.452 123.618 119.675  1.00  0.00     0.005 C 
ATOM     15  C   UNL     1     116.643 122.307 120.458  1.00  0.00    -0.001 C 
ATOM     16  C   UNL     1     116.906 122.309 123.111  1.00  0.00     0.007 C 
ATOM     17  C   UNL     1     114.792 121.513 122.000  1.00  0.00     0.012 C 
ATOM     18  C   UNL     1     118.140 121.825 120.377  1.00  0.00     0.000 C 
ATOM     19  C   UNL     1     118.391 122.349 122.793  1.00  0.00     0.005 C 
ATOM     20  C   UNL     1     118.710 121.313 121.706  1.00  0.00     0.003 C 
ATOM     21  C   UNL     1     118.296 120.712 119.330  1.00  0.00     0.031 C 
ATOM     22  C   UNL     1     120.248 120.943 121.600  1.00  0.00    -0.008 C 
ATOM     23  C   UNL     1     119.723 120.272 119.208  1.00  0.00    -0.027 C 
ATOM     24  C   UNL     1     120.600 120.330 120.232  1.00  0.00    -0.065 C 
ATOM     25  C   UNL     1     121.161 122.199 121.788  1.00  0.00     0.014 C 
ATOM     26  C   UNL     1     120.554 119.898 122.706  1.00  0.00     0.016 C 
ATOM     27  C   UNL     1     122.058 120.027 119.955  1.00  0.00     0.063 C 
ATOM     28  C   UNL     1     122.655 121.937 121.501  1.00  0.00     0.033 C 
ATOM     29  C   UNL     1     122.876 121.313 120.111  1.00  0.00     0.118 C 
BRANCH  29  30
ATOM     30  O   UNL     1     124.236 121.015 119.934  1.00  0.00    -0.393 OA
ATOM     31  H   UNL     1     124.634 121.778 119.439  1.00  0.00     0.210 HD
ENDBRANCH  29  30
ENDBRANCH   1  11
TORSDOF 6
ENDMDL
MODEL 3
REMARK VINA RESULT:    -6.673      3.244      7.439
REMARK INTER + INTRA:         -10.297
REMARK INTER:                  -8.853
REMARK INTRA:                  -1.444
REMARK UNBOUND:                -1.479
REMARK SMILES CC[C@@H](C=C[C@@H](C)[C@@H]1CC[C@H]2[C@@H]3CC=C4C[C@H](O)CC[C@@]4(C)[C@H]3CC[C@]21C)C(C)C
REMARK SMILES IDX 6 1 7 2 5 3 4 4 3 5 2 6 1 7 28 8 29 9 30 10 8 11 9 12 26 13
REMARK SMILES IDX 10 14 11 15 25 16 27 17 12 18 24 19 23 20 13 21 21 22 14 23
REMARK SMILES IDX 15 24 20 25 22 26 16 27 19 28 17 29 18 30
REMARK H PARENT 18 31
REMARK Flexibility Score: inf
ROOT
ATOM      1  C   UNL     1     115.327 123.775 123.510  1.00  0.00     0.012 C 
ATOM      2  C   UNL     1     115.742 125.008 124.331  1.00  0.00     0.012 C 
ENDROOT
BRANCH   1   3
ATOM      3  C   UNL     1     114.243 122.978 124.213  1.00  0.00    -0.028 C 
ATOM      4  C   UNL     1     114.083 121.658 124.009  1.00  0.00    -0.027 C 
BRANCH   4   5
ATOM      5  C   UNL     1     113.014 120.846 124.721  1.00  0.00     0.014 C 
BRANCH   5   6
ATOM      6  C   UNL     1     113.649 119.870 125.748  1.00  0.00     0.004 C 
ATOM      7  C   UNL     1     115.111 119.539 125.438  1.00  0.00     0.004 C 
ENDBRANCH   5   6
BRANCH   5   8
ATOM      8  C   UNL     1     112.088 120.120 123.693  1.00  0.00    -0.011 C 
ATOM      9  C   UNL     1     111.636 118.747 124.223  1.00  0.00     0.008 C 
ATOM     10  C   UNL     1     112.769 119.927 122.327  1.00  0.00     0.008 C 
ENDBRANCH   5   8
ENDBRANCH   4   5
ENDBRANCH   1   3
BRANCH   1  11
ATOM     11  C   UNL     1     116.559 122.937 123.005  1.00  0.00     0.002 C 
ATOM     12  C   UNL     1     117.783 123.122 123.895  1.00  0.00     0.005 C 
ATOM     13  C   UNL     1     117.095 123.034 121.528  1.00  0.00    -0.026 C 
ATOM     14  C   UNL     1     118.893 122.410 123.157  1.00  0.00     0.005 C 
ATOM     15  C   UNL     1     118.630 122.647 121.658  1.00  0.00    -0.001 C 
ATOM     16  C   UNL     1     116.254 122.115 120.572  1.00  0.00     0.007 C 
ATOM     17  C   UNL     1     117.021 124.480 120.965  1.00  0.00     0.012 C 
ATOM     18  C   UNL     1     119.214 121.463 120.799  1.00  0.00     0.000 C 
ATOM     19  C   UNL     1     116.889 120.770 120.260  1.00  0.00     0.005 C 
ATOM     20  C   UNL     1     118.289 120.988 119.671  1.00  0.00     0.003 C 
ATOM     21  C   UNL     1     120.563 121.856 120.178  1.00  0.00     0.031 C 
ATOM     22  C   UNL     1     118.870 119.727 118.905  1.00  0.00    -0.008 C 
ATOM     23  C   UNL     1     121.154 120.725 119.393  1.00  0.00    -0.027 C 
ATOM     24  C   UNL     1     120.403 119.785 118.779  1.00  0.00    -0.065 C 
ATOM     25  C   UNL     1     118.521 118.391 119.640  1.00  0.00     0.014 C 
ATOM     26  C   UNL     1     118.255 119.722 117.480  1.00  0.00     0.016 C 
ATOM     27  C   UNL     1     121.101 118.591 118.162  1.00  0.00     0.063 C 
ATOM     28  C   UNL     1     119.224 117.150 119.051  1.00  0.00     0.033 C 
ATOM     29  C   UNL     1     120.750 117.335 118.966  1.00  0.00     0.118 C 
BRANCH  29  30
ATOM     30  O   UNL     1     121.330 116.217 118.345  1.00  0.00    -0.393 OA
ATOM     31  H   UNL     1     120.595 115.572 118.172  1.00  0.00     0.210 HD
ENDBRANCH  29  30
ENDBRANCH   1  11
TORSDOF 6
ENDMDL
MODEL 4
REMARK VINA RESULT:    -6.511      3.230      7.540
REMARK INTER + INTRA:         -10.083
REMARK INTER:                  -8.891
REMARK INTRA:                  -1.192
REMARK UNBOUND:                -1.479
REMARK SMILES CC[C@@H](C=C[C@@H](C)[C@@H]1CC[C@H]2[C@@H]3CC=C4C[C@H](O)CC[C@@]4(C)[C@H]3CC[C@]21C)C(C)C
REMARK SMILES IDX 6 1 7 2 5 3 4 4 3 5 2 6 1 7 28 8 29 9 30 10 8 11 9 12 26 13
REMARK SMILES IDX 10 14 11 15 25 16 27 17 12 18 24 19 23 20 13 21 21 22 14 23
REMARK SMILES IDX 15 24 20 25 22 26 16 27 19 28 17 29 18 30
REMARK H PARENT 18 31
REMARK Flexibility Score: inf
ROOT
ATOM      1  C   UNL     1     114.665 122.677 123.778  1.00  0.00     0.012 C 
ATOM      2  C   UNL     1     114.521 124.010 124.531  1.00  0.00     0.012 C 
ENDROOT
BRANCH   1   3
ATOM      3  C   UNL     1     113.972 121.544 124.516  1.00  0.00    -0.028 C 
ATOM      4  C   UNL     1     114.594 120.381 124.781  1.00  0.00    -0.027 C 
BRANCH   4   5
ATOM      5  C   UNL     1     113.917 119.248 125.535  1.00  0.00     0.014 C 
BRANCH   5   6
ATOM      6  C   UNL     1     112.374 119.419 125.526  1.00  0.00     0.004 C 
ATOM      7  C   UNL     1     111.657 118.358 124.686  1.00  0.00     0.004 C 
ENDBRANCH   5   6
BRANCH   5   8
ATOM      8  C   UNL     1     114.500 119.112 126.978  1.00  0.00    -0.011 C 
ATOM      9  C   UNL     1     115.417 117.880 127.095  1.00  0.00     0.008 C 
ATOM     10  C   UNL     1     113.398 119.016 128.048  1.00  0.00     0.008 C 
ENDBRANCH   5   8
ENDBRANCH   4   5
ENDBRANCH   1   3
BRANCH   1  11
ATOM     11  C   UNL     1     116.144 122.384 123.332  1.00  0.00     0.002 C 
ATOM     12  C   UNL     1     117.159 123.156 124.169  1.00  0.00     0.005 C 
ATOM     13  C   UNL     1     116.622 122.543 121.841  1.00  0.00    -0.026 C 
ATOM     14  C   UNL     1     118.481 122.902 123.481  1.00  0.00     0.005 C 
ATOM     15  C   UNL     1     118.175 122.851 121.973  1.00  0.00    -0.001 C 
ATOM     16  C   UNL     1     116.265 121.263 121.005  1.00  0.00     0.007 C 
ATOM     17  C   UNL     1     115.961 123.758 121.134  1.00  0.00     0.012 C 
ATOM     18  C   UNL     1     119.219 121.939 121.226  1.00  0.00     0.000 C 
ATOM     19  C   UNL     1     117.411 120.284 120.818  1.00  0.00     0.005 C 
ATOM     20  C   UNL     1     118.604 121.007 120.176  1.00  0.00     0.003 C 
ATOM     21  C   UNL     1     120.293 122.795 120.537  1.00  0.00     0.031 C 
ATOM     22  C   UNL     1     119.675 120.033 119.530  1.00  0.00    -0.008 C 
ATOM     23  C   UNL     1     121.320 121.941 119.858  1.00  0.00    -0.027 C 
ATOM     24  C   UNL     1     121.046 120.715 119.362  1.00  0.00    -0.065 C 
ATOM     25  C   UNL     1     119.903 118.758 120.406  1.00  0.00     0.014 C 
ATOM     26  C   UNL     1     119.150 119.624 118.128  1.00  0.00     0.016 C 
ATOM     27  C   UNL     1     122.193 119.867 118.854  1.00  0.00     0.063 C 
ATOM     28  C   UNL     1     121.074 117.872 119.931  1.00  0.00     0.033 C 
ATOM     29  C   UNL     1     122.383 118.669 119.791  1.00  0.00     0.118 C 
BRANCH  29  30
ATOM     30  O   UNL     1     123.392 117.840 119.275  1.00  0.00    -0.393 OA
ATOM     31  H   UNL     1     124.132 117.844 119.937  1.00  0.00     0.210 HD
ENDBRANCH  29  30
ENDBRANCH   1  11
TORSDOF 6
ENDMDL
MODEL 5
REMARK VINA RESULT:    -6.345      3.277      7.397
REMARK INTER + INTRA:          -9.863
REMARK INTER:                  -8.595
REMARK INTRA:                  -1.268
REMARK UNBOUND:                -1.479
REMARK SMILES CC[C@@H](C=C[C@@H](C)[C@@H]1CC[C@H]2[C@@H]3CC=C4C[C@H](O)CC[C@@]4(C)[C@H]3CC[C@]21C)C(C)C
REMARK SMILES IDX 6 1 7 2 5 3 4 4 3 5 2 6 1 7 28 8 29 9 30 10 8 11 9 12 26 13
REMARK SMILES IDX 10 14 11 15 25 16 27 17 12 18 24 19 23 20 13 21 21 22 14 23
REMARK SMILES IDX 15 24 20 25 22 26 16 27 19 28 17 29 18 30
REMARK H PARENT 18 31
REMARK Flexibility Score: inf
ROOT
ATOM      1  C   UNL     1     114.859 123.260 123.242  1.00  0.00     0.012 C 
ATOM      2  C   UNL     1     114.883 124.331 124.346  1.00  0.00     0.012 C 
ENDROOT
BRANCH   1   3
ATOM      3  C   UNL     1     113.826 122.184 123.532  1.00  0.00    -0.028 C 
ATOM      4  C   UNL     1     114.033 120.894 123.216  1.00  0.00    -0.027 C 
BRANCH   4   5
ATOM      5  C   UNL     1     113.015 119.806 123.518  1.00  0.00     0.014 C 
BRANCH   5   6
ATOM      6  C   UNL     1     111.638 120.143 122.885  1.00  0.00     0.004 C 
ATOM      7  C   UNL     1     111.691 120.261 121.359  1.00  0.00     0.004 C 
ENDBRANCH   5   6
BRANCH   5   8
ATOM      8  C   UNL     1     112.923 119.542 125.055  1.00  0.00    -0.011 C 
ATOM      9  C   UNL     1     114.316 119.298 125.664  1.00  0.00     0.008 C 
ATOM     10  C   UNL     1     112.016 118.344 125.390  1.00  0.00     0.008 C 
ENDBRANCH   5   8
ENDBRANCH   4   5
ENDBRANCH   1   3
BRANCH   1  11
ATOM     11  C   UNL     1     116.294 122.733 122.874  1.00  0.00     0.002 C 
ATOM     12  C   UNL     1     117.370 123.314 123.784  1.00  0.00     0.005 C 
ATOM     13  C   UNL     1     116.879 122.830 121.415  1.00  0.00    -0.026 C 
ATOM     14  C   UNL     1     118.671 122.855 123.166  1.00  0.00     0.005 C 
ATOM     15  C   UNL     1     118.451 122.875 121.642  1.00  0.00    -0.001 C 
ATOM     16  C   UNL     1     116.367 121.639 120.531  1.00  0.00     0.007 C 
ATOM     17  C   UNL     1     116.470 124.148 120.701  1.00  0.00     0.012 C 
ATOM     18  C   UNL     1     119.373 121.813 120.934  1.00  0.00     0.000 C 
ATOM     19  C   UNL     1     117.345 120.485 120.386  1.00  0.00     0.005 C 
ATOM     20  C   UNL     1     118.676 121.010 119.829  1.00  0.00     0.003 C 
ATOM     21  C   UNL     1     120.612 122.488 120.326  1.00  0.00     0.031 C 
ATOM     22  C   UNL     1     119.610 119.881 119.222  1.00  0.00    -0.008 C 
ATOM     23  C   UNL     1     121.523 121.485 119.687  1.00  0.00    -0.027 C 
ATOM     24  C   UNL     1     121.081 120.329 119.148  1.00  0.00    -0.065 C 
ATOM     25  C   UNL     1     119.572 118.574 120.080  1.00  0.00     0.014 C 
ATOM     26  C   UNL     1     119.109 119.583 117.784  1.00  0.00     0.016 C 
ATOM     27  C   UNL     1     122.101 119.309 118.686  1.00  0.00     0.063 C 
ATOM     28  C   UNL     1     120.607 117.513 119.652  1.00  0.00     0.033 C 
ATOM     29  C   UNL     1     122.036 118.084 119.604  1.00  0.00     0.118 C 
BRANCH  29  30
ATOM     30  O   UNL     1     122.923 117.107 119.126  1.00  0.00    -0.393 OA
ATOM     31  H   UNL     1     123.721 117.131 119.718  1.00  0.00     0.210 HD
ENDBRANCH  29  30
ENDBRANCH   1  11
TORSDOF 6
ENDMDL
MODEL 6
REMARK VINA RESULT:    -6.315      5.564      9.106
REMARK INTER + INTRA:          -9.824
REMARK INTER:                  -8.830
REMARK INTRA:                  -0.994
REMARK UNBOUND:                -1.479
REMARK SMILES CC[C@@H](C=C[C@@H](C)[C@@H]1CC[C@H]2[C@@H]3CC=C4C[C@H](O)CC[C@@]4(C)[C@H]3CC[C@]21C)C(C)C
REMARK SMILES IDX 6 1 7 2 5 3 4 4 3 5 2 6 1 7 28 8 29 9 30 10 8 11 9 12 26 13
REMARK SMILES IDX 10 14 11 15 25 16 27 17 12 18 24 19 23 20 13 21 21 22 14 23
REMARK SMILES IDX 15 24 20 25 22 26 16 27 19 28 17 29 18 30
REMARK H PARENT 18 31
REMARK Flexibility Score: inf
ROOT
ATOM      1  C   UNL     1     121.909 119.563 117.952  1.00  0.00     0.012 C 
ATOM      2  C   UNL     1     123.432 119.774 118.007  1.00  0.00     0.012 C 
ENDROOT
BRANCH   1   3
ATOM      3  C   UNL     1     121.403 119.532 116.520  1.00  0.00    -0.028 C 
ATOM      4  C   UNL     1     122.241 119.488 115.469  1.00  0.00    -0.027 C 
BRANCH   4   5
ATOM      5  C   UNL     1     121.746 119.437 114.033  1.00  0.00     0.014 C 
BRANCH   5   6
ATOM      6  C   UNL     1     121.000 118.104 113.750  1.00  0.00     0.004 C 
ATOM      7  C   UNL     1     121.747 117.193 112.772  1.00  0.00     0.004 C 
ENDBRANCH   5   6
BRANCH   5   8
ATOM      8  C   UNL     1     122.915 119.697 113.030  1.00  0.00    -0.011 C 
ATOM      9  C   UNL     1     124.136 120.306 113.744  1.00  0.00     0.008 C 
ATOM     10  C   UNL     1     122.500 120.625 111.875  1.00  0.00     0.008 C 
ENDBRANCH   5   8
ENDBRANCH   4   5
ENDBRANCH   1   3
BRANCH   1  11
ATOM     11  C   UNL     1     121.126 120.522 118.922  1.00  0.00     0.002 C 
ATOM     12  C   UNL     1     122.063 121.399 119.743  1.00  0.00     0.005 C 
ATOM     13  C   UNL     1     120.046 119.993 119.939  1.00  0.00    -0.026 C 
ATOM     14  C   UNL     1     121.155 122.095 120.731  1.00  0.00     0.005 C 
ATOM     15  C   UNL     1     120.067 121.072 121.105  1.00  0.00    -0.001 C 
ATOM     16  C   UNL     1     118.659 119.806 119.228  1.00  0.00     0.007 C 
ATOM     17  C   UNL     1     120.439 118.624 120.559  1.00  0.00     0.012 C 
ATOM     18  C   UNL     1     118.735 121.805 121.515  1.00  0.00     0.000 C 
ATOM     19  C   UNL     1     117.677 120.946 119.438  1.00  0.00     0.005 C 
ATOM     20  C   UNL     1     117.463 121.168 120.941  1.00  0.00     0.003 C 
ATOM     21  C   UNL     1     118.594 121.860 123.044  1.00  0.00     0.031 C 
ATOM     22  C   UNL     1     116.160 122.001 121.291  1.00  0.00    -0.008 C 
ATOM     23  C   UNL     1     117.353 122.593 123.453  1.00  0.00    -0.027 C 
ATOM     24  C   UNL     1     116.237 122.629 122.695  1.00  0.00    -0.065 C 
ATOM     25  C   UNL     1     115.931 123.171 120.278  1.00  0.00     0.014 C 
ATOM     26  C   UNL     1     114.956 121.024 121.250  1.00  0.00     0.016 C 
ATOM     27  C   UNL     1     115.104 123.541 123.117  1.00  0.00     0.063 C 
ATOM     28  C   UNL     1     114.793 124.134 120.679  1.00  0.00     0.033 C 
ATOM     29  C   UNL     1     114.977 124.684 122.105  1.00  0.00     0.118 C 
BRANCH  29  30
ATOM     30  O   UNL     1     113.875 125.482 122.452  1.00  0.00    -0.393 OA
ATOM     31  H   UNL     1     114.133 125.989 123.266  1.00  0.00     0.210 HD
ENDBRANCH  29  30
ENDBRANCH   1  11
TORSDOF 6
ENDMDL
MODEL 7
REMARK VINA RESULT:    -6.229      4.269      6.728
REMARK INTER + INTRA:          -9.710
REMARK INTER:                  -8.828
REMARK INTRA:                  -0.882
REMARK UNBOUND:                -1.479
REMARK SMILES CC[C@@H](C=C[C@@H](C)[C@@H]1CC[C@H]2[C@@H]3CC=C4C[C@H](O)CC[C@@]4(C)[C@H]3CC[C@]21C)C(C)C
REMARK SMILES IDX 6 1 7 2 5 3 4 4 3 5 2 6 1 7 28 8 29 9 30 10 8 11 9 12 26 13
REMARK SMILES IDX 10 14 11 15 25 16 27 17 12 18 24 19 23 20 13 21 21 22 14 23
REMARK SMILES IDX 15 24 20 25 22 26 16 27 19 28 17 29 18 30
REMARK H PARENT 18 31
REMARK Flexibility Score: inf
ROOT
ATOM      1  C   UNL     1     114.443 124.202 122.912  1.00  0.00     0.012 C 
ATOM      2  C   UNL     1     113.914 125.367 122.059  1.00  0.00     0.012 C 
ENDROOT
BRANCH   1   3
ATOM      3  C   UNL     1     114.700 124.633 124.345  1.00  0.00    -0.028 C 
ATOM      4  C   UNL     1     114.303 125.831 124.811  1.00  0.00    -0.027 C 
BRANCH   4   5
ATOM      5  C   UNL     1     114.538 126.265 126.248  1.00  0.00     0.014 C 
BRANCH   5   6
ATOM      6  C   UNL     1     113.449 127.271 126.710  1.00  0.00     0.004 C 
ATOM      7  C   UNL     1     112.507 127.698 125.580  1.00  0.00     0.004 C 
ENDBRANCH   5   6
BRANCH   5   8
ATOM      8  C   UNL     1     115.986 126.819 126.434  1.00  0.00    -0.011 C 
ATOM      9  C   UNL     1     116.103 127.656 127.720  1.00  0.00     0.008 C 
ATOM     10  C   UNL     1     116.443 127.676 125.239  1.00  0.00     0.008 C 
ENDBRANCH   5   8
ENDBRANCH   4   5
ENDBRANCH   1   3
BRANCH   1  11
ATOM     11  C   UNL     1     115.624 123.428 122.220  1.00  0.00     0.002 C 
ATOM     12  C   UNL     1     116.596 124.370 121.519  1.00  0.00     0.005 C 
ATOM     13  C   UNL     1     115.379 122.247 121.206  1.00  0.00    -0.026 C 
ATOM     14  C   UNL     1     117.531 123.452 120.766  1.00  0.00     0.005 C 
ATOM     15  C   UNL     1     116.672 122.269 120.283  1.00  0.00    -0.001 C 
ATOM     16  C   UNL     1     115.130 120.901 121.974  1.00  0.00     0.007 C 
ATOM     17  C   UNL     1     114.146 122.497 120.295  1.00  0.00     0.012 C 
ATOM     18  C   UNL     1     117.549 120.969 120.136  1.00  0.00     0.000 C 
ATOM     19  C   UNL     1     116.343 119.992 122.076  1.00  0.00     0.005 C 
ATOM     20  C   UNL     1     116.882 119.696 120.670  1.00  0.00     0.003 C 
ATOM     21  C   UNL     1     117.925 120.732 118.665  1.00  0.00     0.031 C 
ATOM     22  C   UNL     1     117.843 118.437 120.600  1.00  0.00    -0.008 C 
ATOM     23  C   UNL     1     118.797 119.523 118.512  1.00  0.00    -0.027 C 
ATOM     24  C   UNL     1     118.741 118.465 119.349  1.00  0.00    -0.065 C 
ATOM     25  C   UNL     1     118.791 118.361 121.842  1.00  0.00     0.014 C 
ATOM     26  C   UNL     1     116.950 117.170 120.540  1.00  0.00     0.016 C 
ATOM     27  C   UNL     1     119.784 117.376 119.210  1.00  0.00     0.063 C 
ATOM     28  C   UNL     1     119.879 117.272 121.735  1.00  0.00     0.033 C 
ATOM     29  C   UNL     1     120.700 117.400 120.438  1.00  0.00     0.118 C 
BRANCH  29  30
ATOM     30  O   UNL     1     121.614 116.339 120.347  1.00  0.00    -0.393 OA
ATOM     31  H   UNL     1     121.155 115.606 119.858  1.00  0.00     0.210 HD
ENDBRANCH  29  30
ENDBRANCH   1  11
TORSDOF 6
ENDMDL
MODEL 8
REMARK VINA RESULT:    -6.221      2.120      3.553
REMARK INTER + INTRA:          -9.700
REMARK INTER:                  -8.051
REMARK INTRA:                  -1.649
REMARK UNBOUND:                -1.479
REMARK SMILES CC[C@@H](C=C[C@@H](C)[C@@H]1CC[C@H]2[C@@H]3CC=C4C[C@H](O)CC[C@@]4(C)[C@H]3CC[C@]21C)C(C)C
REMARK SMILES IDX 6 1 7 2 5 3 4 4 3 5 2 6 1 7 28 8 29 9 30 10 8 11 9 12 26 13
REMARK SMILES IDX 10 14 11 15 25 16 27 17 12 18 24 19 23 20 13 21 21 22 14 23
REMARK SMILES IDX 15 24 20 25 22 26 16 27 19 28 17 29 18 30
REMARK H PARENT 18 31
REMARK Flexibility Score: inf
ROOT
ATOM      1  C   UNL     1     117.201 123.518 121.010  1.00  0.00     0.012 C 
ATOM      2  C   UNL     1     116.268 123.829 119.828  1.00  0.00     0.012 C 
ENDROOT
BRANCH   1   3
ATOM      3  C   UNL     1     118.659 123.517 120.584  1.00  0.00    -0.028 C 
ATOM      4  C   UNL     1     119.464 122.462 120.803  1.00  0.00    -0.027 C 
BRANCH   4   5
ATOM      5  C   UNL     1     120.919 122.443 120.364  1.00  0.00     0.014 C 
BRANCH   5   6
ATOM      6  C   UNL     1     121.207 121.221 119.450  1.00  0.00     0.004 C 
ATOM      7  C   UNL     1     120.019 120.262 119.337  1.00  0.00     0.004 C 
ENDBRANCH   5   6
BRANCH   5   8
ATOM      8  C   UNL     1     121.875 122.510 121.598  1.00  0.00    -0.011 C 
ATOM      9  C   UNL     1     123.210 121.800 121.308  1.00  0.00     0.008 C 
ATOM     10  C   UNL     1     121.246 121.893 122.860  1.00  0.00     0.008 C 
ENDBRANCH   5   8
ENDBRANCH   4   5
ENDBRANCH   1   3
BRANCH   1  11
ATOM     11  C   UNL     1     116.740 122.261 121.836  1.00  0.00     0.002 C 
ATOM     12  C   UNL     1     115.540 121.567 121.202  1.00  0.00     0.005 C 
ATOM     13  C   UNL     1     116.418 122.335 123.375  1.00  0.00    -0.026 C 
ATOM     14  C   UNL     1     115.131 120.524 122.218  1.00  0.00     0.005 C 
ATOM     15  C   UNL     1     115.380 121.154 123.600  1.00  0.00    -0.001 C 
ATOM     16  C   UNL     1     117.736 122.234 124.223  1.00  0.00     0.007 C 
ATOM     17  C   UNL     1     115.713 123.662 123.769  1.00  0.00     0.012 C 
ATOM     18  C   UNL     1     115.683 120.039 124.671  1.00  0.00     0.000 C 
ATOM     19  C   UNL     1     118.028 120.854 124.786  1.00  0.00     0.005 C 
ATOM     20  C   UNL     1     116.834 120.380 125.626  1.00  0.00     0.003 C 
ATOM     21  C   UNL     1     114.434 119.742 125.514  1.00  0.00     0.031 C 
ATOM     22  C   UNL     1     117.174 119.186 126.613  1.00  0.00    -0.008 C 
ATOM     23  C   UNL     1     114.693 118.652 126.509  1.00  0.00    -0.027 C 
ATOM     24  C   UNL     1     115.910 118.418 127.044  1.00  0.00    -0.065 C 
ATOM     25  C   UNL     1     118.138 118.147 125.954  1.00  0.00     0.014 C 
ATOM     26  C   UNL     1     117.837 119.797 127.875  1.00  0.00     0.016 C 
ATOM     27  C   UNL     1     116.099 117.186 127.903  1.00  0.00     0.063 C 
ATOM     28  C   UNL     1     118.348 116.867 126.791  1.00  0.00     0.033 C 
ATOM     29  C   UNL     1     117.013 116.199 127.169  1.00  0.00     0.118 C 
BRANCH  29  30
ATOM     30  O   UNL     1     117.254 115.093 128.000  1.00  0.00    -0.393 OA
ATOM     31  H   UNL     1     116.673 114.357 127.673  1.00  0.00     0.210 HD
ENDBRANCH  29  30
ENDBRANCH   1  11
TORSDOF 6
ENDMDL
MODEL 9
REMARK VINA RESULT:    -6.044      5.248      8.224
REMARK INTER + INTRA:          -9.466
REMARK INTER:                  -8.417
REMARK INTRA:                  -1.049
REMARK UNBOUND:                -1.479
REMARK SMILES CC[C@@H](C=C[C@@H](C)[C@@H]1CC[C@H]2[C@@H]3CC=C4C[C@H](O)CC[C@@]4(C)[C@H]3CC[C@]21C)C(C)C
REMARK SMILES IDX 6 1 7 2 5 3 4 4 3 5 2 6 1 7 28 8 29 9 30 10 8 11 9 12 26 13
REMARK SMILES IDX 10 14 11 15 25 16 27 17 12 18 24 19 23 20 13 21 21 22 14 23
REMARK SMILES IDX 15 24 20 25 22 26 16 27 19 28 17 29 18 30
REMARK H PARENT 18 31
REMARK Flexibility Score: inf
ROOT
ATOM      1  C   UNL     1     120.267 117.761 117.964  1.00  0.00     0.012 C 
ATOM      2  C   UNL     1     121.363 116.743 118.320  1.00  0.00     0.012 C 
ENDROOT
BRANCH   1   3
ATOM      3  C   UNL     1     120.768 118.793 116.969  1.00  0.00    -0.028 C 
ATOM      4  C   UNL     1     121.446 118.445 115.861  1.00  0.00    -0.027 C 
BRANCH   4   5
ATOM      5  C   UNL     1     121.935 119.467 114.849  1.00  0.00     0.014 C 
BRANCH   5   6
ATOM      6  C   UNL     1     121.680 118.979 113.397  1.00  0.00     0.004 C 
ATOM      7  C   UNL     1     121.017 117.600 113.336  1.00  0.00     0.004 C 
ENDBRANCH   5   6
BRANCH   5   8
ATOM      8  C   UNL     1     123.432 119.834 115.107  1.00  0.00    -0.011 C 
ATOM      9  C   UNL     1     124.125 120.291 113.810  1.00  0.00     0.008 C 
ATOM     10  C   UNL     1     124.226 118.663 115.711  1.00  0.00     0.008 C 
ENDBRANCH   5   8
ENDBRANCH   4   5
ENDBRANCH   1   3
BRANCH   1  11
ATOM     11  C   UNL     1     119.543 118.345 119.233  1.00  0.00     0.002 C 
ATOM     12  C   UNL     1     119.599 117.388 120.418  1.00  0.00     0.005 C 
ATOM     13  C   UNL     1     118.060 118.872 119.189  1.00  0.00    -0.026 C 
ATOM     14  C   UNL     1     118.704 118.024 121.456  1.00  0.00     0.005 C 
ATOM     15  C   UNL     1     117.547 118.678 120.680  1.00  0.00    -0.001 C 
ATOM     16  C   UNL     1     118.011 120.348 118.654  1.00  0.00     0.007 C 
ATOM     17  C   UNL     1     117.154 118.013 118.264  1.00  0.00     0.012 C 
ATOM     18  C   UNL     1     116.970 119.909 121.475  1.00  0.00     0.000 C 
ATOM     19  C   UNL     1     117.906 121.413 119.732  1.00  0.00     0.005 C 
ATOM     20  C   UNL     1     116.674 121.138 120.606  1.00  0.00     0.003 C 
ATOM     21  C   UNL     1     115.680 119.523 122.213  1.00  0.00     0.031 C 
ATOM     22  C   UNL     1     116.201 122.384 121.464  1.00  0.00    -0.008 C 
ATOM     23  C   UNL     1     115.142 120.671 123.012  1.00  0.00    -0.027 C 
ATOM     24  C   UNL     1     115.332 121.962 122.663  1.00  0.00    -0.065 C 
ATOM     25  C   UNL     1     117.414 123.187 122.038  1.00  0.00     0.014 C 
ATOM     26  C   UNL     1     115.356 123.296 120.536  1.00  0.00     0.016 C 
ATOM     27  C   UNL     1     114.899 123.044 123.629  1.00  0.00     0.063 C 
ATOM     28  C   UNL     1     117.017 124.292 123.040  1.00  0.00     0.033 C 
ATOM     29  C   UNL     1     116.141 123.748 124.183  1.00  0.00     0.118 C 
BRANCH  29  30
ATOM     30  O   UNL     1     115.737 124.804 125.015  1.00  0.00    -0.393 OA
ATOM     31  H   UNL     1     116.337 125.570 124.818  1.00  0.00     0.210 HD
ENDBRANCH  29  30
ENDBRANCH   1  11
TORSDOF 6
ENDMDL
