MODEL 1
REMARK VINA RESULT:    12.516      0.000      0.000
REMARK INTER + INTRA:          19.136
REMARK INTER:                  19.100
REMARK INTRA:                   0.035
REMARK UNBOUND:                 0.035
REMARK SMILES O=C([O-])CCCCCCCCC(=O)[O-]
REMARK SMILES IDX 7 1 6 2 5 3 4 4 2 5 1 6 3 7 8 8 9 9 10 10 11 11 12 12 13 13
REMARK SMILES IDX 14 14
REMARK H PARENT
REMARK Flexibility Score: inf
ROOT
ATOM      1  C   UNL     1       4.735 -17.002  13.914  1.00  0.00     0.000 C 
ENDROOT
BRANCH   1   2
ATOM      2  C   UNL     1       4.859 -17.718  15.270  1.00  0.00     0.000 C 
BRANCH   2   3
ATOM      3  C   UNL     1       5.125 -16.754  16.436  1.00  0.00     0.006 C 
BRANCH   3   4
ATOM      4  C   UNL     1       4.745 -17.394  17.774  1.00  0.00     0.053 C 
BRANCH   4   5
ATOM      5  C   UNL     1       4.076 -16.393  18.663  1.00  0.00     0.041 C 
ATOM      6  O   UNL     1       4.597 -15.262  18.848  1.00  0.00    -0.550 OA
ATOM      7  O   UNL     1       2.903 -16.727  19.327  1.00  0.00    -0.550 OA
ENDBRANCH   4   5
ENDBRANCH   3   4
ENDBRANCH   2   3
ENDBRANCH   1   2
BRANCH   1   8
ATOM      8  C   UNL     1       4.434 -17.921  12.716  1.00  0.00     0.000 C 
BRANCH   8   9
ATOM      9  C   UNL     1       3.661 -19.187  13.111  1.00  0.00     0.000 C 
BRANCH   9  10
ATOM     10  C   UNL     1       3.949 -20.335  12.131  1.00  0.00     0.006 C 
BRANCH  10  11
ATOM     11  C   UNL     1       2.797 -20.555  11.141  1.00  0.00     0.053 C 
BRANCH  11  12
ATOM     12  C   UNL     1       1.472 -20.198  11.742  1.00  0.00     0.041 C 
ATOM     13  O   UNL     1       1.092 -18.998  11.771  1.00  0.00    -0.550 OA
ATOM     14  O   UNL     1       0.672 -21.187  12.298  1.00  0.00    -0.550 OA
ENDBRANCH  11  12
ENDBRANCH  10  11
ENDBRANCH   9  10
ENDBRANCH   8   9
ENDBRANCH   1   8
TORSDOF 9
ENDMDL
MODEL 2
REMARK VINA RESULT:    12.688     14.379     16.209
REMARK INTER + INTRA:          19.398
REMARK INTER:                  19.345
REMARK INTRA:                   0.053
REMARK UNBOUND:                 0.035
REMARK SMILES O=C([O-])CCCCCCCCC(=O)[O-]
REMARK SMILES IDX 7 1 6 2 5 3 4 4 2 5 1 6 3 7 8 8 9 9 10 10 11 11 12 12 13 13
REMARK SMILES IDX 14 14
REMARK H PARENT
REMARK Flexibility Score: inf
ROOT
ATOM      1  C   UNL     1      -3.684  -9.036  24.509  1.00  0.00     0.000 C 
ENDROOT
BRANCH   1   2
ATOM      2  C   UNL     1      -5.086  -8.729  25.063  1.00  0.00     0.000 C 
BRANCH   2   3
ATOM      3  C   UNL     1      -6.016  -9.951  25.053  1.00  0.00     0.006 C 
BRANCH   3   4
ATOM      4  C   UNL     1      -5.787 -10.803  23.801  1.00  0.00     0.053 C 
BRANCH   4   5
ATOM      5  C   UNL     1      -6.569 -12.076  23.883  1.00  0.00     0.041 C 
ATOM      6  O   UNL     1      -6.538 -12.772  24.932  1.00  0.00    -0.550 OA
ATOM      7  O   UNL     1      -7.291 -12.521  22.783  1.00  0.00    -0.550 OA
ENDBRANCH   4   5
ENDBRANCH   3   4
ENDBRANCH   2   3
ENDBRANCH   1   2
BRANCH   1   8
ATOM      8  C   UNL     1      -3.013  -7.876  23.751  1.00  0.00     0.000 C 
BRANCH   8   9
ATOM      9  C   UNL     1      -1.491  -8.036  23.633  1.00  0.00     0.000 C 
BRANCH   9  10
ATOM     10  C   UNL     1      -1.011  -9.287  24.384  1.00  0.00     0.006 C 
BRANCH  10  11
ATOM     11  C   UNL     1      -0.946  -9.064  25.901  1.00  0.00     0.053 C 
BRANCH  11  12
ATOM     12  C   UNL     1       0.385  -8.527  26.328  1.00  0.00     0.041 C 
ATOM     13  O   UNL     1       1.147  -9.221  27.052  1.00  0.00    -0.550 OA
ATOM     14  O   UNL     1       0.771  -7.246  25.952  1.00  0.00    -0.550 OA
ENDBRANCH  11  12
ENDBRANCH  10  11
ENDBRANCH   9  10
ENDBRANCH   8   9
ENDBRANCH   1   8
TORSDOF 9
ENDMDL
MODEL 3
REMARK VINA RESULT:    12.872     14.392     15.323
REMARK INTER + INTRA:          19.679
REMARK INTER:                  19.517
REMARK INTRA:                   0.162
REMARK UNBOUND:                 0.035
REMARK SMILES O=C([O-])CCCCCCCCC(=O)[O-]
REMARK SMILES IDX 7 1 6 2 5 3 4 4 2 5 1 6 3 7 8 8 9 9 10 10 11 11 12 12 13 13
REMARK SMILES IDX 14 14
REMARK H PARENT
REMARK Flexibility Score: inf
ROOT
ATOM      1  C   UNL     1      -3.132  -8.053  23.759  1.00  0.00     0.000 C 
ENDROOT
BRANCH   1   2
ATOM      2  C   UNL     1      -1.598  -8.068  23.639  1.00  0.00     0.000 C 
BRANCH   2   3
ATOM      3  C   UNL     1      -0.949  -9.239  24.391  1.00  0.00     0.006 C 
BRANCH   3   4
ATOM      4  C   UNL     1      -0.961  -8.992  25.902  1.00  0.00     0.053 C 
BRANCH   4   5
ATOM      5  C   UNL     1       0.378  -8.508  26.365  1.00  0.00     0.041 C 
ATOM      6  O   UNL     1       1.132  -9.267  27.028  1.00  0.00    -0.550 OA
ATOM      7  O   UNL     1       0.772  -7.201  26.107  1.00  0.00    -0.550 OA
ENDBRANCH   4   5
ENDBRANCH   3   4
ENDBRANCH   2   3
ENDBRANCH   1   2
BRANCH   1   8
ATOM      8  C   UNL     1      -3.712  -9.000  24.826  1.00  0.00     0.000 C 
BRANCH   8   9
ATOM      9  C   UNL     1      -5.188  -8.716  25.141  1.00  0.00     0.000 C 
BRANCH   9  10
ATOM     10  C   UNL     1      -6.009 -10.015  25.141  1.00  0.00     0.006 C 
BRANCH  10  11
ATOM     11  C   UNL     1      -5.838 -10.810  23.840  1.00  0.00     0.053 C 
BRANCH  11  12
ATOM     12  C   UNL     1      -6.563 -12.119  23.889  1.00  0.00     0.041 C 
ATOM     13  O   UNL     1      -7.250 -12.502  22.905  1.00  0.00    -0.550 OA
ATOM     14  O   UNL     1      -6.506 -12.903  25.035  1.00  0.00    -0.550 OA
ENDBRANCH  11  12
ENDBRANCH  10  11
ENDBRANCH   9  10
ENDBRANCH   8   9
ENDBRANCH   1   8
TORSDOF 9
ENDMDL
MODEL 4
REMARK VINA RESULT:    13.361     12.957     14.160
REMARK INTER + INTRA:          20.427
REMARK INTER:                  20.397
REMARK INTRA:                   0.030
REMARK UNBOUND:                 0.035
REMARK SMILES O=C([O-])CCCCCCCCC(=O)[O-]
REMARK SMILES IDX 7 1 6 2 5 3 4 4 2 5 1 6 3 7 8 8 9 9 10 10 11 11 12 12 13 13
REMARK SMILES IDX 14 14
REMARK H PARENT
REMARK Flexibility Score: inf
ROOT
ATOM      1  C   UNL     1      -0.826  -9.012  22.166  1.00  0.00     0.000 C 
ENDROOT
BRANCH   1   2
ATOM      2  C   UNL     1      -1.316  -9.618  23.494  1.00  0.00     0.000 C 
BRANCH   2   3
ATOM      3  C   UNL     1      -1.159  -8.660  24.684  1.00  0.00     0.006 C 
BRANCH   3   4
ATOM      4  C   UNL     1      -0.652  -9.404  25.923  1.00  0.00     0.053 C 
BRANCH   4   5
ATOM      5  C   UNL     1       0.528  -8.697  26.512  1.00  0.00     0.041 C 
ATOM      6  O   UNL     1       1.415  -9.348  27.124  1.00  0.00    -0.550 OA
ATOM      7  O   UNL     1       0.623  -7.314  26.429  1.00  0.00    -0.550 OA
ENDBRANCH   4   5
ENDBRANCH   3   4
ENDBRANCH   2   3
ENDBRANCH   1   2
BRANCH   1   8
ATOM      8  C   UNL     1      -1.255  -7.554  21.917  1.00  0.00     0.000 C 
BRANCH   8   9
ATOM      9  C   UNL     1      -2.645  -7.233  22.486  1.00  0.00     0.000 C 
BRANCH   9  10
ATOM     10  C   UNL     1      -3.644  -6.930  21.359  1.00  0.00     0.006 C 
BRANCH  10  11
ATOM     11  C   UNL     1      -2.981  -6.952  19.975  1.00  0.00     0.053 C 
BRANCH  11  12
ATOM     12  C   UNL     1      -3.598  -7.983  19.080  1.00  0.00     0.041 C 
ATOM     13  O   UNL     1      -4.826  -7.933  18.806  1.00  0.00    -0.550 OA
ATOM     14  O   UNL     1      -2.822  -9.018  18.575  1.00  0.00    -0.550 OA
ENDBRANCH  11  12
ENDBRANCH  10  11
ENDBRANCH   9  10
ENDBRANCH   8   9
ENDBRANCH   1   8
TORSDOF 9
ENDMDL
MODEL 5
REMARK VINA RESULT:    14.117     13.501     15.805
REMARK INTER + INTRA:          21.580
REMARK INTER:                  21.887
REMARK INTRA:                  -0.307
REMARK UNBOUND:                 0.035
REMARK SMILES O=C([O-])CCCCCCCCC(=O)[O-]
REMARK SMILES IDX 7 1 6 2 5 3 4 4 2 5 1 6 3 7 8 8 9 9 10 10 11 11 12 12 13 13
REMARK SMILES IDX 14 14
REMARK H PARENT
REMARK Flexibility Score: inf
ROOT
ATOM      1  C   UNL     1      -5.310 -13.875  25.352  1.00  0.00     0.000 C 
ENDROOT
BRANCH   1   2
ATOM      2  C   UNL     1      -5.313 -14.993  26.411  1.00  0.00     0.000 C 
BRANCH   2   3
ATOM      3  C   UNL     1      -4.500 -16.224  25.985  1.00  0.00     0.006 C 
BRANCH   3   4
ATOM      4  C   UNL     1      -5.378 -17.478  25.957  1.00  0.00     0.053 C 
BRANCH   4   5
ATOM      5  C   UNL     1      -5.289 -18.150  24.623  1.00  0.00     0.041 C 
ATOM      6  O   UNL     1      -5.853 -19.260  24.434  1.00  0.00    -0.550 OA
ATOM      7  O   UNL     1      -4.542 -17.575  23.603  1.00  0.00    -0.550 OA
ENDBRANCH   4   5
ENDBRANCH   3   4
ENDBRANCH   2   3
ENDBRANCH   1   2
BRANCH   1   8
ATOM      8  C   UNL     1      -6.490 -12.890  25.440  1.00  0.00     0.000 C 
BRANCH   8   9
ATOM      9  C   UNL     1      -6.732 -12.125  24.131  1.00  0.00     0.000 C 
BRANCH   9  10
ATOM     10  C   UNL     1      -5.622 -11.090  23.888  1.00  0.00     0.006 C 
BRANCH  10  11
ATOM     11  C   UNL     1      -6.018  -9.689  24.374  1.00  0.00     0.053 C 
BRANCH  11  12
ATOM     12  C   UNL     1      -4.986  -9.107  25.290  1.00  0.00     0.041 C 
ATOM     13  O   UNL     1      -5.243  -8.941  26.511  1.00  0.00    -0.550 OA
ATOM     14  O   UNL     1      -3.751  -8.717  24.787  1.00  0.00    -0.550 OA
ENDBRANCH  11  12
ENDBRANCH  10  11
ENDBRANCH   9  10
ENDBRANCH   8   9
ENDBRANCH   1   8
TORSDOF 9
ENDMDL
MODEL 6
REMARK VINA RESULT:    14.169     12.171     15.372
REMARK INTER + INTRA:          21.660
REMARK INTER:                  20.951
REMARK INTRA:                   0.709
REMARK UNBOUND:                 0.035
REMARK SMILES O=C([O-])CCCCCCCCC(=O)[O-]
REMARK SMILES IDX 7 1 6 2 5 3 4 4 2 5 1 6 3 7 8 8 9 9 10 10 11 11 12 12 13 13
REMARK SMILES IDX 14 14
REMARK H PARENT
REMARK Flexibility Score: inf
ROOT
ATOM      1  C   UNL     1      -3.236  -7.250  22.458  1.00  0.00     0.000 C 
ENDROOT
BRANCH   1   2
ATOM      2  C   UNL     1      -2.804  -6.876  21.029  1.00  0.00     0.000 C 
BRANCH   2   3
ATOM      3  C   UNL     1      -3.869  -7.207  19.973  1.00  0.00     0.006 C 
BRANCH   3   4
ATOM      4  C   UNL     1      -3.224  -7.756  18.698  1.00  0.00     0.053 C 
BRANCH   4   5
ATOM      5  C   UNL     1      -2.223  -8.816  19.032  1.00  0.00     0.041 C 
ATOM      6  O   UNL     1      -2.231  -9.913  18.414  1.00  0.00    -0.550 OA
ATOM      7  O   UNL     1      -1.311  -8.613  20.060  1.00  0.00    -0.550 OA
ENDBRANCH   4   5
ENDBRANCH   3   4
ENDBRANCH   2   3
ENDBRANCH   1   2
BRANCH   1   8
ATOM      8  C   UNL     1      -2.085  -7.618  23.412  1.00  0.00     0.000 C 
BRANCH   8   9
ATOM      9  C   UNL     1      -2.332  -8.930  24.171  1.00  0.00     0.000 C 
BRANCH   9  10
ATOM     10  C   UNL     1      -1.021  -9.484  24.751  1.00  0.00     0.006 C 
BRANCH  10  11
ATOM     11  C   UNL     1      -0.827  -9.093  26.222  1.00  0.00     0.053 C 
BRANCH  11  12
ATOM     12  C   UNL     1       0.540  -8.534  26.473  1.00  0.00     0.041 C 
ATOM     13  O   UNL     1       1.435  -9.253  26.989  1.00  0.00    -0.550 OA
ATOM     14  O   UNL     1       0.815  -7.208  26.165  1.00  0.00    -0.550 OA
ENDBRANCH  11  12
ENDBRANCH  10  11
ENDBRANCH   9  10
ENDBRANCH   8   9
ENDBRANCH   1   8
TORSDOF 9
ENDMDL
MODEL 7
REMARK VINA RESULT:    14.206     13.420     15.028
REMARK INTER + INTRA:          21.715
REMARK INTER:                  22.006
REMARK INTRA:                  -0.291
REMARK UNBOUND:                 0.035
REMARK SMILES O=C([O-])CCCCCCCCC(=O)[O-]
REMARK SMILES IDX 7 1 6 2 5 3 4 4 2 5 1 6 3 7 8 8 9 9 10 10 11 11 12 12 13 13
REMARK SMILES IDX 14 14
REMARK H PARENT
REMARK Flexibility Score: inf
ROOT
ATOM      1  C   UNL     1      -6.484 -13.081  25.601  1.00  0.00     0.000 C 
ENDROOT
BRANCH   1   2
ATOM      2  C   UNL     1      -6.733 -12.224  24.347  1.00  0.00     0.000 C 
BRANCH   2   3
ATOM      3  C   UNL     1      -5.607 -11.215  24.077  1.00  0.00     0.006 C 
BRANCH   3   4
ATOM      4  C   UNL     1      -6.044  -9.794  24.445  1.00  0.00     0.053 C 
BRANCH   4   5
ATOM      5  C   UNL     1      -5.013  -9.134  25.305  1.00  0.00     0.041 C 
ATOM      6  O   UNL     1      -5.264  -8.875  26.511  1.00  0.00    -0.550 OA
ATOM      7  O   UNL     1      -3.791  -8.759  24.761  1.00  0.00    -0.550 OA
ENDBRANCH   4   5
ENDBRANCH   3   4
ENDBRANCH   2   3
ENDBRANCH   1   2
BRANCH   1   8
ATOM      8  C   UNL     1      -5.154 -13.856  25.607  1.00  0.00     0.000 C 
BRANCH   8   9
ATOM      9  C   UNL     1      -5.186 -15.094  26.515  1.00  0.00     0.000 C 
BRANCH   9  10
ATOM     10  C   UNL     1      -4.424 -16.265  25.875  1.00  0.00     0.006 C 
BRANCH  10  11
ATOM     11  C   UNL     1      -5.249 -17.559  25.866  1.00  0.00     0.053 C 
BRANCH  11  12
ATOM     12  C   UNL     1      -5.302 -18.175  24.502  1.00  0.00     0.041 C 
ATOM     13  O   UNL     1      -5.962 -19.230  24.307  1.00  0.00    -0.550 OA
ATOM     14  O   UNL     1      -4.594 -17.603  23.453  1.00  0.00    -0.550 OA
ENDBRANCH  11  12
ENDBRANCH  10  11
ENDBRANCH   9  10
ENDBRANCH   8   9
ENDBRANCH   1   8
TORSDOF 9
ENDMDL
MODEL 8
REMARK VINA RESULT:    14.682     13.586     15.684
REMARK INTER + INTRA:          22.442
REMARK INTER:                  22.670
REMARK INTRA:                  -0.228
REMARK UNBOUND:                 0.035
REMARK SMILES O=C([O-])CCCCCCCCC(=O)[O-]
REMARK SMILES IDX 7 1 6 2 5 3 4 4 2 5 1 6 3 7 8 8 9 9 10 10 11 11 12 12 13 13
REMARK SMILES IDX 14 14
REMARK H PARENT
REMARK Flexibility Score: inf
ROOT
ATOM      1  C   UNL     1      -6.390 -13.209  25.553  1.00  0.00     0.000 C 
ENDROOT
BRANCH   1   2
ATOM      2  C   UNL     1      -5.067 -13.973  25.732  1.00  0.00     0.000 C 
BRANCH   2   3
ATOM      3  C   UNL     1      -5.271 -15.430  26.176  1.00  0.00     0.006 C 
BRANCH   3   4
ATOM      4  C   UNL     1      -4.306 -16.366  25.443  1.00  0.00     0.053 C 
BRANCH   4   5
ATOM      5  C   UNL     1      -5.017 -17.603  24.994  1.00  0.00     0.041 C 
ATOM      6  O   UNL     1      -5.503 -18.398  25.841  1.00  0.00    -0.550 OA
ATOM      7  O   UNL     1      -5.099 -17.906  23.640  1.00  0.00    -0.550 OA
ENDBRANCH   4   5
ENDBRANCH   3   4
ENDBRANCH   2   3
ENDBRANCH   1   2
BRANCH   1   8
ATOM      8  C   UNL     1      -6.380 -12.137  24.447  1.00  0.00     0.000 C 
BRANCH   8   9
ATOM      9  C   UNL     1      -6.224 -10.711  24.995  1.00  0.00     0.000 C 
BRANCH   9  10
ATOM     10  C   UNL     1      -5.281  -9.882  24.109  1.00  0.00     0.006 C 
BRANCH  10  11
ATOM     11  C   UNL     1      -4.515  -8.822  24.911  1.00  0.00     0.053 C 
BRANCH  11  12
ATOM     12  C   UNL     1      -3.221  -8.455  24.252  1.00  0.00     0.041 C 
ATOM     13  O   UNL     1      -2.169  -9.093  24.519  1.00  0.00    -0.550 OA
ATOM     14  O   UNL     1      -3.171  -7.386  23.365  1.00  0.00    -0.550 OA
ENDBRANCH  11  12
ENDBRANCH  10  11
ENDBRANCH   9  10
ENDBRANCH   8   9
ENDBRANCH   1   8
TORSDOF 9
ENDMDL
MODEL 9
REMARK VINA RESULT:    14.695     13.988     15.314
REMARK INTER + INTRA:          22.462
REMARK INTER:                  22.934
REMARK INTRA:                  -0.472
REMARK UNBOUND:                 0.035
REMARK SMILES O=C([O-])CCCCCCCCC(=O)[O-]
REMARK SMILES IDX 7 1 6 2 5 3 4 4 2 5 1 6 3 7 8 8 9 9 10 10 11 11 12 12 13 13
REMARK SMILES IDX 14 14
REMARK H PARENT
REMARK Flexibility Score: inf
ROOT
ATOM      1  C   UNL     1      -2.479  -9.026  24.617  1.00  0.00     0.000 C 
ENDROOT
BRANCH   1   2
ATOM      2  C   UNL     1      -1.535  -8.559  23.495  1.00  0.00     0.000 C 
BRANCH   2   3
ATOM      3  C   UNL     1      -2.114  -7.404  22.666  1.00  0.00     0.006 C 
BRANCH   3   4
ATOM      4  C   UNL     1      -1.790  -7.580  21.180  1.00  0.00     0.053 C 
BRANCH   4   5
ATOM      5  C   UNL     1      -3.003  -7.319  20.344  1.00  0.00     0.041 C 
ATOM      6  O   UNL     1      -4.073  -6.933  20.884  1.00  0.00    -0.550 OA
ATOM      7  O   UNL     1      -2.967  -7.549  18.975  1.00  0.00    -0.550 OA
ENDBRANCH   4   5
ENDBRANCH   3   4
ENDBRANCH   2   3
ENDBRANCH   1   2
BRANCH   1   8
ATOM      8  C   UNL     1      -3.937  -8.549  24.483  1.00  0.00     0.000 C 
BRANCH   8   9
ATOM      9  C   UNL     1      -4.859  -9.127  25.566  1.00  0.00     0.000 C 
BRANCH   9  10
ATOM     10  C   UNL     1      -6.086  -9.806  24.939  1.00  0.00     0.006 C 
BRANCH  10  11
ATOM     11  C   UNL     1      -5.698 -10.811  23.846  1.00  0.00     0.053 C 
BRANCH  11  12
ATOM     12  C   UNL     1      -6.539 -12.049  23.905  1.00  0.00     0.041 C 
ATOM     13  O   UNL     1      -6.614 -12.715  24.971  1.00  0.00    -0.550 OA
ATOM     14  O   UNL     1      -7.216 -12.484  22.773  1.00  0.00    -0.550 OA
ENDBRANCH  11  12
ENDBRANCH  10  11
ENDBRANCH   9  10
ENDBRANCH   8   9
ENDBRANCH   1   8
TORSDOF 9
ENDMDL
