MODEL 1
REMARK VINA RESULT:    -1.600      0.000      0.000
REMARK INTER + INTRA:          -3.239
REMARK INTER:                  -2.722
REMARK INTRA:                  -0.517
REMARK UNBOUND:                -0.517
REMARK SMILES CCCCCCCCCCCCCC(=O)[O-]
REMARK SMILES IDX 8 1 9 2 10 3 11 4 12 5 13 6 14 7 15 8 16 9 7 10 6 11 5 12
REMARK SMILES IDX 4 13 3 14 2 15 1 16
REMARK H PARENT
REMARK Flexibility Score: inf
ROOT
ATOM      1  C   UNL     1      23.892  36.629  19.213  1.00  0.00     0.000 C 
ENDROOT
BRANCH   1   2
ATOM      2  C   UNL     1      24.305  35.949  17.898  1.00  0.00     0.000 C 
BRANCH   2   3
ATOM      3  C   UNL     1      25.785  35.539  17.882  1.00  0.00     0.000 C 
BRANCH   3   4
ATOM      4  C   UNL     1      26.697  36.776  17.877  1.00  0.00     0.000 C 
BRANCH   4   5
ATOM      5  C   UNL     1      28.184  36.423  18.065  1.00  0.00     0.006 C 
BRANCH   5   6
ATOM      6  C   UNL     1      29.096  37.636  18.312  1.00  0.00     0.053 C 
BRANCH   6   7
ATOM      7  C   UNL     1      30.348  37.260  19.042  1.00  0.00     0.041 C 
ATOM      8  O   UNL     1      31.472  37.605  18.591  1.00  0.00    -0.550 OA
ATOM      9  O   UNL     1      30.275  36.499  20.201  1.00  0.00    -0.550 OA
ENDBRANCH   6   7
ENDBRANCH   5   6
ENDBRANCH   4   5
ENDBRANCH   3   4
ENDBRANCH   2   3
ENDBRANCH   1   2
BRANCH   1  10
ATOM     10  C   UNL     1      23.147  35.679  20.163  1.00  0.00     0.000 C 
BRANCH  10  11
ATOM     11  C   UNL     1      22.242  36.465  21.124  1.00  0.00    -0.000 C 
BRANCH  11  12
ATOM     12  C   UNL     1      22.815  37.845  21.492  1.00  0.00    -0.000 C 
BRANCH  12  13
ATOM     13  C   UNL     1      22.531  38.307  22.936  1.00  0.00    -0.000 C 
BRANCH  13  14
ATOM     14  C   UNL     1      23.638  39.163  23.577  1.00  0.00    -0.000 C 
BRANCH  14  15
ATOM     15  C   UNL     1      24.133  38.591  24.913  1.00  0.00    -0.003 C 
ATOM     16  C   UNL     1      23.016  37.848  25.640  1.00  0.00     0.004 C 
ENDBRANCH  14  15
ENDBRANCH  13  14
ENDBRANCH  12  13
ENDBRANCH  11  12
ENDBRANCH  10  11
ENDBRANCH   1  10
TORSDOF 12
ENDMDL
MODEL 2
REMARK VINA RESULT:    -1.591      3.211      7.033
REMARK INTER + INTRA:          -3.224
REMARK INTER:                  -2.667
REMARK INTRA:                  -0.557
REMARK UNBOUND:                -0.517
REMARK SMILES CCCCCCCCCCCCCC(=O)[O-]
REMARK SMILES IDX 8 1 9 2 10 3 11 4 12 5 13 6 14 7 15 8 16 9 7 10 6 11 5 12
REMARK SMILES IDX 4 13 3 14 2 15 1 16
REMARK H PARENT
REMARK Flexibility Score: inf
ROOT
ATOM      1  C   UNL     1      23.894  35.558  18.105  1.00  0.00     0.000 C 
ENDROOT
BRANCH   1   2
ATOM      2  C   UNL     1      23.519  35.584  19.596  1.00  0.00     0.000 C 
BRANCH   2   3
ATOM      3  C   UNL     1      23.295  37.008  20.126  1.00  0.00     0.000 C 
BRANCH   3   4
ATOM      4  C   UNL     1      22.617  36.980  21.504  1.00  0.00     0.000 C 
BRANCH   4   5
ATOM      5  C   UNL     1      22.484  38.379  22.133  1.00  0.00     0.006 C 
BRANCH   5   6
ATOM      6  C   UNL     1      22.392  38.376  23.668  1.00  0.00     0.053 C 
BRANCH   6   7
ATOM      7  C   UNL     1      23.604  38.982  24.306  1.00  0.00     0.041 C 
ATOM      8  O   UNL     1      24.389  38.265  24.982  1.00  0.00    -0.550 OA
ATOM      9  O   UNL     1      23.848  40.343  24.183  1.00  0.00    -0.550 OA
ENDBRANCH   6   7
ENDBRANCH   5   6
ENDBRANCH   4   5
ENDBRANCH   3   4
ENDBRANCH   2   3
ENDBRANCH   1   2
BRANCH   1  10
ATOM     10  C   UNL     1      25.411  35.470  17.877  1.00  0.00     0.000 C 
BRANCH  10  11
ATOM     11  C   UNL     1      26.047  36.868  17.876  1.00  0.00    -0.000 C 
BRANCH  11  12
ATOM     12  C   UNL     1      27.582  36.827  17.974  1.00  0.00    -0.000 C 
BRANCH  12  13
ATOM     13  C   UNL     1      28.170  35.485  18.457  1.00  0.00    -0.000 C 
BRANCH  13  14
ATOM     14  C   UNL     1      29.470  35.597  19.273  1.00  0.00    -0.000 C 
BRANCH  14  15
ATOM     15  C   UNL     1      29.893  37.052  19.521  1.00  0.00    -0.003 C 
ATOM     16  C   UNL     1      31.116  37.417  18.686  1.00  0.00     0.004 C 
ENDBRANCH  14  15
ENDBRANCH  13  14
ENDBRANCH  12  13
ENDBRANCH  11  12
ENDBRANCH  10  11
ENDBRANCH   1  10
TORSDOF 12
ENDMDL
MODEL 3
REMARK VINA RESULT:    -1.010      1.063      1.870
REMARK INTER + INTRA:          -2.236
REMARK INTER:                  -1.570
REMARK INTRA:                  -0.666
REMARK UNBOUND:                -0.517
REMARK SMILES CCCCCCCCCCCCCC(=O)[O-]
REMARK SMILES IDX 8 1 9 2 10 3 11 4 12 5 13 6 14 7 15 8 16 9 7 10 6 11 5 12
REMARK SMILES IDX 4 13 3 14 2 15 1 16
REMARK H PARENT
REMARK Flexibility Score: inf
ROOT
ATOM      1  C   UNL     1      23.498  37.063  20.243  1.00  0.00     0.000 C 
ENDROOT
BRANCH   1   2
ATOM      2  C   UNL     1      23.498  35.692  19.546  1.00  0.00     0.000 C 
BRANCH   2   3
ATOM      3  C   UNL     1      24.025  35.760  18.105  1.00  0.00     0.000 C 
BRANCH   3   4
ATOM      4  C   UNL     1      25.468  35.238  18.023  1.00  0.00     0.000 C 
BRANCH   4   5
ATOM      5  C   UNL     1      26.507  36.369  17.920  1.00  0.00     0.006 C 
BRANCH   5   6
ATOM      6  C   UNL     1      27.966  35.886  17.875  1.00  0.00     0.053 C 
BRANCH   6   7
ATOM      7  C   UNL     1      28.891  36.822  18.589  1.00  0.00     0.041 C 
ATOM      8  O   UNL     1      29.737  36.374  19.408  1.00  0.00    -0.550 OA
ATOM      9  O   UNL     1      28.797  38.190  18.376  1.00  0.00    -0.550 OA
ENDBRANCH   6   7
ENDBRANCH   5   6
ENDBRANCH   4   5
ENDBRANCH   3   4
ENDBRANCH   2   3
ENDBRANCH   1   2
BRANCH   1  10
ATOM     10  C   UNL     1      22.419  37.175  21.330  1.00  0.00     0.000 C 
BRANCH  10  11
ATOM     11  C   UNL     1      22.436  38.569  21.976  1.00  0.00    -0.000 C 
BRANCH  11  12
ATOM     12  C   UNL     1      23.848  39.017  22.394  1.00  0.00    -0.000 C 
BRANCH  12  13
ATOM     13  C   UNL     1      23.891  40.154  23.436  1.00  0.00    -0.000 C 
BRANCH  13  14
ATOM     14  C   UNL     1      23.652  39.715  24.892  1.00  0.00    -0.000 C 
BRANCH  14  15
ATOM     15  C   UNL     1      23.985  38.235  25.130  1.00  0.00    -0.003 C 
ATOM     16  C   UNL     1      22.738  37.450  25.529  1.00  0.00     0.004 C 
ENDBRANCH  14  15
ENDBRANCH  13  14
ENDBRANCH  12  13
ENDBRANCH  11  12
ENDBRANCH  10  11
ENDBRANCH   1  10
TORSDOF 12
ENDMDL
MODEL 4
REMARK VINA RESULT:    -0.942      2.991      6.927
REMARK INTER + INTRA:          -2.121
REMARK INTER:                  -1.472
REMARK INTRA:                  -0.649
REMARK UNBOUND:                -0.517
REMARK SMILES CCCCCCCCCCCCCC(=O)[O-]
REMARK SMILES IDX 8 1 9 2 10 3 11 4 12 5 13 6 14 7 15 8 16 9 7 10 6 11 5 12
REMARK SMILES IDX 4 13 3 14 2 15 1 16
REMARK H PARENT
REMARK Flexibility Score: inf
ROOT
ATOM      1  C   UNL     1      23.061  37.133  20.573  1.00  0.00     0.000 C 
ENDROOT
BRANCH   1   2
ATOM      2  C   UNL     1      22.241  37.584  21.793  1.00  0.00     0.000 C 
BRANCH   2   3
ATOM      3  C   UNL     1      22.347  36.604  22.972  1.00  0.00     0.000 C 
BRANCH   3   4
ATOM      4  C   UNL     1      22.265  37.349  24.313  1.00  0.00     0.000 C 
BRANCH   4   5
ATOM      5  C   UNL     1      23.645  37.573  24.957  1.00  0.00     0.006 C 
BRANCH   5   6
ATOM      6  C   UNL     1      23.930  39.031  25.354  1.00  0.00     0.053 C 
BRANCH   6   7
ATOM      7  C   UNL     1      24.034  39.929  24.160  1.00  0.00     0.041 C 
ATOM      8  O   UNL     1      23.616  41.116  24.222  1.00  0.00    -0.550 OA
ATOM      9  O   UNL     1      24.560  39.446  22.970  1.00  0.00    -0.550 OA
ENDBRANCH   6   7
ENDBRANCH   5   6
ENDBRANCH   4   5
ENDBRANCH   3   4
ENDBRANCH   2   3
ENDBRANCH   1   2
BRANCH   1  10
ATOM     10  C   UNL     1      23.152  35.605  20.451  1.00  0.00     0.000 C 
BRANCH  10  11
ATOM     11  C   UNL     1      23.489  35.190  19.011  1.00  0.00    -0.000 C 
BRANCH  11  12
ATOM     12  C   UNL     1      24.238  36.286  18.232  1.00  0.00    -0.000 C 
BRANCH  12  13
ATOM     13  C   UNL     1      25.701  35.950  17.875  1.00  0.00    -0.000 C 
BRANCH  13  14
ATOM     14  C   UNL     1      26.695  37.114  18.032  1.00  0.00    -0.000 C 
BRANCH  14  15
ATOM     15  C   UNL     1      28.157  36.646  18.078  1.00  0.00    -0.003 C 
ATOM     16  C   UNL     1      29.107  37.831  18.229  1.00  0.00     0.004 C 
ENDBRANCH  14  15
ENDBRANCH  13  14
ENDBRANCH  12  13
ENDBRANCH  11  12
ENDBRANCH  10  11
ENDBRANCH   1  10
TORSDOF 12
ENDMDL
MODEL 5
REMARK VINA RESULT:    -0.781      3.389      7.110
REMARK INTER + INTRA:          -1.845
REMARK INTER:                  -1.284
REMARK INTRA:                  -0.561
REMARK UNBOUND:                -0.517
REMARK SMILES CCCCCCCCCCCCCC(=O)[O-]
REMARK SMILES IDX 8 1 9 2 10 3 11 4 12 5 13 6 14 7 15 8 16 9 7 10 6 11 5 12
REMARK SMILES IDX 4 13 3 14 2 15 1 16
REMARK H PARENT
REMARK Flexibility Score: inf
ROOT
ATOM      1  C   UNL     1      24.262  36.421  19.060  1.00  0.00     0.000 C 
ENDROOT
BRANCH   1   2
ATOM      2  C   UNL     1      23.140  36.287  20.103  1.00  0.00     0.000 C 
BRANCH   2   3
ATOM      3  C   UNL     1      22.763  37.631  20.743  1.00  0.00     0.000 C 
BRANCH   3   4
ATOM      4  C   UNL     1      22.453  37.458  22.238  1.00  0.00     0.000 C 
BRANCH   4   5
ATOM      5  C   UNL     1      22.472  38.789  23.010  1.00  0.00     0.006 C 
BRANCH   5   6
ATOM      6  C   UNL     1      23.557  38.877  24.096  1.00  0.00     0.053 C 
BRANCH   6   7
ATOM      7  C   UNL     1      23.235  38.026  25.284  1.00  0.00     0.041 C 
ATOM      8  O   UNL     1      22.477  38.463  26.190  1.00  0.00    -0.550 OA
ATOM      9  O   UNL     1      23.800  36.763  25.409  1.00  0.00    -0.550 OA
ENDBRANCH   6   7
ENDBRANCH   5   6
ENDBRANCH   4   5
ENDBRANCH   3   4
ENDBRANCH   2   3
ENDBRANCH   1   2
BRANCH   1  10
ATOM     10  C   UNL     1      24.492  35.126  18.266  1.00  0.00     0.000 C 
BRANCH  10  11
ATOM     11  C   UNL     1      25.980  34.948  17.928  1.00  0.00    -0.000 C 
BRANCH  11  12
ATOM     12  C   UNL     1      26.747  36.282  17.885  1.00  0.00    -0.000 C 
BRANCH  12  13
ATOM     13  C   UNL     1      28.284  36.151  17.878  1.00  0.00    -0.000 C 
BRANCH  13  14
ATOM     14  C   UNL     1      29.035  37.236  18.671  1.00  0.00    -0.000 C 
BRANCH  14  15
ATOM     15  C   UNL     1      29.560  36.730  20.022  1.00  0.00    -0.003 C 
ATOM     16  C   UNL     1      29.288  35.238  20.193  1.00  0.00     0.004 C 
ENDBRANCH  14  15
ENDBRANCH  13  14
ENDBRANCH  12  13
ENDBRANCH  11  12
ENDBRANCH  10  11
ENDBRANCH   1  10
TORSDOF 12
ENDMDL
MODEL 6
REMARK VINA RESULT:    -0.379      1.037      1.682
REMARK INTER + INTRA:          -1.162
REMARK INTER:                  -0.461
REMARK INTRA:                  -0.701
REMARK UNBOUND:                -0.517
REMARK SMILES CCCCCCCCCCCCCC(=O)[O-]
REMARK SMILES IDX 8 1 9 2 10 3 11 4 12 5 13 6 14 7 15 8 16 9 7 10 6 11 5 12
REMARK SMILES IDX 4 13 3 14 2 15 1 16
REMARK H PARENT
REMARK Flexibility Score: inf
ROOT
ATOM      1  C   UNL     1      23.773  36.962  20.063  1.00  0.00     0.000 C 
ENDROOT
BRANCH   1   2
ATOM      2  C   UNL     1      23.843  35.810  19.047  1.00  0.00     0.000 C 
BRANCH   2   3
ATOM      3  C   UNL     1      24.997  35.973  18.046  1.00  0.00     0.000 C 
BRANCH   3   4
ATOM      4  C   UNL     1      26.237  35.191  18.506  1.00  0.00     0.000 C 
BRANCH   4   5
ATOM      5  C   UNL     1      27.540  35.714  17.876  1.00  0.00     0.006 C 
BRANCH   5   6
ATOM      6  C   UNL     1      27.751  37.230  18.023  1.00  0.00     0.053 C 
BRANCH   6   7
ATOM      7  C   UNL     1      29.055  37.556  18.682  1.00  0.00     0.041 C 
ATOM      8  O   UNL     1      29.933  38.213  18.060  1.00  0.00    -0.550 OA
ATOM      9  O   UNL     1      29.316  37.106  19.969  1.00  0.00    -0.550 OA
ENDBRANCH   6   7
ENDBRANCH   5   6
ENDBRANCH   4   5
ENDBRANCH   3   4
ENDBRANCH   2   3
ENDBRANCH   1   2
BRANCH   1  10
ATOM     10  C   UNL     1      22.374  37.129  20.674  1.00  0.00     0.000 C 
BRANCH  10  11
ATOM     11  C   UNL     1      22.378  36.749  22.162  1.00  0.00    -0.000 C 
BRANCH  11  12
ATOM     12  C   UNL     1      22.060  37.940  23.085  1.00  0.00    -0.000 C 
BRANCH  12  13
ATOM     13  C   UNL     1      22.658  37.844  24.504  1.00  0.00    -0.000 C 
BRANCH  13  14
ATOM     14  C   UNL     1      23.830  38.802  24.784  1.00  0.00    -0.000 C 
BRANCH  14  15
ATOM     15  C   UNL     1      24.287  39.566  23.533  1.00  0.00    -0.003 C 
ATOM     16  C   UNL     1      24.020  41.062  23.676  1.00  0.00     0.004 C 
ENDBRANCH  14  15
ENDBRANCH  13  14
ENDBRANCH  12  13
ENDBRANCH  11  12
ENDBRANCH  10  11
ENDBRANCH   1  10
TORSDOF 12
ENDMDL
MODEL 7
REMARK VINA RESULT:     0.021      1.684      3.131
REMARK INTER + INTRA:          -0.481
REMARK INTER:                   0.033
REMARK INTRA:                  -0.514
REMARK UNBOUND:                -0.517
REMARK SMILES CCCCCCCCCCCCCC(=O)[O-]
REMARK SMILES IDX 8 1 9 2 10 3 11 4 12 5 13 6 14 7 15 8 16 9 7 10 6 11 5 12
REMARK SMILES IDX 4 13 3 14 2 15 1 16
REMARK H PARENT
REMARK Flexibility Score: inf
ROOT
ATOM      1  C   UNL     1      21.973  37.225  21.486  1.00  0.00     0.000 C 
ENDROOT
BRANCH   1   2
ATOM      2  C   UNL     1      23.107  37.187  20.449  1.00  0.00     0.000 C 
BRANCH   2   3
ATOM      3  C   UNL     1      23.460  35.758  20.010  1.00  0.00     0.000 C 
BRANCH   3   4
ATOM      4  C   UNL     1      23.524  35.655  18.478  1.00  0.00     0.000 C 
BRANCH   4   5
ATOM      5  C   UNL     1      24.960  35.485  17.950  1.00  0.00     0.006 C 
BRANCH   5   6
ATOM      6  C   UNL     1      25.765  36.793  17.875  1.00  0.00     0.053 C 
BRANCH   6   7
ATOM      7  C   UNL     1      27.237  36.556  18.013  1.00  0.00     0.041 C 
ATOM      8  O   UNL     1      27.698  35.384  17.965  1.00  0.00    -0.550 OA
ATOM      9  O   UNL     1      28.096  37.625  18.229  1.00  0.00    -0.550 OA
ENDBRANCH   6   7
ENDBRANCH   5   6
ENDBRANCH   4   5
ENDBRANCH   3   4
ENDBRANCH   2   3
ENDBRANCH   1   2
BRANCH   1  10
ATOM     10  C   UNL     1      22.177  38.316  22.548  1.00  0.00     0.000 C 
BRANCH  10  11
ATOM     11  C   UNL     1      23.614  38.856  22.508  1.00  0.00    -0.000 C 
BRANCH  11  12
ATOM     12  C   UNL     1      23.908  39.857  23.641  1.00  0.00    -0.000 C 
BRANCH  12  13
ATOM     13  C   UNL     1      24.089  39.228  25.038  1.00  0.00    -0.000 C 
BRANCH  13  14
ATOM     14  C   UNL     1      23.863  37.707  25.103  1.00  0.00    -0.000 C 
BRANCH  14  15
ATOM     15  C   UNL     1      22.733  37.313  26.065  1.00  0.00    -0.003 C 
ATOM     16  C   UNL     1      21.986  38.546  26.566  1.00  0.00     0.004 C 
ENDBRANCH  14  15
ENDBRANCH  13  14
ENDBRANCH  12  13
ENDBRANCH  11  12
ENDBRANCH  10  11
ENDBRANCH   1  10
TORSDOF 12
ENDMDL
