MODEL 1
REMARK VINA RESULT:    -1.195      0.000      0.000
REMARK INTER + INTRA:          -0.973
REMARK INTER:                  -1.475
REMARK INTRA:                   0.501
REMARK UNBOUND:                 0.501
REMARK SMILES O=c1c(O)c(-c2cc(O)c(O)c(O)c2)oc2cc(O)cc(O)c12
REMARK SMILES IDX 5 1 3 2 2 3 1 4 23 5 21 6 20 7 18 8 17 9 16 10 15 11 6 12
REMARK SMILES IDX 7 13 8 14 14 15 10 16 12 17 9 18 11 20 13 22 4 24 22 26
REMARK SMILES IDX 19 28
REMARK H PARENT 9 19 11 21 13 23 4 25 22 27 19 29
REMARK Flexibility Score: inf
ROOT
ATOM      1  C   UNL     1      60.022   4.516  54.703  1.00  0.00     0.180 A 
ATOM      2  C   UNL     1      59.168   3.688  53.949  1.00  0.00     0.208 A 
ATOM      3  C   UNL     1      58.080   3.073  54.590  1.00  0.00     0.238 A 
ATOM      4  O   UNL     1      57.315   2.321  53.927  1.00  0.00    -0.285 OA
ATOM      5  C   UNL     1      57.853   3.311  55.961  1.00  0.00     0.111 A 
ATOM      6  C   UNL     1      56.779   2.734  56.679  1.00  0.00     0.134 A 
ATOM      7  C   UNL     1      56.615   3.028  58.042  1.00  0.00     0.093 A 
ATOM      8  C   UNL     1      57.502   3.886  58.697  1.00  0.00     0.123 A 
ATOM      9  C   UNL     1      58.566   4.458  57.992  1.00  0.00     0.094 A 
ATOM     10  C   UNL     1      58.747   4.176  56.636  1.00  0.00     0.146 A 
ATOM     11  O   UNL     1      59.769   4.729  55.991  1.00  0.00    -0.452 OA
ENDROOT
BRANCH   1  12
ATOM     12  C   UNL     1      61.200   5.183  54.104  1.00  0.00     0.029 A 
ATOM     13  C   UNL     1      61.547   4.906  52.772  1.00  0.00     0.062 A 
ATOM     14  C   UNL     1      62.646   5.539  52.174  1.00  0.00     0.162 A 
ATOM     15  C   UNL     1      61.947   6.132  54.822  1.00  0.00     0.062 A 
ATOM     16  C   UNL     1      63.401   6.470  52.907  1.00  0.00     0.200 A 
ATOM     17  C   UNL     1      63.046   6.769  54.229  1.00  0.00     0.162 A 
BRANCH  14  18
ATOM     18  O   UNL     1      62.990   5.244  50.856  1.00  0.00    -0.504 OA
ATOM     19  H   UNL     1      63.026   5.963  50.143  1.00  0.00     0.293 HD
ENDBRANCH  14  18
BRANCH  16  20
ATOM     20  O   UNL     1      64.500   7.111  52.336  1.00  0.00    -0.502 OA
ATOM     21  H   UNL     1      64.854   6.860  51.421  1.00  0.00     0.293 HD
ENDBRANCH  16  20
BRANCH  17  22
ATOM     22  O   UNL     1      63.789   7.704  54.947  1.00  0.00    -0.504 OA
ATOM     23  H   UNL     1      64.778   7.844  54.773  1.00  0.00     0.293 HD
ENDBRANCH  17  22
ENDBRANCH   1  12
BRANCH   2  24
ATOM     24  O   UNL     1      59.386   3.507  52.581  1.00  0.00    -0.502 OA
ATOM     25  H   UNL     1      59.730   4.250  51.984  1.00  0.00     0.293 HD
ENDBRANCH   2  24
BRANCH   6  26
ATOM     26  O   UNL     1      55.875   1.875  56.054  1.00  0.00    -0.507 OA
ATOM     27  H   UNL     1      56.020   0.872  56.030  1.00  0.00     0.293 HD
ENDBRANCH   6  26
BRANCH   8  28
ATOM     28  O   UNL     1      57.316   4.161  60.050  1.00  0.00    -0.508 OA
ATOM     29  H   UNL     1      58.080   4.480  60.635  1.00  0.00     0.293 HD
ENDBRANCH   8  28
TORSDOF 7
ENDMDL
MODEL 2
REMARK VINA RESULT:    -0.966      0.111      1.753
REMARK INTER + INTRA:          -0.691
REMARK INTER:                  -1.113
REMARK INTRA:                   0.423
REMARK UNBOUND:                 0.501
REMARK SMILES O=c1c(O)c(-c2cc(O)c(O)c(O)c2)oc2cc(O)cc(O)c12
REMARK SMILES IDX 5 1 3 2 2 3 1 4 23 5 21 6 20 7 18 8 17 9 16 10 15 11 6 12
REMARK SMILES IDX 7 13 8 14 14 15 10 16 12 17 9 18 11 20 13 22 4 24 22 26
REMARK SMILES IDX 19 28
REMARK H PARENT 9 19 11 21 13 23 4 25 22 27 19 29
REMARK Flexibility Score: inf
ROOT
ATOM      1  C   UNL     1      59.958   4.545  54.729  1.00  0.00     0.180 A 
ATOM      2  C   UNL     1      59.121   3.666  54.015  1.00  0.00     0.208 A 
ATOM      3  C   UNL     1      58.049   3.056  54.686  1.00  0.00     0.238 A 
ATOM      4  O   UNL     1      57.299   2.259  54.060  1.00  0.00    -0.285 OA
ATOM      5  C   UNL     1      57.820   3.349  56.046  1.00  0.00     0.111 A 
ATOM      6  C   UNL     1      56.761   2.781  56.793  1.00  0.00     0.134 A 
ATOM      7  C   UNL     1      56.595   3.130  58.142  1.00  0.00     0.093 A 
ATOM      8  C   UNL     1      57.464   4.035  58.755  1.00  0.00     0.123 A 
ATOM      9  C   UNL     1      58.513   4.599  58.023  1.00  0.00     0.094 A 
ATOM     10  C   UNL     1      58.697   4.262  56.679  1.00  0.00     0.146 A 
ATOM     11  O   UNL     1      59.704   4.808  56.007  1.00  0.00    -0.452 OA
ENDROOT
BRANCH   1  12
ATOM     12  C   UNL     1      61.120   5.211  54.097  1.00  0.00     0.029 A 
ATOM     13  C   UNL     1      61.887   6.118  54.846  1.00  0.00     0.062 A 
ATOM     14  C   UNL     1      63.004   6.747  54.279  1.00  0.00     0.162 A 
ATOM     15  C   UNL     1      61.508   4.913  52.780  1.00  0.00     0.062 A 
ATOM     16  C   UNL     1      63.371   6.459  52.954  1.00  0.00     0.200 A 
ATOM     17  C   UNL     1      62.625   5.538  52.208  1.00  0.00     0.162 A 
BRANCH  14  18
ATOM     18  O   UNL     1      63.749   7.656  55.028  1.00  0.00    -0.504 OA
ATOM     19  H   UNL     1      63.362   8.114  55.845  1.00  0.00     0.293 HD
ENDBRANCH  14  18
BRANCH  16  20
ATOM     20  O   UNL     1      64.477   7.074  52.367  1.00  0.00    -0.502 OA
ATOM     21  H   UNL     1      65.177   7.561  52.914  1.00  0.00     0.293 HD
ENDBRANCH  16  20
BRANCH  17  22
ATOM     22  O   UNL     1      63.002   5.245  50.899  1.00  0.00    -0.504 OA
ATOM     23  H   UNL     1      63.974   5.110  50.644  1.00  0.00     0.293 HD
ENDBRANCH  17  22
ENDBRANCH   1  12
BRANCH   2  24
ATOM     24  O   UNL     1      59.340   3.430  52.655  1.00  0.00    -0.502 OA
ATOM     25  H   UNL     1      59.868   4.068  52.073  1.00  0.00     0.293 HD
ENDBRANCH   2  24
BRANCH   6  26
ATOM     26  O   UNL     1      55.875   1.875  56.209  1.00  0.00    -0.507 OA
ATOM     27  H   UNL     1      55.591   1.025  56.682  1.00  0.00     0.293 HD
ENDBRANCH   6  26
BRANCH   8  28
ATOM     28  O   UNL     1      57.275   4.366  60.096  1.00  0.00    -0.508 OA
ATOM     29  H   UNL     1      58.061   4.527  60.716  1.00  0.00     0.293 HD
ENDBRANCH   8  28
TORSDOF 7
ENDMDL
MODEL 3
REMARK VINA RESULT:    -0.228      2.327      4.111
REMARK INTER + INTRA:           0.220
REMARK INTER:                  -0.109
REMARK INTRA:                   0.329
REMARK UNBOUND:                 0.501
REMARK SMILES O=c1c(O)c(-c2cc(O)c(O)c(O)c2)oc2cc(O)cc(O)c12
REMARK SMILES IDX 5 1 3 2 2 3 1 4 23 5 21 6 20 7 18 8 17 9 16 10 15 11 6 12
REMARK SMILES IDX 7 13 8 14 14 15 10 16 12 17 9 18 11 20 13 22 4 24 22 26
REMARK SMILES IDX 19 28
REMARK H PARENT 9 19 11 21 13 23 4 25 22 27 19 29
REMARK Flexibility Score: inf
ROOT
ATOM      1  C   UNL     1      59.070   3.932  55.360  1.00  0.00     0.180 A 
ATOM      2  C   UNL     1      59.720   5.018  55.977  1.00  0.00     0.208 A 
ATOM      3  C   UNL     1      59.452   5.290  57.328  1.00  0.00     0.238 A 
ATOM      4  O   UNL     1      60.020   6.267  57.888  1.00  0.00    -0.285 OA
ATOM      5  C   UNL     1      58.559   4.465  58.042  1.00  0.00     0.111 A 
ATOM      6  C   UNL     1      58.238   4.668  59.405  1.00  0.00     0.134 A 
ATOM      7  C   UNL     1      57.346   3.796  60.048  1.00  0.00     0.093 A 
ATOM      8  C   UNL     1      56.772   2.727  59.355  1.00  0.00     0.123 A 
ATOM      9  C   UNL     1      57.084   2.522  58.008  1.00  0.00     0.094 A 
ATOM     10  C   UNL     1      57.969   3.381  57.349  1.00  0.00     0.146 A 
ATOM     11  O   UNL     1      58.245   3.167  56.068  1.00  0.00    -0.452 OA
ENDROOT
BRANCH   1  12
ATOM     12  C   UNL     1      59.285   3.593  53.935  1.00  0.00     0.029 A 
ATOM     13  C   UNL     1      58.289   2.896  53.233  1.00  0.00     0.062 A 
ATOM     14  C   UNL     1      58.458   2.581  51.878  1.00  0.00     0.162 A 
ATOM     15  C   UNL     1      60.442   4.004  53.251  1.00  0.00     0.062 A 
ATOM     16  C   UNL     1      59.628   2.977  51.208  1.00  0.00     0.200 A 
ATOM     17  C   UNL     1      60.616   3.693  51.896  1.00  0.00     0.162 A 
BRANCH  14  18
ATOM     18  O   UNL     1      57.468   1.875  51.196  1.00  0.00    -0.504 OA
ATOM     19  H   UNL     1      57.681   1.318  50.377  1.00  0.00     0.293 HD
ENDBRANCH  14  18
BRANCH  16  20
ATOM     20  O   UNL     1      59.821   2.673  49.860  1.00  0.00    -0.502 OA
ATOM     21  H   UNL     1      60.702   2.841  49.391  1.00  0.00     0.293 HD
ENDBRANCH  16  20
BRANCH  17  22
ATOM     22  O   UNL     1      61.768   4.097  51.223  1.00  0.00    -0.504 OA
ATOM     23  H   UNL     1      62.225   4.977  51.434  1.00  0.00     0.293 HD
ENDBRANCH  17  22
ENDBRANCH   1  12
BRANCH   2  24
ATOM     24  O   UNL     1      60.638   5.792  55.261  1.00  0.00    -0.502 OA
ATOM     25  H   UNL     1      60.353   6.432  54.530  1.00  0.00     0.293 HD
ENDBRANCH   2  24
BRANCH   6  26
ATOM     26  O   UNL     1      58.796   5.725  60.125  1.00  0.00    -0.507 OA
ATOM     27  H   UNL     1      58.600   5.863  61.110  1.00  0.00     0.293 HD
ENDBRANCH   6  26
BRANCH   8  28
ATOM     28  O   UNL     1      55.889   1.876  60.017  1.00  0.00    -0.508 OA
ATOM     29  H   UNL     1      56.192   0.979  60.380  1.00  0.00     0.293 HD
ENDBRANCH   8  28
TORSDOF 7
ENDMDL
MODEL 4
REMARK VINA RESULT:     0.862      0.715      0.715
REMARK INTER + INTRA:           1.565
REMARK INTER:                   1.307
REMARK INTRA:                   0.259
REMARK UNBOUND:                 0.501
REMARK SMILES O=c1c(O)c(-c2cc(O)c(O)c(O)c2)oc2cc(O)cc(O)c12
REMARK SMILES IDX 5 1 3 2 2 3 1 4 23 5 21 6 20 7 18 8 17 9 16 10 15 11 6 12
REMARK SMILES IDX 7 13 8 14 14 15 10 16 12 17 9 18 11 20 13 22 4 24 22 26
REMARK SMILES IDX 19 28
REMARK H PARENT 9 19 11 21 13 23 4 25 22 27 19 29
REMARK Flexibility Score: inf
ROOT
ATOM      1  C   UNL     1      60.155   4.405  54.356  1.00  0.00     0.180 A 
ATOM      2  C   UNL     1      59.257   3.550  53.688  1.00  0.00     0.208 A 
ATOM      3  C   UNL     1      58.171   3.019  54.401  1.00  0.00     0.238 A 
ATOM      4  O   UNL     1      57.366   2.243  53.816  1.00  0.00    -0.285 OA
ATOM      5  C   UNL     1      57.989   3.364  55.756  1.00  0.00     0.111 A 
ATOM      6  C   UNL     1      56.918   2.875  56.543  1.00  0.00     0.134 A 
ATOM      7  C   UNL     1      56.801   3.274  57.883  1.00  0.00     0.093 A 
ATOM      8  C   UNL     1      57.730   4.150  58.449  1.00  0.00     0.123 A 
ATOM      9  C   UNL     1      58.790   4.635  57.677  1.00  0.00     0.094 A 
ATOM     10  C   UNL     1      58.926   4.249  56.341  1.00  0.00     0.146 A 
ATOM     11  O   UNL     1      59.944   4.720  55.631  1.00  0.00    -0.452 OA
ENDROOT
BRANCH   1  12
ATOM     12  C   UNL     1      61.336   4.990  53.679  1.00  0.00     0.029 A 
ATOM     13  C   UNL     1      61.261   5.309  52.314  1.00  0.00     0.062 A 
ATOM     14  C   UNL     1      62.356   5.882  51.654  1.00  0.00     0.162 A 
ATOM     15  C   UNL     1      62.513   5.285  54.387  1.00  0.00     0.062 A 
ATOM     16  C   UNL     1      63.537   6.153  52.364  1.00  0.00     0.200 A 
ATOM     17  C   UNL     1      63.611   5.859  53.732  1.00  0.00     0.162 A 
BRANCH  14  18
ATOM     18  O   UNL     1      62.274   6.180  50.295  1.00  0.00    -0.504 OA
ATOM     19  H   UNL     1      63.010   5.919  49.648  1.00  0.00     0.293 HD
ENDBRANCH  14  18
BRANCH  16  20
ATOM     20  O   UNL     1      64.642   6.721  51.729  1.00  0.00    -0.502 OA
ATOM     21  H   UNL     1      64.995   6.370  50.847  1.00  0.00     0.293 HD
ENDBRANCH  16  20
BRANCH  17  22
ATOM     22  O   UNL     1      64.780   6.145  54.436  1.00  0.00    -0.504 OA
ATOM     23  H   UNL     1      64.929   7.046  54.874  1.00  0.00     0.293 HD
ENDBRANCH  17  22
ENDBRANCH   1  12
BRANCH   2  24
ATOM     24  O   UNL     1      59.432   3.262  52.333  1.00  0.00    -0.502 OA
ATOM     25  H   UNL     1      59.592   3.985  51.641  1.00  0.00     0.293 HD
ENDBRANCH   2  24
BRANCH   6  26
ATOM     26  O   UNL     1      55.974   2.001  56.006  1.00  0.00    -0.507 OA
ATOM     27  H   UNL     1      55.552   1.264  56.560  1.00  0.00     0.293 HD
ENDBRANCH   6  26
BRANCH   8  28
ATOM     28  O   UNL     1      57.590   4.530  59.782  1.00  0.00    -0.508 OA
ATOM     29  H   UNL     1      57.913   5.433  60.112  1.00  0.00     0.293 HD
ENDBRANCH   8  28
TORSDOF 7
ENDMDL
