MODEL 1
REMARK VINA RESULT:    -5.022      0.000      0.000
REMARK INTER + INTRA:          -5.022
REMARK INTER:                  -5.022
REMARK INTRA:                   0.000
REMARK UNBOUND:                 0.000
REMARK SMILES O=c1ccc2ccccc2o1
REMARK SMILES IDX 7 1 8 2 9 3 10 4 5 5 6 6 4 7 3 8 2 9 1 10 11 11
REMARK H PARENT
REMARK Flexibility Score: inf
ROOT
ATOM      1  C   UNL     1      35.055 -28.072  12.109  1.00  0.00     0.001 A 
ATOM      2  C   UNL     1      33.757 -28.597  12.099  1.00  0.00     0.004 A 
ATOM      3  C   UNL     1      33.467 -29.743  11.353  1.00  0.00     0.048 A 
ATOM      4  C   UNL     1      34.475 -30.371  10.612  1.00  0.00     0.138 A 
ATOM      5  C   UNL     1      35.786 -29.841  10.622  1.00  0.00     0.018 A 
ATOM      6  C   UNL     1      36.069 -28.692  11.372  1.00  0.00     0.012 A 
ATOM      7  C   UNL     1      36.771 -30.489   9.871  1.00  0.00     0.019 A 
ATOM      8  C   UNL     1      36.437 -31.629   9.142  1.00  0.00     0.094 A 
ATOM      9  C   UNL     1      35.119 -32.097   9.179  1.00  0.00     0.336 A 
ATOM     10  O   UNL     1      34.798 -33.125   8.528  1.00  0.00    -0.246 OA
ATOM     11  O   UNL     1      34.199 -31.462   9.902  1.00  0.00    -0.423 OA
ENDROOT
TORSDOF 0
ENDMDL
MODEL 2
REMARK VINA RESULT:    -4.889      1.322      2.075
REMARK INTER + INTRA:          -4.889
REMARK INTER:                  -4.889
REMARK INTRA:                   0.000
REMARK UNBOUND:                 0.000
REMARK SMILES O=c1ccc2ccccc2o1
REMARK SMILES IDX 7 1 8 2 9 3 10 4 5 5 6 6 4 7 3 8 2 9 1 10 11 11
REMARK H PARENT
REMARK Flexibility Score: inf
ROOT
ATOM      1  C   UNL     1      33.853 -29.196  12.624  1.00  0.00     0.001 A 
ATOM      2  C   UNL     1      34.706 -28.251  12.042  1.00  0.00     0.004 A 
ATOM      3  C   UNL     1      35.535 -28.613  10.976  1.00  0.00     0.048 A 
ATOM      4  C   UNL     1      35.516 -29.924  10.487  1.00  0.00     0.138 A 
ATOM      5  C   UNL     1      34.655 -30.879  11.074  1.00  0.00     0.018 A 
ATOM      6  C   UNL     1      33.826 -30.509  12.142  1.00  0.00     0.012 A 
ATOM      7  C   UNL     1      34.658 -32.181  10.565  1.00  0.00     0.019 A 
ATOM      8  C   UNL     1      35.502 -32.498   9.501  1.00  0.00     0.094 A 
ATOM      9  C   UNL     1      36.327 -31.501   8.969  1.00  0.00     0.336 A 
ATOM     10  O   UNL     1      37.095 -31.767   8.008  1.00  0.00    -0.246 OA
ATOM     11  O   UNL     1      36.305 -30.269   9.472  1.00  0.00    -0.423 OA
ENDROOT
TORSDOF 0
ENDMDL
MODEL 3
REMARK VINA RESULT:    -4.754      1.822      4.332
REMARK INTER + INTRA:          -4.754
REMARK INTER:                  -4.754
REMARK INTRA:                   0.000
REMARK UNBOUND:                 0.000
REMARK SMILES O=c1ccc2ccccc2o1
REMARK SMILES IDX 7 1 8 2 9 3 10 4 5 5 6 6 4 7 3 8 2 9 1 10 11 11
REMARK H PARENT
REMARK Flexibility Score: inf
ROOT
ATOM      1  C   UNL     1      35.833 -33.125   8.719  1.00  0.00     0.001 A 
ATOM      2  C   UNL     1      36.749 -32.149   8.309  1.00  0.00     0.004 A 
ATOM      3  C   UNL     1      36.735 -30.880   8.896  1.00  0.00     0.048 A 
ATOM      4  C   UNL     1      35.804 -30.581   9.897  1.00  0.00     0.138 A 
ATOM      5  C   UNL     1      34.879 -31.566  10.311  1.00  0.00     0.018 A 
ATOM      6  C   UNL     1      34.898 -32.836   9.719  1.00  0.00     0.012 A 
ATOM      7  C   UNL     1      33.960 -31.238  11.313  1.00  0.00     0.019 A 
ATOM      8  C   UNL     1      33.983 -29.960  11.870  1.00  0.00     0.094 A 
ATOM      9  C   UNL     1      34.928 -29.035  11.411  1.00  0.00     0.336 A 
ATOM     10  O   UNL     1      34.964 -27.877  11.902  1.00  0.00    -0.246 OA
ATOM     11  O   UNL     1      35.791 -29.373  10.456  1.00  0.00    -0.423 OA
ENDROOT
TORSDOF 0
ENDMDL
MODEL 4
REMARK VINA RESULT:    -4.606      1.719      3.907
REMARK INTER + INTRA:          -4.606
REMARK INTER:                  -4.606
REMARK INTRA:                   0.000
REMARK UNBOUND:                 0.000
REMARK SMILES O=c1ccc2ccccc2o1
REMARK SMILES IDX 7 1 8 2 9 3 10 4 5 5 6 6 4 7 3 8 2 9 1 10 11 11
REMARK H PARENT
REMARK Flexibility Score: inf
ROOT
ATOM      1  C   UNL     1      36.363 -32.195   8.818  1.00  0.00     0.001 A 
ATOM      2  C   UNL     1      35.608 -33.083   9.592  1.00  0.00     0.004 A 
ATOM      3  C   UNL     1      34.890 -32.618  10.698  1.00  0.00     0.048 A 
ATOM      4  C   UNL     1      34.925 -31.260  11.036  1.00  0.00     0.138 A 
ATOM      5  C   UNL     1      35.688 -30.362  10.254  1.00  0.00     0.018 A 
ATOM      6  C   UNL     1      36.404 -30.836   9.147  1.00  0.00     0.012 A 
ATOM      7  C   UNL     1      35.704 -29.012  10.616  1.00  0.00     0.019 A 
ATOM      8  C   UNL     1      34.973 -28.593  11.727  1.00  0.00     0.094 A 
ATOM      9  C   UNL     1      34.240 -29.537  12.454  1.00  0.00     0.336 A 
ATOM     10  O   UNL     1      33.574 -29.178  13.460  1.00  0.00    -0.246 OA
ATOM     11  O   UNL     1      34.242 -30.817  12.089  1.00  0.00    -0.423 OA
ENDROOT
TORSDOF 0
ENDMDL
MODEL 5
REMARK VINA RESULT:    -3.876     19.052     20.528
REMARK INTER + INTRA:          -3.876
REMARK INTER:                  -3.876
REMARK INTRA:                   0.000
REMARK UNBOUND:                 0.000
REMARK SMILES O=c1ccc2ccccc2o1
REMARK SMILES IDX 7 1 8 2 9 3 10 4 5 5 6 6 4 7 3 8 2 9 1 10 11 11
REMARK H PARENT
REMARK Flexibility Score: inf
ROOT
ATOM      1  C   UNL     1      20.228 -13.424   5.450  1.00  0.00     0.001 A 
ATOM      2  C   UNL     1      19.952 -14.737   5.053  1.00  0.00     0.004 A 
ATOM      3  C   UNL     1      20.741 -15.794   5.519  1.00  0.00     0.048 A 
ATOM      4  C   UNL     1      21.809 -15.541   6.386  1.00  0.00     0.138 A 
ATOM      5  C   UNL     1      22.088 -14.215   6.788  1.00  0.00     0.018 A 
ATOM      6  C   UNL     1      21.293 -13.161   6.317  1.00  0.00     0.012 A 
ATOM      7  C   UNL     1      23.163 -13.993   7.655  1.00  0.00     0.019 A 
ATOM      8  C   UNL     1      23.922 -15.077   8.094  1.00  0.00     0.094 A 
ATOM      9  C   UNL     1      23.588 -16.363   7.656  1.00  0.00     0.336 A 
ATOM     10  O   UNL     1      24.261 -17.353   8.042  1.00  0.00    -0.246 OA
ATOM     11  O   UNL     1      22.560 -16.547   6.830  1.00  0.00    -0.423 OA
ENDROOT
TORSDOF 0
ENDMDL
MODEL 6
REMARK VINA RESULT:    -3.806      2.890      4.773
REMARK INTER + INTRA:          -3.806
REMARK INTER:                  -3.806
REMARK INTRA:                   0.000
REMARK UNBOUND:                 0.000
REMARK SMILES O=c1ccc2ccccc2o1
REMARK SMILES IDX 7 1 8 2 9 3 10 4 5 5 6 6 4 7 3 8 2 9 1 10 11 11
REMARK H PARENT
REMARK Flexibility Score: inf
ROOT
ATOM      1  C   UNL     1      35.970 -32.779   5.335  1.00  0.00     0.001 A 
ATOM      2  C   UNL     1      34.634 -33.109   5.591  1.00  0.00     0.004 A 
ATOM      3  C   UNL     1      34.152 -33.125   6.903  1.00  0.00     0.048 A 
ATOM      4  C   UNL     1      35.004 -32.810   7.967  1.00  0.00     0.138 A 
ATOM      5  C   UNL     1      36.353 -32.476   7.709  1.00  0.00     0.018 A 
ATOM      6  C   UNL     1      36.830 -32.463   6.392  1.00  0.00     0.012 A 
ATOM      7  C   UNL     1      37.182 -32.167   8.793  1.00  0.00     0.019 A 
ATOM      8  C   UNL     1      36.658 -32.196  10.085  1.00  0.00     0.094 A 
ATOM      9  C   UNL     1      35.312 -32.534  10.265  1.00  0.00     0.336 A 
ATOM     10  O   UNL     1      34.822 -32.565  11.423  1.00  0.00    -0.246 OA
ATOM     11  O   UNL     1      34.545 -32.825   9.217  1.00  0.00    -0.423 OA
ENDROOT
TORSDOF 0
ENDMDL
MODEL 7
REMARK VINA RESULT:    -3.742     19.340     20.758
REMARK INTER + INTRA:          -3.742
REMARK INTER:                  -3.742
REMARK INTRA:                   0.000
REMARK UNBOUND:                 0.000
REMARK SMILES O=c1ccc2ccccc2o1
REMARK SMILES IDX 7 1 8 2 9 3 10 4 5 5 6 6 4 7 3 8 2 9 1 10 11 11
REMARK H PARENT
REMARK Flexibility Score: inf
ROOT
ATOM      1  C   UNL     1      23.622 -13.841   7.986  1.00  0.00     0.001 A 
ATOM      2  C   UNL     1      23.831 -15.219   8.111  1.00  0.00     0.004 A 
ATOM      3  C   UNL     1      23.091 -16.116   7.335  1.00  0.00     0.048 A 
ATOM      4  C   UNL     1      22.137 -15.639   6.429  1.00  0.00     0.138 A 
ATOM      5  C   UNL     1      21.926 -14.247   6.303  1.00  0.00     0.018 A 
ATOM      6  C   UNL     1      22.671 -13.353   7.084  1.00  0.00     0.012 A 
ATOM      7  C   UNL     1      20.966 -13.799   5.390  1.00  0.00     0.019 A 
ATOM      8  C   UNL     1      20.251 -14.730   4.637  1.00  0.00     0.094 A 
ATOM      9  C   UNL     1      20.514 -16.093   4.815  1.00  0.00     0.336 A 
ATOM     10  O   UNL     1      19.879 -16.948   4.144  1.00  0.00    -0.246 OA
ATOM     11  O   UNL     1      21.433 -16.493   5.690  1.00  0.00    -0.423 OA
ENDROOT
TORSDOF 0
ENDMDL
MODEL 8
REMARK VINA RESULT:    -3.488     19.807     21.241
REMARK INTER + INTRA:          -3.488
REMARK INTER:                  -3.488
REMARK INTRA:                   0.000
REMARK UNBOUND:                 0.000
REMARK SMILES O=c1ccc2ccccc2o1
REMARK SMILES IDX 7 1 8 2 9 3 10 4 5 5 6 6 4 7 3 8 2 9 1 10 11 11
REMARK H PARENT
REMARK Flexibility Score: inf
ROOT
ATOM      1  C   UNL     1      23.632 -15.689   8.011  1.00  0.00     0.001 A 
ATOM      2  C   UNL     1      23.808 -14.300   7.990  1.00  0.00     0.004 A 
ATOM      3  C   UNL     1      23.059 -13.509   7.113  1.00  0.00     0.048 A 
ATOM      4  C   UNL     1      22.130 -14.104   6.252  1.00  0.00     0.138 A 
ATOM      5  C   UNL     1      21.952 -15.506   6.273  1.00  0.00     0.018 A 
ATOM      6  C   UNL     1      22.706 -16.293   7.155  1.00  0.00     0.012 A 
ATOM      7  C   UNL     1      21.017 -16.073   5.401  1.00  0.00     0.019 A 
ATOM      8  C   UNL     1      20.293 -15.245   4.544  1.00  0.00     0.094 A 
ATOM      9  C   UNL     1      20.521 -13.865   4.578  1.00  0.00     0.336 A 
ATOM     10  O   UNL     1      19.877 -13.102   3.812  1.00  0.00    -0.246 OA
ATOM     11  O   UNL     1      21.417 -13.351   5.417  1.00  0.00    -0.423 OA
ENDROOT
TORSDOF 0
ENDMDL
