MODEL 1
REMARK VINA RESULT:    -6.658      0.000      0.000
REMARK INTER + INTRA:          -9.105
REMARK INTER:                  -8.410
REMARK INTRA:                  -0.695
REMARK UNBOUND:                -0.695
REMARK SMILES Oc1ccc(CCc2cc(O)cc(O)c2)cc1
REMARK SMILES IDX 6 1 5 2 4 3 3 4 2 5 16 6 17 7 1 8 7 10 8 11 15 12 9 13 13 14
REMARK SMILES IDX 10 15 12 16 14 17 11 19
REMARK H PARENT 1 9 14 18 11 20
REMARK Flexibility Score: inf
ROOT
ATOM      1  C   UNL     1     -15.728  44.862  30.493  1.00  0.00     0.040 C 
ENDROOT
BRANCH   1   2
ATOM      2  C   UNL     1     -14.406  44.556  31.142  1.00  0.00    -0.047 A 
ATOM      3  C   UNL     1     -13.322  44.109  30.368  1.00  0.00     0.007 A 
ATOM      4  C   UNL     1     -12.084  43.856  30.967  1.00  0.00     0.046 A 
ATOM      5  C   UNL     1     -11.913  44.056  32.340  1.00  0.00     0.115 A 
ATOM      6  C   UNL     1     -14.225  44.769  32.519  1.00  0.00     0.007 A 
ATOM      7  C   UNL     1     -12.986  44.514  33.116  1.00  0.00     0.046 A 
BRANCH   5   8
ATOM      8  O   UNL     1     -10.674  43.799  32.923  1.00  0.00    -0.508 OA
ATOM      9  H   UNL     1      -9.828  44.244  32.587  1.00  0.00     0.293 HD
ENDBRANCH   5   8
ENDBRANCH   1   2
BRANCH   1  10
ATOM     10  C   UNL     1     -16.476  43.568  30.161  1.00  0.00     0.040 C 
BRANCH  10  11
ATOM     11  C   UNL     1     -17.342  43.146  31.318  1.00  0.00    -0.040 A 
ATOM     12  C   UNL     1     -18.294  44.031  31.849  1.00  0.00     0.050 A 
ATOM     13  C   UNL     1     -17.165  41.885  31.912  1.00  0.00     0.050 A 
ATOM     14  C   UNL     1     -19.077  43.651  32.948  1.00  0.00     0.119 A 
ATOM     15  C   UNL     1     -17.946  41.504  33.008  1.00  0.00     0.119 A 
ATOM     16  C   UNL     1     -18.904  42.388  33.523  1.00  0.00     0.092 A 
BRANCH  14  17
ATOM     17  O   UNL     1     -20.028  44.521  33.476  1.00  0.00    -0.508 OA
ATOM     18  H   UNL     1     -20.188  44.588  34.475  1.00  0.00     0.293 HD
ENDBRANCH  14  17
BRANCH  15  19
ATOM     19  O   UNL     1     -17.761  40.247  33.579  1.00  0.00    -0.508 OA
ATOM     20  H   UNL     1     -16.868  39.969  33.970  1.00  0.00     0.293 HD
ENDBRANCH  15  19
ENDBRANCH  10  11
ENDBRANCH   1  10
TORSDOF 6
ENDMDL
MODEL 2
REMARK VINA RESULT:    -6.632      0.062      2.036
REMARK INTER + INTRA:          -9.072
REMARK INTER:                  -8.384
REMARK INTRA:                  -0.687
REMARK UNBOUND:                -0.695
REMARK SMILES Oc1ccc(CCc2cc(O)cc(O)c2)cc1
REMARK SMILES IDX 6 1 5 2 4 3 3 4 2 5 16 6 17 7 1 8 7 10 8 11 15 12 9 13 13 14
REMARK SMILES IDX 10 15 12 16 14 17 11 19
REMARK H PARENT 1 9 14 18 11 20
REMARK Flexibility Score: inf
ROOT
ATOM      1  C   UNL     1     -15.709  44.868  30.416  1.00  0.00     0.040 C 
ENDROOT
BRANCH   1   2
ATOM      2  C   UNL     1     -14.397  44.558  31.083  1.00  0.00    -0.047 A 
ATOM      3  C   UNL     1     -13.305  44.104  30.323  1.00  0.00     0.007 A 
ATOM      4  C   UNL     1     -12.076  43.848  30.939  1.00  0.00     0.046 A 
ATOM      5  C   UNL     1     -11.922  44.050  32.314  1.00  0.00     0.115 A 
ATOM      6  C   UNL     1     -14.233  44.773  32.461  1.00  0.00     0.007 A 
ATOM      7  C   UNL     1     -13.003  44.515  33.075  1.00  0.00     0.046 A 
BRANCH   5   8
ATOM      8  O   UNL     1     -10.692  43.790  32.914  1.00  0.00    -0.508 OA
ATOM      9  H   UNL     1     -10.486  42.890  33.332  1.00  0.00     0.293 HD
ENDBRANCH   5   8
ENDBRANCH   1   2
BRANCH   1  10
ATOM     10  C   UNL     1     -16.474  43.576  30.109  1.00  0.00     0.040 C 
BRANCH  10  11
ATOM     11  C   UNL     1     -17.300  43.156  31.296  1.00  0.00    -0.040 A 
ATOM     12  C   UNL     1     -17.152  41.871  31.841  1.00  0.00     0.050 A 
ATOM     13  C   UNL     1     -18.265  44.025  31.830  1.00  0.00     0.050 A 
ATOM     14  C   UNL     1     -17.944  41.467  32.925  1.00  0.00     0.119 A 
ATOM     15  C   UNL     1     -19.056  43.624  32.911  1.00  0.00     0.119 A 
ATOM     16  C   UNL     1     -18.893  42.344  33.459  1.00  0.00     0.092 A 
BRANCH  14  17
ATOM     17  O   UNL     1     -17.798  40.195  33.476  1.00  0.00    -0.508 OA
ATOM     18  H   UNL     1     -17.801  39.364  32.896  1.00  0.00     0.293 HD
ENDBRANCH  14  17
BRANCH  15  19
ATOM     19  O   UNL     1     -20.004  44.502  33.432  1.00  0.00    -0.508 OA
ATOM     20  H   UNL     1     -20.212  44.530  34.424  1.00  0.00     0.293 HD
ENDBRANCH  15  19
ENDBRANCH  10  11
ENDBRANCH   1  10
TORSDOF 6
ENDMDL
MODEL 3
REMARK VINA RESULT:    -6.397      1.175      5.898
REMARK INTER + INTRA:          -8.775
REMARK INTER:                  -8.087
REMARK INTRA:                  -0.687
REMARK UNBOUND:                -0.695
REMARK SMILES Oc1ccc(CCc2cc(O)cc(O)c2)cc1
REMARK SMILES IDX 6 1 5 2 4 3 3 4 2 5 16 6 17 7 1 8 7 10 8 11 15 12 9 13 13 14
REMARK SMILES IDX 10 15 12 16 14 17 11 19
REMARK H PARENT 1 9 14 18 11 20
REMARK Flexibility Score: inf
ROOT
ATOM      1  C   UNL     1     -16.280  43.561  30.124  1.00  0.00     0.040 C 
ENDROOT
BRANCH   1   2
ATOM      2  C   UNL     1     -17.247  43.095  31.178  1.00  0.00    -0.047 A 
ATOM      3  C   UNL     1     -17.244  41.755  31.600  1.00  0.00     0.007 A 
ATOM      4  C   UNL     1     -18.122  41.330  32.602  1.00  0.00     0.046 A 
ATOM      5  C   UNL     1     -19.002  42.238  33.199  1.00  0.00     0.115 A 
ATOM      6  C   UNL     1     -18.124  44.007  31.789  1.00  0.00     0.007 A 
ATOM      7  C   UNL     1     -19.001  43.579  32.791  1.00  0.00     0.046 A 
BRANCH   5   8
ATOM      8  O   UNL     1     -19.871  41.800  34.196  1.00  0.00    -0.508 OA
ATOM      9  H   UNL     1     -19.664  40.981  34.756  1.00  0.00     0.293 HD
ENDBRANCH   5   8
ENDBRANCH   1   2
BRANCH   1  10
ATOM     10  C   UNL     1     -15.605  44.867  30.554  1.00  0.00     0.040 C 
BRANCH  10  11
ATOM     11  C   UNL     1     -14.316  44.584  31.277  1.00  0.00    -0.040 A 
ATOM     12  C   UNL     1     -14.264  44.641  32.679  1.00  0.00     0.050 A 
ATOM     13  C   UNL     1     -13.142  44.318  30.553  1.00  0.00     0.050 A 
ATOM     14  C   UNL     1     -13.056  44.410  33.352  1.00  0.00     0.119 A 
ATOM     15  C   UNL     1     -11.936  44.087  31.222  1.00  0.00     0.119 A 
ATOM     16  C   UNL     1     -11.895  44.132  32.623  1.00  0.00     0.092 A 
BRANCH  14  17
ATOM     17  O   UNL     1     -12.998  44.458  34.743  1.00  0.00    -0.508 OA
ATOM     18  H   UNL     1     -13.548  43.830  35.318  1.00  0.00     0.293 HD
ENDBRANCH  14  17
BRANCH  15  19
ATOM     19  O   UNL     1     -10.783  43.818  30.488  1.00  0.00    -0.508 OA
ATOM     20  H   UNL     1      -9.931  43.500  30.936  1.00  0.00     0.293 HD
ENDBRANCH  15  19
ENDBRANCH  10  11
ENDBRANCH   1  10
TORSDOF 6
ENDMDL
MODEL 4
REMARK VINA RESULT:    -6.390      1.182      6.017
REMARK INTER + INTRA:          -8.766
REMARK INTER:                  -8.085
REMARK INTRA:                  -0.681
REMARK UNBOUND:                -0.695
REMARK SMILES Oc1ccc(CCc2cc(O)cc(O)c2)cc1
REMARK SMILES IDX 6 1 5 2 4 3 3 4 2 5 16 6 17 7 1 8 7 10 8 11 15 12 9 13 13 14
REMARK SMILES IDX 10 15 12 16 14 17 11 19
REMARK H PARENT 1 9 14 18 11 20
REMARK Flexibility Score: inf
ROOT
ATOM      1  C   UNL     1     -16.242  43.474  30.156  1.00  0.00     0.040 C 
ENDROOT
BRANCH   1   2
ATOM      2  C   UNL     1     -17.233  43.044  31.203  1.00  0.00    -0.047 A 
ATOM      3  C   UNL     1     -17.259  41.713  31.651  1.00  0.00     0.007 A 
ATOM      4  C   UNL     1     -18.158  41.322  32.648  1.00  0.00     0.046 A 
ATOM      5  C   UNL     1     -19.031  42.256  33.214  1.00  0.00     0.115 A 
ATOM      6  C   UNL     1     -18.102  43.982  31.784  1.00  0.00     0.007 A 
ATOM      7  C   UNL     1     -19.001  43.588  32.781  1.00  0.00     0.046 A 
BRANCH   5   8
ATOM      8  O   UNL     1     -19.922  41.852  34.206  1.00  0.00    -0.508 OA
ATOM      9  H   UNL     1     -20.004  42.356  35.081  1.00  0.00     0.293 HD
ENDBRANCH   5   8
ENDBRANCH   1   2
BRANCH   1  10
ATOM     10  C   UNL     1     -15.602  44.812  30.537  1.00  0.00     0.040 C 
BRANCH  10  11
ATOM     11  C   UNL     1     -14.301  44.590  31.262  1.00  0.00    -0.040 A 
ATOM     12  C   UNL     1     -13.138  44.270  30.544  1.00  0.00     0.050 A 
ATOM     13  C   UNL     1     -14.255  44.644  32.665  1.00  0.00     0.050 A 
ATOM     14  C   UNL     1     -11.934  44.030  31.221  1.00  0.00     0.119 A 
ATOM     15  C   UNL     1     -13.054  44.404  33.341  1.00  0.00     0.119 A 
ATOM     16  C   UNL     1     -11.894  44.099  32.617  1.00  0.00     0.092 A 
BRANCH  14  17
ATOM     17  O   UNL     1     -10.773  43.718  30.516  1.00  0.00    -0.508 OA
ATOM     18  H   UNL     1     -10.047  44.407  30.360  1.00  0.00     0.293 HD
ENDBRANCH  14  17
BRANCH  15  19
ATOM     19  O   UNL     1     -13.026  44.469  34.733  1.00  0.00    -0.508 OA
ATOM     20  H   UNL     1     -12.300  44.978  35.225  1.00  0.00     0.293 HD
ENDBRANCH  15  19
ENDBRANCH  10  11
ENDBRANCH   1  10
TORSDOF 6
ENDMDL
MODEL 5
REMARK VINA RESULT:    -6.244      1.609      2.882
REMARK INTER + INTRA:          -8.582
REMARK INTER:                  -8.076
REMARK INTRA:                  -0.505
REMARK UNBOUND:                -0.695
REMARK SMILES Oc1ccc(CCc2cc(O)cc(O)c2)cc1
REMARK SMILES IDX 6 1 5 2 4 3 3 4 2 5 16 6 17 7 1 8 7 10 8 11 15 12 9 13 13 14
REMARK SMILES IDX 10 15 12 16 14 17 11 19
REMARK H PARENT 1 9 14 18 11 20
REMARK Flexibility Score: inf
ROOT
ATOM      1  C   UNL     1     -14.616  44.330  31.992  1.00  0.00     0.040 C 
ENDROOT
BRANCH   1   2
ATOM      2  C   UNL     1     -13.318  43.578  32.100  1.00  0.00    -0.047 A 
ATOM      3  C   UNL     1     -12.093  44.259  31.999  1.00  0.00     0.007 A 
ATOM      4  C   UNL     1     -10.887  43.565  32.132  1.00  0.00     0.046 A 
ATOM      5  C   UNL     1     -10.891  42.188  32.377  1.00  0.00     0.115 A 
ATOM      6  C   UNL     1     -13.317  42.197  32.359  1.00  0.00     0.007 A 
ATOM      7  C   UNL     1     -12.109  41.505  32.491  1.00  0.00     0.046 A 
BRANCH   5   8
ATOM      8  O   UNL     1      -9.681  41.509  32.506  1.00  0.00    -0.508 OA
ATOM      9  H   UNL     1      -8.990  41.785  33.194  1.00  0.00     0.293 HD
ENDBRANCH   5   8
ENDBRANCH   1   2
BRANCH   1  10
ATOM     10  C   UNL     1     -15.191  44.613  33.383  1.00  0.00     0.040 C 
BRANCH  10  11
ATOM     11  C   UNL     1     -16.508  43.906  33.566  1.00  0.00    -0.040 A 
ATOM     12  C   UNL     1     -16.539  42.535  33.863  1.00  0.00     0.050 A 
ATOM     13  C   UNL     1     -17.715  44.601  33.383  1.00  0.00     0.050 A 
ATOM     14  C   UNL     1     -17.765  41.869  34.001  1.00  0.00     0.119 A 
ATOM     15  C   UNL     1     -18.939  43.938  33.519  1.00  0.00     0.119 A 
ATOM     16  C   UNL     1     -18.962  42.571  33.830  1.00  0.00     0.092 A 
BRANCH  14  17
ATOM     17  O   UNL     1     -17.804  40.509  34.302  1.00  0.00    -0.508 OA
ATOM     18  H   UNL     1     -17.172  39.851  33.861  1.00  0.00     0.293 HD
ENDBRANCH  14  17
BRANCH  15  19
ATOM     19  O   UNL     1     -20.126  44.645  33.341  1.00  0.00    -0.508 OA
ATOM     20  H   UNL     1     -20.513  45.225  34.077  1.00  0.00     0.293 HD
ENDBRANCH  15  19
ENDBRANCH  10  11
ENDBRANCH   1  10
TORSDOF 6
ENDMDL
MODEL 6
REMARK VINA RESULT:    -6.224      1.671      5.786
REMARK INTER + INTRA:          -8.556
REMARK INTER:                  -7.756
REMARK INTRA:                  -0.800
REMARK UNBOUND:                -0.695
REMARK SMILES Oc1ccc(CCc2cc(O)cc(O)c2)cc1
REMARK SMILES IDX 6 1 5 2 4 3 3 4 2 5 16 6 17 7 1 8 7 10 8 11 15 12 9 13 13 14
REMARK SMILES IDX 10 15 12 16 14 17 11 19
REMARK H PARENT 1 9 14 18 11 20
REMARK Flexibility Score: inf
ROOT
ATOM      1  C   UNL     1     -16.103  41.485  30.520  1.00  0.00     0.040 C 
ENDROOT
BRANCH   1   2
ATOM      2  C   UNL     1     -17.142  42.249  31.295  1.00  0.00    -0.047 A 
ATOM      3  C   UNL     1     -17.819  41.640  32.364  1.00  0.00     0.007 A 
ATOM      4  C   UNL     1     -18.761  42.361  33.104  1.00  0.00     0.046 A 
ATOM      5  C   UNL     1     -19.029  43.697  32.791  1.00  0.00     0.115 A 
ATOM      6  C   UNL     1     -17.404  43.595  30.992  1.00  0.00     0.007 A 
ATOM      7  C   UNL     1     -18.348  44.314  31.734  1.00  0.00     0.046 A 
BRANCH   5   8
ATOM      8  O   UNL     1     -19.971  44.403  33.537  1.00  0.00    -0.508 OA
ATOM      9  H   UNL     1     -20.524  43.951  34.255  1.00  0.00     0.293 HD
ENDBRANCH   5   8
ENDBRANCH   1   2
BRANCH   1  10
ATOM     10  C   UNL     1     -14.900  41.160  31.410  1.00  0.00     0.040 C 
BRANCH  10  11
ATOM     11  C   UNL     1     -14.164  42.419  31.786  1.00  0.00    -0.040 A 
ATOM     12  C   UNL     1     -13.629  43.249  30.790  1.00  0.00     0.050 A 
ATOM     13  C   UNL     1     -13.959  42.741  33.138  1.00  0.00     0.050 A 
ATOM     14  C   UNL     1     -12.915  44.404  31.140  1.00  0.00     0.119 A 
ATOM     15  C   UNL     1     -13.247  43.893  33.489  1.00  0.00     0.119 A 
ATOM     16  C   UNL     1     -12.727  44.725  32.488  1.00  0.00     0.092 A 
BRANCH  14  17
ATOM     17  O   UNL     1     -12.386  45.237  30.156  1.00  0.00    -0.508 OA
ATOM     18  H   UNL     1     -12.493  45.026  29.170  1.00  0.00     0.293 HD
ENDBRANCH  14  17
BRANCH  15  19
ATOM     19  O   UNL     1     -13.059  44.200  34.835  1.00  0.00    -0.508 OA
ATOM     20  H   UNL     1     -13.821  44.535  35.414  1.00  0.00     0.293 HD
ENDBRANCH  15  19
ENDBRANCH  10  11
ENDBRANCH   1  10
TORSDOF 6
ENDMDL
MODEL 7
REMARK VINA RESULT:    -6.213      1.670      5.810
REMARK INTER + INTRA:          -8.543
REMARK INTER:                  -7.749
REMARK INTRA:                  -0.794
REMARK UNBOUND:                -0.695
REMARK SMILES Oc1ccc(CCc2cc(O)cc(O)c2)cc1
REMARK SMILES IDX 6 1 5 2 4 3 3 4 2 5 16 6 17 7 1 8 7 10 8 11 15 12 9 13 13 14
REMARK SMILES IDX 10 15 12 16 14 17 11 19
REMARK H PARENT 1 9 14 18 11 20
REMARK Flexibility Score: inf
ROOT
ATOM      1  C   UNL     1     -16.020  41.603  30.463  1.00  0.00     0.040 C 
ENDROOT
BRANCH   1   2
ATOM      2  C   UNL     1     -17.040  42.352  31.278  1.00  0.00    -0.047 A 
ATOM      3  C   UNL     1     -17.296  43.709  31.019  1.00  0.00     0.007 A 
ATOM      4  C   UNL     1     -18.267  44.395  31.755  1.00  0.00     0.046 A 
ATOM      5  C   UNL     1     -18.997  43.733  32.747  1.00  0.00     0.115 A 
ATOM      6  C   UNL     1     -17.785  41.687  32.266  1.00  0.00     0.007 A 
ATOM      7  C   UNL     1     -18.755  42.377  33.001  1.00  0.00     0.046 A 
BRANCH   5   8
ATOM      8  O   UNL     1     -19.960  44.430  33.473  1.00  0.00    -0.508 OA
ATOM      9  H   UNL     1     -20.206  45.386  33.244  1.00  0.00     0.293 HD
ENDBRANCH   5   8
ENDBRANCH   1   2
BRANCH   1  10
ATOM     10  C   UNL     1     -14.818  41.217  31.330  1.00  0.00     0.040 C 
BRANCH  10  11
ATOM     11  C   UNL     1     -14.037  42.442  31.727  1.00  0.00    -0.040 A 
ATOM     12  C   UNL     1     -13.877  42.770  33.083  1.00  0.00     0.050 A 
ATOM     13  C   UNL     1     -13.513  43.297  30.744  1.00  0.00     0.050 A 
ATOM     14  C   UNL     1     -13.179  43.928  33.453  1.00  0.00     0.119 A 
ATOM     15  C   UNL     1     -12.816  44.452  31.111  1.00  0.00     0.119 A 
ATOM     16  C   UNL     1     -12.648  44.766  32.467  1.00  0.00     0.092 A 
BRANCH  14  17
ATOM     17  O   UNL     1     -13.011  44.256  34.796  1.00  0.00    -0.508 OA
ATOM     18  H   UNL     1     -12.521  43.640  35.435  1.00  0.00     0.293 HD
ENDBRANCH  14  17
BRANCH  15  19
ATOM     19  O   UNL     1     -12.297  45.285  30.122  1.00  0.00    -0.508 OA
ATOM     20  H   UNL     1     -12.094  44.939  29.190  1.00  0.00     0.293 HD
ENDBRANCH  15  19
ENDBRANCH  10  11
ENDBRANCH   1  10
TORSDOF 6
ENDMDL
MODEL 8
REMARK VINA RESULT:    -6.210      1.710      2.348
REMARK INTER + INTRA:          -8.539
REMARK INTER:                  -8.001
REMARK INTRA:                  -0.537
REMARK UNBOUND:                -0.695
REMARK SMILES Oc1ccc(CCc2cc(O)cc(O)c2)cc1
REMARK SMILES IDX 6 1 5 2 4 3 3 4 2 5 16 6 17 7 1 8 7 10 8 11 15 12 9 13 13 14
REMARK SMILES IDX 10 15 12 16 14 17 11 19
REMARK H PARENT 1 9 14 18 11 20
REMARK Flexibility Score: inf
ROOT
ATOM      1  C   UNL     1     -13.990  43.751  33.715  1.00  0.00     0.040 C 
ENDROOT
BRANCH   1   2
ATOM      2  C   UNL     1     -13.232  44.075  32.456  1.00  0.00    -0.047 A 
ATOM      3  C   UNL     1     -11.828  44.132  32.469  1.00  0.00     0.007 A 
ATOM      4  C   UNL     1     -11.123  44.402  31.292  1.00  0.00     0.046 A 
ATOM      5  C   UNL     1     -11.810  44.608  30.091  1.00  0.00     0.115 A 
ATOM      6  C   UNL     1     -13.917  44.269  31.246  1.00  0.00     0.007 A 
ATOM      7  C   UNL     1     -13.210  44.540  30.070  1.00  0.00     0.046 A 
BRANCH   5   8
ATOM      8  O   UNL     1     -11.094  44.877  28.927  1.00  0.00    -0.508 OA
ATOM      9  H   UNL     1     -11.164  44.277  28.113  1.00  0.00     0.293 HD
ENDBRANCH   5   8
ENDBRANCH   1   2
BRANCH   1  10
ATOM     10  C   UNL     1     -15.199  44.678  33.869  1.00  0.00     0.040 C 
BRANCH  10  11
ATOM     11  C   UNL     1     -16.482  43.898  33.761  1.00  0.00    -0.040 A 
ATOM     12  C   UNL     1     -17.703  44.566  33.578  1.00  0.00     0.050 A 
ATOM     13  C   UNL     1     -16.474  42.501  33.900  1.00  0.00     0.050 A 
ATOM     14  C   UNL     1     -18.902  43.843  33.511  1.00  0.00     0.119 A 
ATOM     15  C   UNL     1     -17.669  41.777  33.834  1.00  0.00     0.119 A 
ATOM     16  C   UNL     1     -18.882  42.450  33.637  1.00  0.00     0.092 A 
BRANCH  14  17
ATOM     17  O   UNL     1     -20.117  44.498  33.323  1.00  0.00    -0.508 OA
ATOM     18  H   UNL     1     -20.928  44.282  33.891  1.00  0.00     0.293 HD
ENDBRANCH  14  17
BRANCH  15  19
ATOM     19  O   UNL     1     -17.641  40.390  33.967  1.00  0.00    -0.508 OA
ATOM     20  H   UNL     1     -17.770  39.942  34.867  1.00  0.00     0.293 HD
ENDBRANCH  15  19
ENDBRANCH  10  11
ENDBRANCH   1  10
TORSDOF 6
ENDMDL
MODEL 9
REMARK VINA RESULT:    -6.192      1.724      3.099
REMARK INTER + INTRA:          -8.517
REMARK INTER:                  -7.968
REMARK INTRA:                  -0.548
REMARK UNBOUND:                -0.695
REMARK SMILES Oc1ccc(CCc2cc(O)cc(O)c2)cc1
REMARK SMILES IDX 6 1 5 2 4 3 3 4 2 5 16 6 17 7 1 8 7 10 8 11 15 12 9 13 13 14
REMARK SMILES IDX 10 15 12 16 14 17 11 19
REMARK H PARENT 1 9 14 18 11 20
REMARK Flexibility Score: inf
ROOT
ATOM      1  C   UNL     1     -13.953  43.773  33.755  1.00  0.00     0.040 C 
ENDROOT
BRANCH   1   2
ATOM      2  C   UNL     1     -13.211  44.038  32.473  1.00  0.00    -0.047 A 
ATOM      3  C   UNL     1     -13.917  44.306  31.288  1.00  0.00     0.007 A 
ATOM      4  C   UNL     1     -13.228  44.584  30.104  1.00  0.00     0.046 A 
ATOM      5  C   UNL     1     -11.829  44.608  30.093  1.00  0.00     0.115 A 
ATOM      6  C   UNL     1     -11.807  44.076  32.460  1.00  0.00     0.007 A 
ATOM      7  C   UNL     1     -11.120  44.354  31.274  1.00  0.00     0.046 A 
BRANCH   5   8
ATOM      8  O   UNL     1     -11.155  44.886  28.906  1.00  0.00    -0.508 OA
ATOM      9  H   UNL     1     -11.636  44.896  28.014  1.00  0.00     0.293 HD
ENDBRANCH   5   8
ENDBRANCH   1   2
BRANCH   1  10
ATOM     10  C   UNL     1     -15.156  44.713  33.884  1.00  0.00     0.040 C 
BRANCH  10  11
ATOM     11  C   UNL     1     -16.443  43.935  33.830  1.00  0.00    -0.040 A 
ATOM     12  C   UNL     1     -16.435  42.541  33.996  1.00  0.00     0.050 A 
ATOM     13  C   UNL     1     -17.655  44.590  33.556  1.00  0.00     0.050 A 
ATOM     14  C   UNL     1     -17.629  41.811  33.912  1.00  0.00     0.119 A 
ATOM     15  C   UNL     1     -18.847  43.864  33.473  1.00  0.00     0.119 A 
ATOM     16  C   UNL     1     -18.833  42.474  33.653  1.00  0.00     0.092 A 
BRANCH  14  17
ATOM     17  O   UNL     1     -17.629  40.428  34.082  1.00  0.00    -0.508 OA
ATOM     18  H   UNL     1     -17.249  39.809  33.376  1.00  0.00     0.293 HD
ENDBRANCH  14  17
BRANCH  15  19
ATOM     19  O   UNL     1     -20.041  44.532  33.207  1.00  0.00    -0.508 OA
ATOM     20  H   UNL     1     -20.930  44.187  33.553  1.00  0.00     0.293 HD
ENDBRANCH  15  19
ENDBRANCH  10  11
ENDBRANCH   1  10
TORSDOF 6
ENDMDL
