MODEL 1
REMARK VINA RESULT:    -2.206      0.000      0.000
REMARK INTER + INTRA:          -2.206
REMARK INTER:                  -2.206
REMARK INTRA:                   0.000
REMARK UNBOUND:                 0.000
REMARK SMILES CC(=O)[O-]
REMARK SMILES IDX 1 1 2 2 3 3 4 4
REMARK H PARENT
REMARK Flexibility Score: inf
ROOT
ATOM      1  C   UNL     1     -26.046  -3.940 -22.059  1.00  0.00     0.063 C 
ATOM      2  C   UNL     1     -26.013  -3.547 -20.621  1.00  0.00     0.038 C 
ATOM      3  O   UNL     1     -25.026  -3.855 -19.905  1.00  0.00    -0.550 OA
ATOM      4  O   UNL     1     -27.048  -2.793 -20.082  1.00  0.00    -0.550 OA
ENDROOT
TORSDOF 0
ENDMDL
MODEL 2
REMARK VINA RESULT:    -2.199      3.533      3.922
REMARK INTER + INTRA:          -2.199
REMARK INTER:                  -2.199
REMARK INTRA:                   0.000
REMARK UNBOUND:                 0.000
REMARK SMILES CC(=O)[O-]
REMARK SMILES IDX 1 1 2 2 3 3 4 4
REMARK H PARENT
REMARK Flexibility Score: inf
ROOT
ATOM      1  C   UNL     1     -26.086   0.059 -22.085  1.00  0.00     0.063 C 
ATOM      2  C   UNL     1     -25.838   0.048 -20.615  1.00  0.00     0.038 C 
ATOM      3  O   UNL     1     -26.657   0.596 -19.833  1.00  0.00    -0.550 OA
ATOM      4  O   UNL     1     -24.730  -0.614 -20.101  1.00  0.00    -0.550 OA
ENDROOT
TORSDOF 0
ENDMDL
MODEL 3
REMARK VINA RESULT:    -2.177      1.627      1.922
REMARK INTER + INTRA:          -2.177
REMARK INTER:                  -2.177
REMARK INTRA:                   0.000
REMARK UNBOUND:                 0.000
REMARK SMILES CC(=O)[O-]
REMARK SMILES IDX 1 1 2 2 3 3 4 4
REMARK H PARENT
REMARK Flexibility Score: inf
ROOT
ATOM      1  C   UNL     1     -26.117  -3.656 -20.001  1.00  0.00     0.063 C 
ATOM      2  C   UNL     1     -26.199  -3.540 -21.485  1.00  0.00     0.038 C 
ATOM      3  O   UNL     1     -25.479  -4.268 -22.216  1.00  0.00    -0.550 OA
ATOM      4  O   UNL     1     -27.108  -2.665 -22.066  1.00  0.00    -0.550 OA
ENDROOT
TORSDOF 0
ENDMDL
MODEL 4
REMARK VINA RESULT:    -2.176      1.670      1.953
REMARK INTER + INTRA:          -2.176
REMARK INTER:                  -2.176
REMARK INTRA:                   0.000
REMARK UNBOUND:                 0.000
REMARK SMILES CC(=O)[O-]
REMARK SMILES IDX 1 1 2 2 3 3 4 4
REMARK H PARENT
REMARK Flexibility Score: inf
ROOT
ATOM      1  C   UNL     1     -26.787  -2.566 -22.122  1.00  0.00     0.063 C 
ATOM      2  C   UNL     1     -25.959  -3.739 -21.722  1.00  0.00     0.038 C 
ATOM      3  O   UNL     1     -25.585  -4.573 -22.587  1.00  0.00    -0.550 OA
ATOM      4  O   UNL     1     -25.552  -3.887 -20.402  1.00  0.00    -0.550 OA
ENDROOT
TORSDOF 0
ENDMDL
MODEL 5
REMARK VINA RESULT:    -2.171      3.686      4.022
REMARK INTER + INTRA:          -2.171
REMARK INTER:                  -2.171
REMARK INTRA:                   0.000
REMARK UNBOUND:                 0.000
REMARK SMILES CC(=O)[O-]
REMARK SMILES IDX 1 1 2 2 3 3 4 4
REMARK H PARENT
REMARK Flexibility Score: inf
ROOT
ATOM      1  C   UNL     1     -26.366  -1.284 -19.141  1.00  0.00     0.063 C 
ATOM      2  C   UNL     1     -26.089   0.055 -19.734  1.00  0.00     0.038 C 
ATOM      3  O   UNL     1     -25.578   0.964 -19.029  1.00  0.00    -0.550 OA
ATOM      4  O   UNL     1     -26.344   0.287 -21.079  1.00  0.00    -0.550 OA
ENDROOT
TORSDOF 0
ENDMDL
MODEL 6
REMARK VINA RESULT:    -2.150      4.160      4.552
REMARK INTER + INTRA:          -2.150
REMARK INTER:                  -2.150
REMARK INTRA:                   0.000
REMARK UNBOUND:                 0.000
REMARK SMILES CC(=O)[O-]
REMARK SMILES IDX 1 1 2 2 3 3 4 4
REMARK H PARENT
REMARK Flexibility Score: inf
ROOT
ATOM      1  C   UNL     1     -24.762   0.234 -23.197  1.00  0.00     0.063 C 
ATOM      2  C   UNL     1     -26.144   0.237 -22.638  1.00  0.00     0.038 C 
ATOM      3  O   UNL     1     -27.136   0.170 -23.409  1.00  0.00    -0.550 OA
ATOM      4  O   UNL     1     -26.339   0.258 -21.263  1.00  0.00    -0.550 OA
ENDROOT
TORSDOF 0
ENDMDL
MODEL 7
REMARK VINA RESULT:    -2.124      1.852      2.538
REMARK INTER + INTRA:          -2.124
REMARK INTER:                  -2.124
REMARK INTRA:                   0.000
REMARK UNBOUND:                 0.000
REMARK SMILES CC(=O)[O-]
REMARK SMILES IDX 1 1 2 2 3 3 4 4
REMARK H PARENT
REMARK Flexibility Score: inf
ROOT
ATOM      1  C   UNL     1     -27.038  -2.484 -18.738  1.00  0.00     0.063 C 
ATOM      2  C   UNL     1     -26.224  -3.621 -19.257  1.00  0.00     0.038 C 
ATOM      3  O   UNL     1     -26.227  -3.890 -20.486  1.00  0.00    -0.550 OA
ATOM      4  O   UNL     1     -25.419  -4.352 -18.393  1.00  0.00    -0.550 OA
ENDROOT
TORSDOF 0
ENDMDL
MODEL 8
REMARK VINA RESULT:    -2.108      4.193      4.307
REMARK INTER + INTRA:          -2.108
REMARK INTER:                  -2.108
REMARK INTRA:                   0.000
REMARK UNBOUND:                 0.000
REMARK SMILES CC(=O)[O-]
REMARK SMILES IDX 1 1 2 2 3 3 4 4
REMARK H PARENT
REMARK Flexibility Score: inf
ROOT
ATOM      1  C   UNL     1     -26.993   0.033 -23.602  1.00  0.00     0.063 C 
ATOM      2  C   UNL     1     -25.969   0.207 -22.533  1.00  0.00     0.038 C 
ATOM      3  O   UNL     1     -24.753   0.318 -22.836  1.00  0.00    -0.550 OA
ATOM      4  O   UNL     1     -26.359   0.302 -21.203  1.00  0.00    -0.550 OA
ENDROOT
TORSDOF 0
ENDMDL
MODEL 9
REMARK VINA RESULT:    -2.100      3.298      3.926
REMARK INTER + INTRA:          -2.100
REMARK INTER:                  -2.100
REMARK INTRA:                   0.000
REMARK UNBOUND:                 0.000
REMARK SMILES CC(=O)[O-]
REMARK SMILES IDX 1 1 2 2 3 3 4 4
REMARK H PARENT
REMARK Flexibility Score: inf
ROOT
ATOM      1  C   UNL     1     -25.632   0.268 -19.708  1.00  0.00     0.063 C 
ATOM      2  C   UNL     1     -26.033  -0.349 -21.004  1.00  0.00     0.038 C 
ATOM      3  O   UNL     1     -26.469   0.372 -21.939  1.00  0.00    -0.550 OA
ATOM      4  O   UNL     1     -25.875  -1.715 -21.203  1.00  0.00    -0.550 OA
ENDROOT
TORSDOF 0
ENDMDL
