MODEL 1
REMARK VINA RESULT:    -4.493      0.000      0.000
REMARK INTER + INTRA:          -4.493
REMARK INTER:                  -4.493
REMARK INTRA:                   0.000
REMARK UNBOUND:                 0.000
REMARK SMILES CC(C)=C1CC[C@@H](C)CC1=O
REMARK SMILES IDX 8 1 7 2 6 3 5 4 4 5 2 6 1 7 3 8 10 9 11 10 9 11
REMARK H PARENT
REMARK Flexibility Score: inf
ROOT
ATOM      1  C   UNL     1      29.752  33.630 135.622  1.00  0.00     0.008 C 
ATOM      2  C   UNL     1      29.211  32.937 136.878  1.00  0.00    -0.006 C 
ATOM      3  C   UNL     1      30.366  32.482 137.785  1.00  0.00     0.008 C 
ATOM      4  C   UNL     1      29.840  31.879 139.095  1.00  0.00     0.039 C 
ATOM      5  C   UNL     1      28.813  30.780 138.860  1.00  0.00    -0.006 C 
ATOM      6  C   UNL     1      28.695  29.724 139.718  1.00  0.00    -0.070 C 
ATOM      7  C   UNL     1      27.719  28.598 139.466  1.00  0.00     0.039 C 
ATOM      8  C   UNL     1      29.568  29.612 140.948  1.00  0.00     0.039 C 
ATOM      9  C   UNL     1      27.879  30.988 137.715  1.00  0.00     0.159 C 
ATOM     10  O   UNL     1      26.695  30.557 137.747  1.00  0.00    -0.295 OA
ATOM     11  C   UNL     1      28.340  31.732 136.494  1.00  0.00     0.084 C 
ENDROOT
TORSDOF 0
ENDMDL
MODEL 2
REMARK VINA RESULT:    -4.408      2.132      3.928
REMARK INTER + INTRA:          -4.408
REMARK INTER:                  -4.408
REMARK INTRA:                   0.000
REMARK UNBOUND:                 0.000
REMARK SMILES CC(C)=C1CC[C@@H](C)CC1=O
REMARK SMILES IDX 8 1 7 2 6 3 5 4 4 5 2 6 1 7 3 8 10 9 11 10 9 11
REMARK H PARENT
REMARK Flexibility Score: inf
ROOT
ATOM      1  C   UNL     1      23.397  30.553 138.623  1.00  0.00     0.008 C 
ATOM      2  C   UNL     1      24.893  30.260 138.465  1.00  0.00    -0.006 C 
ATOM      3  C   UNL     1      25.471  29.676 139.764  1.00  0.00     0.008 C 
ATOM      4  C   UNL     1      26.944  29.281 139.591  1.00  0.00     0.039 C 
ATOM      5  C   UNL     1      27.791  30.417 139.033  1.00  0.00    -0.006 C 
ATOM      6  C   UNL     1      29.106  30.556 139.375  1.00  0.00    -0.070 C 
ATOM      7  C   UNL     1      29.941  31.711 138.873  1.00  0.00     0.039 C 
ATOM      8  C   UNL     1      29.780  29.576 140.308  1.00  0.00     0.039 C 
ATOM      9  C   UNL     1      27.132  31.287 138.014  1.00  0.00     0.159 C 
ATOM     10  O   UNL     1      27.793  31.818 137.081  1.00  0.00    -0.295 OA
ATOM     11  C   UNL     1      25.653  31.538 138.081  1.00  0.00     0.084 C 
ENDROOT
TORSDOF 0
ENDMDL
MODEL 3
REMARK VINA RESULT:    -4.322      2.136      3.196
REMARK INTER + INTRA:          -4.322
REMARK INTER:                  -4.322
REMARK INTRA:                   0.000
REMARK UNBOUND:                 0.000
REMARK SMILES CC(C)=C1CC[C@@H](C)CC1=O
REMARK SMILES IDX 8 1 7 2 6 3 5 4 4 5 2 6 1 7 3 8 10 9 11 10 9 11
REMARK H PARENT
REMARK Flexibility Score: inf
ROOT
ATOM      1  C   UNL     1      30.270  32.489 137.911  1.00  0.00     0.008 C 
ATOM      2  C   UNL     1      29.047  31.566 137.866  1.00  0.00    -0.006 C 
ATOM      3  C   UNL     1      27.752  32.390 137.778  1.00  0.00     0.008 C 
ATOM      4  C   UNL     1      26.523  31.481 137.630  1.00  0.00     0.039 C 
ATOM      5  C   UNL     1      26.460  30.404 138.704  1.00  0.00    -0.006 C 
ATOM      6  C   UNL     1      25.265  29.937 139.171  1.00  0.00    -0.070 C 
ATOM      7  C   UNL     1      25.189  28.909 140.277  1.00  0.00     0.039 C 
ATOM      8  C   UNL     1      23.954  30.457 138.627  1.00  0.00     0.039 C 
ATOM      9  C   UNL     1      27.768  29.818 139.123  1.00  0.00     0.159 C 
ATOM     10  O   UNL     1      27.860  28.616 139.489  1.00  0.00    -0.295 OA
ATOM     11  C   UNL     1      29.010  30.662 139.106  1.00  0.00     0.084 C 
ENDROOT
TORSDOF 0
ENDMDL
MODEL 4
REMARK VINA RESULT:    -4.311      2.499      3.606
REMARK INTER + INTRA:          -4.311
REMARK INTER:                  -4.311
REMARK INTRA:                   0.000
REMARK UNBOUND:                 0.000
REMARK SMILES CC(C)=C1CC[C@@H](C)CC1=O
REMARK SMILES IDX 8 1 7 2 6 3 5 4 4 5 2 6 1 7 3 8 10 9 11 10 9 11
REMARK H PARENT
REMARK Flexibility Score: inf
ROOT
ATOM      1  C   UNL     1      28.399  31.000 136.414  1.00  0.00     0.008 C 
ATOM      2  C   UNL     1      27.846  30.355 137.690  1.00  0.00    -0.006 C 
ATOM      3  C   UNL     1      26.443  30.898 138.007  1.00  0.00     0.008 C 
ATOM      4  C   UNL     1      25.834  30.188 139.224  1.00  0.00     0.039 C 
ATOM      5  C   UNL     1      26.756  30.209 140.435  1.00  0.00    -0.006 C 
ATOM      6  C   UNL     1      26.258  30.247 141.706  1.00  0.00    -0.070 C 
ATOM      7  C   UNL     1      27.163  30.325 142.914  1.00  0.00     0.039 C 
ATOM      8  C   UNL     1      24.769  30.251 141.964  1.00  0.00     0.039 C 
ATOM      9  C   UNL     1      28.215  30.069 140.151  1.00  0.00     0.159 C 
ATOM     10  O   UNL     1      28.988  29.490 140.961  1.00  0.00    -0.295 OA
ATOM     11  C   UNL     1      28.789  30.614 138.875  1.00  0.00     0.084 C 
ENDROOT
TORSDOF 0
ENDMDL
MODEL 5
REMARK VINA RESULT:    -4.297     15.122     16.085
REMARK INTER + INTRA:          -4.297
REMARK INTER:                  -4.297
REMARK INTRA:                   0.000
REMARK UNBOUND:                 0.000
REMARK SMILES CC(C)=C1CC[C@@H](C)CC1=O
REMARK SMILES IDX 8 1 7 2 6 3 5 4 4 5 2 6 1 7 3 8 10 9 11 10 9 11
REMARK H PARENT
REMARK Flexibility Score: inf
ROOT
ATOM      1  C   UNL     1      30.108  39.368 150.432  1.00  0.00     0.008 C 
ATOM      2  C   UNL     1      31.446  40.117 150.426  1.00  0.00    -0.006 C 
ATOM      3  C   UNL     1      31.567  40.998 149.172  1.00  0.00     0.008 C 
ATOM      4  C   UNL     1      32.855  41.832 149.200  1.00  0.00     0.039 C 
ATOM      5  C   UNL     1      34.096  40.983 149.441  1.00  0.00    -0.006 C 
ATOM      6  C   UNL     1      35.303  41.322 148.900  1.00  0.00    -0.070 C 
ATOM      7  C   UNL     1      36.529  40.458 149.085  1.00  0.00     0.039 C 
ATOM      8  C   UNL     1      35.462  42.566 148.055  1.00  0.00     0.039 C 
ATOM      9  C   UNL     1      33.934  39.839 150.386  1.00  0.00     0.159 C 
ATOM     10  O   UNL     1      34.886  39.455 151.118  1.00  0.00    -0.295 OA
ATOM     11  C   UNL     1      32.617  39.126 150.485  1.00  0.00     0.084 C 
ENDROOT
TORSDOF 0
ENDMDL
MODEL 6
REMARK VINA RESULT:    -4.291     14.437     15.541
REMARK INTER + INTRA:          -4.291
REMARK INTER:                  -4.291
REMARK INTRA:                   0.000
REMARK UNBOUND:                 0.000
REMARK SMILES CC(C)=C1CC[C@@H](C)CC1=O
REMARK SMILES IDX 8 1 7 2 6 3 5 4 4 5 2 6 1 7 3 8 10 9 11 10 9 11
REMARK H PARENT
REMARK Flexibility Score: inf
ROOT
ATOM      1  C   UNL     1      39.161  43.768 144.418  1.00  0.00     0.008 C 
ATOM      2  C   UNL     1      37.816  43.586 145.132  1.00  0.00    -0.006 C 
ATOM      3  C   UNL     1      38.021  42.955 146.519  1.00  0.00     0.008 C 
ATOM      4  C   UNL     1      36.696  42.860 147.288  1.00  0.00     0.039 C 
ATOM      5  C   UNL     1      35.602  42.169 146.486  1.00  0.00    -0.006 C 
ATOM      6  C   UNL     1      34.636  41.424 147.099  1.00  0.00    -0.070 C 
ATOM      7  C   UNL     1      33.579  40.687 146.310  1.00  0.00     0.039 C 
ATOM      8  C   UNL     1      34.600  41.271 148.602  1.00  0.00     0.039 C 
ATOM      9  C   UNL     1      35.588  42.449 145.020  1.00  0.00     0.159 C 
ATOM     10  O   UNL     1      34.510  42.477 144.368  1.00  0.00    -0.295 OA
ATOM     11  C   UNL     1      36.875  42.713 144.291  1.00  0.00     0.084 C 
ENDROOT
TORSDOF 0
ENDMDL
MODEL 7
REMARK VINA RESULT:    -4.280      9.010     10.716
REMARK INTER + INTRA:          -4.280
REMARK INTER:                  -4.280
REMARK INTRA:                   0.000
REMARK UNBOUND:                 0.000
REMARK SMILES CC(C)=C1CC[C@@H](C)CC1=O
REMARK SMILES IDX 8 1 7 2 6 3 5 4 4 5 2 6 1 7 3 8 10 9 11 10 9 11
REMARK H PARENT
REMARK Flexibility Score: inf
ROOT
ATOM      1  C   UNL     1      37.011  35.491 138.884  1.00  0.00     0.008 C 
ATOM      2  C   UNL     1      37.249  35.225 137.393  1.00  0.00    -0.006 C 
ATOM      3  C   UNL     1      36.337  34.093 136.893  1.00  0.00     0.008 C 
ATOM      4  C   UNL     1      36.488  33.883 135.380  1.00  0.00     0.039 C 
ATOM      5  C   UNL     1      37.939  33.694 134.959  1.00  0.00    -0.006 C 
ATOM      6  C   UNL     1      38.272  32.902 133.898  1.00  0.00    -0.070 C 
ATOM      7  C   UNL     1      39.712  32.661 133.505  1.00  0.00     0.039 C 
ATOM      8  C   UNL     1      37.212  32.195 133.084  1.00  0.00     0.039 C 
ATOM      9  C   UNL     1      38.948  34.509 135.698  1.00  0.00     0.159 C 
ATOM     10  O   UNL     1      39.998  34.921 135.134  1.00  0.00    -0.295 OA
ATOM     11  C   UNL     1      38.720  34.864 137.139  1.00  0.00     0.084 C 
ENDROOT
TORSDOF 0
ENDMDL
MODEL 8
REMARK VINA RESULT:    -4.276      7.330      9.143
REMARK INTER + INTRA:          -4.276
REMARK INTER:                  -4.276
REMARK INTRA:                   0.000
REMARK UNBOUND:                 0.000
REMARK SMILES CC(C)=C1CC[C@@H](C)CC1=O
REMARK SMILES IDX 8 1 7 2 6 3 5 4 4 5 2 6 1 7 3 8 10 9 11 10 9 11
REMARK H PARENT
REMARK Flexibility Score: inf
ROOT
ATOM      1  C   UNL     1      38.433  32.529 133.500  1.00  0.00     0.008 C 
ATOM      2  C   UNL     1      36.926  32.530 133.217  1.00  0.00    -0.006 C 
ATOM      3  C   UNL     1      36.635  33.144 131.839  1.00  0.00     0.008 C 
ATOM      4  C   UNL     1      35.141  33.060 131.496  1.00  0.00     0.039 C 
ATOM      5  C   UNL     1      34.257  33.638 132.593  1.00  0.00    -0.006 C 
ATOM      6  C   UNL     1      33.069  34.246 132.300  1.00  0.00    -0.070 C 
ATOM      7  C   UNL     1      32.211  34.873 133.374  1.00  0.00     0.039 C 
ATOM      8  C   UNL     1      32.574  34.353 130.876  1.00  0.00     0.039 C 
ATOM      9  C   UNL     1      34.709  33.398 133.995  1.00  0.00     0.159 C 
ATOM     10  O   UNL     1      33.882  33.259 134.936  1.00  0.00    -0.295 OA
ATOM     11  C   UNL     1      36.175  33.308 134.307  1.00  0.00     0.084 C 
ENDROOT
TORSDOF 0
ENDMDL
MODEL 9
REMARK VINA RESULT:    -4.271     12.872     13.911
REMARK INTER + INTRA:          -4.271
REMARK INTER:                  -4.271
REMARK INTRA:                   0.000
REMARK UNBOUND:                 0.000
REMARK SMILES CC(C)=C1CC[C@@H](C)CC1=O
REMARK SMILES IDX 8 1 7 2 6 3 5 4 4 5 2 6 1 7 3 8 10 9 11 10 9 11
REMARK H PARENT
REMARK Flexibility Score: inf
ROOT
ATOM      1  C   UNL     1      29.002  43.555 144.355  1.00  0.00     0.008 C 
ATOM      2  C   UNL     1      27.530  43.644 143.936  1.00  0.00    -0.006 C 
ATOM      3  C   UNL     1      26.981  42.250 143.591  1.00  0.00     0.008 C 
ATOM      4  C   UNL     1      25.480  42.307 143.269  1.00  0.00     0.039 C 
ATOM      5  C   UNL     1      25.151  43.346 142.206  1.00  0.00    -0.006 C 
ATOM      6  C   UNL     1      24.115  43.165 141.334  1.00  0.00    -0.070 C 
ATOM      7  C   UNL     1      23.813  44.162 140.239  1.00  0.00     0.039 C 
ATOM      8  C   UNL     1      23.242  41.933 141.400  1.00  0.00     0.039 C 
ATOM      9  C   UNL     1      25.946  44.609 142.254  1.00  0.00     0.159 C 
ATOM     10  O   UNL     1      25.446  45.712 141.904  1.00  0.00    -0.295 OA
ATOM     11  C   UNL     1      27.368  44.584 142.734  1.00  0.00     0.084 C 
ENDROOT
TORSDOF 0
ENDMDL
