MODEL 1
REMARK VINA RESULT:    -4.478      0.000      0.000
REMARK INTER + INTRA:          -4.902
REMARK INTER:                  -4.871
REMARK INTRA:                  -0.031
REMARK UNBOUND:                -0.031
REMARK SMILES O=C([O-])c1ccc(O)cc1
REMARK SMILES IDX 4 1 5 2 10 3 6 4 9 5 7 6 2 7 1 8 3 9 8 10
REMARK H PARENT 8 11
REMARK Flexibility Score: inf
ROOT
ATOM      1  C   UNL     1      20.616   0.032 -20.253  1.00  0.00    -0.003 A 
ATOM      2  C   UNL     1      21.083   0.431 -18.988  1.00  0.00     0.014 A 
ATOM      3  C   UNL     1      19.477  -0.790 -20.332  1.00  0.00     0.014 A 
ATOM      4  C   UNL     1      20.426   0.014 -17.826  1.00  0.00     0.047 A 
ATOM      5  C   UNL     1      18.822  -1.206 -19.168  1.00  0.00     0.047 A 
ATOM      6  C   UNL     1      19.295  -0.805 -17.913  1.00  0.00     0.115 A 
ENDROOT
BRANCH   1   7
ATOM      7  C   UNL     1      21.313   0.475 -21.480  1.00  0.00     0.071 C 
ATOM      8  O   UNL     1      21.704   1.667 -21.600  1.00  0.00    -0.545 OA
ATOM      9  O   UNL     1      21.547  -0.419 -22.519  1.00  0.00    -0.545 OA
ENDBRANCH   1   7
BRANCH   6  10
ATOM     10  O   UNL     1      18.651  -1.212 -16.747  1.00  0.00    -0.508 OA
ATOM     11  H   UNL     1      18.192  -0.546 -16.136  1.00  0.00     0.293 HD
ENDBRANCH   6  10
TORSDOF 2
ENDMDL
MODEL 2
REMARK VINA RESULT:    -4.469      0.229      1.548
REMARK INTER + INTRA:          -4.893
REMARK INTER:                  -4.862
REMARK INTRA:                  -0.031
REMARK UNBOUND:                -0.031
REMARK SMILES O=C([O-])c1ccc(O)cc1
REMARK SMILES IDX 4 1 5 2 10 3 6 4 9 5 7 6 2 7 1 8 3 9 8 10
REMARK H PARENT 8 11
REMARK Flexibility Score: inf
ROOT
ATOM      1  C   UNL     1      20.728   0.186 -20.351  1.00  0.00    -0.003 A 
ATOM      2  C   UNL     1      19.560  -0.595 -20.397  1.00  0.00     0.014 A 
ATOM      3  C   UNL     1      21.254   0.555 -19.099  1.00  0.00     0.014 A 
ATOM      4  C   UNL     1      18.931  -0.998 -19.215  1.00  0.00     0.047 A 
ATOM      5  C   UNL     1      20.622   0.150 -17.920  1.00  0.00     0.047 A 
ATOM      6  C   UNL     1      19.459  -0.627 -17.975  1.00  0.00     0.115 A 
ENDROOT
BRANCH   1   7
ATOM      7  C   UNL     1      21.392   0.611 -21.603  1.00  0.00     0.071 C 
ATOM      8  O   UNL     1      21.721   1.815 -21.777  1.00  0.00    -0.545 OA
ATOM      9  O   UNL     1      21.664  -0.314 -22.605  1.00  0.00    -0.545 OA
ENDBRANCH   1   7
BRANCH   6  10
ATOM     10  O   UNL     1      18.820  -1.037 -16.806  1.00  0.00    -0.508 OA
ATOM     11  H   UNL     1      17.888  -0.714 -16.572  1.00  0.00     0.293 HD
ENDBRANCH   6  10
TORSDOF 2
ENDMDL
MODEL 3
REMARK VINA RESULT:    -4.288      1.882      3.926
REMARK INTER + INTRA:          -4.695
REMARK INTER:                  -4.667
REMARK INTRA:                  -0.028
REMARK UNBOUND:                -0.031
REMARK SMILES O=C([O-])c1ccc(O)cc1
REMARK SMILES IDX 4 1 5 2 10 3 6 4 9 5 7 6 2 7 1 8 3 9 8 10
REMARK H PARENT 8 11
REMARK Flexibility Score: inf
ROOT
ATOM      1  C   UNL     1      21.018   0.223 -18.588  1.00  0.00    -0.003 A 
ATOM      2  C   UNL     1      21.431   0.975 -19.703  1.00  0.00     0.014 A 
ATOM      3  C   UNL     1      20.409  -1.028 -18.796  1.00  0.00     0.014 A 
ATOM      4  C   UNL     1      21.238   0.485 -20.998  1.00  0.00     0.047 A 
ATOM      5  C   UNL     1      20.218  -1.515 -20.093  1.00  0.00     0.047 A 
ATOM      6  C   UNL     1      20.631  -0.759 -21.197  1.00  0.00     0.115 A 
ENDROOT
BRANCH   1   7
ATOM      7  C   UNL     1      21.224   0.744 -17.218  1.00  0.00     0.071 C 
ATOM      8  O   UNL     1      22.386   0.865 -16.747  1.00  0.00    -0.545 OA
ATOM      9  O   UNL     1      20.136   1.108 -16.433  1.00  0.00    -0.545 OA
ENDBRANCH   1   7
BRANCH   6  10
ATOM     10  O   UNL     1      20.446  -1.234 -22.493  1.00  0.00    -0.508 OA
ATOM     11  H   UNL     1      20.159  -0.618 -23.246  1.00  0.00     0.293 HD
ENDBRANCH   6  10
TORSDOF 2
ENDMDL
MODEL 4
REMARK VINA RESULT:    -4.136      1.367      4.337
REMARK INTER + INTRA:          -4.530
REMARK INTER:                  -4.495
REMARK INTRA:                  -0.036
REMARK UNBOUND:                -0.031
REMARK SMILES O=C([O-])c1ccc(O)cc1
REMARK SMILES IDX 4 1 5 2 10 3 6 4 9 5 7 6 2 7 1 8 3 9 8 10
REMARK H PARENT 8 11
REMARK Flexibility Score: inf
ROOT
ATOM      1  C   UNL     1      20.290  -0.452 -20.003  1.00  0.00    -0.003 A 
ATOM      2  C   UNL     1      20.971   0.764 -19.815  1.00  0.00     0.014 A 
ATOM      3  C   UNL     1      20.369  -1.091 -21.254  1.00  0.00     0.014 A 
ATOM      4  C   UNL     1      21.713   1.329 -20.856  1.00  0.00     0.047 A 
ATOM      5  C   UNL     1      21.112  -0.523 -22.293  1.00  0.00     0.047 A 
ATOM      6  C   UNL     1      21.786   0.688 -22.097  1.00  0.00     0.115 A 
ENDROOT
BRANCH   1   7
ATOM      7  C   UNL     1      19.506  -1.047 -18.899  1.00  0.00     0.071 C 
ATOM      8  O   UNL     1      19.114  -2.243 -18.964  1.00  0.00    -0.545 OA
ATOM      9  O   UNL     1      19.190  -0.295 -17.773  1.00  0.00    -0.545 OA
ENDBRANCH   1   7
BRANCH   6  10
ATOM     10  O   UNL     1      22.530   1.264 -23.125  1.00  0.00    -0.508 OA
ATOM     11  H   UNL     1      22.708   0.767 -23.991  1.00  0.00     0.293 HD
ENDBRANCH   6  10
TORSDOF 2
ENDMDL
MODEL 5
REMARK VINA RESULT:    -4.119     17.463     19.087
REMARK INTER + INTRA:          -4.512
REMARK INTER:                  -4.476
REMARK INTRA:                  -0.036
REMARK UNBOUND:                -0.031
REMARK SMILES O=C([O-])c1ccc(O)cc1
REMARK SMILES IDX 4 1 5 2 10 3 6 4 9 5 7 6 2 7 1 8 3 9 8 10
REMARK H PARENT 8 11
REMARK Flexibility Score: inf
ROOT
ATOM      1  C   UNL     1       7.904  -6.585  -7.451  1.00  0.00    -0.003 A 
ATOM      2  C   UNL     1       8.123  -5.396  -6.733  1.00  0.00     0.014 A 
ATOM      3  C   UNL     1       7.656  -7.775  -6.742  1.00  0.00     0.014 A 
ATOM      4  C   UNL     1       8.094  -5.397  -5.336  1.00  0.00     0.047 A 
ATOM      5  C   UNL     1       7.629  -7.772  -5.344  1.00  0.00     0.047 A 
ATOM      6  C   UNL     1       7.848  -6.583  -4.637  1.00  0.00     0.115 A 
ENDROOT
BRANCH   1   7
ATOM      7  C   UNL     1       7.935  -6.581  -8.931  1.00  0.00     0.071 C 
ATOM      8  O   UNL     1       7.905  -7.664  -9.575  1.00  0.00    -0.545 OA
ATOM      9  O   UNL     1       7.996  -5.381  -9.630  1.00  0.00    -0.545 OA
ENDBRANCH   1   7
BRANCH   6  10
ATOM     10  O   UNL     1       7.822  -6.568  -3.245  1.00  0.00    -0.508 OA
ATOM     11  H   UNL     1       8.480  -7.113  -2.698  1.00  0.00     0.293 HD
ENDBRANCH   6  10
TORSDOF 2
ENDMDL
MODEL 6
REMARK VINA RESULT:    -4.119     17.581     19.149
REMARK INTER + INTRA:          -4.512
REMARK INTER:                  -4.476
REMARK INTRA:                  -0.035
REMARK UNBOUND:                -0.031
REMARK SMILES O=C([O-])c1ccc(O)cc1
REMARK SMILES IDX 4 1 5 2 10 3 6 4 9 5 7 6 2 7 1 8 3 9 8 10
REMARK H PARENT 8 11
REMARK Flexibility Score: inf
ROOT
ATOM      1  C   UNL     1       7.895  -6.631  -7.412  1.00  0.00    -0.003 A 
ATOM      2  C   UNL     1       7.630  -7.780  -6.646  1.00  0.00     0.014 A 
ATOM      3  C   UNL     1       8.141  -5.412  -6.753  1.00  0.00     0.014 A 
ATOM      4  C   UNL     1       7.609  -7.711  -5.250  1.00  0.00     0.047 A 
ATOM      5  C   UNL     1       8.119  -5.347  -5.356  1.00  0.00     0.047 A 
ATOM      6  C   UNL     1       7.853  -6.496  -4.601  1.00  0.00     0.115 A 
ENDROOT
BRANCH   1   7
ATOM      7  C   UNL     1       7.917  -6.707  -8.890  1.00  0.00     0.071 C 
ATOM      8  O   UNL     1       7.877  -5.657  -9.585  1.00  0.00    -0.545 OA
ATOM      9  O   UNL     1       7.982  -7.939  -9.531  1.00  0.00    -0.545 OA
ENDBRANCH   1   7
BRANCH   6  10
ATOM     10  O   UNL     1       7.829  -6.443  -3.209  1.00  0.00    -0.508 OA
ATOM     11  H   UNL     1       7.354  -7.152  -2.661  1.00  0.00     0.293 HD
ENDBRANCH   6  10
TORSDOF 2
ENDMDL
MODEL 7
REMARK VINA RESULT:    -4.118     16.696     18.869
REMARK INTER + INTRA:          -4.510
REMARK INTER:                  -4.483
REMARK INTRA:                  -0.027
REMARK UNBOUND:                -0.031
REMARK SMILES O=C([O-])c1ccc(O)cc1
REMARK SMILES IDX 4 1 5 2 10 3 6 4 9 5 7 6 2 7 1 8 3 9 8 10
REMARK H PARENT 8 11
REMARK Flexibility Score: inf
ROOT
ATOM      1  C   UNL     1       8.358  -6.390  -7.423  1.00  0.00    -0.003 A 
ATOM      2  C   UNL     1       8.298  -5.706  -6.196  1.00  0.00     0.014 A 
ATOM      3  C   UNL     1       7.986  -7.746  -7.468  1.00  0.00     0.014 A 
ATOM      4  C   UNL     1       7.876  -6.366  -5.038  1.00  0.00     0.047 A 
ATOM      5  C   UNL     1       7.566  -8.403  -6.307  1.00  0.00     0.047 A 
ATOM      6  C   UNL     1       7.510  -7.714  -5.089  1.00  0.00     0.115 A 
ENDROOT
BRANCH   1   7
ATOM      7  C   UNL     1       8.804  -5.689  -8.648  1.00  0.00     0.071 C 
ATOM      8  O   UNL     1      10.003  -5.765  -9.028  1.00  0.00    -0.545 OA
ATOM      9  O   UNL     1       7.905  -4.937  -9.396  1.00  0.00    -0.545 OA
ENDBRANCH   1   7
BRANCH   6  10
ATOM     10  O   UNL     1       7.092  -8.358  -3.927  1.00  0.00    -0.508 OA
ATOM     11  H   UNL     1       6.601  -7.858  -3.193  1.00  0.00     0.293 HD
ENDBRANCH   6  10
TORSDOF 2
ENDMDL
MODEL 8
REMARK VINA RESULT:    -4.090     16.414     17.415
REMARK INTER + INTRA:          -4.480
REMARK INTER:                  -4.451
REMARK INTRA:                  -0.029
REMARK UNBOUND:                -0.031
REMARK SMILES O=C([O-])c1ccc(O)cc1
REMARK SMILES IDX 4 1 5 2 10 3 6 4 9 5 7 6 2 7 1 8 3 9 8 10
REMARK H PARENT 8 11
REMARK Flexibility Score: inf
ROOT
ATOM      1  C   UNL     1       8.500  -7.145  -9.201  1.00  0.00    -0.003 A 
ATOM      2  C   UNL     1       9.885  -6.918  -9.283  1.00  0.00     0.014 A 
ATOM      3  C   UNL     1       7.788  -6.636  -8.099  1.00  0.00     0.014 A 
ATOM      4  C   UNL     1      10.545  -6.198  -8.282  1.00  0.00     0.047 A 
ATOM      5  C   UNL     1       8.452  -5.917  -7.100  1.00  0.00     0.047 A 
ATOM      6  C   UNL     1       9.831  -5.696  -7.189  1.00  0.00     0.115 A 
ENDROOT
BRANCH   1   7
ATOM      7  C   UNL     1       7.803  -7.906 -10.262  1.00  0.00     0.071 C 
ATOM      8  O   UNL     1       7.219  -8.990  -9.993  1.00  0.00    -0.545 OA
ATOM      9  O   UNL     1       7.785  -7.436 -11.570  1.00  0.00    -0.545 OA
ENDBRANCH   1   7
BRANCH   6  10
ATOM     10  O   UNL     1      10.503  -4.981  -6.200  1.00  0.00    -0.508 OA
ATOM     11  H   UNL     1      10.150  -4.095  -5.856  1.00  0.00     0.293 HD
ENDBRANCH   6  10
TORSDOF 2
ENDMDL
MODEL 9
REMARK VINA RESULT:    -4.064     14.921     15.807
REMARK INTER + INTRA:          -4.452
REMARK INTER:                  -4.422
REMARK INTRA:                  -0.030
REMARK UNBOUND:                -0.031
REMARK SMILES O=C([O-])c1ccc(O)cc1
REMARK SMILES IDX 4 1 5 2 10 3 6 4 9 5 7 6 2 7 1 8 3 9 8 10
REMARK H PARENT 8 11
REMARK Flexibility Score: inf
ROOT
ATOM      1  C   UNL     1       8.730  -5.252 -10.634  1.00  0.00    -0.003 A 
ATOM      2  C   UNL     1       8.226  -5.345  -9.325  1.00  0.00     0.014 A 
ATOM      3  C   UNL     1      10.079  -5.575 -10.870  1.00  0.00     0.014 A 
ATOM      4  C   UNL     1       9.053  -5.753  -8.274  1.00  0.00     0.047 A 
ATOM      5  C   UNL     1      10.904  -5.981  -9.817  1.00  0.00     0.047 A 
ATOM      6  C   UNL     1      10.393  -6.071  -8.516  1.00  0.00     0.115 A 
ENDROOT
BRANCH   1   7
ATOM      7  C   UNL     1       7.852  -4.821 -11.744  1.00  0.00     0.071 C 
ATOM      8  O   UNL     1       7.210  -3.740 -11.670  1.00  0.00    -0.545 OA
ATOM      9  O   UNL     1       7.725  -5.604 -12.886  1.00  0.00    -0.545 OA
ENDBRANCH   1   7
BRANCH   6  10
ATOM     10  O   UNL     1      11.205  -6.475  -7.459  1.00  0.00    -0.508 OA
ATOM     11  H   UNL     1      11.910  -5.860  -7.068  1.00  0.00     0.293 HD
ENDBRANCH   6  10
TORSDOF 2
ENDMDL
