MODEL 1
REMARK VINA RESULT:    18.484      0.000      0.000
REMARK INTER + INTRA:          28.799
REMARK INTER:                  28.209
REMARK INTRA:                   0.590
REMARK UNBOUND:                 0.590
REMARK SMILES CC1=CCC[C@@H](C)C(=O)C[C@H](C(C)C)C(=O)C1
REMARK SMILES IDX 8 1 9 2 6 3 7 4 5 5 4 6 3 7 2 8 1 9 10 11 11 12 15 13 16 14
REMARK SMILES IDX 17 15 12 17 13 18 14 19
REMARK H PARENT
REMARK Flexibility Score: 70.00
ROOT
ATOM      1  C   UNL     1      33.127  12.285  40.146  1.00  0.00     0.136 C 
ATOM      2  O   UNL     1      33.098  12.429  38.933  1.00  0.00    -0.299 OA
ENDROOT
BRANCH   1   3
ATOM      3  C   UNL     1      32.498  11.041  40.749  1.00  0.00     0.053 C 
ATOM      4  C   UNL     1      33.082  10.751  42.138  1.00  0.00     0.016 C 
BRANCH   3   5
ATOM      5  C   UNL     1      32.650   9.825  39.814  1.00  0.00     0.015 C 
BRANCH   5   6
ATOM      6  C   UNL     1      33.918   9.009  40.134  1.00  0.00     0.028 C 
BRANCH   6   7
ATOM      7  C   UNL     1      35.028   9.306  39.159  1.00  0.00    -0.028 C 
ATOM      8  C   UNL     1      36.086  10.107  39.418  1.00  0.00    -0.070 CG0
ATOM      9  C   UNL     1      37.125  10.283  38.340  1.00  0.00     0.039 C 
ATOM     10  G   UNL     1      36.283  10.832  40.739  1.00  0.00     0.000 G0
ENDBRANCH   6   7
ENDBRANCH   5   6
ENDBRANCH   3   5
ENDBRANCH   1   3
BRANCH   1  11
ATOM     11  C   UNL     1      33.719  13.378  41.012  1.00  0.00     0.087 C 
BRANCH  11  12
ATOM     12  C   UNL     1      35.101  13.057  41.641  1.00  0.00     0.066 C 
BRANCH  12  13
ATOM     13  C   UNL     1      35.992  12.331  40.640  1.00  0.00     0.140 C 
ATOM     14  O   UNL     1      36.447  12.966  39.699  1.00  0.00    -0.299 OA
BRANCH  13  15
ATOM     15  C   UNL     1      36.294  10.852  40.746  1.00  0.00     0.106 CG0
ATOM     16  G   UNL     1      36.125  10.126  39.421  1.00  0.00     0.000 G0
ENDBRANCH  13  15
ENDBRANCH  12  13
BRANCH  12  17
ATOM     17  C   UNL     1      35.814  14.251  42.358  1.00  0.00    -0.006 C 
ATOM     18  C   UNL     1      34.888  14.973  43.355  1.00  0.00     0.008 C 
ATOM     19  C   UNL     1      37.062  13.766  43.119  1.00  0.00     0.008 C 
ENDBRANCH  12  17
ENDBRANCH  11  12
ENDBRANCH   1  11
TORSDOF 1
ENDMDL
MODEL 2
REMARK VINA RESULT:    18.505      1.723      3.217
REMARK INTER + INTRA:          28.832
REMARK INTER:                  26.209
REMARK INTRA:                   2.623
REMARK UNBOUND:                 0.590
REMARK SMILES CC1=CCC[C@@H](C)C(=O)C[C@H](C(C)C)C(=O)C1
REMARK SMILES IDX 8 1 9 2 6 3 7 4 5 5 4 6 3 7 2 8 1 9 10 11 11 12 15 13 16 14
REMARK SMILES IDX 17 15 12 17 13 18 14 19
REMARK H PARENT
REMARK Flexibility Score: 70.00
ROOT
ATOM      1  C   UNL     1      35.548  12.005  39.999  1.00  0.00     0.136 C 
ATOM      2  O   UNL     1      34.700  12.522  39.288  1.00  0.00    -0.299 OA
ENDROOT
BRANCH   1   3
ATOM      3  C   UNL     1      35.849  10.527  39.822  1.00  0.00     0.053 C 
ATOM      4  C   UNL     1      37.124  10.324  38.994  1.00  0.00     0.016 C 
BRANCH   3   5
ATOM      5  C   UNL     1      34.652   9.782  39.199  1.00  0.00     0.015 C 
BRANCH   5   6
ATOM      6  C   UNL     1      33.736   9.164  40.273  1.00  0.00     0.028 C 
BRANCH   6   7
ATOM      7  C   UNL     1      32.599  10.087  40.630  1.00  0.00    -0.028 C 
ATOM      8  C   UNL     1      32.690  11.121  41.497  1.00  0.00    -0.070 CG0
ATOM      9  C   UNL     1      31.462  11.964  41.726  1.00  0.00     0.039 C 
ATOM     10  G   UNL     1      33.965  11.476  42.244  1.00  0.00     0.000 G0
ENDBRANCH   6   7
ENDBRANCH   5   6
ENDBRANCH   3   5
ENDBRANCH   1   3
BRANCH   1  11
ATOM     11  C   UNL     1      36.216  12.830  41.080  1.00  0.00     0.087 C 
BRANCH  11  12
ATOM     12  C   UNL     1      35.276  13.766  41.883  1.00  0.00     0.066 C 
BRANCH  12  13
ATOM     13  C   UNL     1      34.101  12.984  42.458  1.00  0.00     0.140 C 
ATOM     14  O   UNL     1      33.271  13.586  43.125  1.00  0.00    -0.299 OA
BRANCH  13  15
ATOM     15  C   UNL     1      33.951  11.489  42.270  1.00  0.00     0.106 CG0
ATOM     16  G   UNL     1      32.694  11.122  41.500  1.00  0.00     0.000 G0
ENDBRANCH  13  15
ENDBRANCH  12  13
BRANCH  12  17
ATOM     17  C   UNL     1      35.976  14.697  42.929  1.00  0.00    -0.006 C 
ATOM     18  C   UNL     1      35.062  15.847  43.393  1.00  0.00     0.008 C 
ATOM     19  C   UNL     1      36.414  13.895  44.168  1.00  0.00     0.008 C 
ENDBRANCH  12  17
ENDBRANCH  11  12
ENDBRANCH   1  11
TORSDOF 1
ENDMDL
MODEL 3
REMARK VINA RESULT:    19.335      1.852      3.192
REMARK INTER + INTRA:          30.098
REMARK INTER:                  26.344
REMARK INTRA:                   3.754
REMARK UNBOUND:                 0.590
REMARK SMILES CC1=CCC[C@@H](C)C(=O)C[C@H](C(C)C)C(=O)C1
REMARK SMILES IDX 8 1 9 2 6 3 7 4 5 5 4 6 3 7 2 8 1 9 10 11 11 12 15 13 16 14
REMARK SMILES IDX 17 15 12 17 13 18 14 19
REMARK H PARENT
REMARK Flexibility Score: 70.00
ROOT
ATOM      1  C   UNL     1      34.450  11.946  39.839  1.00  0.00     0.136 C 
ATOM      2  O   UNL     1      33.543  12.447  39.192  1.00  0.00    -0.299 OA
ENDROOT
BRANCH   1   3
ATOM      3  C   UNL     1      34.498  10.435  39.982  1.00  0.00     0.053 C 
ATOM      4  C   UNL     1      35.712   9.854  39.245  1.00  0.00     0.016 C 
BRANCH   3   5
ATOM      5  C   UNL     1      33.187   9.784  39.500  1.00  0.00     0.015 C 
BRANCH   5   6
ATOM      6  C   UNL     1      32.221   9.502  40.668  1.00  0.00     0.028 C 
BRANCH   6   7
ATOM      7  C   UNL     1      31.746  10.777  41.314  1.00  0.00    -0.028 C 
ATOM      8  C   UNL     1      32.469  11.511  42.191  1.00  0.00    -0.070 CG0
ATOM      9  C   UNL     1      31.856  12.779  42.730  1.00  0.00     0.039 C 
ATOM     10  G   UNL     1      33.865  11.127  42.652  1.00  0.00     0.000 G0
ENDBRANCH   6   7
ENDBRANCH   5   6
ENDBRANCH   3   5
ENDBRANCH   1   3
BRANCH   1  11
ATOM     11  C   UNL     1      35.451  12.844  40.538  1.00  0.00     0.087 C 
BRANCH  11  12
ATOM     12  C   UNL     1      34.977  13.451  41.885  1.00  0.00     0.066 C 
BRANCH  12  13
ATOM     13  C   UNL     1      34.769  12.356  42.924  1.00  0.00     0.140 C 
ATOM     14  O   UNL     1      35.357  12.448  43.993  1.00  0.00    -0.299 OA
BRANCH  13  15
ATOM     15  C   UNL     1      33.900  11.144  42.664  1.00  0.00     0.106 CG0
ATOM     16  G   UNL     1      32.501  11.519  42.202  1.00  0.00     0.000 G0
ENDBRANCH  13  15
ENDBRANCH  12  13
BRANCH  12  17
ATOM     17  C   UNL     1      35.814  14.662  42.416  1.00  0.00    -0.006 C 
ATOM     18  C   UNL     1      35.011  15.547  43.387  1.00  0.00     0.008 C 
ATOM     19  C   UNL     1      37.083  14.175  43.139  1.00  0.00     0.008 C 
ENDBRANCH  12  17
ENDBRANCH  11  12
ENDBRANCH   1  11
TORSDOF 1
ENDMDL
MODEL 4
REMARK VINA RESULT:    19.868      1.761      2.680
REMARK INTER + INTRA:          30.911
REMARK INTER:                  26.954
REMARK INTRA:                   3.957
REMARK UNBOUND:                 0.590
REMARK SMILES CC1=CCC[C@@H](C)C(=O)C[C@H](C(C)C)C(=O)C1
REMARK SMILES IDX 8 1 9 2 6 3 7 4 5 5 4 6 3 7 2 8 1 9 10 11 11 12 15 13 16 14
REMARK SMILES IDX 17 15 12 17 13 18 14 19
REMARK H PARENT
REMARK Flexibility Score: 70.00
ROOT
ATOM      1  C   UNL     1      33.661  11.142  41.825  1.00  0.00     0.136 C 
ATOM      2  O   UNL     1      32.466  11.334  41.661  1.00  0.00    -0.299 OA
ENDROOT
BRANCH   1   3
ATOM      3  C   UNL     1      34.272   9.852  41.307  1.00  0.00     0.053 C 
ATOM      4  C   UNL     1      35.628  10.117  40.640  1.00  0.00     0.016 C 
BRANCH   3   5
ATOM      5  C   UNL     1      33.310   9.121  40.349  1.00  0.00     0.015 C 
BRANCH   5   6
ATOM      6  C   UNL     1      33.374   9.697  38.920  1.00  0.00     0.028 C 
BRANCH   6   7
ATOM      7  C   UNL     1      32.542  10.947  38.790  1.00  0.00    -0.028 C 
ATOM      8  C   UNL     1      33.012  12.205  38.952  1.00  0.00    -0.070 CG0
ATOM      9  C   UNL     1      32.051  13.351  38.764  1.00  0.00     0.039 C 
ATOM     10  G   UNL     1      34.457  12.519  39.306  1.00  0.00     0.000 G0
ENDBRANCH   6   7
ENDBRANCH   5   6
ENDBRANCH   3   5
ENDBRANCH   1   3
BRANCH   1  11
ATOM     11  C   UNL     1      34.479  12.154  42.602  1.00  0.00     0.087 C 
BRANCH  11  12
ATOM     12  C   UNL     1      35.352  13.107  41.743  1.00  0.00     0.066 C 
BRANCH  12  13
ATOM     13  C   UNL     1      34.631  13.480  40.453  1.00  0.00     0.140 C 
ATOM     14  O   UNL     1      34.137  14.595  40.364  1.00  0.00    -0.299 OA
BRANCH  13  15
ATOM     15  C   UNL     1      34.470  12.508  39.303  1.00  0.00     0.106 CG0
ATOM     16  G   UNL     1      33.012  12.213  38.991  1.00  0.00     0.000 G0
ENDBRANCH  13  15
ENDBRANCH  12  13
BRANCH  12  17
ATOM     17  C   UNL     1      35.956  14.338  42.498  1.00  0.00    -0.006 C 
ATOM     18  C   UNL     1      34.904  15.079  43.344  1.00  0.00     0.008 C 
ATOM     19  C   UNL     1      37.105  13.901  43.424  1.00  0.00     0.008 C 
ENDBRANCH  12  17
ENDBRANCH  11  12
ENDBRANCH   1  11
TORSDOF 1
ENDMDL
