MODEL 1
REMARK VINA RESULT:    -4.179      0.000      0.000
REMARK INTER + INTRA:          -4.959
REMARK INTER:                  -4.790
REMARK INTRA:                  -0.169
REMARK UNBOUND:                -0.169
REMARK SMILES CC=Cc1ccc(O)c(OC)c1
REMARK SMILES IDX 4 1 12 2 9 3 7 4 6 5 5 6 3 7 1 8 2 9 10 10 11 11 8 12
REMARK H PARENT 8 13
REMARK Flexibility Score: inf
ROOT
ATOM      1  C   UNL     1      28.863  31.234  23.465  1.00  0.00    -0.022 A 
ATOM      2  C   UNL     1      28.653  31.041  24.841  1.00  0.00     0.058 A 
ATOM      3  C   UNL     1      28.648  29.747  25.400  1.00  0.00     0.161 A 
ATOM      4  C   UNL     1      28.866  28.639  24.563  1.00  0.00     0.157 A 
ATOM      5  C   UNL     1      29.089  28.827  23.197  1.00  0.00     0.051 A 
ATOM      6  C   UNL     1      29.093  30.111  22.649  1.00  0.00     0.012 A 
ENDROOT
BRANCH   1   7
ATOM      7  C   UNL     1      28.867  32.620  22.934  1.00  0.00     0.003 C 
ATOM      8  C   UNL     1      29.074  34.351  21.193  1.00  0.00     0.035 C 
ATOM      9  C   UNL     1      29.101  32.929  21.654  1.00  0.00    -0.030 C 
ENDBRANCH   1   7
BRANCH   3  10
ATOM     10  O   UNL     1      28.432  29.529  26.770  1.00  0.00    -0.493 OA
ATOM     11  C   UNL     1      29.003  30.311  27.814  1.00  0.00     0.278 C 
ENDBRANCH   3  10
BRANCH   4  12
ATOM     12  O   UNL     1      28.868  27.340  25.072  1.00  0.00    -0.504 OA
ATOM     13  H   UNL     1      29.594  26.671  24.842  1.00  0.00     0.293 HD
ENDBRANCH   4  12
TORSDOF 3
ENDMDL
MODEL 2
REMARK VINA RESULT:    -4.093      6.228      9.168
REMARK INTER + INTRA:          -4.861
REMARK INTER:                  -4.686
REMARK INTRA:                  -0.175
REMARK UNBOUND:                -0.169
REMARK SMILES CC=Cc1ccc(O)c(OC)c1
REMARK SMILES IDX 4 1 12 2 9 3 7 4 6 5 5 6 3 7 1 8 2 9 10 10 11 11 8 12
REMARK H PARENT 8 13
REMARK Flexibility Score: inf
ROOT
ATOM      1  C   UNL     1      28.221  36.245  20.267  1.00  0.00    -0.022 A 
ATOM      2  C   UNL     1      27.113  37.078  20.498  1.00  0.00     0.058 A 
ATOM      3  C   UNL     1      26.886  38.218  19.702  1.00  0.00     0.161 A 
ATOM      4  C   UNL     1      27.779  38.516  18.658  1.00  0.00     0.157 A 
ATOM      5  C   UNL     1      28.874  37.682  18.416  1.00  0.00     0.051 A 
ATOM      6  C   UNL     1      29.095  36.553  19.208  1.00  0.00     0.012 A 
ENDROOT
BRANCH   1   7
ATOM      7  C   UNL     1      28.405  35.052  21.131  1.00  0.00     0.003 C 
ATOM      8  C   UNL     1      29.120  32.752  21.651  1.00  0.00     0.035 C 
ATOM      9  C   UNL     1      28.957  33.906  20.714  1.00  0.00    -0.030 C 
ENDBRANCH   1   7
BRANCH   3  10
ATOM     10  O   UNL     1      25.791  39.071  19.918  1.00  0.00    -0.493 OA
ATOM     11  C   UNL     1      25.777  40.149  20.848  1.00  0.00     0.278 C 
ENDBRANCH   3  10
BRANCH   4  12
ATOM     12  O   UNL     1      27.594  39.635  17.847  1.00  0.00    -0.504 OA
ATOM     13  H   UNL     1      26.674  40.003  17.637  1.00  0.00     0.293 HD
ENDBRANCH   4  12
TORSDOF 3
ENDMDL
MODEL 3
REMARK VINA RESULT:    -4.084      9.155     11.358
REMARK INTER + INTRA:          -4.850
REMARK INTER:                  -4.700
REMARK INTRA:                  -0.151
REMARK UNBOUND:                -0.169
REMARK SMILES CC=Cc1ccc(O)c(OC)c1
REMARK SMILES IDX 4 1 12 2 9 3 7 4 6 5 5 6 3 7 1 8 2 9 10 10 11 11 8 12
REMARK H PARENT 8 13
REMARK Flexibility Score: inf
ROOT
ATOM      1  C   UNL     1      26.524  41.374  20.915  1.00  0.00    -0.022 A 
ATOM      2  C   UNL     1      26.013  40.066  20.957  1.00  0.00     0.058 A 
ATOM      3  C   UNL     1      26.182  39.187  19.868  1.00  0.00     0.161 A 
ATOM      4  C   UNL     1      26.880  39.629  18.731  1.00  0.00     0.157 A 
ATOM      5  C   UNL     1      27.402  40.925  18.691  1.00  0.00     0.051 A 
ATOM      6  C   UNL     1      27.232  41.791  19.773  1.00  0.00     0.012 A 
ENDROOT
BRANCH   1   7
ATOM      7  C   UNL     1      26.325  42.253  22.095  1.00  0.00     0.003 C 
ATOM      8  C   UNL     1      27.034  43.559  24.060  1.00  0.00     0.035 C 
ATOM      9  C   UNL     1      27.314  42.661  22.897  1.00  0.00    -0.030 C 
ENDBRANCH   1   7
BRANCH   3  10
ATOM     10  O   UNL     1      25.673  37.878  19.883  1.00  0.00    -0.493 OA
ATOM     11  C   UNL     1      24.760  37.376  20.854  1.00  0.00     0.278 C 
ENDBRANCH   3  10
BRANCH   4  12
ATOM     12  O   UNL     1      27.069  38.794  17.630  1.00  0.00    -0.504 OA
ATOM     13  H   UNL     1      27.755  38.048  17.630  1.00  0.00     0.293 HD
ENDBRANCH   4  12
TORSDOF 3
ENDMDL
MODEL 4
REMARK VINA RESULT:    -4.060      5.796      8.537
REMARK INTER + INTRA:          -4.823
REMARK INTER:                  -4.669
REMARK INTRA:                  -0.154
REMARK UNBOUND:                -0.169
REMARK SMILES CC=Cc1ccc(O)c(OC)c1
REMARK SMILES IDX 4 1 12 2 9 3 7 4 6 5 5 6 3 7 1 8 2 9 10 10 11 11 8 12
REMARK H PARENT 8 13
REMARK Flexibility Score: inf
ROOT
ATOM      1  C   UNL     1      27.881  35.908  20.891  1.00  0.00    -0.022 A 
ATOM      2  C   UNL     1      26.610  36.403  21.227  1.00  0.00     0.058 A 
ATOM      3  C   UNL     1      26.071  37.525  20.566  1.00  0.00     0.161 A 
ATOM      4  C   UNL     1      26.817  38.147  19.551  1.00  0.00     0.157 A 
ATOM      5  C   UNL     1      28.076  37.649  19.204  1.00  0.00     0.051 A 
ATOM      6  C   UNL     1      28.605  36.538  19.862  1.00  0.00     0.012 A 
ENDROOT
BRANCH   1   7
ATOM      7  C   UNL     1      28.394  34.718  21.615  1.00  0.00     0.003 C 
ATOM      8  C   UNL     1      28.593  33.169  23.520  1.00  0.00     0.035 C 
ATOM      9  C   UNL     1      28.043  34.395  22.865  1.00  0.00    -0.030 C 
ENDBRANCH   1   7
BRANCH   3  10
ATOM     10  O   UNL     1      24.806  38.043  20.890  1.00  0.00    -0.493 OA
ATOM     11  C   UNL     1      23.682  37.255  21.269  1.00  0.00     0.278 C 
ENDBRANCH   3  10
BRANCH   4  12
ATOM     12  O   UNL     1      26.324  39.261  18.871  1.00  0.00    -0.504 OA
ATOM     13  H   UNL     1      25.534  39.795  19.213  1.00  0.00     0.293 HD
ENDBRANCH   4  12
TORSDOF 3
ENDMDL
MODEL 5
REMARK VINA RESULT:    -3.987      8.364     10.241
REMARK INTER + INTRA:          -4.738
REMARK INTER:                  -4.584
REMARK INTRA:                  -0.154
REMARK UNBOUND:                -0.169
REMARK SMILES CC=Cc1ccc(O)c(OC)c1
REMARK SMILES IDX 4 1 12 2 9 3 7 4 6 5 5 6 3 7 1 8 2 9 10 10 11 11 8 12
REMARK H PARENT 8 13
REMARK Flexibility Score: inf
ROOT
ATOM      1  C   UNL     1      26.815  40.430  20.211  1.00  0.00    -0.022 A 
ATOM      2  C   UNL     1      25.736  39.571  20.484  1.00  0.00     0.058 A 
ATOM      3  C   UNL     1      25.927  38.179  20.588  1.00  0.00     0.161 A 
ATOM      4  C   UNL     1      27.219  37.650  20.424  1.00  0.00     0.157 A 
ATOM      5  C   UNL     1      28.297  38.502  20.167  1.00  0.00     0.051 A 
ATOM      6  C   UNL     1      28.101  39.881  20.066  1.00  0.00     0.012 A 
ENDROOT
BRANCH   1   7
ATOM      7  C   UNL     1      26.556  41.889  20.123  1.00  0.00     0.003 C 
ATOM      8  C   UNL     1      26.661  44.124  19.091  1.00  0.00     0.035 C 
ATOM      9  C   UNL     1      26.975  42.662  19.115  1.00  0.00    -0.030 C 
ENDBRANCH   1   7
BRANCH   3  10
ATOM     10  O   UNL     1      24.864  37.299  20.850  1.00  0.00    -0.493 OA
ATOM     11  C   UNL     1      23.543  37.707  21.192  1.00  0.00     0.278 C 
ENDBRANCH   3  10
BRANCH   4  12
ATOM     12  O   UNL     1      27.454  36.278  20.516  1.00  0.00    -0.504 OA
ATOM     13  H   UNL     1      27.775  35.731  19.726  1.00  0.00     0.293 HD
ENDBRANCH   4  12
TORSDOF 3
ENDMDL
MODEL 6
REMARK VINA RESULT:    -3.888      6.332      9.347
REMARK INTER + INTRA:          -4.625
REMARK INTER:                  -4.459
REMARK INTRA:                  -0.166
REMARK UNBOUND:                -0.169
REMARK SMILES CC=Cc1ccc(O)c(OC)c1
REMARK SMILES IDX 4 1 12 2 9 3 7 4 6 5 5 6 3 7 1 8 2 9 10 10 11 11 8 12
REMARK H PARENT 8 13
REMARK Flexibility Score: inf
ROOT
ATOM      1  C   UNL     1      27.757  36.262  20.592  1.00  0.00    -0.022 A 
ATOM      2  C   UNL     1      28.242  37.125  19.595  1.00  0.00     0.058 A 
ATOM      3  C   UNL     1      27.596  38.345  19.315  1.00  0.00     0.161 A 
ATOM      4  C   UNL     1      26.455  38.702  20.054  1.00  0.00     0.157 A 
ATOM      5  C   UNL     1      25.977  37.853  21.056  1.00  0.00     0.051 A 
ATOM      6  C   UNL     1      26.622  36.645  21.329  1.00  0.00     0.012 A 
ENDROOT
BRANCH   1   7
ATOM      7  C   UNL     1      28.485  34.994  20.850  1.00  0.00     0.003 C 
ATOM      8  C   UNL     1      29.108  32.993  22.145  1.00  0.00     0.035 C 
ATOM      9  C   UNL     1      28.349  34.269  21.966  1.00  0.00    -0.030 C 
ENDBRANCH   1   7
BRANCH   3  10
ATOM     10  O   UNL     1      28.056  39.220  18.317  1.00  0.00    -0.493 OA
ATOM     11  C   UNL     1      28.648  38.806  17.089  1.00  0.00     0.278 C 
ENDBRANCH   3  10
BRANCH   4  12
ATOM     12  O   UNL     1      25.782  39.899  19.809  1.00  0.00    -0.504 OA
ATOM     13  H   UNL     1      26.251  40.715  19.434  1.00  0.00     0.293 HD
ENDBRANCH   4  12
TORSDOF 3
ENDMDL
MODEL 7
REMARK VINA RESULT:    -3.692      4.659      7.125
REMARK INTER + INTRA:          -4.400
REMARK INTER:                  -4.220
REMARK INTRA:                  -0.180
REMARK UNBOUND:                -0.169
REMARK SMILES CC=Cc1ccc(O)c(OC)c1
REMARK SMILES IDX 4 1 12 2 9 3 7 4 6 5 5 6 3 7 1 8 2 9 10 10 11 11 8 12
REMARK H PARENT 8 13
REMARK Flexibility Score: inf
ROOT
ATOM      1  C   UNL     1      28.119  34.374  22.539  1.00  0.00    -0.022 A 
ATOM      2  C   UNL     1      27.212  35.446  22.504  1.00  0.00     0.058 A 
ATOM      3  C   UNL     1      27.222  36.370  21.440  1.00  0.00     0.161 A 
ATOM      4  C   UNL     1      28.151  36.205  20.398  1.00  0.00     0.157 A 
ATOM      5  C   UNL     1      29.046  35.132  20.422  1.00  0.00     0.051 A 
ATOM      6  C   UNL     1      29.031  34.220  21.479  1.00  0.00     0.012 A 
ENDROOT
BRANCH   1   7
ATOM      7  C   UNL     1      28.055  33.426  23.681  1.00  0.00     0.003 C 
ATOM      8  C   UNL     1      28.492  31.307  24.859  1.00  0.00     0.035 C 
ATOM      9  C   UNL     1      28.586  32.199  23.662  1.00  0.00    -0.030 C 
ENDBRANCH   1   7
BRANCH   3  10
ATOM     10  O   UNL     1      26.331  37.455  21.387  1.00  0.00    -0.493 OA
ATOM     11  C   UNL     1      24.997  37.381  20.895  1.00  0.00     0.278 C 
ENDBRANCH   3  10
BRANCH   4  12
ATOM     12  O   UNL     1      28.199  37.096  19.326  1.00  0.00    -0.504 OA
ATOM     13  H   UNL     1      27.533  37.853  19.224  1.00  0.00     0.293 HD
ENDBRANCH   4  12
TORSDOF 3
ENDMDL
MODEL 8
REMARK VINA RESULT:    -3.574      7.554     10.161
REMARK INTER + INTRA:          -4.265
REMARK INTER:                  -4.108
REMARK INTRA:                  -0.158
REMARK UNBOUND:                -0.169
REMARK SMILES CC=Cc1ccc(O)c(OC)c1
REMARK SMILES IDX 4 1 12 2 9 3 7 4 6 5 5 6 3 7 1 8 2 9 10 10 11 11 8 12
REMARK H PARENT 8 13
REMARK Flexibility Score: inf
ROOT
ATOM      1  C   UNL     1      27.655  37.663  20.156  1.00  0.00    -0.022 A 
ATOM      2  C   UNL     1      28.362  38.866  19.991  1.00  0.00     0.058 A 
ATOM      3  C   UNL     1      27.741  40.110  20.223  1.00  0.00     0.161 A 
ATOM      4  C   UNL     1      26.398  40.139  20.635  1.00  0.00     0.157 A 
ATOM      5  C   UNL     1      25.695  38.944  20.814  1.00  0.00     0.051 A 
ATOM      6  C   UNL     1      26.316  37.715  20.582  1.00  0.00     0.012 A 
ENDROOT
BRANCH   1   7
ATOM      7  C   UNL     1      28.364  36.383  19.907  1.00  0.00     0.003 C 
ATOM      8  C   UNL     1      28.824  33.981  20.211  1.00  0.00     0.035 C 
ATOM      9  C   UNL     1      28.072  35.234  20.529  1.00  0.00    -0.030 C 
ENDBRANCH   1   7
BRANCH   3  10
ATOM     10  O   UNL     1      28.424  41.325  20.057  1.00  0.00    -0.493 OA
ATOM     11  C   UNL     1      29.125  42.008  21.092  1.00  0.00     0.278 C 
ENDBRANCH   3  10
BRANCH   4  12
ATOM     12  O   UNL     1      25.742  41.346  20.875  1.00  0.00    -0.504 OA
ATOM     13  H   UNL     1      25.223  41.831  20.152  1.00  0.00     0.293 HD
ENDBRANCH   4  12
TORSDOF 3
ENDMDL
MODEL 9
REMARK VINA RESULT:    -2.197      1.341      2.628
REMARK INTER + INTRA:          -2.687
REMARK INTER:                  -2.518
REMARK INTRA:                  -0.169
REMARK UNBOUND:                -0.169
REMARK SMILES CC=Cc1ccc(O)c(OC)c1
REMARK SMILES IDX 4 1 12 2 9 3 7 4 6 5 5 6 3 7 1 8 2 9 10 10 11 11 8 12
REMARK H PARENT 8 13
REMARK Flexibility Score: inf
ROOT
ATOM      1  C   UNL     1      28.731  32.470  24.023  1.00  0.00    -0.022 A 
ATOM      2  C   UNL     1      28.337  31.239  23.472  1.00  0.00     0.058 A 
ATOM      3  C   UNL     1      28.346  30.062  24.246  1.00  0.00     0.161 A 
ATOM      4  C   UNL     1      28.746  30.130  25.592  1.00  0.00     0.157 A 
ATOM      5  C   UNL     1      29.125  31.355  26.148  1.00  0.00     0.051 A 
ATOM      6  C   UNL     1      29.115  32.518  25.376  1.00  0.00     0.012 A 
ENDROOT
BRANCH   1   7
ATOM      7  C   UNL     1      28.692  33.679  23.162  1.00  0.00     0.003 C 
ATOM      8  C   UNL     1      28.808  34.919  21.036  1.00  0.00     0.035 C 
ATOM      9  C   UNL     1      28.876  33.658  21.837  1.00  0.00    -0.030 C 
ENDBRANCH   1   7
BRANCH   3  10
ATOM     10  O   UNL     1      27.966  28.819  23.716  1.00  0.00    -0.493 OA
ATOM     11  C   UNL     1      26.639  28.477  23.328  1.00  0.00     0.278 C 
ENDBRANCH   3  10
BRANCH   4  12
ATOM     12  O   UNL     1      28.772  28.990  26.396  1.00  0.00    -0.504 OA
ATOM     13  H   UNL     1      29.603  28.419  26.495  1.00  0.00     0.293 HD
ENDBRANCH   4  12
TORSDOF 3
ENDMDL
