MODEL 1
REMARK VINA RESULT:     1.773      0.000      0.000
REMARK INTER + INTRA:           2.115
REMARK INTER:                   2.136
REMARK INTRA:                  -0.021
REMARK UNBOUND:                -0.021
REMARK SMILES Oc1cc(O)c2c(c1)O[C@H](c1ccc(O)c(O)c1)[C@H](O)C2
REMARK SMILES IDX 21 1 19 2 10 3 9 4 7 5 8 6 2 7 3 8 4 9 6 10 20 11 11 13
REMARK SMILES IDX 18 14 12 15 16 16 13 17 14 18 17 19 15 21 5 23 1 25
REMARK H PARENT 20 12 17 20 15 22 5 24 1 26
REMARK Flexibility Score: inf
ROOT
ATOM      1  C   UNL     1     -10.644  34.408 -11.251  1.00  0.00     0.079 C 
ATOM      2  C   UNL     1     -10.501  32.886 -11.054  1.00  0.00     0.164 C 
ATOM      3  C   UNL     1      -9.405  32.606 -10.012  1.00  0.00     0.232 C 
ATOM      4  O   UNL     1      -8.173  33.194 -10.432  1.00  0.00    -0.482 OA
ATOM      5  C   UNL     1      -8.123  34.451 -11.046  1.00  0.00     0.131 A 
ATOM      6  C   UNL     1      -6.881  35.055 -11.255  1.00  0.00     0.093 A 
ATOM      7  C   UNL     1      -6.801  36.315 -11.851  1.00  0.00     0.122 A 
ATOM      8  C   UNL     1      -7.972  36.980 -12.230  1.00  0.00     0.092 A 
ATOM      9  C   UNL     1      -9.226  36.391 -12.026  1.00  0.00     0.126 A 
ATOM     10  C   UNL     1      -9.309  35.095 -11.464  1.00  0.00     0.039 A 
ENDROOT
BRANCH   2  11
ATOM     11  O   UNL     1     -10.167  32.275 -12.275  1.00  0.00    -0.389 OA
ATOM     12  H   UNL     1     -10.837  31.558 -12.429  1.00  0.00     0.211 HD
ENDBRANCH   2  11
BRANCH   3  13
ATOM     13  C   UNL     1      -9.231  31.123  -9.776  1.00  0.00    -0.001 A 
ATOM     14  C   UNL     1      -8.074  30.647  -9.139  1.00  0.00     0.057 A 
ATOM     15  C   UNL     1     -10.241  30.211 -10.130  1.00  0.00     0.012 A 
ATOM     16  C   UNL     1      -7.912  29.280  -8.881  1.00  0.00     0.157 A 
ATOM     17  C   UNL     1     -10.082  28.847  -9.875  1.00  0.00     0.050 A 
ATOM     18  C   UNL     1      -8.919  28.374  -9.252  1.00  0.00     0.157 A 
BRANCH  16  19
ATOM     19  O   UNL     1      -6.745  28.843  -8.253  1.00  0.00    -0.504 OA
ATOM     20  H   UNL     1      -6.523  27.859  -8.155  1.00  0.00     0.293 HD
ENDBRANCH  16  19
BRANCH  18  21
ATOM     21  O   UNL     1      -8.764  27.012  -9.000  1.00  0.00    -0.504 OA
ATOM     22  H   UNL     1      -9.468  26.481  -8.503  1.00  0.00     0.293 HD
ENDBRANCH  18  21
ENDBRANCH   3  13
BRANCH   9  23
ATOM     23  O   UNL     1     -10.361  37.124 -12.383  1.00  0.00    -0.507 OA
ATOM     24  H   UNL     1     -10.348  38.120 -12.553  1.00  0.00     0.293 HD
ENDBRANCH   9  23
BRANCH   7  25
ATOM     25  O   UNL     1      -5.554  36.901 -12.055  1.00  0.00    -0.508 OA
ATOM     26  H   UNL     1      -4.699  36.362 -11.984  1.00  0.00     0.293 HD
ENDBRANCH   7  25
TORSDOF 6
ENDMDL
