MODEL 1
REMARK VINA RESULT:    -4.790      0.000      0.000
REMARK INTER + INTRA:          -7.850
REMARK INTER:                  -6.330
REMARK INTRA:                  -1.520
REMARK UNBOUND:                -1.520
REMARK SMILES CC[C@H](C=C[C@H](C)[C@H]1CC[C@@H]2C3=CC[C@@H]4C[C@H](O)CC[C@]4(C)[C@@H]3CC[C@]21C)C(C)C
REMARK SMILES IDX 6 1 7 2 5 3 4 4 3 5 2 6 1 7 28 8 29 9 30 10 8 11 9 12 26 13
REMARK SMILES IDX 10 14 11 15 25 16 27 17 12 18 24 19 23 20 13 21 21 22 14 23
REMARK SMILES IDX 15 24 20 25 22 26 16 27 19 28 17 29 18 30
REMARK H PARENT 18 31
REMARK Flexibility Score: inf
ROOT
ATOM      1  C   UNL     1       4.460   4.256  -5.025  1.00  0.00     0.012 C 
ATOM      2  C   UNL     1       5.557   5.274  -4.657  1.00  0.00     0.012 C 
ENDROOT
BRANCH   1   3
ATOM      3  C   UNL     1       4.819   2.866  -4.542  1.00  0.00    -0.028 C 
ATOM      4  C   UNL     1       4.242   2.330  -3.455  1.00  0.00    -0.027 C 
BRANCH   4   5
ATOM      5  C   UNL     1       4.539   0.911  -3.014  1.00  0.00     0.014 C 
BRANCH   5   6
ATOM      6  C   UNL     1       3.285   0.038  -3.259  1.00  0.00     0.004 C 
ATOM      7  C   UNL     1       1.995   0.849  -3.385  1.00  0.00     0.004 C 
ENDBRANCH   5   6
BRANCH   5   8
ATOM      8  C   UNL     1       5.837   0.365  -3.687  1.00  0.00    -0.011 C 
ATOM      9  C   UNL     1       7.094   0.535  -2.817  1.00  0.00     0.008 C 
ATOM     10  C   UNL     1       5.678  -1.108  -4.101  1.00  0.00     0.008 C 
ENDBRANCH   5   8
ENDBRANCH   4   5
ENDBRANCH   1   3
BRANCH   1  11
ATOM     11  C   UNL     1       3.025   4.745  -4.628  1.00  0.00     0.002 C 
ATOM     12  C   UNL     1       2.948   6.295  -4.505  1.00  0.00     0.005 C 
ATOM     13  C   UNL     1       1.770   4.336  -5.485  1.00  0.00    -0.023 C 
ATOM     14  C   UNL     1       1.672   6.746  -5.225  1.00  0.00     0.009 C 
ATOM     15  C   UNL     1       1.439   5.633  -6.232  1.00  0.00     0.021 C 
ATOM     16  C   UNL     1       1.917   3.209  -6.548  1.00  0.00     0.008 C 
ATOM     17  C   UNL     1       0.633   3.938  -4.489  1.00  0.00     0.012 C 
ATOM     18  C   UNL     1       0.144   5.500  -7.001  1.00  0.00    -0.067 C 
ATOM     19  C   UNL     1       0.648   3.071  -7.437  1.00  0.00     0.009 C 
ATOM     20  C   UNL     1       0.188   4.416  -8.079  1.00  0.00     0.021 C 
ATOM     21  C   UNL     1      -0.978   6.161  -6.654  1.00  0.00    -0.027 C 
ATOM     22  C   UNL     1      -1.101   4.388  -9.006  1.00  0.00    -0.023 C 
ATOM     23  C   UNL     1      -2.263   6.061  -7.421  1.00  0.00     0.031 C 
ATOM     24  C   UNL     1      -2.406   4.755  -8.224  1.00  0.00     0.002 C 
ATOM     25  C   UNL     1      -1.309   3.035  -9.770  1.00  0.00     0.010 C 
ATOM     26  C   UNL     1      -0.887   5.469 -10.108  1.00  0.00     0.012 C 
ATOM     27  C   UNL     1      -2.921   3.605  -7.340  1.00  0.00     0.036 C 
ATOM     28  C   UNL     1      -1.966   1.897  -8.963  1.00  0.00     0.032 C 
ATOM     29  C   UNL     1      -3.211   2.361  -8.195  1.00  0.00     0.114 C 
BRANCH  29  30
ATOM     30  O   UNL     1      -3.719   1.321  -7.398  1.00  0.00    -0.393 OA
ATOM     31  H   UNL     1      -3.092   0.554  -7.467  1.00  0.00     0.210 HD
ENDBRANCH  29  30
ENDBRANCH   1  11
TORSDOF 6
ENDMDL
MODEL 2
REMARK VINA RESULT:    -4.775      3.593      9.568
REMARK INTER + INTRA:          -7.830
REMARK INTER:                  -6.287
REMARK INTRA:                  -1.543
REMARK UNBOUND:                -1.520
REMARK SMILES CC[C@H](C=C[C@H](C)[C@H]1CC[C@@H]2C3=CC[C@@H]4C[C@H](O)CC[C@]4(C)[C@@H]3CC[C@]21C)C(C)C
REMARK SMILES IDX 6 1 7 2 5 3 4 4 3 5 2 6 1 7 28 8 29 9 30 10 8 11 9 12 26 13
REMARK SMILES IDX 10 14 11 15 25 16 27 17 12 18 24 19 23 20 13 21 21 22 14 23
REMARK SMILES IDX 15 24 20 25 22 26 16 27 19 28 17 29 18 30
REMARK H PARENT 18 31
REMARK Flexibility Score: inf
ROOT
ATOM      1  C   UNL     1       5.506   3.070  -3.881  1.00  0.00     0.012 C 
ATOM      2  C   UNL     1       6.495   4.041  -4.553  1.00  0.00     0.012 C 
ENDROOT
BRANCH   1   3
ATOM      3  C   UNL     1       4.073   3.507  -4.105  1.00  0.00    -0.028 C 
ATOM      4  C   UNL     1       3.212   2.757  -4.810  1.00  0.00    -0.027 C 
BRANCH   4   5
ATOM      5  C   UNL     1       1.758   3.151  -4.969  1.00  0.00     0.014 C 
BRANCH   5   6
ATOM      6  C   UNL     1       1.371   3.046  -6.463  1.00  0.00     0.004 C 
ATOM      7  C   UNL     1       2.345   3.767  -7.396  1.00  0.00     0.004 C 
ENDBRANCH   5   6
BRANCH   5   8
ATOM      8  C   UNL     1       0.838   2.331  -4.012  1.00  0.00    -0.011 C 
ATOM      9  C   UNL     1      -0.549   2.029  -4.606  1.00  0.00     0.008 C 
ATOM     10  C   UNL     1       1.515   1.024  -3.565  1.00  0.00     0.008 C 
ENDBRANCH   5   8
ENDBRANCH   4   5
ENDBRANCH   1   3
BRANCH   1  11
ATOM     11  C   UNL     1       5.802   1.570  -4.227  1.00  0.00     0.002 C 
ATOM     12  C   UNL     1       7.244   1.371  -4.778  1.00  0.00     0.005 C 
ATOM     13  C   UNL     1       5.615   0.443  -3.145  1.00  0.00    -0.023 C 
ATOM     14  C   UNL     1       7.837   0.148  -4.070  1.00  0.00     0.009 C 
ATOM     15  C   UNL     1       7.060   0.100  -2.767  1.00  0.00     0.021 C 
ATOM     16  C   UNL     1       4.854   0.780  -1.829  1.00  0.00     0.008 C 
ATOM     17  C   UNL     1       4.899  -0.759  -3.842  1.00  0.00     0.012 C 
ATOM     18  C   UNL     1       7.108  -1.096  -1.842  1.00  0.00    -0.067 C 
ATOM     19  C   UNL     1       4.934  -0.378  -0.792  1.00  0.00     0.009 C 
ATOM     20  C   UNL     1       6.390  -0.864  -0.512  1.00  0.00     0.021 C 
ATOM     21  C   UNL     1       7.596  -2.292  -2.227  1.00  0.00    -0.027 C 
ATOM     22  C   UNL     1       6.585  -2.045   0.531  1.00  0.00    -0.023 C 
ATOM     23  C   UNL     1       7.675  -3.481  -1.316  1.00  0.00     0.031 C 
ATOM     24  C   UNL     1       6.657  -3.446  -0.161  1.00  0.00     0.002 C 
ATOM     25  C   UNL     1       5.508  -2.076   1.670  1.00  0.00     0.010 C 
ATOM     26  C   UNL     1       7.948  -1.796   1.243  1.00  0.00     0.012 C 
ATOM     27  C   UNL     1       5.280  -3.967  -0.610  1.00  0.00     0.036 C 
ATOM     28  C   UNL     1       4.159  -2.730   1.308  1.00  0.00     0.032 C 
ATOM     29  C   UNL     1       4.330  -4.078   0.593  1.00  0.00     0.114 C 
BRANCH  29  30
ATOM     30  O   UNL     1       3.084  -4.590   0.195  1.00  0.00    -0.393 OA
ATOM     31  H   UNL     1       2.400  -4.247   0.828  1.00  0.00     0.210 HD
ENDBRANCH  29  30
ENDBRANCH   1  11
TORSDOF 6
ENDMDL
MODEL 3
REMARK VINA RESULT:    -4.546      3.659      5.402
REMARK INTER + INTRA:          -7.528
REMARK INTER:                  -6.433
REMARK INTRA:                  -1.094
REMARK UNBOUND:                -1.520
REMARK SMILES CC[C@H](C=C[C@H](C)[C@H]1CC[C@@H]2C3=CC[C@@H]4C[C@H](O)CC[C@]4(C)[C@@H]3CC[C@]21C)C(C)C
REMARK SMILES IDX 6 1 7 2 5 3 4 4 3 5 2 6 1 7 28 8 29 9 30 10 8 11 9 12 26 13
REMARK SMILES IDX 10 14 11 15 25 16 27 17 12 18 24 19 23 20 13 21 21 22 14 23
REMARK SMILES IDX 15 24 20 25 22 26 16 27 19 28 17 29 18 30
REMARK H PARENT 18 31
REMARK Flexibility Score: inf
ROOT
ATOM      1  C   UNL     1      -0.177   3.027  -5.931  1.00  0.00     0.012 C 
ATOM      2  C   UNL     1       0.155   2.492  -7.338  1.00  0.00     0.012 C 
ENDROOT
BRANCH   1   3
ATOM      3  C   UNL     1       0.747   2.431  -4.888  1.00  0.00    -0.028 C 
ATOM      4  C   UNL     1       2.053   2.738  -4.850  1.00  0.00    -0.027 C 
BRANCH   4   5
ATOM      5  C   UNL     1       2.963   2.209  -3.762  1.00  0.00     0.014 C 
BRANCH   5   6
ATOM      6  C   UNL     1       2.558   0.752  -3.434  1.00  0.00     0.004 C 
ATOM      7  C   UNL     1       3.751  -0.161  -3.150  1.00  0.00     0.004 C 
ENDBRANCH   5   6
BRANCH   5   8
ATOM      8  C   UNL     1       4.467   2.382  -4.142  1.00  0.00    -0.011 C 
ATOM      9  C   UNL     1       4.680   3.069  -5.502  1.00  0.00     0.008 C 
ATOM     10  C   UNL     1       5.241   3.134  -3.045  1.00  0.00     0.008 C 
ENDBRANCH   5   8
ENDBRANCH   4   5
ENDBRANCH   1   3
BRANCH   1  11
ATOM     11  C   UNL     1      -0.301   4.588  -5.891  1.00  0.00     0.002 C 
ATOM     12  C   UNL     1      -0.190   5.220  -7.309  1.00  0.00     0.005 C 
ATOM     13  C   UNL     1      -1.550   5.278  -5.228  1.00  0.00    -0.023 C 
ATOM     14  C   UNL     1      -1.306   6.265  -7.430  1.00  0.00     0.009 C 
ATOM     15  C   UNL     1      -2.346   5.766  -6.444  1.00  0.00     0.021 C 
ATOM     16  C   UNL     1      -2.511   4.421  -4.353  1.00  0.00     0.008 C 
ATOM     17  C   UNL     1      -1.022   6.472  -4.368  1.00  0.00     0.012 C 
ATOM     18  C   UNL     1      -3.523   6.614  -6.016  1.00  0.00    -0.067 C 
ATOM     19  C   UNL     1      -3.791   5.206  -3.945  1.00  0.00     0.009 C 
ATOM     20  C   UNL     1      -4.534   5.858  -5.152  1.00  0.00     0.021 C 
ATOM     21  C   UNL     1      -3.582   7.941  -6.243  1.00  0.00    -0.027 C 
ATOM     22  C   UNL     1      -5.854   6.685  -4.845  1.00  0.00    -0.023 C 
ATOM     23  C   UNL     1      -4.753   8.793  -5.848  1.00  0.00     0.031 C 
ATOM     24  C   UNL     1      -5.574   8.216  -4.681  1.00  0.00     0.002 C 
ATOM     25  C   UNL     1      -6.663   6.162  -3.608  1.00  0.00     0.010 C 
ATOM     26  C   UNL     1      -6.794   6.503  -6.074  1.00  0.00     0.012 C 
ATOM     27  C   UNL     1      -4.945   8.569  -3.322  1.00  0.00     0.036 C 
ATOM     28  C   UNL     1      -6.155   6.619  -2.226  1.00  0.00     0.032 C 
ATOM     29  C   UNL     1      -5.865   8.126  -2.173  1.00  0.00     0.114 C 
BRANCH  29  30
ATOM     30  O   UNL     1      -5.313   8.482  -0.931  1.00  0.00    -0.393 OA
ATOM     31  H   UNL     1      -5.105   7.643  -0.442  1.00  0.00     0.210 HD
ENDBRANCH  29  30
ENDBRANCH   1  11
TORSDOF 6
ENDMDL
MODEL 4
REMARK VINA RESULT:    -4.510      3.708      9.866
REMARK INTER + INTRA:          -7.480
REMARK INTER:                  -6.430
REMARK INTRA:                  -1.049
REMARK UNBOUND:                -1.520
REMARK SMILES CC[C@H](C=C[C@H](C)[C@H]1CC[C@@H]2C3=CC[C@@H]4C[C@H](O)CC[C@]4(C)[C@@H]3CC[C@]21C)C(C)C
REMARK SMILES IDX 6 1 7 2 5 3 4 4 3 5 2 6 1 7 28 8 29 9 30 10 8 11 9 12 26 13
REMARK SMILES IDX 10 14 11 15 25 16 27 17 12 18 24 19 23 20 13 21 21 22 14 23
REMARK SMILES IDX 15 24 20 25 22 26 16 27 19 28 17 29 18 30
REMARK H PARENT 18 31
REMARK Flexibility Score: inf
ROOT
ATOM      1  C   UNL     1       4.449   2.623  -3.690  1.00  0.00     0.012 C 
ATOM      2  C   UNL     1       5.297   3.892  -3.476  1.00  0.00     0.012 C 
ENDROOT
BRANCH   1   3
ATOM      3  C   UNL     1       3.240   2.913  -4.555  1.00  0.00    -0.028 C 
ATOM      4  C   UNL     1       2.074   2.276  -4.368  1.00  0.00    -0.027 C 
BRANCH   4   5
ATOM      5  C   UNL     1       0.840   2.620  -5.176  1.00  0.00     0.014 C 
BRANCH   5   6
ATOM      6  C   UNL     1      -0.033   3.606  -4.365  1.00  0.00     0.004 C 
ATOM      7  C   UNL     1      -1.533   3.333  -4.489  1.00  0.00     0.004 C 
ENDBRANCH   5   6
BRANCH   5   8
ATOM      8  C   UNL     1       1.217   3.128  -6.603  1.00  0.00    -0.011 C 
ATOM      9  C   UNL     1       0.386   2.480  -7.723  1.00  0.00     0.008 C 
ATOM     10  C   UNL     1       1.123   4.661  -6.696  1.00  0.00     0.008 C 
ENDBRANCH   5   8
ENDBRANCH   4   5
ENDBRANCH   1   3
BRANCH   1  11
ATOM     11  C   UNL     1       5.307   1.392  -4.142  1.00  0.00     0.002 C 
ATOM     12  C   UNL     1       6.762   1.798  -4.517  1.00  0.00     0.005 C 
ATOM     13  C   UNL     1       5.458   0.131  -3.212  1.00  0.00    -0.023 C 
ATOM     14  C   UNL     1       7.702   0.779  -3.864  1.00  0.00     0.009 C 
ATOM     15  C   UNL     1       6.889   0.276  -2.684  1.00  0.00     0.021 C 
ATOM     16  C   UNL     1       4.518  -0.014  -1.979  1.00  0.00     0.008 C 
ATOM     17  C   UNL     1       5.300  -1.136  -4.113  1.00  0.00     0.012 C 
ATOM     18  C   UNL     1       7.297  -0.942  -1.885  1.00  0.00    -0.067 C 
ATOM     19  C   UNL     1       4.931  -1.201  -1.062  1.00  0.00     0.009 C 
ATOM     20  C   UNL     1       6.434  -1.170  -0.644  1.00  0.00     0.021 C 
ATOM     21  C   UNL     1       8.223  -1.819  -2.321  1.00  0.00    -0.027 C 
ATOM     22  C   UNL     1       6.962  -2.339   0.293  1.00  0.00    -0.023 C 
ATOM     23  C   UNL     1       8.659  -3.017  -1.530  1.00  0.00     0.031 C 
ATOM     24  C   UNL     1       7.605  -3.511  -0.521  1.00  0.00     0.002 C 
ATOM     25  C   UNL     1       5.879  -2.911   1.272  1.00  0.00     0.010 C 
ATOM     26  C   UNL     1       8.071  -1.724   1.198  1.00  0.00     0.012 C 
ATOM     27  C   UNL     1       6.562  -4.418  -1.195  1.00  0.00     0.036 C 
ATOM     28  C   UNL     1       4.904  -3.944   0.673  1.00  0.00     0.032 C 
ATOM     29  C   UNL     1       5.621  -5.028  -0.144  1.00  0.00     0.114 C 
BRANCH  29  30
ATOM     30  O   UNL     1       4.691  -5.889  -0.751  1.00  0.00    -0.393 OA
ATOM     31  H   UNL     1       4.418  -6.563  -0.075  1.00  0.00     0.210 HD
ENDBRANCH  29  30
ENDBRANCH   1  11
TORSDOF 6
ENDMDL
MODEL 5
REMARK VINA RESULT:    -4.369      4.689      8.376
REMARK INTER + INTRA:          -7.294
REMARK INTER:                  -6.026
REMARK INTRA:                  -1.267
REMARK UNBOUND:                -1.520
REMARK SMILES CC[C@H](C=C[C@H](C)[C@H]1CC[C@@H]2C3=CC[C@@H]4C[C@H](O)CC[C@]4(C)[C@@H]3CC[C@]21C)C(C)C
REMARK SMILES IDX 6 1 7 2 5 3 4 4 3 5 2 6 1 7 28 8 29 9 30 10 8 11 9 12 26 13
REMARK SMILES IDX 10 14 11 15 25 16 27 17 12 18 24 19 23 20 13 21 21 22 14 23
REMARK SMILES IDX 15 24 20 25 22 26 16 27 19 28 17 29 18 30
REMARK H PARENT 18 31
REMARK Flexibility Score: inf
ROOT
ATOM      1  C   UNL     1      -4.461   7.577  -4.467  1.00  0.00     0.012 C 
ATOM      2  C   UNL     1      -5.355   8.309  -5.487  1.00  0.00     0.012 C 
ENDROOT
BRANCH   1   3
ATOM      3  C   UNL     1      -4.922   7.841  -3.048  1.00  0.00    -0.028 C 
ATOM      4  C   UNL     1      -4.863   6.890  -2.102  1.00  0.00    -0.027 C 
BRANCH   4   5
ATOM      5  C   UNL     1      -5.248   7.172  -0.665  1.00  0.00     0.014 C 
BRANCH   5   6
ATOM      6  C   UNL     1      -5.033   8.676  -0.374  1.00  0.00     0.004 C 
ATOM      7  C   UNL     1      -4.289   8.942   0.935  1.00  0.00     0.004 C 
ENDBRANCH   5   6
BRANCH   5   8
ATOM      8  C   UNL     1      -6.688   6.661  -0.349  1.00  0.00    -0.011 C 
ATOM      9  C   UNL     1      -6.760   5.767   0.901  1.00  0.00     0.008 C 
ATOM     10  C   UNL     1      -7.683   7.827  -0.221  1.00  0.00     0.008 C 
ENDBRANCH   5   8
ENDBRANCH   4   5
ENDBRANCH   1   3
BRANCH   1  11
ATOM     11  C   UNL     1      -4.248   6.066  -4.824  1.00  0.00     0.002 C 
ATOM     12  C   UNL     1      -4.956   5.674  -6.153  1.00  0.00     0.005 C 
ATOM     13  C   UNL     1      -2.799   5.463  -4.934  1.00  0.00    -0.023 C 
ATOM     14  C   UNL     1      -3.963   4.838  -6.968  1.00  0.00     0.009 C 
ATOM     15  C   UNL     1      -2.616   5.309  -6.448  1.00  0.00     0.021 C 
ATOM     16  C   UNL     1      -1.594   6.290  -4.399  1.00  0.00     0.008 C 
ATOM     17  C   UNL     1      -2.814   4.077  -4.211  1.00  0.00     0.012 C 
ATOM     18  C   UNL     1      -1.329   4.581  -6.767  1.00  0.00    -0.067 C 
ATOM     19  C   UNL     1      -0.228   5.642  -4.766  1.00  0.00     0.009 C 
ATOM     20  C   UNL     1      -0.080   5.319  -6.285  1.00  0.00     0.021 C 
ATOM     21  C   UNL     1      -1.308   3.334  -7.278  1.00  0.00    -0.027 C 
ATOM     22  C   UNL     1       1.278   4.653  -6.768  1.00  0.00    -0.023 C 
ATOM     23  C   UNL     1      -0.043   2.608  -7.625  1.00  0.00     0.031 C 
ATOM     24  C   UNL     1       1.187   3.092  -6.834  1.00  0.00     0.002 C 
ATOM     25  C   UNL     1       2.531   5.071  -5.923  1.00  0.00     0.010 C 
ATOM     26  C   UNL     1       1.547   5.175  -8.212  1.00  0.00     0.012 C 
ATOM     27  C   UNL     1       1.263   2.426  -5.449  1.00  0.00     0.036 C 
ATOM     28  C   UNL     1       2.731   4.318  -4.593  1.00  0.00     0.032 C 
ATOM     29  C   UNL     1       2.579   2.797  -4.747  1.00  0.00     0.114 C 
BRANCH  29  30
ATOM     30  O   UNL     1       2.671   2.161  -3.498  1.00  0.00    -0.393 OA
ATOM     31  H   UNL     1       3.073   2.805  -2.859  1.00  0.00     0.210 HD
ENDBRANCH  29  30
ENDBRANCH   1  11
TORSDOF 6
ENDMDL
MODEL 6
REMARK VINA RESULT:    -4.355      4.553     10.609
REMARK INTER + INTRA:          -7.275
REMARK INTER:                  -5.905
REMARK INTRA:                  -1.370
REMARK UNBOUND:                -1.520
REMARK SMILES CC[C@H](C=C[C@H](C)[C@H]1CC[C@@H]2C3=CC[C@@H]4C[C@H](O)CC[C@]4(C)[C@@H]3CC[C@]21C)C(C)C
REMARK SMILES IDX 6 1 7 2 5 3 4 4 3 5 2 6 1 7 28 8 29 9 30 10 8 11 9 12 26 13
REMARK SMILES IDX 10 14 11 15 25 16 27 17 12 18 24 19 23 20 13 21 21 22 14 23
REMARK SMILES IDX 15 24 20 25 22 26 16 27 19 28 17 29 18 30
REMARK H PARENT 18 31
REMARK Flexibility Score: inf
ROOT
ATOM      1  C   UNL     1       6.262   1.584  -1.326  1.00  0.00     0.012 C 
ATOM      2  C   UNL     1       7.411   2.475  -0.814  1.00  0.00     0.012 C 
ENDROOT
BRANCH   1   3
ATOM      3  C   UNL     1       5.234   2.399  -2.084  1.00  0.00    -0.028 C 
ATOM      4  C   UNL     1       4.755   1.996  -3.271  1.00  0.00    -0.027 C 
BRANCH   4   5
ATOM      5  C   UNL     1       3.670   2.766  -3.994  1.00  0.00     0.014 C 
BRANCH   5   6
ATOM      6  C   UNL     1       4.274   3.413  -5.263  1.00  0.00     0.004 C 
ATOM      7  C   UNL     1       5.686   2.919  -5.583  1.00  0.00     0.004 C 
ENDBRANCH   5   6
BRANCH   5   8
ATOM      8  C   UNL     1       2.421   1.870  -4.268  1.00  0.00    -0.011 C 
ATOM      9  C   UNL     1       2.274   0.704  -3.275  1.00  0.00     0.008 C 
ATOM     10  C   UNL     1       1.128   2.703  -4.297  1.00  0.00     0.008 C 
ENDBRANCH   5   8
ENDBRANCH   4   5
ENDBRANCH   1   3
BRANCH   1  11
ATOM     11  C   UNL     1       6.775   0.306  -2.073  1.00  0.00     0.002 C 
ATOM     12  C   UNL     1       8.328   0.198  -2.049  1.00  0.00     0.005 C 
ATOM     13  C   UNL     1       6.256  -1.124  -1.670  1.00  0.00    -0.023 C 
ATOM     14  C   UNL     1       8.678  -1.251  -1.692  1.00  0.00     0.009 C 
ATOM     15  C   UNL     1       7.455  -1.716  -0.921  1.00  0.00     0.021 C 
ATOM     16  C   UNL     1       5.016  -1.241  -0.736  1.00  0.00     0.008 C 
ATOM     17  C   UNL     1       5.960  -1.903  -2.993  1.00  0.00     0.012 C 
ATOM     18  C   UNL     1       7.219  -3.171  -0.584  1.00  0.00    -0.067 C 
ATOM     19  C   UNL     1       4.762  -2.706  -0.279  1.00  0.00     0.009 C 
ATOM     20  C   UNL     1       6.020  -3.394   0.339  1.00  0.00     0.021 C 
ATOM     21  C   UNL     1       7.901  -4.172  -1.174  1.00  0.00    -0.027 C 
ATOM     22  C   UNL     1       5.870  -4.894   0.837  1.00  0.00    -0.023 C 
ATOM     23  C   UNL     1       7.699  -5.619  -0.834  1.00  0.00     0.031 C 
ATOM     24  C   UNL     1       6.308  -5.930  -0.250  1.00  0.00     0.002 C 
ATOM     25  C   UNL     1       4.436  -5.253   1.360  1.00  0.00     0.010 C 
ATOM     26  C   UNL     1       6.821  -5.058   2.061  1.00  0.00     0.012 C 
ATOM     27  C   UNL     1       5.260  -6.114  -1.362  1.00  0.00     0.036 C 
ATOM     28  C   UNL     1       3.389  -5.595   0.280  1.00  0.00     0.032 C 
ATOM     29  C   UNL     1       3.923  -6.583  -0.767  1.00  0.00     0.114 C 
BRANCH  29  30
ATOM     30  O   UNL     1       2.974  -6.790  -1.782  1.00  0.00    -0.393 OA
ATOM     31  H   UNL     1       2.197  -7.259  -1.379  1.00  0.00     0.210 HD
ENDBRANCH  29  30
ENDBRANCH   1  11
TORSDOF 6
ENDMDL
MODEL 7
REMARK VINA RESULT:    -4.349      5.441      8.641
REMARK INTER + INTRA:          -7.268
REMARK INTER:                  -5.965
REMARK INTRA:                  -1.303
REMARK UNBOUND:                -1.520
REMARK SMILES CC[C@H](C=C[C@H](C)[C@H]1CC[C@@H]2C3=CC[C@@H]4C[C@H](O)CC[C@]4(C)[C@@H]3CC[C@]21C)C(C)C
REMARK SMILES IDX 6 1 7 2 5 3 4 4 3 5 2 6 1 7 28 8 29 9 30 10 8 11 9 12 26 13
REMARK SMILES IDX 10 14 11 15 25 16 27 17 12 18 24 19 23 20 13 21 21 22 14 23
REMARK SMILES IDX 15 24 20 25 22 26 16 27 19 28 17 29 18 30
REMARK H PARENT 18 31
REMARK Flexibility Score: inf
ROOT
ATOM      1  C   UNL     1      -4.486   8.237  -1.220  1.00  0.00     0.012 C 
ATOM      2  C   UNL     1      -3.871   9.228  -0.214  1.00  0.00     0.012 C 
ENDROOT
BRANCH   1   3
ATOM      3  C   UNL     1      -5.979   8.093  -1.003  1.00  0.00    -0.028 C 
ATOM      4  C   UNL     1      -6.586   6.898  -1.068  1.00  0.00    -0.027 C 
BRANCH   4   5
ATOM      5  C   UNL     1      -8.063   6.739  -0.773  1.00  0.00     0.014 C 
BRANCH   5   6
ATOM      6  C   UNL     1      -8.763   6.152  -2.022  1.00  0.00     0.004 C 
ATOM      7  C   UNL     1      -7.790   5.732  -3.123  1.00  0.00     0.004 C 
ENDBRANCH   5   6
BRANCH   5   8
ATOM      8  C   UNL     1      -8.298   5.919   0.534  1.00  0.00    -0.011 C 
ATOM      9  C   UNL     1      -9.118   4.637   0.314  1.00  0.00     0.008 C 
ATOM     10  C   UNL     1      -6.968   5.580   1.231  1.00  0.00     0.008 C 
ENDBRANCH   5   8
ENDBRANCH   4   5
ENDBRANCH   1   3
BRANCH   1  11
ATOM     11  C   UNL     1      -4.057   8.530  -2.698  1.00  0.00     0.002 C 
ATOM     12  C   UNL     1      -2.840   9.497  -2.773  1.00  0.00     0.005 C 
ATOM     13  C   UNL     1      -3.710   7.353  -3.684  1.00  0.00    -0.023 C 
ATOM     14  C   UNL     1      -1.859   8.916  -3.797  1.00  0.00     0.009 C 
ATOM     15  C   UNL     1      -2.182   7.433  -3.773  1.00  0.00     0.021 C 
ATOM     16  C   UNL     1      -4.080   5.896  -3.279  1.00  0.00     0.008 C 
ATOM     17  C   UNL     1      -4.386   7.678  -5.055  1.00  0.00     0.012 C 
ATOM     18  C   UNL     1      -1.650   6.475  -4.816  1.00  0.00    -0.067 C 
ATOM     19  C   UNL     1      -3.491   4.846  -4.264  1.00  0.00     0.009 C 
ATOM     20  C   UNL     1      -1.958   5.009  -4.506  1.00  0.00     0.021 C 
ATOM     21  C   UNL     1      -1.106   6.893  -5.975  1.00  0.00    -0.027 C 
ATOM     22  C   UNL     1      -1.255   3.988  -5.498  1.00  0.00    -0.023 C 
ATOM     23  C   UNL     1      -0.550   5.958  -7.009  1.00  0.00     0.031 C 
ATOM     24  C   UNL     1      -1.159   4.545  -6.957  1.00  0.00     0.002 C 
ATOM     25  C   UNL     1      -1.912   2.564  -5.521  1.00  0.00     0.010 C 
ATOM     26  C   UNL     1       0.197   3.777  -4.972  1.00  0.00     0.012 C 
ATOM     27  C   UNL     1      -2.496   4.480  -7.715  1.00  0.00     0.036 C 
ATOM     28  C   UNL     1      -3.174   2.416  -6.394  1.00  0.00     0.032 C 
ATOM     29  C   UNL     1      -3.001   3.030  -7.791  1.00  0.00     0.114 C 
BRANCH  29  30
ATOM     30  O   UNL     1      -4.202   2.961  -8.516  1.00  0.00    -0.393 OA
ATOM     31  H   UNL     1      -4.021   2.455  -9.351  1.00  0.00     0.210 HD
ENDBRANCH  29  30
ENDBRANCH   1  11
TORSDOF 6
ENDMDL
MODEL 8
REMARK VINA RESULT:    -4.327      2.100      3.197
REMARK INTER + INTRA:          -7.238
REMARK INTER:                  -6.198
REMARK INTRA:                  -1.040
REMARK UNBOUND:                -1.520
REMARK SMILES CC[C@H](C=C[C@H](C)[C@H]1CC[C@@H]2C3=CC[C@@H]4C[C@H](O)CC[C@]4(C)[C@@H]3CC[C@]21C)C(C)C
REMARK SMILES IDX 6 1 7 2 5 3 4 4 3 5 2 6 1 7 28 8 29 9 30 10 8 11 9 12 26 13
REMARK SMILES IDX 10 14 11 15 25 16 27 17 12 18 24 19 23 20 13 21 21 22 14 23
REMARK SMILES IDX 15 24 20 25 22 26 16 27 19 28 17 29 18 30
REMARK H PARENT 18 31
REMARK Flexibility Score: inf
ROOT
ATOM      1  C   UNL     1       4.600   1.749  -4.111  1.00  0.00     0.012 C 
ATOM      2  C   UNL     1       6.057   1.397  -4.470  1.00  0.00     0.012 C 
ENDROOT
BRANCH   1   3
ATOM      3  C   UNL     1       4.339   1.555  -2.631  1.00  0.00    -0.028 C 
ATOM      4  C   UNL     1       5.052   0.682  -1.902  1.00  0.00    -0.027 C 
BRANCH   4   5
ATOM      5  C   UNL     1       4.850   0.541  -0.408  1.00  0.00     0.014 C 
BRANCH   5   6
ATOM      6  C   UNL     1       4.890  -0.960  -0.035  1.00  0.00     0.004 C 
ATOM      7  C   UNL     1       5.578  -1.829  -1.088  1.00  0.00     0.004 C 
ENDBRANCH   5   6
BRANCH   5   8
ATOM      8  C   UNL     1       5.861   1.423   0.390  1.00  0.00    -0.011 C 
ATOM      9  C   UNL     1       7.192   1.646  -0.347  1.00  0.00     0.008 C 
ATOM     10  C   UNL     1       5.241   2.777   0.778  1.00  0.00     0.008 C 
ENDBRANCH   5   8
ENDBRANCH   4   5
ENDBRANCH   1   3
BRANCH   1  11
ATOM     11  C   UNL     1       4.155   3.138  -4.685  1.00  0.00     0.002 C 
ATOM     12  C   UNL     1       4.960   3.530  -5.958  1.00  0.00     0.005 C 
ATOM     13  C   UNL     1       2.648   3.412  -5.049  1.00  0.00    -0.023 C 
ATOM     14  C   UNL     1       3.954   4.052  -6.990  1.00  0.00     0.009 C 
ATOM     15  C   UNL     1       2.662   3.367  -6.581  1.00  0.00     0.021 C 
ATOM     16  C   UNL     1       1.560   2.411  -4.561  1.00  0.00     0.008 C 
ATOM     17  C   UNL     1       2.291   4.837  -4.516  1.00  0.00     0.012 C 
ATOM     18  C   UNL     1       1.319   3.775  -7.146  1.00  0.00    -0.067 C 
ATOM     19  C   UNL     1       0.163   2.719  -5.173  1.00  0.00     0.009 C 
ATOM     20  C   UNL     1       0.178   2.846  -6.728  1.00  0.00     0.021 C 
ATOM     21  C   UNL     1       1.133   4.930  -7.814  1.00  0.00    -0.027 C 
ATOM     22  C   UNL     1      -1.198   3.162  -7.455  1.00  0.00    -0.023 C 
ATOM     23  C   UNL     1      -0.184   5.338  -8.403  1.00  0.00     0.031 C 
ATOM     24  C   UNL     1      -1.399   4.692  -7.712  1.00  0.00     0.002 C 
ATOM     25  C   UNL     1      -2.456   2.582  -6.721  1.00  0.00     0.010 C 
ATOM     26  C   UNL     1      -1.148   2.450  -8.840  1.00  0.00     0.012 C 
ATOM     27  C   UNL     1      -1.803   5.466  -6.445  1.00  0.00     0.036 C 
ATOM     28  C   UNL     1      -2.989   3.410  -5.535  1.00  0.00     0.032 C 
ATOM     29  C   UNL     1      -3.111   4.904  -5.866  1.00  0.00     0.114 C 
BRANCH  29  30
ATOM     30  O   UNL     1      -3.504   5.633  -4.732  1.00  0.00    -0.393 OA
ATOM     31  H   UNL     1      -4.252   5.142  -4.301  1.00  0.00     0.210 HD
ENDBRANCH  29  30
ENDBRANCH   1  11
TORSDOF 6
ENDMDL
MODEL 9
REMARK VINA RESULT:    -4.320      5.836     11.391
REMARK INTER + INTRA:          -7.229
REMARK INTER:                  -5.762
REMARK INTRA:                  -1.466
REMARK UNBOUND:                -1.520
REMARK SMILES CC[C@H](C=C[C@H](C)[C@H]1CC[C@@H]2C3=CC[C@@H]4C[C@H](O)CC[C@]4(C)[C@@H]3CC[C@]21C)C(C)C
REMARK SMILES IDX 6 1 7 2 5 3 4 4 3 5 2 6 1 7 28 8 29 9 30 10 8 11 9 12 26 13
REMARK SMILES IDX 10 14 11 15 25 16 27 17 12 18 24 19 23 20 13 21 21 22 14 23
REMARK SMILES IDX 15 24 20 25 22 26 16 27 19 28 17 29 18 30
REMARK H PARENT 18 31
REMARK Flexibility Score: inf
ROOT
ATOM      1  C   UNL     1       6.317  -0.264   1.108  1.00  0.00     0.012 C 
ATOM      2  C   UNL     1       7.395   0.367   2.011  1.00  0.00     0.012 C 
ENDROOT
BRANCH   1   3
ATOM      3  C   UNL     1       5.691   0.773   0.198  1.00  0.00    -0.028 C 
ATOM      4  C   UNL     1       5.428   0.509  -1.091  1.00  0.00    -0.027 C 
BRANCH   4   5
ATOM      5  C   UNL     1       4.729   1.513  -1.983  1.00  0.00     0.014 C 
BRANCH   5   6
ATOM      6  C   UNL     1       5.670   2.720  -2.213  1.00  0.00     0.004 C 
ATOM      7  C   UNL     1       6.982   2.344  -2.902  1.00  0.00     0.004 C 
ENDBRANCH   5   6
BRANCH   5   8
ATOM      8  C   UNL     1       4.213   0.847  -3.298  1.00  0.00    -0.011 C 
ATOM      9  C   UNL     1       4.735  -0.585  -3.504  1.00  0.00     0.008 C 
ATOM     10  C   UNL     1       2.677   0.864  -3.370  1.00  0.00     0.008 C 
ENDBRANCH   5   8
ENDBRANCH   4   5
ENDBRANCH   1   3
BRANCH   1  11
ATOM     11  C   UNL     1       6.816  -1.562   0.387  1.00  0.00     0.002 C 
ATOM     12  C   UNL     1       8.092  -2.150   1.058  1.00  0.00     0.005 C 
ATOM     13  C   UNL     1       5.854  -2.790   0.183  1.00  0.00    -0.023 C 
ATOM     14  C   UNL     1       7.881  -3.663   1.188  1.00  0.00     0.009 C 
ATOM     15  C   UNL     1       6.369  -3.794   1.221  1.00  0.00     0.021 C 
ATOM     16  C   UNL     1       4.328  -2.603   0.431  1.00  0.00     0.008 C 
ATOM     17  C   UNL     1       6.062  -3.311  -1.276  1.00  0.00     0.012 C 
ATOM     18  C   UNL     1       5.671  -5.128   1.077  1.00  0.00    -0.067 C 
ATOM     19  C   UNL     1       3.555  -3.952   0.382  1.00  0.00     0.009 C 
ATOM     20  C   UNL     1       4.162  -5.051   1.308  1.00  0.00     0.021 C 
ATOM     21  C   UNL     1       6.302  -6.232   0.631  1.00  0.00    -0.027 C 
ATOM     22  C   UNL     1       3.449  -6.470   1.333  1.00  0.00    -0.023 C 
ATOM     23  C   UNL     1       5.633  -7.569   0.506  1.00  0.00     0.031 C 
ATOM     24  C   UNL     1       4.105  -7.484   0.338  1.00  0.00     0.002 C 
ATOM     25  C   UNL     1       1.902  -6.412   1.082  1.00  0.00     0.010 C 
ATOM     26  C   UNL     1       3.624  -7.036   2.774  1.00  0.00     0.012 C 
ATOM     27  C   UNL     1       3.713  -7.227  -1.128  1.00  0.00     0.036 C 
ATOM     28  C   UNL     1       1.460  -6.308  -0.392  1.00  0.00     0.032 C 
ATOM     29  C   UNL     1       2.188  -7.310  -1.299  1.00  0.00     0.114 C 
BRANCH  29  30
ATOM     30  O   UNL     1       1.829  -7.115  -2.643  1.00  0.00    -0.393 OA
ATOM     31  H   UNL     1       2.305  -7.797  -3.185  1.00  0.00     0.210 HD
ENDBRANCH  29  30
ENDBRANCH   1  11
TORSDOF 6
ENDMDL
