MODEL 1
REMARK VINA RESULT:    -6.268      0.000      0.000
REMARK INTER + INTRA:          -7.663
REMARK INTER:                  -7.367
REMARK INTRA:                  -0.296
REMARK UNBOUND:                -0.296
REMARK SMILES O=c1cc(-c2ccc(O)c(O)c2)oc2cc(O)cc(O)c12
REMARK SMILES IDX 4 1 3 2 2 3 1 4 21 5 19 6 18 7 16 8 15 9 14 10 13 11 5 12
REMARK SMILES IDX 6 13 7 14 8 15 12 16 10 17 9 18 11 20 20 22 17 24
REMARK H PARENT 9 19 11 21 20 23 17 25
REMARK Flexibility Score: inf
ROOT
ATOM      1  C   UNL     1      -3.013 -13.295  15.661  1.00  0.00     0.138 A 
ATOM      2  C   UNL     1      -3.271 -13.996  14.476  1.00  0.00     0.100 A 
ATOM      3  C   UNL     1      -2.325 -13.991  13.450  1.00  0.00     0.197 A 
ATOM      4  O   UNL     1      -2.557 -14.681  12.423  1.00  0.00    -0.289 OA
ATOM      5  C   UNL     1      -1.127 -13.251  13.601  1.00  0.00     0.107 A 
ATOM      6  C   UNL     1      -0.110 -13.140  12.607  1.00  0.00     0.134 A 
ATOM      7  C   UNL     1       1.084 -12.475  12.914  1.00  0.00     0.093 A 
ATOM      8  C   UNL     1       1.273 -11.869  14.158  1.00  0.00     0.123 A 
ATOM      9  C   UNL     1       0.263 -11.926  15.116  1.00  0.00     0.094 A 
ATOM     10  C   UNL     1      -0.926 -12.611  14.853  1.00  0.00     0.146 A 
ATOM     11  O   UNL     1      -1.857 -12.654  15.799  1.00  0.00    -0.456 OA
ENDROOT
BRANCH   1  12
ATOM     12  C   UNL     1      -3.985 -13.267  16.783  1.00  0.00     0.021 A 
ATOM     13  C   UNL     1      -3.735 -12.444  17.894  1.00  0.00     0.016 A 
ATOM     14  C   UNL     1      -4.637 -12.394  18.960  1.00  0.00     0.051 A 
ATOM     15  C   UNL     1      -5.808 -13.156  18.930  1.00  0.00     0.157 A 
ATOM     16  C   UNL     1      -5.173 -14.023  16.752  1.00  0.00     0.062 A 
ATOM     17  C   UNL     1      -6.081 -13.971  17.820  1.00  0.00     0.158 A 
BRANCH  15  18
ATOM     18  O   UNL     1      -6.690 -13.087  20.009  1.00  0.00    -0.504 OA
ATOM     19  H   UNL     1      -6.429 -13.394  20.938  1.00  0.00     0.293 HD
ENDBRANCH  15  18
BRANCH  17  20
ATOM     20  O   UNL     1      -7.253 -14.726  17.780  1.00  0.00    -0.504 OA
ATOM     21  H   UNL     1      -7.305 -15.601  17.271  1.00  0.00     0.293 HD
ENDBRANCH  17  20
ENDBRANCH   1  12
BRANCH   6  22
ATOM     22  O   UNL     1      -0.231 -13.636  11.306  1.00  0.00    -0.507 OA
ATOM     23  H   UNL     1      -1.078 -14.017  10.911  1.00  0.00     0.293 HD
ENDBRANCH   6  22
BRANCH   8  24
ATOM     24  O   UNL     1       2.458 -11.197  14.449  1.00  0.00    -0.508 OA
ATOM     25  H   UNL     1       2.835 -10.493  13.825  1.00  0.00     0.293 HD
ENDBRANCH   8  24
TORSDOF 5
ENDMDL
MODEL 2
REMARK VINA RESULT:    -6.114      1.308      2.010
REMARK INTER + INTRA:          -7.482
REMARK INTER:                  -7.179
REMARK INTRA:                  -0.303
REMARK UNBOUND:                -0.296
REMARK SMILES O=c1cc(-c2ccc(O)c(O)c2)oc2cc(O)cc(O)c12
REMARK SMILES IDX 4 1 3 2 2 3 1 4 21 5 19 6 18 7 16 8 15 9 14 10 13 11 5 12
REMARK SMILES IDX 6 13 7 14 8 15 12 16 10 17 9 18 11 20 20 22 17 24
REMARK H PARENT 9 19 11 21 20 23 17 25
REMARK Flexibility Score: inf
ROOT
ATOM      1  C   UNL     1      -3.804 -13.390  16.558  1.00  0.00     0.138 A 
ATOM      2  C   UNL     1      -3.904 -13.782  15.216  1.00  0.00     0.100 A 
ATOM      3  C   UNL     1      -2.833 -13.559  14.350  1.00  0.00     0.197 A 
ATOM      4  O   UNL     1      -2.928 -13.977  13.167  1.00  0.00    -0.289 OA
ATOM      5  C   UNL     1      -1.668 -12.909  14.824  1.00  0.00     0.107 A 
ATOM      6  C   UNL     1      -0.532 -12.591  14.023  1.00  0.00     0.134 A 
ATOM      7  C   UNL     1       0.611 -12.051  14.628  1.00  0.00     0.093 A 
ATOM      8  C   UNL     1       0.634 -11.764  15.995  1.00  0.00     0.123 A 
ATOM      9  C   UNL     1      -0.491 -12.020  16.776  1.00  0.00     0.094 A 
ATOM     10  C   UNL     1      -1.633 -12.590  16.208  1.00  0.00     0.146 A 
ATOM     11  O   UNL     1      -2.679 -12.833  16.991  1.00  0.00    -0.456 OA
ENDROOT
BRANCH   1  12
ATOM     12  C   UNL     1      -4.913 -13.604  17.522  1.00  0.00     0.021 A 
ATOM     13  C   UNL     1      -5.731 -14.740  17.395  1.00  0.00     0.016 A 
ATOM     14  C   UNL     1      -6.776 -14.968  18.292  1.00  0.00     0.051 A 
ATOM     15  C   UNL     1      -7.017 -14.074  19.338  1.00  0.00     0.157 A 
ATOM     16  C   UNL     1      -5.152 -12.712  18.586  1.00  0.00     0.062 A 
ATOM     17  C   UNL     1      -6.200 -12.942  19.489  1.00  0.00     0.158 A 
BRANCH  15  18
ATOM     18  O   UNL     1      -8.069 -14.327  20.219  1.00  0.00    -0.504 OA
ATOM     19  H   UNL     1      -8.377 -15.268  20.434  1.00  0.00     0.293 HD
ENDBRANCH  15  18
BRANCH  17  20
ATOM     20  O   UNL     1      -6.428 -12.051  20.538  1.00  0.00    -0.504 OA
ATOM     21  H   UNL     1      -6.297 -11.052  20.424  1.00  0.00     0.293 HD
ENDBRANCH  17  20
ENDBRANCH   1  12
BRANCH   6  22
ATOM     22  O   UNL     1      -0.481 -12.760  12.636  1.00  0.00    -0.507 OA
ATOM     23  H   UNL     1      -0.259 -13.626  12.169  1.00  0.00     0.293 HD
ENDBRANCH   6  22
BRANCH   8  24
ATOM     24  O   UNL     1       1.769 -11.213  16.586  1.00  0.00    -0.508 OA
ATOM     25  H   UNL     1       2.611 -11.759  16.728  1.00  0.00     0.293 HD
ENDBRANCH   8  24
TORSDOF 5
ENDMDL
MODEL 3
REMARK VINA RESULT:    -6.082     11.052     13.463
REMARK INTER + INTRA:          -7.444
REMARK INTER:                  -7.158
REMARK INTRA:                  -0.287
REMARK UNBOUND:                -0.296
REMARK SMILES O=c1cc(-c2ccc(O)c(O)c2)oc2cc(O)cc(O)c12
REMARK SMILES IDX 4 1 3 2 2 3 1 4 21 5 19 6 18 7 16 8 15 9 14 10 13 11 5 12
REMARK SMILES IDX 6 13 7 14 8 15 12 16 10 17 9 18 11 20 20 22 17 24
REMARK H PARENT 9 19 11 21 20 23 17 25
REMARK Flexibility Score: inf
ROOT
ATOM      1  C   UNL     1      -9.854  -4.957  18.978  1.00  0.00     0.138 A 
ATOM      2  C   UNL     1      -9.383  -5.732  20.045  1.00  0.00     0.100 A 
ATOM      3  C   UNL     1     -10.177  -6.761  20.555  1.00  0.00     0.197 A 
ATOM      4  O   UNL     1      -9.701  -7.480  21.472  1.00  0.00    -0.289 OA
ATOM      5  C   UNL     1     -11.464  -6.992  20.012  1.00  0.00     0.107 A 
ATOM      6  C   UNL     1     -12.376  -7.984  20.479  1.00  0.00     0.134 A 
ATOM      7  C   UNL     1     -13.576  -8.198  19.788  1.00  0.00     0.093 A 
ATOM      8  C   UNL     1     -13.921  -7.414  18.684  1.00  0.00     0.123 A 
ATOM      9  C   UNL     1     -13.060  -6.406  18.254  1.00  0.00     0.094 A 
ATOM     10  C   UNL     1     -11.841  -6.192  18.901  1.00  0.00     0.146 A 
ATOM     11  O   UNL     1     -11.043  -5.230  18.450  1.00  0.00    -0.456 OA
ENDROOT
BRANCH   1  12
ATOM     12  C   UNL     1      -9.052  -3.851  18.397  1.00  0.00     0.021 A 
ATOM     13  C   UNL     1      -9.706  -2.737  17.846  1.00  0.00     0.016 A 
ATOM     14  C   UNL     1      -8.974  -1.679  17.300  1.00  0.00     0.051 A 
ATOM     15  C   UNL     1      -7.577  -1.711  17.305  1.00  0.00     0.157 A 
ATOM     16  C   UNL     1      -7.643  -3.873  18.411  1.00  0.00     0.062 A 
ATOM     17  C   UNL     1      -6.907  -2.810  17.866  1.00  0.00     0.158 A 
BRANCH  15  18
ATOM     18  O   UNL     1      -6.872  -0.641  16.752  1.00  0.00    -0.504 OA
ATOM     19  H   UNL     1      -6.130  -0.777  16.077  1.00  0.00     0.293 HD
ENDBRANCH  15  18
BRANCH  17  20
ATOM     20  O   UNL     1      -5.513  -2.843  17.883  1.00  0.00    -0.504 OA
ATOM     21  H   UNL     1      -4.966  -2.039  18.169  1.00  0.00     0.293 HD
ENDBRANCH  17  20
ENDBRANCH   1  12
BRANCH   6  22
ATOM     22  O   UNL     1     -12.167  -8.763  21.620  1.00  0.00    -0.507 OA
ATOM     23  H   UNL     1     -12.598  -9.659  21.793  1.00  0.00     0.293 HD
ENDBRANCH   6  22
BRANCH   8  24
ATOM     24  O   UNL     1     -15.123  -7.623  18.012  1.00  0.00    -0.508 OA
ATOM     25  H   UNL     1     -16.012  -7.364  18.423  1.00  0.00     0.293 HD
ENDBRANCH   8  24
TORSDOF 5
ENDMDL
MODEL 4
REMARK VINA RESULT:    -6.054     10.304     11.665
REMARK INTER + INTRA:          -7.412
REMARK INTER:                  -7.127
REMARK INTRA:                  -0.284
REMARK UNBOUND:                -0.296
REMARK SMILES O=c1cc(-c2ccc(O)c(O)c2)oc2cc(O)cc(O)c12
REMARK SMILES IDX 4 1 3 2 2 3 1 4 21 5 19 6 18 7 16 8 15 9 14 10 13 11 5 12
REMARK SMILES IDX 6 13 7 14 8 15 12 16 10 17 9 18 11 20 20 22 17 24
REMARK H PARENT 9 19 11 21 20 23 17 25
REMARK Flexibility Score: inf
ROOT
ATOM      1  C   UNL     1      -9.886  -5.472  18.924  1.00  0.00     0.138 A 
ATOM      2  C   UNL     1      -8.727  -6.065  19.441  1.00  0.00     0.100 A 
ATOM      3  C   UNL     1      -7.491  -5.448  19.247  1.00  0.00     0.197 A 
ATOM      4  O   UNL     1      -6.475  -5.972  19.776  1.00  0.00    -0.289 OA
ATOM      5  C   UNL     1      -7.413  -4.246  18.503  1.00  0.00     0.107 A 
ATOM      6  C   UNL     1      -6.203  -3.551  18.207  1.00  0.00     0.134 A 
ATOM      7  C   UNL     1      -6.261  -2.309  17.562  1.00  0.00     0.093 A 
ATOM      8  C   UNL     1      -7.481  -1.767  17.151  1.00  0.00     0.123 A 
ATOM      9  C   UNL     1      -8.663  -2.465  17.387  1.00  0.00     0.094 A 
ATOM     10  C   UNL     1      -8.642  -3.689  18.059  1.00  0.00     0.146 A 
ATOM     11  O   UNL     1      -9.793  -4.315  18.277  1.00  0.00    -0.456 OA
ENDROOT
BRANCH   1  12
ATOM     12  C   UNL     1     -11.227  -6.085  19.101  1.00  0.00     0.021 A 
ATOM     13  C   UNL     1     -12.180  -5.975  18.073  1.00  0.00     0.016 A 
ATOM     14  C   UNL     1     -13.445  -6.549  18.212  1.00  0.00     0.051 A 
ATOM     15  C   UNL     1     -13.779  -7.252  19.372  1.00  0.00     0.157 A 
ATOM     16  C   UNL     1     -11.563  -6.806  20.263  1.00  0.00     0.062 A 
ATOM     17  C   UNL     1     -12.834  -7.386  20.401  1.00  0.00     0.158 A 
BRANCH  15  18
ATOM     18  O   UNL     1     -15.051  -7.815  19.482  1.00  0.00    -0.504 OA
ATOM     19  H   UNL     1     -15.881  -7.336  19.156  1.00  0.00     0.293 HD
ENDBRANCH  15  18
BRANCH  17  20
ATOM     20  O   UNL     1     -13.157  -8.096  21.558  1.00  0.00    -0.504 OA
ATOM     21  H   UNL     1     -14.116  -8.325  21.791  1.00  0.00     0.293 HD
ENDBRANCH  17  20
ENDBRANCH   1  12
BRANCH   6  22
ATOM     22  O   UNL     1      -4.927  -4.043  18.499  1.00  0.00    -0.507 OA
ATOM     23  H   UNL     1      -4.358  -4.581  17.864  1.00  0.00     0.293 HD
ENDBRANCH   6  22
BRANCH   8  24
ATOM     24  O   UNL     1      -7.528  -0.538  16.496  1.00  0.00    -0.508 OA
ATOM     25  H   UNL     1      -7.569  -0.477  15.485  1.00  0.00     0.293 HD
ENDBRANCH   8  24
TORSDOF 5
ENDMDL
MODEL 5
REMARK VINA RESULT:    -6.021     10.340     11.909
REMARK INTER + INTRA:          -7.373
REMARK INTER:                  -7.072
REMARK INTRA:                  -0.300
REMARK UNBOUND:                -0.296
REMARK SMILES O=c1cc(-c2ccc(O)c(O)c2)oc2cc(O)cc(O)c12
REMARK SMILES IDX 4 1 3 2 2 3 1 4 21 5 19 6 18 7 16 8 15 9 14 10 13 11 5 12
REMARK SMILES IDX 6 13 7 14 8 15 12 16 10 17 9 18 11 20 20 22 17 24
REMARK H PARENT 9 19 11 21 20 23 17 25
REMARK Flexibility Score: inf
ROOT
ATOM      1  C   UNL     1     -10.220  -4.469  18.324  1.00  0.00     0.138 A 
ATOM      2  C   UNL     1     -10.564  -3.212  17.808  1.00  0.00     0.100 A 
ATOM      3  C   UNL     1      -9.558  -2.308  17.465  1.00  0.00     0.197 A 
ATOM      4  O   UNL     1      -9.895  -1.212  16.945  1.00  0.00    -0.289 OA
ATOM      5  C   UNL     1      -8.200  -2.654  17.671  1.00  0.00     0.107 A 
ATOM      6  C   UNL     1      -7.093  -1.798  17.396  1.00  0.00     0.134 A 
ATOM      7  C   UNL     1      -5.789  -2.292  17.530  1.00  0.00     0.093 A 
ATOM      8  C   UNL     1      -5.554  -3.592  17.985  1.00  0.00     0.123 A 
ATOM      9  C   UNL     1      -6.629  -4.418  18.308  1.00  0.00     0.094 A 
ATOM     10  C   UNL     1      -7.941  -3.966  18.152  1.00  0.00     0.146 A 
ATOM     11  O   UNL     1      -8.938  -4.790  18.456  1.00  0.00    -0.456 OA
ENDROOT
BRANCH   1  12
ATOM     12  C   UNL     1     -11.251  -5.468  18.706  1.00  0.00     0.021 A 
ATOM     13  C   UNL     1     -12.419  -5.585  17.935  1.00  0.00     0.016 A 
ATOM     14  C   UNL     1     -13.400  -6.522  18.268  1.00  0.00     0.051 A 
ATOM     15  C   UNL     1     -13.228  -7.364  19.371  1.00  0.00     0.157 A 
ATOM     16  C   UNL     1     -11.075  -6.327  19.809  1.00  0.00     0.062 A 
ATOM     17  C   UNL     1     -12.059  -7.270  20.142  1.00  0.00     0.158 A 
BRANCH  15  18
ATOM     18  O   UNL     1     -14.225  -8.289  19.680  1.00  0.00    -0.504 OA
ATOM     19  H   UNL     1     -14.178  -8.876  20.504  1.00  0.00     0.293 HD
ENDBRANCH  15  18
BRANCH  17  20
ATOM     20  O   UNL     1     -11.876  -8.115  21.237  1.00  0.00    -0.504 OA
ATOM     21  H   UNL     1     -12.655  -8.589  21.678  1.00  0.00     0.293 HD
ENDBRANCH  17  20
ENDBRANCH   1  12
BRANCH   6  22
ATOM     22  O   UNL     1      -7.216  -0.459  17.017  1.00  0.00    -0.507 OA
ATOM     23  H   UNL     1      -8.059  -0.037  16.659  1.00  0.00     0.293 HD
ENDBRANCH   6  22
BRANCH   8  24
ATOM     24  O   UNL     1      -4.253  -4.070  18.130  1.00  0.00    -0.508 OA
ATOM     25  H   UNL     1      -3.965  -4.953  17.724  1.00  0.00     0.293 HD
ENDBRANCH   8  24
TORSDOF 5
ENDMDL
MODEL 6
REMARK VINA RESULT:    -5.995      1.108      2.965
REMARK INTER + INTRA:          -7.342
REMARK INTER:                  -7.051
REMARK INTRA:                  -0.292
REMARK UNBOUND:                -0.296
REMARK SMILES O=c1cc(-c2ccc(O)c(O)c2)oc2cc(O)cc(O)c12
REMARK SMILES IDX 4 1 3 2 2 3 1 4 21 5 19 6 18 7 16 8 15 9 14 10 13 11 5 12
REMARK SMILES IDX 6 13 7 14 8 15 12 16 10 17 9 18 11 20 20 22 17 24
REMARK H PARENT 9 19 11 21 20 23 17 25
REMARK Flexibility Score: inf
ROOT
ATOM      1  C   UNL     1      -2.491 -12.780  16.215  1.00  0.00     0.138 A 
ATOM      2  C   UNL     1      -1.639 -11.842  16.814  1.00  0.00     0.100 A 
ATOM      3  C   UNL     1      -0.476 -11.445  16.152  1.00  0.00     0.197 A 
ATOM      4  O   UNL     1       0.237 -10.556  16.686  1.00  0.00    -0.289 OA
ATOM      5  C   UNL     1      -0.149 -12.017  14.899  1.00  0.00     0.107 A 
ATOM      6  C   UNL     1       1.030 -11.719  14.152  1.00  0.00     0.134 A 
ATOM      7  C   UNL     1       1.189 -12.259  12.869  1.00  0.00     0.093 A 
ATOM      8  C   UNL     1       0.239 -13.131  12.332  1.00  0.00     0.123 A 
ATOM      9  C   UNL     1      -0.889 -13.470  13.075  1.00  0.00     0.094 A 
ATOM     10  C   UNL     1      -1.093 -12.922  14.344  1.00  0.00     0.146 A 
ATOM     11  O   UNL     1      -2.190 -13.259  15.013  1.00  0.00    -0.456 OA
ENDROOT
BRANCH   1  12
ATOM     12  C   UNL     1      -3.740 -13.237  16.875  1.00  0.00     0.021 A 
ATOM     13  C   UNL     1      -4.309 -14.467  16.502  1.00  0.00     0.016 A 
ATOM     14  C   UNL     1      -5.480 -14.923  17.112  1.00  0.00     0.051 A 
ATOM     15  C   UNL     1      -6.097 -14.166  18.112  1.00  0.00     0.157 A 
ATOM     16  C   UNL     1      -4.358 -12.483  17.892  1.00  0.00     0.062 A 
ATOM     17  C   UNL     1      -5.533 -12.943  18.507  1.00  0.00     0.158 A 
BRANCH  15  18
ATOM     18  O   UNL     1      -7.266 -14.646  18.703  1.00  0.00    -0.504 OA
ATOM     19  H   UNL     1      -7.839 -14.071  19.308  1.00  0.00     0.293 HD
ENDBRANCH  15  18
BRANCH  17  20
ATOM     20  O   UNL     1      -6.138 -12.187  19.512  1.00  0.00    -0.504 OA
ATOM     21  H   UNL     1      -7.146 -12.136  19.604  1.00  0.00     0.293 HD
ENDBRANCH  17  20
ENDBRANCH   1  12
BRANCH   6  22
ATOM     22  O   UNL     1       2.078 -10.927  14.630  1.00  0.00    -0.507 OA
ATOM     23  H   UNL     1       2.986 -10.852  14.198  1.00  0.00     0.293 HD
ENDBRANCH   6  22
BRANCH   8  24
ATOM     24  O   UNL     1       0.413 -13.675  11.061  1.00  0.00    -0.508 OA
ATOM     25  H   UNL     1       0.613 -14.660  10.929  1.00  0.00     0.293 HD
ENDBRANCH   8  24
TORSDOF 5
ENDMDL
MODEL 7
REMARK VINA RESULT:    -5.947     12.676     14.841
REMARK INTER + INTRA:          -7.286
REMARK INTER:                  -7.016
REMARK INTRA:                  -0.270
REMARK UNBOUND:                -0.296
REMARK SMILES O=c1cc(-c2ccc(O)c(O)c2)oc2cc(O)cc(O)c12
REMARK SMILES IDX 4 1 3 2 2 3 1 4 21 5 19 6 18 7 16 8 15 9 14 10 13 11 5 12
REMARK SMILES IDX 6 13 7 14 8 15 12 16 10 17 9 18 11 20 20 22 17 24
REMARK H PARENT 9 19 11 21 20 23 17 25
REMARK Flexibility Score: inf
ROOT
ATOM      1  C   UNL     1     -12.785  -3.630  16.643  1.00  0.00     0.138 A 
ATOM      2  C   UNL     1     -13.449  -2.480  17.092  1.00  0.00     0.100 A 
ATOM      3  C   UNL     1     -14.032  -1.614  16.166  1.00  0.00     0.197 A 
ATOM      4  O   UNL     1     -14.674  -0.623  16.601  1.00  0.00    -0.289 OA
ATOM      5  C   UNL     1     -13.920  -1.885  14.781  1.00  0.00     0.107 A 
ATOM      6  C   UNL     1     -14.438  -1.052  13.745  1.00  0.00     0.134 A 
ATOM      7  C   UNL     1     -14.369  -1.482  12.414  1.00  0.00     0.093 A 
ATOM      8  C   UNL     1     -13.747  -2.687  12.077  1.00  0.00     0.123 A 
ATOM      9  C   UNL     1     -13.190  -3.482  13.077  1.00  0.00     0.094 A 
ATOM     10  C   UNL     1     -13.274  -3.097  14.417  1.00  0.00     0.146 A 
ATOM     11  O   UNL     1     -12.743  -3.891  15.341  1.00  0.00    -0.456 OA
ENDROOT
BRANCH   1  12
ATOM     12  C   UNL     1     -12.148  -4.585  17.585  1.00  0.00     0.021 A 
ATOM     13  C   UNL     1     -10.948  -4.229  18.224  1.00  0.00     0.016 A 
ATOM     14  C   UNL     1     -10.332  -5.106  19.120  1.00  0.00     0.051 A 
ATOM     15  C   UNL     1     -10.908  -6.349  19.401  1.00  0.00     0.157 A 
ATOM     16  C   UNL     1     -12.731  -5.833  17.881  1.00  0.00     0.062 A 
ATOM     17  C   UNL     1     -12.114  -6.713  18.782  1.00  0.00     0.158 A 
BRANCH  15  18
ATOM     18  O   UNL     1     -10.269  -7.204  20.299  1.00  0.00    -0.504 OA
ATOM     19  H   UNL     1      -9.493  -6.899  20.874  1.00  0.00     0.293 HD
ENDBRANCH  15  18
BRANCH  17  20
ATOM     20  O   UNL     1     -12.699  -7.947  19.067  1.00  0.00    -0.504 OA
ATOM     21  H   UNL     1     -12.286  -8.817  18.750  1.00  0.00     0.293 HD
ENDBRANCH  17  20
ENDBRANCH   1  12
BRANCH   6  22
ATOM     22  O   UNL     1     -15.003   0.208  13.965  1.00  0.00    -0.507 OA
ATOM     23  H   UNL     1     -15.919   0.368  14.355  1.00  0.00     0.293 HD
ENDBRANCH   6  22
BRANCH   8  24
ATOM     24  O   UNL     1     -13.669  -3.100  10.749  1.00  0.00    -0.508 OA
ATOM     25  H   UNL     1     -13.178  -3.947  10.485  1.00  0.00     0.293 HD
ENDBRANCH   8  24
TORSDOF 5
ENDMDL
MODEL 8
REMARK VINA RESULT:    -5.915     12.200     14.570
REMARK INTER + INTRA:          -7.248
REMARK INTER:                  -6.977
REMARK INTRA:                  -0.271
REMARK UNBOUND:                -0.296
REMARK SMILES O=c1cc(-c2ccc(O)c(O)c2)oc2cc(O)cc(O)c12
REMARK SMILES IDX 4 1 3 2 2 3 1 4 21 5 19 6 18 7 16 8 15 9 14 10 13 11 5 12
REMARK SMILES IDX 6 13 7 14 8 15 12 16 10 17 9 18 11 20 20 22 17 24
REMARK H PARENT 9 19 11 21 20 23 17 25
REMARK Flexibility Score: inf
ROOT
ATOM      1  C   UNL     1     -10.039  -2.313  16.782  1.00  0.00     0.138 A 
ATOM      2  C   UNL     1     -10.782  -1.290  17.385  1.00  0.00     0.100 A 
ATOM      3  C   UNL     1     -12.063  -0.996  16.913  1.00  0.00     0.197 A 
ATOM      4  O   UNL     1     -12.730  -0.114  17.514  1.00  0.00    -0.289 OA
ATOM      5  C   UNL     1     -12.587  -1.710  15.809  1.00  0.00     0.107 A 
ATOM      6  C   UNL     1     -13.862  -1.470  15.217  1.00  0.00     0.134 A 
ATOM      7  C   UNL     1     -14.323  -2.318  14.201  1.00  0.00     0.093 A 
ATOM      8  C   UNL     1     -13.529  -3.361  13.719  1.00  0.00     0.123 A 
ATOM      9  C   UNL     1     -12.260  -3.570  14.254  1.00  0.00     0.094 A 
ATOM     10  C   UNL     1     -11.786  -2.763  15.291  1.00  0.00     0.146 A 
ATOM     11  O   UNL     1     -10.576  -3.006  15.784  1.00  0.00    -0.456 OA
ENDROOT
BRANCH   1  12
ATOM     12  C   UNL     1      -8.673  -2.666  17.245  1.00  0.00     0.021 A 
ATOM     13  C   UNL     1      -7.626  -1.745  17.075  1.00  0.00     0.016 A 
ATOM     14  C   UNL     1      -6.333  -2.050  17.508  1.00  0.00     0.051 A 
ATOM     15  C   UNL     1      -6.066  -3.275  18.126  1.00  0.00     0.157 A 
ATOM     16  C   UNL     1      -8.402  -3.894  17.880  1.00  0.00     0.062 A 
ATOM     17  C   UNL     1      -7.104  -4.200  18.317  1.00  0.00     0.158 A 
BRANCH  15  18
ATOM     18  O   UNL     1      -4.765  -3.552  18.547  1.00  0.00    -0.504 OA
ATOM     19  H   UNL     1      -3.960  -3.384  17.956  1.00  0.00     0.293 HD
ENDBRANCH  15  18
BRANCH  17  20
ATOM     20  O   UNL     1      -6.846  -5.420  18.943  1.00  0.00    -0.504 OA
ATOM     21  H   UNL     1      -6.697  -6.269  18.411  1.00  0.00     0.293 HD
ENDBRANCH  17  20
ENDBRANCH   1  12
BRANCH   6  22
ATOM     22  O   UNL     1     -14.698  -0.405  15.567  1.00  0.00    -0.507 OA
ATOM     23  H   UNL     1     -14.378   0.501  15.873  1.00  0.00     0.293 HD
ENDBRANCH   6  22
BRANCH   8  24
ATOM     24  O   UNL     1     -13.989  -4.191  12.698  1.00  0.00    -0.508 OA
ATOM     25  H   UNL     1     -14.381  -5.105  12.895  1.00  0.00     0.293 HD
ENDBRANCH   8  24
TORSDOF 5
ENDMDL
MODEL 9
REMARK VINA RESULT:    -5.782     12.282     14.208
REMARK INTER + INTRA:          -7.092
REMARK INTER:                  -6.827
REMARK INTRA:                  -0.264
REMARK UNBOUND:                -0.296
REMARK SMILES O=c1cc(-c2ccc(O)c(O)c2)oc2cc(O)cc(O)c12
REMARK SMILES IDX 4 1 3 2 2 3 1 4 21 5 19 6 18 7 16 8 15 9 14 10 13 11 5 12
REMARK SMILES IDX 6 13 7 14 8 15 12 16 10 17 9 18 11 20 20 22 17 24
REMARK H PARENT 9 19 11 21 20 23 17 25
REMARK Flexibility Score: inf
ROOT
ATOM      1  C   UNL     1      -9.870  -2.415  16.263  1.00  0.00     0.138 A 
ATOM      2  C   UNL     1      -9.875  -1.039  15.999  1.00  0.00     0.100 A 
ATOM      3  C   UNL     1     -10.768  -0.520  15.060  1.00  0.00     0.197 A 
ATOM      4  O   UNL     1     -10.793   0.727  14.890  1.00  0.00    -0.289 OA
ATOM      5  C   UNL     1     -11.638  -1.390  14.359  1.00  0.00     0.107 A 
ATOM      6  C   UNL     1     -12.560  -0.978  13.352  1.00  0.00     0.134 A 
ATOM      7  C   UNL     1     -13.452  -1.913  12.810  1.00  0.00     0.093 A 
ATOM      8  C   UNL     1     -13.414  -3.254  13.197  1.00  0.00     0.123 A 
ATOM      9  C   UNL     1     -12.479  -3.676  14.141  1.00  0.00     0.094 A 
ATOM     10  C   UNL     1     -11.600  -2.762  14.725  1.00  0.00     0.146 A 
ATOM     11  O   UNL     1     -10.735  -3.203  15.632  1.00  0.00    -0.456 OA
ENDROOT
BRANCH   1  12
ATOM     12  C   UNL     1      -8.942  -3.020  17.251  1.00  0.00     0.021 A 
ATOM     13  C   UNL     1      -9.448  -3.508  18.468  1.00  0.00     0.016 A 
ATOM     14  C   UNL     1      -8.597  -4.088  19.411  1.00  0.00     0.051 A 
ATOM     15  C   UNL     1      -7.228  -4.201  19.152  1.00  0.00     0.157 A 
ATOM     16  C   UNL     1      -7.563  -3.149  16.989  1.00  0.00     0.062 A 
ATOM     17  C   UNL     1      -6.708  -3.734  17.935  1.00  0.00     0.158 A 
BRANCH  15  18
ATOM     18  O   UNL     1      -6.402  -4.785  20.114  1.00  0.00    -0.504 OA
ATOM     19  H   UNL     1      -5.447  -4.480  20.259  1.00  0.00     0.293 HD
ENDBRANCH  15  18
BRANCH  17  20
ATOM     20  O   UNL     1      -5.345  -3.854  17.666  1.00  0.00    -0.504 OA
ATOM     21  H   UNL     1      -5.007  -4.181  16.768  1.00  0.00     0.293 HD
ENDBRANCH  17  20
ENDBRANCH   1  12
BRANCH   6  22
ATOM     22  O   UNL     1     -12.625   0.318  12.834  1.00  0.00    -0.507 OA
ATOM     23  H   UNL     1     -11.886   0.769  12.316  1.00  0.00     0.293 HD
ENDBRANCH   6  22
BRANCH   8  24
ATOM     24  O   UNL     1     -14.294  -4.180  12.641  1.00  0.00    -0.508 OA
ATOM     25  H   UNL     1     -15.236  -3.921  12.374  1.00  0.00     0.293 HD
ENDBRANCH   8  24
TORSDOF 5
ENDMDL
