MODEL 1
REMARK VINA RESULT:    -5.484      0.000      0.000
REMARK INTER + INTRA:          -6.928
REMARK INTER:                  -6.606
REMARK INTRA:                  -0.322
REMARK UNBOUND:                -0.322
REMARK SMILES O=c1c(O)c(-c2ccc(O)c(O)c2)oc2cc(O)cc(O)c12
REMARK SMILES IDX 5 1 3 2 2 3 1 4 22 5 20 6 19 7 17 8 16 9 15 10 14 11 6 12
REMARK SMILES IDX 7 13 8 14 9 15 13 16 11 17 10 18 12 20 4 22 21 24 18 26
REMARK H PARENT 10 19 12 21 4 23 21 25 18 27
REMARK Flexibility Score: inf
ROOT
ATOM      1  C   UNL     1     124.790 131.941 120.763  1.00  0.00     0.180 A 
ATOM      2  C   UNL     1     124.076 133.115 120.472  1.00  0.00     0.208 A 
ATOM      3  C   UNL     1     124.687 134.359 120.705  1.00  0.00     0.238 A 
ATOM      4  O   UNL     1     124.024 135.407 120.494  1.00  0.00    -0.285 OA
ATOM      5  C   UNL     1     126.009 134.410 121.211  1.00  0.00     0.111 A 
ATOM      6  C   UNL     1     126.739 135.614 121.446  1.00  0.00     0.134 A 
ATOM      7  C   UNL     1     127.992 135.550 122.071  1.00  0.00     0.093 A 
ATOM      8  C   UNL     1     128.567 134.325 122.408  1.00  0.00     0.123 A 
ATOM      9  C   UNL     1     127.886 133.139 122.128  1.00  0.00     0.094 A 
ATOM     10  C   UNL     1     126.620 133.173 121.538  1.00  0.00     0.146 A 
ATOM     11  O   UNL     1     126.003 132.022 121.298  1.00  0.00    -0.452 OA
ENDROOT
BRANCH   1  12
ATOM     12  C   UNL     1     124.223 130.594 120.521  1.00  0.00     0.025 A 
ATOM     13  C   UNL     1     124.355 130.007 119.255  1.00  0.00     0.016 A 
ATOM     14  C   UNL     1     123.811 128.747 118.999  1.00  0.00     0.051 A 
ATOM     15  C   UNL     1     123.110 128.056 119.994  1.00  0.00     0.157 A 
ATOM     16  C   UNL     1     123.501 129.913 121.517  1.00  0.00     0.062 A 
ATOM     17  C   UNL     1     122.948 128.650 121.268  1.00  0.00     0.158 A 
BRANCH  15  18
ATOM     18  O   UNL     1     122.597 126.797 119.677  1.00  0.00    -0.504 OA
ATOM     19  H   UNL     1     121.635 126.628 119.419  1.00  0.00     0.293 HD
ENDBRANCH  15  18
BRANCH  17  20
ATOM     20  O   UNL     1     122.246 128.031 122.304  1.00  0.00    -0.504 OA
ATOM     21  H   UNL     1     121.924 128.510 123.133  1.00  0.00     0.293 HD
ENDBRANCH  17  20
ENDBRANCH   1  12
BRANCH   2  22
ATOM     22  O   UNL     1     122.765 133.042 119.995  1.00  0.00    -0.502 OA
ATOM     23  H   UNL     1     122.352 132.176 119.671  1.00  0.00     0.293 HD
ENDBRANCH   2  22
BRANCH   6  24
ATOM     24  O   UNL     1     126.296 136.883 121.065  1.00  0.00    -0.507 OA
ATOM     25  H   UNL     1     126.335 137.704 121.649  1.00  0.00     0.293 HD
ENDBRANCH   6  24
BRANCH   8  26
ATOM     26  O   UNL     1     129.821 134.299 123.014  1.00  0.00    -0.508 OA
ATOM     27  H   UNL     1     130.084 134.980 123.717  1.00  0.00     0.293 HD
ENDBRANCH   8  26
TORSDOF 6
ENDMDL
MODEL 2
REMARK VINA RESULT:    -5.435      1.322      2.934
REMARK INTER + INTRA:          -6.869
REMARK INTER:                  -6.549
REMARK INTRA:                  -0.320
REMARK UNBOUND:                -0.322
REMARK SMILES O=c1c(O)c(-c2ccc(O)c(O)c2)oc2cc(O)cc(O)c12
REMARK SMILES IDX 5 1 3 2 2 3 1 4 22 5 20 6 19 7 17 8 16 9 15 10 14 11 6 12
REMARK SMILES IDX 7 13 8 14 9 15 13 16 11 17 10 18 12 20 4 22 21 24 18 26
REMARK H PARENT 10 19 12 21 4 23 21 25 18 27
REMARK Flexibility Score: inf
ROOT
ATOM      1  C   UNL     1     124.655 131.666 120.648  1.00  0.00     0.180 A 
ATOM      2  C   UNL     1     126.018 131.676 120.988  1.00  0.00     0.208 A 
ATOM      3  C   UNL     1     126.662 132.910 121.182  1.00  0.00     0.238 A 
ATOM      4  O   UNL     1     127.896 132.915 121.433  1.00  0.00    -0.285 OA
ATOM      5  C   UNL     1     125.931 134.115 121.048  1.00  0.00     0.111 A 
ATOM      6  C   UNL     1     126.472 135.418 121.262  1.00  0.00     0.134 A 
ATOM      7  C   UNL     1     125.692 136.545 120.974  1.00  0.00     0.093 A 
ATOM      8  C   UNL     1     124.372 136.417 120.545  1.00  0.00     0.123 A 
ATOM      9  C   UNL     1     123.813 135.146 120.390  1.00  0.00     0.094 A 
ATOM     10  C   UNL     1     124.579 134.003 120.635  1.00  0.00     0.146 A 
ATOM     11  O   UNL     1     124.013 132.814 120.466  1.00  0.00    -0.452 OA
ENDROOT
BRANCH   1  12
ATOM     12  C   UNL     1     123.901 130.406 120.452  1.00  0.00     0.025 A 
ATOM     13  C   UNL     1     123.655 129.944 119.152  1.00  0.00     0.016 A 
ATOM     14  C   UNL     1     122.931 128.769 118.945  1.00  0.00     0.051 A 
ATOM     15  C   UNL     1     122.424 128.041 120.028  1.00  0.00     0.157 A 
ATOM     16  C   UNL     1     123.376 129.691 121.542  1.00  0.00     0.062 A 
ATOM     17  C   UNL     1     122.644 128.512 121.344  1.00  0.00     0.158 A 
BRANCH  15  18
ATOM     18  O   UNL     1     121.714 126.871 119.754  1.00  0.00    -0.504 OA
ATOM     19  H   UNL     1     120.954 126.813 119.091  1.00  0.00     0.293 HD
ENDBRANCH  15  18
BRANCH  17  20
ATOM     20  O   UNL     1     122.154 127.853 122.472  1.00  0.00    -0.504 OA
ATOM     21  H   UNL     1     122.722 127.288 123.088  1.00  0.00     0.293 HD
ENDBRANCH  17  20
ENDBRANCH   1  12
BRANCH   2  22
ATOM     22  O   UNL     1     126.726 130.477 121.093  1.00  0.00    -0.502 OA
ATOM     23  H   UNL     1     127.140 130.163 121.962  1.00  0.00     0.293 HD
ENDBRANCH   2  22
BRANCH   6  24
ATOM     24  O   UNL     1     127.750 135.659 121.775  1.00  0.00    -0.507 OA
ATOM     25  H   UNL     1     127.939 136.049 122.686  1.00  0.00     0.293 HD
ENDBRANCH   6  24
BRANCH   8  26
ATOM     26  O   UNL     1     123.620 137.560 120.284  1.00  0.00    -0.508 OA
ATOM     27  H   UNL     1     122.928 137.581 119.543  1.00  0.00     0.293 HD
ENDBRANCH   8  26
TORSDOF 6
ENDMDL
MODEL 3
REMARK VINA RESULT:    -5.283      2.040      6.929
REMARK INTER + INTRA:          -6.686
REMARK INTER:                  -6.361
REMARK INTRA:                  -0.325
REMARK UNBOUND:                -0.322
REMARK SMILES O=c1c(O)c(-c2ccc(O)c(O)c2)oc2cc(O)cc(O)c12
REMARK SMILES IDX 5 1 3 2 2 3 1 4 22 5 20 6 19 7 17 8 16 9 15 10 14 11 6 12
REMARK SMILES IDX 7 13 8 14 9 15 13 16 11 17 10 18 12 20 4 22 21 24 18 26
REMARK H PARENT 10 19 12 21 4 23 21 25 18 27
REMARK Flexibility Score: inf
ROOT
ATOM      1  C   UNL     1     126.449 131.760 121.021  1.00  0.00     0.180 A 
ATOM      2  C   UNL     1     125.123 131.651 121.475  1.00  0.00     0.208 A 
ATOM      3  C   UNL     1     124.434 130.442 121.281  1.00  0.00     0.238 A 
ATOM      4  O   UNL     1     123.230 130.368 121.641  1.00  0.00    -0.285 OA
ATOM      5  C   UNL     1     125.085 129.354 120.650  1.00  0.00     0.111 A 
ATOM      6  C   UNL     1     124.496 128.071 120.439  1.00  0.00     0.134 A 
ATOM      7  C   UNL     1     125.186 127.111 119.687  1.00  0.00     0.093 A 
ATOM      8  C   UNL     1     126.466 127.363 119.198  1.00  0.00     0.123 A 
ATOM      9  C   UNL     1     127.076 128.593 119.450  1.00  0.00     0.094 A 
ATOM     10  C   UNL     1     126.398 129.584 120.165  1.00  0.00     0.146 A 
ATOM     11  O   UNL     1     127.009 130.744 120.375  1.00  0.00    -0.452 OA
ENDROOT
BRANCH   1  12
ATOM     12  C   UNL     1     127.248 132.993 121.211  1.00  0.00     0.025 A 
ATOM     13  C   UNL     1     127.378 133.901 120.152  1.00  0.00     0.016 A 
ATOM     14  C   UNL     1     128.142 135.059 120.304  1.00  0.00     0.051 A 
ATOM     15  C   UNL     1     128.804 135.326 121.508  1.00  0.00     0.157 A 
ATOM     16  C   UNL     1     127.928 133.245 122.415  1.00  0.00     0.062 A 
ATOM     17  C   UNL     1     128.700 134.403 122.576  1.00  0.00     0.158 A 
BRANCH  15  18
ATOM     18  O   UNL     1     129.546 136.505 121.599  1.00  0.00    -0.504 OA
ATOM     19  H   UNL     1     130.337 136.721 121.010  1.00  0.00     0.293 HD
ENDBRANCH  15  18
BRANCH  17  20
ATOM     20  O   UNL     1     129.346 134.590 123.799  1.00  0.00    -0.504 OA
ATOM     21  H   UNL     1     130.139 135.203 123.932  1.00  0.00     0.293 HD
ENDBRANCH  17  20
ENDBRANCH   1  12
BRANCH   2  22
ATOM     22  O   UNL     1     124.493 132.744 122.075  1.00  0.00    -0.502 OA
ATOM     23  H   UNL     1     124.886 133.677 122.055  1.00  0.00     0.293 HD
ENDBRANCH   2  22
BRANCH   6  24
ATOM     24  O   UNL     1     123.259 127.683 120.962  1.00  0.00    -0.507 OA
ATOM     25  H   UNL     1     123.066 126.782 121.370  1.00  0.00     0.293 HD
ENDBRANCH   6  24
BRANCH   8  26
ATOM     26  O   UNL     1     127.129 126.378 118.469  1.00  0.00    -0.508 OA
ATOM     27  H   UNL     1     126.814 126.099 117.546  1.00  0.00     0.293 HD
ENDBRANCH   8  26
TORSDOF 6
ENDMDL
MODEL 4
REMARK VINA RESULT:    -5.160      5.699      8.295
REMARK INTER + INTRA:          -6.538
REMARK INTER:                  -6.566
REMARK INTRA:                   0.028
REMARK UNBOUND:                -0.322
REMARK SMILES O=c1c(O)c(-c2ccc(O)c(O)c2)oc2cc(O)cc(O)c12
REMARK SMILES IDX 5 1 3 2 2 3 1 4 22 5 20 6 19 7 17 8 16 9 15 10 14 11 6 12
REMARK SMILES IDX 7 13 8 14 9 15 13 16 11 17 10 18 12 20 4 22 21 24 18 26
REMARK H PARENT 10 19 12 21 4 23 21 25 18 27
REMARK Flexibility Score: inf
ROOT
ATOM      1  C   UNL     1     120.784 128.934 118.097  1.00  0.00     0.180 A 
ATOM      2  C   UNL     1     120.233 128.101 117.108  1.00  0.00     0.208 A 
ATOM      3  C   UNL     1     119.155 128.575 116.342  1.00  0.00     0.238 A 
ATOM      4  O   UNL     1     118.631 127.805 115.495  1.00  0.00    -0.285 OA
ATOM      5  C   UNL     1     118.652 129.879 116.565  1.00  0.00     0.111 A 
ATOM      6  C   UNL     1     117.590 130.476 115.821  1.00  0.00     0.134 A 
ATOM      7  C   UNL     1     117.088 131.723 116.215  1.00  0.00     0.093 A 
ATOM      8  C   UNL     1     117.651 132.423 117.281  1.00  0.00     0.123 A 
ATOM      9  C   UNL     1     118.730 131.875 117.978  1.00  0.00     0.094 A 
ATOM     10  C   UNL     1     119.229 130.617 117.632  1.00  0.00     0.146 A 
ATOM     11  O   UNL     1     120.249 130.126 118.326  1.00  0.00    -0.452 OA
ENDROOT
BRANCH   1  12
ATOM     12  C   UNL     1     121.938 128.514 118.926  1.00  0.00     0.025 A 
ATOM     13  C   UNL     1     123.072 127.971 118.307  1.00  0.00     0.016 A 
ATOM     14  C   UNL     1     124.161 127.551 119.071  1.00  0.00     0.051 A 
ATOM     15  C   UNL     1     124.136 127.649 120.467  1.00  0.00     0.157 A 
ATOM     16  C   UNL     1     121.898 128.595 120.329  1.00  0.00     0.062 A 
ATOM     17  C   UNL     1     122.986 128.172 121.105  1.00  0.00     0.158 A 
BRANCH  15  18
ATOM     18  O   UNL     1     125.261 127.219 121.173  1.00  0.00    -0.504 OA
ATOM     19  H   UNL     1     125.920 126.538 120.825  1.00  0.00     0.293 HD
ENDBRANCH  15  18
BRANCH  17  20
ATOM     20  O   UNL     1     122.879 128.283 122.492  1.00  0.00    -0.504 OA
ATOM     21  H   UNL     1     122.352 129.006 122.962  1.00  0.00     0.293 HD
ENDBRANCH  17  20
ENDBRANCH   1  12
BRANCH   2  22
ATOM     22  O   UNL     1     120.730 126.809 116.919  1.00  0.00    -0.502 OA
ATOM     23  H   UNL     1     120.341 126.002 117.392  1.00  0.00     0.293 HD
ENDBRANCH   2  22
BRANCH   6  24
ATOM     24  O   UNL     1     117.017 129.903 114.682  1.00  0.00    -0.507 OA
ATOM     25  H   UNL     1     117.369 130.015 113.744  1.00  0.00     0.293 HD
ENDBRANCH   6  24
BRANCH   8  26
ATOM     26  O   UNL     1     117.136 133.668 117.633  1.00  0.00    -0.508 OA
ATOM     27  H   UNL     1     116.171 133.780 117.921  1.00  0.00     0.293 HD
ENDBRANCH   8  26
TORSDOF 6
ENDMDL
MODEL 5
REMARK VINA RESULT:    -5.095      5.834      7.252
REMARK INTER + INTRA:          -6.459
REMARK INTER:                  -6.191
REMARK INTRA:                  -0.268
REMARK UNBOUND:                -0.322
REMARK SMILES O=c1c(O)c(-c2ccc(O)c(O)c2)oc2cc(O)cc(O)c12
REMARK SMILES IDX 5 1 3 2 2 3 1 4 22 5 20 6 19 7 17 8 16 9 15 10 14 11 6 12
REMARK SMILES IDX 7 13 8 14 9 15 13 16 11 17 10 18 12 20 4 22 21 24 18 26
REMARK H PARENT 10 19 12 21 4 23 21 25 18 27
REMARK Flexibility Score: inf
ROOT
ATOM      1  C   UNL     1     121.575 128.658 118.380  1.00  0.00     0.180 A 
ATOM      2  C   UNL     1     121.549 128.512 119.777  1.00  0.00     0.208 A 
ATOM      3  C   UNL     1     122.684 128.004 120.430  1.00  0.00     0.238 A 
ATOM      4  O   UNL     1     122.636 127.825 121.675  1.00  0.00    -0.285 OA
ATOM      5  C   UNL     1     123.835 127.663 119.679  1.00  0.00     0.111 A 
ATOM      6  C   UNL     1     125.054 127.178 120.240  1.00  0.00     0.134 A 
ATOM      7  C   UNL     1     126.083 126.749 119.391  1.00  0.00     0.093 A 
ATOM      8  C   UNL     1     125.962 126.850 118.006  1.00  0.00     0.123 A 
ATOM      9  C   UNL     1     124.797 127.379 117.448  1.00  0.00     0.094 A 
ATOM     10  C   UNL     1     123.740 127.781 118.268  1.00  0.00     0.146 A 
ATOM     11  O   UNL     1     122.644 128.269 117.697  1.00  0.00    -0.452 OA
ENDROOT
BRANCH   1  12
ATOM     12  C   UNL     1     120.427 129.211 117.624  1.00  0.00     0.025 A 
ATOM     13  C   UNL     1     119.668 128.364 116.804  1.00  0.00     0.016 A 
ATOM     14  C   UNL     1     118.594 128.867 116.069  1.00  0.00     0.051 A 
ATOM     15  C   UNL     1     118.266 130.226 116.123  1.00  0.00     0.157 A 
ATOM     16  C   UNL     1     120.114 130.580 117.665  1.00  0.00     0.062 A 
ATOM     17  C   UNL     1     119.040 131.096 116.927  1.00  0.00     0.158 A 
BRANCH  15  18
ATOM     18  O   UNL     1     117.176 130.666 115.369  1.00  0.00    -0.504 OA
ATOM     19  H   UNL     1     117.258 131.190 114.510  1.00  0.00     0.293 HD
ENDBRANCH  15  18
BRANCH  17  20
ATOM     20  O   UNL     1     118.786 132.465 117.017  1.00  0.00    -0.504 OA
ATOM     21  H   UNL     1     118.136 132.878 117.671  1.00  0.00     0.293 HD
ENDBRANCH  17  20
ENDBRANCH   1  12
BRANCH   2  22
ATOM     22  O   UNL     1     120.395 128.834 120.496  1.00  0.00    -0.502 OA
ATOM     23  H   UNL     1     120.420 129.106 121.472  1.00  0.00     0.293 HD
ENDBRANCH   2  22
BRANCH   6  24
ATOM     24  O   UNL     1     125.314 127.122 121.613  1.00  0.00    -0.507 OA
ATOM     25  H   UNL     1     124.641 127.333 122.333  1.00  0.00     0.293 HD
ENDBRANCH   6  24
BRANCH   8  26
ATOM     26  O   UNL     1     127.012 126.429 117.193  1.00  0.00    -0.508 OA
ATOM     27  H   UNL     1     126.873 125.738 116.464  1.00  0.00     0.293 HD
ENDBRANCH   8  26
TORSDOF 6
ENDMDL
MODEL 6
REMARK VINA RESULT:    -5.045      5.743      9.567
REMARK INTER + INTRA:          -6.399
REMARK INTER:                  -6.066
REMARK INTRA:                  -0.334
REMARK UNBOUND:                -0.322
REMARK SMILES O=c1c(O)c(-c2ccc(O)c(O)c2)oc2cc(O)cc(O)c12
REMARK SMILES IDX 5 1 3 2 2 3 1 4 22 5 20 6 19 7 17 8 16 9 15 10 14 11 6 12
REMARK SMILES IDX 7 13 8 14 9 15 13 16 11 17 10 18 12 20 4 22 21 24 18 26
REMARK H PARENT 10 19 12 21 4 23 21 25 18 27
REMARK Flexibility Score: inf
ROOT
ATOM      1  C   UNL     1     120.502 128.176 117.756  1.00  0.00     0.180 A 
ATOM      2  C   UNL     1     120.172 129.415 117.182  1.00  0.00     0.208 A 
ATOM      3  C   UNL     1     119.072 129.491 116.312  1.00  0.00     0.238 A 
ATOM      4  O   UNL     1     118.813 130.592 115.759  1.00  0.00    -0.285 OA
ATOM      5  C   UNL     1     118.310 128.330 116.038  1.00  0.00     0.111 A 
ATOM      6  C   UNL     1     117.152 128.299 115.203  1.00  0.00     0.134 A 
ATOM      7  C   UNL     1     116.553 127.070 114.899  1.00  0.00     0.093 A 
ATOM      8  C   UNL     1     117.028 125.881 115.450  1.00  0.00     0.123 A 
ATOM      9  C   UNL     1     118.123 125.907 116.316  1.00  0.00     0.094 A 
ATOM     10  C   UNL     1     118.764 127.113 116.609  1.00  0.00     0.146 A 
ATOM     11  O   UNL     1     119.808 127.092 117.429  1.00  0.00    -0.452 OA
ENDROOT
BRANCH   1  12
ATOM     12  C   UNL     1     121.632 128.022 118.703  1.00  0.00     0.025 A 
ATOM     13  C   UNL     1     122.883 127.611 118.223  1.00  0.00     0.016 A 
ATOM     14  C   UNL     1     123.955 127.442 119.101  1.00  0.00     0.051 A 
ATOM     15  C   UNL     1     123.797 127.662 120.474  1.00  0.00     0.157 A 
ATOM     16  C   UNL     1     121.461 128.223 120.083  1.00  0.00     0.062 A 
ATOM     17  C   UNL     1     122.531 128.052 120.972  1.00  0.00     0.158 A 
BRANCH  15  18
ATOM     18  O   UNL     1     124.910 127.482 121.297  1.00  0.00    -0.504 OA
ATOM     19  H   UNL     1     125.473 126.644 121.311  1.00  0.00     0.293 HD
ENDBRANCH  15  18
BRANCH  17  20
ATOM     20  O   UNL     1     122.291 128.271 122.330  1.00  0.00    -0.504 OA
ATOM     21  H   UNL     1     121.853 127.597 122.942  1.00  0.00     0.293 HD
ENDBRANCH  17  20
ENDBRANCH   1  12
BRANCH   2  22
ATOM     22  O   UNL     1     120.951 130.544 117.449  1.00  0.00    -0.502 OA
ATOM     23  H   UNL     1     121.290 131.156 116.717  1.00  0.00     0.293 HD
ENDBRANCH   2  22
BRANCH   6  24
ATOM     24  O   UNL     1     116.541 129.440 114.674  1.00  0.00    -0.507 OA
ATOM     25  H   UNL     1     117.032 130.205 114.239  1.00  0.00     0.293 HD
ENDBRANCH   6  24
BRANCH   8  26
ATOM     26  O   UNL     1     116.397 124.679 115.138  1.00  0.00    -0.508 OA
ATOM     27  H   UNL     1     116.344 123.919 115.807  1.00  0.00     0.293 HD
ENDBRANCH   8  26
TORSDOF 6
ENDMDL
MODEL 7
REMARK VINA RESULT:    -5.017      2.574      6.412
REMARK INTER + INTRA:          -6.366
REMARK INTER:                  -6.225
REMARK INTRA:                  -0.141
REMARK UNBOUND:                -0.322
REMARK SMILES O=c1c(O)c(-c2ccc(O)c(O)c2)oc2cc(O)cc(O)c12
REMARK SMILES IDX 5 1 3 2 2 3 1 4 22 5 20 6 19 7 17 8 16 9 15 10 14 11 6 12
REMARK SMILES IDX 7 13 8 14 9 15 13 16 11 17 10 18 12 20 4 22 21 24 18 26
REMARK H PARENT 10 19 12 21 4 23 21 25 18 27
REMARK Flexibility Score: inf
ROOT
ATOM      1  C   UNL     1     124.109 131.848 119.974  1.00  0.00     0.180 A 
ATOM      2  C   UNL     1     123.045 131.160 119.367  1.00  0.00     0.208 A 
ATOM      3  C   UNL     1     123.117 129.762 119.251  1.00  0.00     0.238 A 
ATOM      4  O   UNL     1     122.186 129.156 118.657  1.00  0.00    -0.285 OA
ATOM      5  C   UNL     1     124.244 129.070 119.757  1.00  0.00     0.111 A 
ATOM      6  C   UNL     1     124.402 127.652 119.730  1.00  0.00     0.134 A 
ATOM      7  C   UNL     1     125.616 127.085 120.141  1.00  0.00     0.093 A 
ATOM      8  C   UNL     1     126.649 127.878 120.639  1.00  0.00     0.123 A 
ATOM      9  C   UNL     1     126.481 129.261 120.726  1.00  0.00     0.094 A 
ATOM     10  C   UNL     1     125.296 129.858 120.290  1.00  0.00     0.146 A 
ATOM     11  O   UNL     1     125.181 131.178 120.380  1.00  0.00    -0.452 OA
ENDROOT
BRANCH   1  12
ATOM     12  C   UNL     1     124.095 133.319 120.156  1.00  0.00     0.025 A 
ATOM     13  C   UNL     1     125.132 134.091 119.615  1.00  0.00     0.016 A 
ATOM     14  C   UNL     1     125.148 135.475 119.791  1.00  0.00     0.051 A 
ATOM     15  C   UNL     1     124.140 136.115 120.522  1.00  0.00     0.157 A 
ATOM     16  C   UNL     1     123.092 133.953 120.909  1.00  0.00     0.062 A 
ATOM     17  C   UNL     1     123.102 135.342 121.094  1.00  0.00     0.158 A 
BRANCH  15  18
ATOM     18  O   UNL     1     124.210 137.503 120.655  1.00  0.00    -0.504 OA
ATOM     19  H   UNL     1     123.625 138.040 121.278  1.00  0.00     0.293 HD
ENDBRANCH  15  18
BRANCH  17  20
ATOM     20  O   UNL     1     122.074 135.905 121.852  1.00  0.00    -0.504 OA
ATOM     21  H   UNL     1     121.251 136.338 121.456  1.00  0.00     0.293 HD
ENDBRANCH  17  20
ENDBRANCH   1  12
BRANCH   2  22
ATOM     22  O   UNL     1     121.953 131.865 118.854  1.00  0.00    -0.502 OA
ATOM     23  H   UNL     1     121.874 132.872 118.924  1.00  0.00     0.293 HD
ENDBRANCH   2  22
BRANCH   6  24
ATOM     24  O   UNL     1     123.399 126.761 119.336  1.00  0.00    -0.507 OA
ATOM     25  H   UNL     1     123.468 126.128 118.555  1.00  0.00     0.293 HD
ENDBRANCH   6  24
BRANCH   8  26
ATOM     26  O   UNL     1     127.835 127.278 121.054  1.00  0.00    -0.508 OA
ATOM     27  H   UNL     1     128.322 127.588 121.889  1.00  0.00     0.293 HD
ENDBRANCH   8  26
TORSDOF 6
ENDMDL
MODEL 8
REMARK VINA RESULT:    -5.008      4.661      6.662
REMARK INTER + INTRA:          -6.354
REMARK INTER:                  -6.036
REMARK INTRA:                  -0.318
REMARK UNBOUND:                -0.322
REMARK SMILES O=c1c(O)c(-c2ccc(O)c(O)c2)oc2cc(O)cc(O)c12
REMARK SMILES IDX 5 1 3 2 2 3 1 4 22 5 20 6 19 7 17 8 16 9 15 10 14 11 6 12
REMARK SMILES IDX 7 13 8 14 9 15 13 16 11 17 10 18 12 20 4 22 21 24 18 26
REMARK H PARENT 10 19 12 21 4 23 21 25 18 27
REMARK Flexibility Score: inf
ROOT
ATOM      1  C   UNL     1     125.321 128.193 118.539  1.00  0.00     0.180 A 
ATOM      2  C   UNL     1     126.094 129.357 118.394  1.00  0.00     0.208 A 
ATOM      3  C   UNL     1     127.381 129.256 117.839  1.00  0.00     0.238 A 
ATOM      4  O   UNL     1     128.090 130.293 117.762  1.00  0.00    -0.285 OA
ATOM      5  C   UNL     1     127.870 127.994 117.423  1.00  0.00     0.111 A 
ATOM      6  C   UNL     1     129.142 127.780 116.810  1.00  0.00     0.134 A 
ATOM      7  C   UNL     1     129.575 126.472 116.558  1.00  0.00     0.093 A 
ATOM      8  C   UNL     1     128.758 125.377 116.834  1.00  0.00     0.123 A 
ATOM      9  C   UNL     1     127.488 125.578 117.378  1.00  0.00     0.094 A 
ATOM     10  C   UNL     1     127.043 126.869 117.673  1.00  0.00     0.146 A 
ATOM     11  O   UNL     1     125.832 127.016 118.199  1.00  0.00    -0.452 OA
ENDROOT
BRANCH   1  12
ATOM     12  C   UNL     1     123.947 128.225 119.091  1.00  0.00     0.025 A 
ATOM     13  C   UNL     1     122.856 128.371 118.223  1.00  0.00     0.016 A 
ATOM     14  C   UNL     1     121.555 128.423 118.724  1.00  0.00     0.051 A 
ATOM     15  C   UNL     1     121.316 128.346 120.101  1.00  0.00     0.157 A 
ATOM     16  C   UNL     1     123.714 128.170 120.476  1.00  0.00     0.062 A 
ATOM     17  C   UNL     1     122.410 128.224 120.989  1.00  0.00     0.158 A 
BRANCH  15  18
ATOM     18  O   UNL     1     119.991 128.396 120.538  1.00  0.00    -0.504 OA
ATOM     19  H   UNL     1     119.605 129.152 121.085  1.00  0.00     0.293 HD
ENDBRANCH  15  18
BRANCH  17  20
ATOM     20  O   UNL     1     122.253 128.162 122.375  1.00  0.00    -0.504 OA
ATOM     21  H   UNL     1     123.021 128.113 123.029  1.00  0.00     0.293 HD
ENDBRANCH  17  20
ENDBRANCH   1  12
BRANCH   2  22
ATOM     22  O   UNL     1     125.601 130.589 118.832  1.00  0.00    -0.502 OA
ATOM     23  H   UNL     1     124.768 131.012 118.440  1.00  0.00     0.293 HD
ENDBRANCH   2  22
BRANCH   6  24
ATOM     24  O   UNL     1     129.998 128.810 116.410  1.00  0.00    -0.507 OA
ATOM     25  H   UNL     1     130.757 128.703 115.755  1.00  0.00     0.293 HD
ENDBRANCH   6  24
BRANCH   8  26
ATOM     26  O   UNL     1     129.216 124.091 116.555  1.00  0.00    -0.508 OA
ATOM     27  H   UNL     1     129.254 123.375 117.272  1.00  0.00     0.293 HD
ENDBRANCH   8  26
TORSDOF 6
ENDMDL
MODEL 9
REMARK VINA RESULT:    -4.998      3.968      6.016
REMARK INTER + INTRA:          -6.342
REMARK INTER:                  -6.213
REMARK INTRA:                  -0.129
REMARK UNBOUND:                -0.322
REMARK SMILES O=c1c(O)c(-c2ccc(O)c(O)c2)oc2cc(O)cc(O)c12
REMARK SMILES IDX 5 1 3 2 2 3 1 4 22 5 20 6 19 7 17 8 16 9 15 10 14 11 6 12
REMARK SMILES IDX 7 13 8 14 9 15 13 16 11 17 10 18 12 20 4 22 21 24 18 26
REMARK H PARENT 10 19 12 21 4 23 21 25 18 27
REMARK Flexibility Score: inf
ROOT
ATOM      1  C   UNL     1     122.338 128.697 118.309  1.00  0.00     0.180 A 
ATOM      2  C   UNL     1     122.517 129.958 118.902  1.00  0.00     0.208 A 
ATOM      3  C   UNL     1     123.647 130.178 119.707  1.00  0.00     0.238 A 
ATOM      4  O   UNL     1     123.775 131.291 120.280  1.00  0.00    -0.285 OA
ATOM      5  C   UNL     1     124.590 129.138 119.897  1.00  0.00     0.111 A 
ATOM      6  C   UNL     1     125.790 129.262 120.659  1.00  0.00     0.134 A 
ATOM      7  C   UNL     1     126.584 128.130 120.887  1.00  0.00     0.093 A 
ATOM      8  C   UNL     1     126.256 126.897 120.326  1.00  0.00     0.123 A 
ATOM      9  C   UNL     1     125.116 126.778 119.529  1.00  0.00     0.094 A 
ATOM     10  C   UNL     1     124.286 127.881 119.314  1.00  0.00     0.146 A 
ATOM     11  O   UNL     1     123.205 127.723 118.558  1.00  0.00    -0.452 OA
ENDROOT
BRANCH   1  12
ATOM     12  C   UNL     1     121.186 128.398 117.427  1.00  0.00     0.025 A 
ATOM     13  C   UNL     1     121.016 129.127 116.242  1.00  0.00     0.016 A 
ATOM     14  C   UNL     1     119.927 128.875 115.407  1.00  0.00     0.051 A 
ATOM     15  C   UNL     1     118.978 127.904 115.744  1.00  0.00     0.157 A 
ATOM     16  C   UNL     1     120.224 127.436 117.780  1.00  0.00     0.062 A 
ATOM     17  C   UNL     1     119.125 127.179 116.949  1.00  0.00     0.158 A 
BRANCH  15  18
ATOM     18  O   UNL     1     117.916 127.694 114.862  1.00  0.00    -0.504 OA
ATOM     19  H   UNL     1     116.987 127.423 115.150  1.00  0.00     0.293 HD
ENDBRANCH  15  18
BRANCH  17  20
ATOM     20  O   UNL     1     118.211 126.209 117.362  1.00  0.00    -0.504 OA
ATOM     21  H   UNL     1     117.926 125.422 116.795  1.00  0.00     0.293 HD
ENDBRANCH  17  20
ENDBRANCH   1  12
BRANCH   2  22
ATOM     22  O   UNL     1     121.564 130.962 118.720  1.00  0.00    -0.502 OA
ATOM     23  H   UNL     1     121.076 131.098 117.843  1.00  0.00     0.293 HD
ENDBRANCH   2  22
BRANCH   6  24
ATOM     24  O   UNL     1     126.258 130.469 121.188  1.00  0.00    -0.507 OA
ATOM     25  H   UNL     1     127.048 130.556 121.808  1.00  0.00     0.293 HD
ENDBRANCH   6  24
BRANCH   8  26
ATOM     26  O   UNL     1     127.077 125.796 120.560  1.00  0.00    -0.508 OA
ATOM     27  H   UNL     1     128.017 125.904 120.925  1.00  0.00     0.293 HD
ENDBRANCH   8  26
TORSDOF 6
ENDMDL
