MODEL 1
REMARK VINA RESULT:    -3.578      0.000      0.000
REMARK INTER + INTRA:          -4.258
REMARK INTER:                  -4.205
REMARK INTRA:                  -0.052
REMARK UNBOUND:                -0.052
REMARK SMILES CCCCC(=O)[O-]
REMARK SMILES IDX 4 1 5 2 6 3 7 4 3 5 2 6 1 7
REMARK H PARENT
REMARK Flexibility Score: inf
ROOT
ATOM      1  C   UNL     1     -31.304  -7.999  33.255  1.00  0.00     0.053 C 
ENDROOT
BRANCH   1   2
ATOM      2  C   UNL     1     -32.468  -8.868  33.613  1.00  0.00     0.041 C 
ATOM      3  O   UNL     1     -32.796  -9.023  34.820  1.00  0.00    -0.550 OA
ATOM      4  O   UNL     1     -33.222  -9.467  32.613  1.00  0.00    -0.550 OA
ENDBRANCH   1   2
BRANCH   1   5
ATOM      5  C   UNL     1     -31.511  -7.366  31.876  1.00  0.00     0.006 C 
BRANCH   5   6
ATOM      6  C   UNL     1     -32.428  -6.142  31.965  1.00  0.00    -0.003 C 
ATOM      7  C   UNL     1     -32.120  -5.311  33.206  1.00  0.00     0.004 C 
ENDBRANCH   5   6
ENDBRANCH   1   5
TORSDOF 3
ENDMDL
MODEL 2
REMARK VINA RESULT:    -3.459      1.651      2.731
REMARK INTER + INTRA:          -4.118
REMARK INTER:                  -4.088
REMARK INTRA:                  -0.030
REMARK UNBOUND:                -0.052
REMARK SMILES CCCCC(=O)[O-]
REMARK SMILES IDX 4 1 5 2 6 3 7 4 3 5 2 6 1 7
REMARK H PARENT
REMARK Flexibility Score: inf
ROOT
ATOM      1  C   UNL     1     -32.698  -6.818  32.249  1.00  0.00     0.053 C 
ENDROOT
BRANCH   1   2
ATOM      2  C   UNL     1     -33.923  -7.674  32.169  1.00  0.00     0.041 C 
ATOM      3  O   UNL     1     -35.062  -7.144  32.091  1.00  0.00    -0.550 OA
ATOM      4  O   UNL     1     -33.803  -9.057  32.131  1.00  0.00    -0.550 OA
ENDBRANCH   1   2
BRANCH   1   5
ATOM      5  C   UNL     1     -32.357  -6.505  33.709  1.00  0.00     0.006 C 
BRANCH   5   6
ATOM      6  C   UNL     1     -31.778  -7.736  34.414  1.00  0.00    -0.003 C 
ATOM      7  C   UNL     1     -30.634  -8.346  33.610  1.00  0.00     0.004 C 
ENDBRANCH   5   6
ENDBRANCH   1   5
TORSDOF 3
ENDMDL
MODEL 3
REMARK VINA RESULT:    -3.426      2.397      3.625
REMARK INTER + INTRA:          -4.079
REMARK INTER:                  -4.062
REMARK INTRA:                  -0.017
REMARK UNBOUND:                -0.052
REMARK SMILES CCCCC(=O)[O-]
REMARK SMILES IDX 4 1 5 2 6 3 7 4 3 5 2 6 1 7
REMARK H PARENT
REMARK Flexibility Score: inf
ROOT
ATOM      1  C   UNL     1     -30.945  -7.924  33.132  1.00  0.00     0.053 C 
ENDROOT
BRANCH   1   2
ATOM      2  C   UNL     1     -32.136  -7.268  33.756  1.00  0.00     0.041 C 
ATOM      3  O   UNL     1     -32.117  -6.035  34.015  1.00  0.00    -0.550 OA
ATOM      4  O   UNL     1     -33.285  -8.006  34.006  1.00  0.00    -0.550 OA
ENDBRANCH   1   2
BRANCH   1   5
ATOM      5  C   UNL     1     -30.345  -8.962  34.085  1.00  0.00     0.006 C 
BRANCH   5   6
ATOM      6  C   UNL     1     -28.818  -9.004  33.961  1.00  0.00    -0.003 C 
ATOM      7  C   UNL     1     -28.229 -10.151  34.776  1.00  0.00     0.004 C 
ENDBRANCH   5   6
ENDBRANCH   1   5
TORSDOF 3
ENDMDL
MODEL 4
REMARK VINA RESULT:    -3.408      3.561      4.156
REMARK INTER + INTRA:          -4.058
REMARK INTER:                  -4.042
REMARK INTRA:                  -0.016
REMARK UNBOUND:                -0.052
REMARK SMILES CCCCC(=O)[O-]
REMARK SMILES IDX 4 1 5 2 6 3 7 4 3 5 2 6 1 7
REMARK H PARENT
REMARK Flexibility Score: inf
ROOT
ATOM      1  C   UNL     1     -28.648  -8.941  33.823  1.00  0.00     0.053 C 
ENDROOT
BRANCH   1   2
ATOM      2  C   UNL     1     -28.066 -10.250  34.256  1.00  0.00     0.041 C 
ATOM      3  O   UNL     1     -27.685 -11.089  33.397  1.00  0.00    -0.550 OA
ATOM      4  O   UNL     1     -27.897 -10.523  35.607  1.00  0.00    -0.550 OA
ENDBRANCH   1   2
BRANCH   1   5
ATOM      5  C   UNL     1     -30.151  -8.899  34.116  1.00  0.00     0.006 C 
BRANCH   5   6
ATOM      6  C   UNL     1     -30.869  -7.933  33.169  1.00  0.00    -0.003 C 
ATOM      7  C   UNL     1     -31.923  -7.116  33.909  1.00  0.00     0.004 C 
ENDBRANCH   5   6
ENDBRANCH   1   5
TORSDOF 3
ENDMDL
MODEL 5
REMARK VINA RESULT:    -3.353      1.893      3.042
REMARK INTER + INTRA:          -3.993
REMARK INTER:                  -3.949
REMARK INTRA:                  -0.044
REMARK UNBOUND:                -0.052
REMARK SMILES CCCCC(=O)[O-]
REMARK SMILES IDX 4 1 5 2 6 3 7 4 3 5 2 6 1 7
REMARK H PARENT
REMARK Flexibility Score: inf
ROOT
ATOM      1  C   UNL     1     -32.882  -7.485  34.035  1.00  0.00     0.053 C 
ENDROOT
BRANCH   1   2
ATOM      2  C   UNL     1     -33.190  -7.309  32.582  1.00  0.00     0.041 C 
ATOM      3  O   UNL     1     -32.843  -6.256  31.984  1.00  0.00    -0.550 OA
ATOM      4  O   UNL     1     -33.816  -8.327  31.875  1.00  0.00    -0.550 OA
ENDBRANCH   1   2
BRANCH   1   5
ATOM      5  C   UNL     1     -31.846  -8.596  34.232  1.00  0.00     0.006 C 
BRANCH   5   6
ATOM      6  C   UNL     1     -30.563  -8.296  33.451  1.00  0.00    -0.003 C 
ATOM      7  C   UNL     1     -29.362  -9.008  34.068  1.00  0.00     0.004 C 
ENDBRANCH   5   6
ENDBRANCH   1   5
TORSDOF 3
ENDMDL
MODEL 6
REMARK VINA RESULT:    -3.246      2.131      3.174
REMARK INTER + INTRA:          -3.868
REMARK INTER:                  -3.940
REMARK INTRA:                   0.072
REMARK UNBOUND:                -0.052
REMARK SMILES CCCCC(=O)[O-]
REMARK SMILES IDX 4 1 5 2 6 3 7 4 3 5 2 6 1 7
REMARK H PARENT
REMARK Flexibility Score: inf
ROOT
ATOM      1  C   UNL     1     -32.279  -8.149  31.998  1.00  0.00     0.053 C 
ENDROOT
BRANCH   1   2
ATOM      2  C   UNL     1     -33.079  -6.888  31.914  1.00  0.00     0.041 C 
ATOM      3  O   UNL     1     -34.337  -6.937  31.876  1.00  0.00    -0.550 OA
ATOM      4  O   UNL     1     -32.438  -5.656  31.929  1.00  0.00    -0.550 OA
ENDBRANCH   1   2
BRANCH   1   5
ATOM      5  C   UNL     1     -31.066  -7.956  32.913  1.00  0.00     0.006 C 
BRANCH   5   6
ATOM      6  C   UNL     1     -31.362  -8.454  34.331  1.00  0.00    -0.003 C 
ATOM      7  C   UNL     1     -32.747  -9.086  34.415  1.00  0.00     0.004 C 
ENDBRANCH   5   6
ENDBRANCH   1   5
TORSDOF 3
ENDMDL
MODEL 7
REMARK VINA RESULT:    -3.181     20.924     21.803
REMARK INTER + INTRA:          -3.791
REMARK INTER:                  -3.730
REMARK INTRA:                  -0.061
REMARK UNBOUND:                -0.052
REMARK SMILES CCCCC(=O)[O-]
REMARK SMILES IDX 4 1 5 2 6 3 7 4 3 5 2 6 1 7
REMARK H PARENT
REMARK Flexibility Score: inf
ROOT
ATOM      1  C   UNL     1     -20.072  -5.370  50.018  1.00  0.00     0.053 C 
ENDROOT
BRANCH   1   2
ATOM      2  C   UNL     1     -20.657  -3.996  50.118  1.00  0.00     0.041 C 
ATOM      3  O   UNL     1     -20.018  -3.076  50.694  1.00  0.00    -0.550 OA
ATOM      4  O   UNL     1     -21.885  -3.719  49.532  1.00  0.00    -0.550 OA
ENDBRANCH   1   2
BRANCH   1   5
ATOM      5  C   UNL     1     -18.875  -5.513  50.963  1.00  0.00     0.006 C 
BRANCH   5   6
ATOM      6  C   UNL     1     -18.983  -6.795  51.796  1.00  0.00    -0.003 C 
ATOM      7  C   UNL     1     -20.167  -7.645  51.348  1.00  0.00     0.004 C 
ENDBRANCH   5   6
ENDBRANCH   1   5
TORSDOF 3
ENDMDL
MODEL 8
REMARK VINA RESULT:    -3.071     18.242     19.145
REMARK INTER + INTRA:          -3.661
REMARK INTER:                  -3.644
REMARK INTRA:                  -0.018
REMARK UNBOUND:                -0.052
REMARK SMILES CCCCC(=O)[O-]
REMARK SMILES IDX 4 1 5 2 6 3 7 4 3 5 2 6 1 7
REMARK H PARENT
REMARK Flexibility Score: inf
ROOT
ATOM      1  C   UNL     1     -35.637  -0.967  50.258  1.00  0.00     0.053 C 
ENDROOT
BRANCH   1   2
ATOM      2  C   UNL     1     -34.717  -2.138  50.404  1.00  0.00     0.041 C 
ATOM      3  O   UNL     1     -33.791  -2.325  49.571  1.00  0.00    -0.550 OA
ATOM      4  O   UNL     1     -34.850  -2.996  51.488  1.00  0.00    -0.550 OA
ENDBRANCH   1   2
BRANCH   1   5
ATOM      5  C   UNL     1     -34.906   0.335  50.599  1.00  0.00     0.006 C 
BRANCH   5   6
ATOM      6  C   UNL     1     -35.750   1.555  50.217  1.00  0.00    -0.003 C 
ATOM      7  C   UNL     1     -35.197   2.828  50.849  1.00  0.00     0.004 C 
ENDBRANCH   5   6
ENDBRANCH   1   5
TORSDOF 3
ENDMDL
