MODEL 1
REMARK VINA RESULT:    -3.611      0.000      0.000
REMARK INTER + INTRA:         -14.074
REMARK INTER:                  -9.522
REMARK INTRA:                  -4.552
REMARK UNBOUND:                -4.552
REMARK SMILES CCCCCCCCCCCCCCCCCCCCCCCCCCCCCC(=O)[O-]
REMARK SMILES IDX 16 1 17 2 18 3 19 4 20 5 21 6 22 7 23 8 24 9 25 10 26 11
REMARK SMILES IDX 27 12 28 13 29 14 30 15 31 16 32 17 15 18 14 19 13 20 12 21
REMARK SMILES IDX 11 22 10 23 9 24 8 25 7 26 6 27 5 28 4 29 3 30 2 31 1 32
REMARK H PARENT
REMARK Flexibility Score: inf
ROOT
ATOM      1  C   UNL     1       5.962   3.675  -6.533  1.00  0.00     0.000 C 
ENDROOT
BRANCH   1   2
ATOM      2  C   UNL     1       6.736   2.646  -5.686  1.00  0.00     0.000 C 
BRANCH   2   3
ATOM      3  C   UNL     1       7.438   1.530  -6.486  1.00  0.00     0.000 C 
BRANCH   3   4
ATOM      4  C   UNL     1       8.898   1.253  -6.085  1.00  0.00     0.000 C 
BRANCH   4   5
ATOM      5  C   UNL     1       9.844   1.157  -7.294  1.00  0.00     0.000 C 
BRANCH   5   6
ATOM      6  C   UNL     1       9.637   2.300  -8.304  1.00  0.00     0.000 C 
BRANCH   6   7
ATOM      7  C   UNL     1       9.799   1.902  -9.785  1.00  0.00     0.000 C 
BRANCH   7   8
ATOM      8  C   UNL     1       8.630   2.310 -10.704  1.00  0.00     0.000 C 
BRANCH   8   9
ATOM      9  C   UNL     1       7.669   1.166 -11.086  1.00  0.00     0.000 C 
BRANCH   9  10
ATOM     10  C   UNL     1       6.937   0.512  -9.900  1.00  0.00     0.000 C 
BRANCH  10  11
ATOM     11  C   UNL     1       5.908  -0.543 -10.344  1.00  0.00     0.000 C 
BRANCH  11  12
ATOM     12  C   UNL     1       4.466  -0.011 -10.318  1.00  0.00     0.000 C 
BRANCH  12  13
ATOM     13  C   UNL     1       3.449  -1.046 -10.831  1.00  0.00     0.006 C 
BRANCH  13  14
ATOM     14  C   UNL     1       3.016  -2.027  -9.732  1.00  0.00     0.053 C 
BRANCH  14  15
ATOM     15  C   UNL     1       3.266  -3.451 -10.125  1.00  0.00     0.041 C 
ATOM     16  O   UNL     1       2.370  -4.321  -9.955  1.00  0.00    -0.550 OA
ATOM     17  O   UNL     1       4.476  -3.813 -10.704  1.00  0.00    -0.550 OA
ENDBRANCH  14  15
ENDBRANCH  13  14
ENDBRANCH  12  13
ENDBRANCH  11  12
ENDBRANCH  10  11
ENDBRANCH   9  10
ENDBRANCH   8   9
ENDBRANCH   7   8
ENDBRANCH   6   7
ENDBRANCH   5   6
ENDBRANCH   4   5
ENDBRANCH   3   4
ENDBRANCH   2   3
ENDBRANCH   1   2
BRANCH   1  18
ATOM     18  C   UNL     1       6.184   3.568  -8.055  1.00  0.00     0.000 C 
BRANCH  18  19
ATOM     19  C   UNL     1       4.869   3.594  -8.850  1.00  0.00     0.000 C 
BRANCH  19  20
ATOM     20  C   UNL     1       5.101   3.664 -10.369  1.00  0.00     0.000 C 
BRANCH  20  21
ATOM     21  C   UNL     1       4.752   5.044 -10.958  1.00  0.00     0.000 C 
BRANCH  21  22
ATOM     22  C   UNL     1       4.941   6.184  -9.942  1.00  0.00     0.000 C 
BRANCH  22  23
ATOM     23  C   UNL     1       6.003   7.204 -10.393  1.00  0.00     0.000 C 
BRANCH  23  24
ATOM     24  C   UNL     1       7.245   6.531 -10.999  1.00  0.00    -0.000 C 
BRANCH  24  25
ATOM     25  C   UNL     1       8.134   5.867  -9.934  1.00  0.00    -0.000 C 
BRANCH  25  26
ATOM     26  C   UNL     1       8.224   6.687  -8.636  1.00  0.00    -0.000 C 
BRANCH  26  27
ATOM     27  C   UNL     1       9.440   7.638  -8.584  1.00  0.00    -0.000 C 
BRANCH  27  28
ATOM     28  C   UNL     1       9.105   8.975  -7.903  1.00  0.00    -0.000 C 
BRANCH  28  29
ATOM     29  C   UNL     1       7.592   9.217  -7.772  1.00  0.00    -0.000 C 
BRANCH  29  30
ATOM     30  C   UNL     1       7.191  10.702  -7.899  1.00  0.00    -0.000 C 
BRANCH  30  31
ATOM     31  C   UNL     1       7.706  11.330  -9.203  1.00  0.00    -0.003 C 
ATOM     32  C   UNL     1       7.166  10.587 -10.422  1.00  0.00     0.004 C 
ENDBRANCH  30  31
ENDBRANCH  29  30
ENDBRANCH  28  29
ENDBRANCH  27  28
ENDBRANCH  26  27
ENDBRANCH  25  26
ENDBRANCH  24  25
ENDBRANCH  23  24
ENDBRANCH  22  23
ENDBRANCH  21  22
ENDBRANCH  20  21
ENDBRANCH  19  20
ENDBRANCH  18  19
ENDBRANCH   1  18
TORSDOF 28
ENDMDL
MODEL 2
REMARK VINA RESULT:    -3.506      1.503      2.054
REMARK INTER + INTRA:         -13.795
REMARK INTER:                  -9.514
REMARK INTRA:                  -4.281
REMARK UNBOUND:                -4.552
REMARK SMILES CCCCCCCCCCCCCCCCCCCCCCCCCCCCCC(=O)[O-]
REMARK SMILES IDX 16 1 17 2 18 3 19 4 20 5 21 6 22 7 23 8 24 9 25 10 26 11
REMARK SMILES IDX 27 12 28 13 29 14 30 15 31 16 32 17 15 18 14 19 13 20 12 21
REMARK SMILES IDX 11 22 10 23 9 24 8 25 7 26 6 27 5 28 4 29 3 30 2 31 1 32
REMARK H PARENT
REMARK Flexibility Score: inf
ROOT
ATOM      1  C   UNL     1       6.011   2.947  -5.503  1.00  0.00     0.000 C 
ENDROOT
BRANCH   1   2
ATOM      2  C   UNL     1       6.770   1.859  -6.288  1.00  0.00     0.000 C 
BRANCH   2   3
ATOM      3  C   UNL     1       8.214   1.596  -5.818  1.00  0.00     0.000 C 
BRANCH   3   4
ATOM      4  C   UNL     1       9.316   2.088  -6.774  1.00  0.00     0.000 C 
BRANCH   4   5
ATOM      5  C   UNL     1       9.570   1.123  -7.944  1.00  0.00     0.000 C 
BRANCH   5   6
ATOM      6  C   UNL     1       9.548   1.826  -9.313  1.00  0.00     0.000 C 
BRANCH   6   7
ATOM      7  C   UNL     1       8.395   2.831  -9.514  1.00  0.00     0.000 C 
BRANCH   7   8
ATOM      8  C   UNL     1       7.277   2.361 -10.465  1.00  0.00     0.000 C 
BRANCH   8   9
ATOM      9  C   UNL     1       5.878   2.252  -9.826  1.00  0.00     0.000 C 
BRANCH   9  10
ATOM     10  C   UNL     1       5.041   1.050 -10.298  1.00  0.00     0.000 C 
BRANCH  10  11
ATOM     11  C   UNL     1       5.640  -0.300  -9.866  1.00  0.00     0.000 C 
BRANCH  11  12
ATOM     12  C   UNL     1       4.564  -1.340  -9.515  1.00  0.00     0.000 C 
BRANCH  12  13
ATOM     13  C   UNL     1       4.575  -2.544 -10.474  1.00  0.00     0.006 C 
BRANCH  13  14
ATOM     14  C   UNL     1       5.946  -3.232 -10.524  1.00  0.00     0.053 C 
BRANCH  14  15
ATOM     15  C   UNL     1       5.886  -4.634  -9.998  1.00  0.00     0.041 C 
ATOM     16  O   UNL     1       4.963  -5.409 -10.367  1.00  0.00    -0.550 OA
ATOM     17  O   UNL     1       6.862  -5.093  -9.124  1.00  0.00    -0.550 OA
ENDBRANCH  14  15
ENDBRANCH  13  14
ENDBRANCH  12  13
ENDBRANCH  11  12
ENDBRANCH  10  11
ENDBRANCH   9  10
ENDBRANCH   8   9
ENDBRANCH   7   8
ENDBRANCH   6   7
ENDBRANCH   5   6
ENDBRANCH   4   5
ENDBRANCH   3   4
ENDBRANCH   2   3
ENDBRANCH   1   2
BRANCH   1  18
ATOM     18  C   UNL     1       6.560   4.377  -5.671  1.00  0.00     0.000 C 
BRANCH  18  19
ATOM     19  C   UNL     1       6.601   4.828  -7.141  1.00  0.00     0.000 C 
BRANCH  19  20
ATOM     20  C   UNL     1       6.894   6.331  -7.287  1.00  0.00     0.000 C 
BRANCH  20  21
ATOM     21  C   UNL     1       6.056   6.991  -8.398  1.00  0.00     0.000 C 
BRANCH  21  22
ATOM     22  C   UNL     1       5.514   5.971  -9.413  1.00  0.00     0.000 C 
BRANCH  22  23
ATOM     23  C   UNL     1       6.392   5.869 -10.674  1.00  0.00     0.000 C 
BRANCH  23  24
ATOM     24  C   UNL     1       7.259   7.121 -10.889  1.00  0.00    -0.000 C 
BRANCH  24  25
ATOM     25  C   UNL     1       8.758   6.792 -10.985  1.00  0.00    -0.000 C 
BRANCH  25  26
ATOM     26  C   UNL     1       9.651   7.901 -10.405  1.00  0.00    -0.000 C 
BRANCH  26  27
ATOM     27  C   UNL     1       9.919   7.756  -8.891  1.00  0.00    -0.000 C 
BRANCH  27  28
ATOM     28  C   UNL     1       9.317   8.915  -8.079  1.00  0.00    -0.000 C 
BRANCH  28  29
ATOM     29  C   UNL     1       8.443   9.851  -8.931  1.00  0.00    -0.000 C 
BRANCH  29  30
ATOM     30  C   UNL     1       7.528  10.770  -8.095  1.00  0.00    -0.000 C 
BRANCH  30  31
ATOM     31  C   UNL     1       7.646  12.242  -8.518  1.00  0.00    -0.003 C 
ATOM     32  C   UNL     1       8.936  12.489  -9.297  1.00  0.00     0.004 C 
ENDBRANCH  30  31
ENDBRANCH  29  30
ENDBRANCH  28  29
ENDBRANCH  27  28
ENDBRANCH  26  27
ENDBRANCH  25  26
ENDBRANCH  24  25
ENDBRANCH  23  24
ENDBRANCH  22  23
ENDBRANCH  21  22
ENDBRANCH  20  21
ENDBRANCH  19  20
ENDBRANCH  18  19
ENDBRANCH   1  18
TORSDOF 28
ENDMDL
MODEL 3
REMARK VINA RESULT:    -3.379      3.410      8.614
REMARK INTER + INTRA:         -13.463
REMARK INTER:                  -9.903
REMARK INTRA:                  -3.560
REMARK UNBOUND:                -4.552
REMARK SMILES CCCCCCCCCCCCCCCCCCCCCCCCCCCCCC(=O)[O-]
REMARK SMILES IDX 16 1 17 2 18 3 19 4 20 5 21 6 22 7 23 8 24 9 25 10 26 11
REMARK SMILES IDX 27 12 28 13 29 14 30 15 31 16 32 17 15 18 14 19 13 20 12 21
REMARK SMILES IDX 11 22 10 23 9 24 8 25 7 26 6 27 5 28 4 29 3 30 2 31 1 32
REMARK H PARENT
REMARK Flexibility Score: inf
ROOT
ATOM      1  C   UNL     1       6.213   3.192  -5.578  1.00  0.00     0.000 C 
ENDROOT
BRANCH   1   2
ATOM      2  C   UNL     1       7.310   2.141  -5.843  1.00  0.00     0.000 C 
BRANCH   2   3
ATOM      3  C   UNL     1       8.758   2.658  -5.721  1.00  0.00     0.000 C 
BRANCH   3   4
ATOM      4  C   UNL     1       9.780   1.972  -6.646  1.00  0.00     0.000 C 
BRANCH   4   5
ATOM      5  C   UNL     1       9.804   0.443  -6.482  1.00  0.00     0.000 C 
BRANCH   5   6
ATOM      6  C   UNL     1      10.090  -0.293  -7.803  1.00  0.00     0.000 C 
BRANCH   6   7
ATOM      7  C   UNL     1       9.955   0.568  -9.075  1.00  0.00     0.000 C 
BRANCH   7   8
ATOM      8  C   UNL     1       8.516   1.001  -9.420  1.00  0.00     0.000 C 
BRANCH   8   9
ATOM      9  C   UNL     1       8.368   1.778 -10.745  1.00  0.00     0.000 C 
BRANCH   9  10
ATOM     10  C   UNL     1       9.580   2.647 -11.125  1.00  0.00     0.000 C 
BRANCH  10  11
ATOM     11  C   UNL     1       9.262   4.153 -11.111  1.00  0.00     0.000 C 
BRANCH  11  12
ATOM     12  C   UNL     1       9.078   4.706  -9.689  1.00  0.00     0.000 C 
BRANCH  12  13
ATOM     13  C   UNL     1       8.233   5.992  -9.664  1.00  0.00     0.006 C 
BRANCH  13  14
ATOM     14  C   UNL     1       7.834   6.396  -8.238  1.00  0.00     0.053 C 
BRANCH  14  15
ATOM     15  C   UNL     1       6.434   6.925  -8.179  1.00  0.00     0.041 C 
ATOM     16  O   UNL     1       5.714   6.930  -9.214  1.00  0.00    -0.550 OA
ATOM     17  O   UNL     1       5.913   7.389  -6.978  1.00  0.00    -0.550 OA
ENDBRANCH  14  15
ENDBRANCH  13  14
ENDBRANCH  12  13
ENDBRANCH  11  12
ENDBRANCH  10  11
ENDBRANCH   9  10
ENDBRANCH   8   9
ENDBRANCH   7   8
ENDBRANCH   6   7
ENDBRANCH   5   6
ENDBRANCH   4   5
ENDBRANCH   3   4
ENDBRANCH   2   3
ENDBRANCH   1   2
BRANCH   1  18
ATOM     18  C   UNL     1       5.416   3.632  -6.821  1.00  0.00     0.000 C 
BRANCH  18  19
ATOM     19  C   UNL     1       6.013   3.092  -8.131  1.00  0.00     0.000 C 
BRANCH  19  20
ATOM     20  C   UNL     1       5.316   3.666  -9.377  1.00  0.00     0.000 C 
BRANCH  20  21
ATOM     21  C   UNL     1       4.006   2.929  -9.713  1.00  0.00     0.000 C 
BRANCH  21  22
ATOM     22  C   UNL     1       4.029   2.292 -11.113  1.00  0.00     0.000 C 
BRANCH  22  23
ATOM     23  C   UNL     1       3.736   0.781 -11.077  1.00  0.00     0.000 C 
BRANCH  23  24
ATOM     24  C   UNL     1       4.691   0.019 -10.144  1.00  0.00    -0.000 C 
BRANCH  24  25
ATOM     25  C   UNL     1       4.101  -1.314  -9.656  1.00  0.00    -0.000 C 
BRANCH  25  26
ATOM     26  C   UNL     1       2.927  -1.800 -10.523  1.00  0.00    -0.000 C 
BRANCH  26  27
ATOM     27  C   UNL     1       3.133  -3.212 -11.112  1.00  0.00    -0.000 C 
BRANCH  27  28
ATOM     28  C   UNL     1       3.478  -4.250 -10.031  1.00  0.00    -0.000 C 
BRANCH  28  29
ATOM     29  C   UNL     1       4.199  -5.485 -10.596  1.00  0.00    -0.000 C 
BRANCH  29  30
ATOM     30  C   UNL     1       5.304  -6.033  -9.668  1.00  0.00    -0.000 C 
BRANCH  30  31
ATOM     31  C   UNL     1       6.689  -5.473 -10.026  1.00  0.00    -0.003 C 
ATOM     32  C   UNL     1       6.651  -3.952 -10.154  1.00  0.00     0.004 C 
ENDBRANCH  30  31
ENDBRANCH  29  30
ENDBRANCH  28  29
ENDBRANCH  27  28
ENDBRANCH  26  27
ENDBRANCH  25  26
ENDBRANCH  24  25
ENDBRANCH  23  24
ENDBRANCH  22  23
ENDBRANCH  21  22
ENDBRANCH  20  21
ENDBRANCH  19  20
ENDBRANCH  18  19
ENDBRANCH   1  18
TORSDOF 28
ENDMDL
MODEL 4
REMARK VINA RESULT:    -3.224      2.831      8.383
REMARK INTER + INTRA:         -13.052
REMARK INTER:                  -9.128
REMARK INTRA:                  -3.924
REMARK UNBOUND:                -4.552
REMARK SMILES CCCCCCCCCCCCCCCCCCCCCCCCCCCCCC(=O)[O-]
REMARK SMILES IDX 16 1 17 2 18 3 19 4 20 5 21 6 22 7 23 8 24 9 25 10 26 11
REMARK SMILES IDX 27 12 28 13 29 14 30 15 31 16 32 17 15 18 14 19 13 20 12 21
REMARK SMILES IDX 11 22 10 23 9 24 8 25 7 26 6 27 5 28 4 29 3 30 2 31 1 32
REMARK H PARENT
REMARK Flexibility Score: inf
ROOT
ATOM      1  C   UNL     1       8.472  10.320  -7.342  1.00  0.00     0.000 C 
ENDROOT
BRANCH   1   2
ATOM      2  C   UNL     1       7.356  10.124  -8.388  1.00  0.00     0.000 C 
BRANCH   2   3
ATOM      3  C   UNL     1       7.666  10.681  -9.792  1.00  0.00     0.000 C 
BRANCH   3   4
ATOM      4  C   UNL     1       6.898  10.014 -10.948  1.00  0.00     0.000 C 
BRANCH   4   5
ATOM      5  C   UNL     1       7.070   8.486 -10.980  1.00  0.00     0.000 C 
BRANCH   5   6
ATOM      6  C   UNL     1       5.733   7.738 -11.125  1.00  0.00     0.000 C 
BRANCH   6   7
ATOM      7  C   UNL     1       5.215   7.069  -9.836  1.00  0.00     0.000 C 
BRANCH   7   8
ATOM      8  C   UNL     1       6.151   7.188  -8.617  1.00  0.00     0.000 C 
BRANCH   8   9
ATOM      9  C   UNL     1       5.570   6.650  -7.293  1.00  0.00     0.000 C 
BRANCH   9  10
ATOM     10  C   UNL     1       6.615   6.328  -6.210  1.00  0.00     0.000 C 
BRANCH  10  11
ATOM     11  C   UNL     1       7.047   4.851  -6.219  1.00  0.00     0.000 C 
BRANCH  11  12
ATOM     12  C   UNL     1       5.934   3.906  -5.737  1.00  0.00     0.000 C 
BRANCH  12  13
ATOM     13  C   UNL     1       6.491   2.631  -5.079  1.00  0.00     0.006 C 
BRANCH  13  14
ATOM     14  C   UNL     1       7.577   1.964  -5.934  1.00  0.00     0.053 C 
BRANCH  14  15
ATOM     15  C   UNL     1       8.881   1.867  -5.203  1.00  0.00     0.041 C 
ATOM     16  O   UNL     1       9.767   2.748  -5.369  1.00  0.00    -0.550 OA
ATOM     17  O   UNL     1       9.109   0.820  -4.318  1.00  0.00    -0.550 OA
ENDBRANCH  14  15
ENDBRANCH  13  14
ENDBRANCH  12  13
ENDBRANCH  11  12
ENDBRANCH  10  11
ENDBRANCH   9  10
ENDBRANCH   8   9
ENDBRANCH   7   8
ENDBRANCH   6   7
ENDBRANCH   5   6
ENDBRANCH   4   5
ENDBRANCH   3   4
ENDBRANCH   2   3
ENDBRANCH   1   2
BRANCH   1  18
ATOM     18  C   UNL     1       9.580   9.250  -7.360  1.00  0.00     0.000 C 
BRANCH  18  19
ATOM     19  C   UNL     1       9.820   8.667  -8.763  1.00  0.00     0.000 C 
BRANCH  19  20
ATOM     20  C   UNL     1       9.623   7.142  -8.807  1.00  0.00     0.000 C 
BRANCH  20  21
ATOM     21  C   UNL     1      10.007   6.535 -10.170  1.00  0.00     0.000 C 
BRANCH  21  22
ATOM     22  C   UNL     1       9.638   5.047 -10.279  1.00  0.00     0.000 C 
BRANCH  22  23
ATOM     23  C   UNL     1       8.127   4.828 -10.486  1.00  0.00     0.000 C 
BRANCH  23  24
ATOM     24  C   UNL     1       7.569   3.704  -9.597  1.00  0.00    -0.000 C 
BRANCH  24  25
ATOM     25  C   UNL     1       6.032   3.677  -9.576  1.00  0.00    -0.000 C 
BRANCH  25  26
ATOM     26  C   UNL     1       5.463   2.268  -9.339  1.00  0.00    -0.000 C 
BRANCH  26  27
ATOM     27  C   UNL     1       5.458   1.379 -10.601  1.00  0.00    -0.000 C 
BRANCH  27  28
ATOM     28  C   UNL     1       6.089   0.000 -10.345  1.00  0.00    -0.000 C 
BRANCH  28  29
ATOM     29  C   UNL     1       5.118  -0.985  -9.672  1.00  0.00    -0.000 C 
BRANCH  29  30
ATOM     30  C   UNL     1       5.226  -2.425 -10.216  1.00  0.00    -0.000 C 
BRANCH  30  31
ATOM     31  C   UNL     1       3.981  -2.834 -11.019  1.00  0.00    -0.003 C 
ATOM     32  C   UNL     1       3.580  -4.275 -10.717  1.00  0.00     0.004 C 
ENDBRANCH  30  31
ENDBRANCH  29  30
ENDBRANCH  28  29
ENDBRANCH  27  28
ENDBRANCH  26  27
ENDBRANCH  25  26
ENDBRANCH  24  25
ENDBRANCH  23  24
ENDBRANCH  22  23
ENDBRANCH  21  22
ENDBRANCH  20  21
ENDBRANCH  19  20
ENDBRANCH  18  19
ENDBRANCH   1  18
TORSDOF 28
ENDMDL
MODEL 5
REMARK VINA RESULT:    -3.120      1.748      2.646
REMARK INTER + INTRA:         -12.779
REMARK INTER:                  -9.349
REMARK INTRA:                  -3.430
REMARK UNBOUND:                -4.552
REMARK SMILES CCCCCCCCCCCCCCCCCCCCCCCCCCCCCC(=O)[O-]
REMARK SMILES IDX 16 1 17 2 18 3 19 4 20 5 21 6 22 7 23 8 24 9 25 10 26 11
REMARK SMILES IDX 27 12 28 13 29 14 30 15 31 16 32 17 15 18 14 19 13 20 12 21
REMARK SMILES IDX 11 22 10 23 9 24 8 25 7 26 6 27 5 28 4 29 3 30 2 31 1 32
REMARK H PARENT
REMARK Flexibility Score: inf
ROOT
ATOM      1  C   UNL     1       6.587   4.912  -5.393  1.00  0.00     0.000 C 
ENDROOT
BRANCH   1   2
ATOM      2  C   UNL     1       5.757   3.676  -5.795  1.00  0.00     0.000 C 
BRANCH   2   3
ATOM      3  C   UNL     1       6.462   2.320  -5.602  1.00  0.00     0.000 C 
BRANCH   3   4
ATOM      4  C   UNL     1       7.786   2.153  -6.370  1.00  0.00     0.000 C 
BRANCH   4   5
ATOM      5  C   UNL     1       7.608   1.446  -7.725  1.00  0.00     0.000 C 
BRANCH   5   6
ATOM      6  C   UNL     1       7.541   2.430  -8.906  1.00  0.00     0.000 C 
BRANCH   6   7
ATOM      7  C   UNL     1       6.128   2.941  -9.253  1.00  0.00     0.000 C 
BRANCH   7   8
ATOM      8  C   UNL     1       5.637   2.588 -10.671  1.00  0.00     0.000 C 
BRANCH   8   9
ATOM      9  C   UNL     1       5.459   1.080 -10.944  1.00  0.00     0.000 C 
BRANCH   9  10
ATOM     10  C   UNL     1       4.147   0.475 -10.413  1.00  0.00     0.000 C 
BRANCH  10  11
ATOM     11  C   UNL     1       3.775  -0.846 -11.108  1.00  0.00     0.000 C 
BRANCH  11  12
ATOM     12  C   UNL     1       3.976  -2.070 -10.199  1.00  0.00     0.000 C 
BRANCH  12  13
ATOM     13  C   UNL     1       5.462  -2.409  -9.991  1.00  0.00     0.006 C 
BRANCH  13  14
ATOM     14  C   UNL     1       5.904  -3.617 -10.828  1.00  0.00     0.053 C 
BRANCH  14  15
ATOM     15  C   UNL     1       6.970  -4.414 -10.140  1.00  0.00     0.041 C 
ATOM     16  O   UNL     1       6.706  -5.045  -9.082  1.00  0.00    -0.550 OA
ATOM     17  O   UNL     1       8.248  -4.482 -10.681  1.00  0.00    -0.550 OA
ENDBRANCH  14  15
ENDBRANCH  13  14
ENDBRANCH  12  13
ENDBRANCH  11  12
ENDBRANCH  10  11
ENDBRANCH   9  10
ENDBRANCH   8   9
ENDBRANCH   7   8
ENDBRANCH   6   7
ENDBRANCH   5   6
ENDBRANCH   4   5
ENDBRANCH   3   4
ENDBRANCH   2   3
ENDBRANCH   1   2
BRANCH   1  18
ATOM     18  C   UNL     1       7.196   5.700  -6.569  1.00  0.00     0.000 C 
BRANCH  18  19
ATOM     19  C   UNL     1       6.187   6.657  -7.228  1.00  0.00     0.000 C 
BRANCH  19  20
ATOM     20  C   UNL     1       5.884   6.277  -8.687  1.00  0.00     0.000 C 
BRANCH  20  21
ATOM     21  C   UNL     1       6.367   7.343  -9.688  1.00  0.00     0.000 C 
BRANCH  21  22
ATOM     22  C   UNL     1       6.787   6.737 -11.038  1.00  0.00     0.000 C 
BRANCH  22  23
ATOM     23  C   UNL     1       8.304   6.486 -11.125  1.00  0.00     0.000 C 
BRANCH  23  24
ATOM     24  C   UNL     1       8.938   6.235  -9.746  1.00  0.00    -0.000 C 
BRANCH  24  25
ATOM     25  C   UNL     1      10.014   7.275  -9.394  1.00  0.00    -0.000 C 
BRANCH  25  26
ATOM     26  C   UNL     1       9.722   8.012  -8.076  1.00  0.00    -0.000 C 
BRANCH  26  27
ATOM     27  C   UNL     1       9.869   9.546  -8.176  1.00  0.00    -0.000 C 
BRANCH  27  28
ATOM     28  C   UNL     1       8.884  10.287  -7.258  1.00  0.00    -0.000 C 
BRANCH  28  29
ATOM     29  C   UNL     1       7.460  10.349  -7.835  1.00  0.00    -0.000 C 
BRANCH  29  30
ATOM     30  C   UNL     1       7.306  11.365  -8.988  1.00  0.00    -0.000 C 
BRANCH  30  31
ATOM     31  C   UNL     1       7.695  12.788  -8.559  1.00  0.00    -0.003 C 
ATOM     32  C   UNL     1       8.363  13.545  -9.704  1.00  0.00     0.004 C 
ENDBRANCH  30  31
ENDBRANCH  29  30
ENDBRANCH  28  29
ENDBRANCH  27  28
ENDBRANCH  26  27
ENDBRANCH  25  26
ENDBRANCH  24  25
ENDBRANCH  23  24
ENDBRANCH  22  23
ENDBRANCH  21  22
ENDBRANCH  20  21
ENDBRANCH  19  20
ENDBRANCH  18  19
ENDBRANCH   1  18
TORSDOF 28
ENDMDL
MODEL 6
REMARK VINA RESULT:    -2.937      4.275      9.458
REMARK INTER + INTRA:         -12.298
REMARK INTER:                  -8.752
REMARK INTRA:                  -3.546
REMARK UNBOUND:                -4.552
REMARK SMILES CCCCCCCCCCCCCCCCCCCCCCCCCCCCCC(=O)[O-]
REMARK SMILES IDX 16 1 17 2 18 3 19 4 20 5 21 6 22 7 23 8 24 9 25 10 26 11
REMARK SMILES IDX 27 12 28 13 29 14 30 15 31 16 32 17 15 18 14 19 13 20 12 21
REMARK SMILES IDX 11 22 10 23 9 24 8 25 7 26 6 27 5 28 4 29 3 30 2 31 1 32
REMARK H PARENT
REMARK Flexibility Score: inf
ROOT
ATOM      1  C   UNL     1       6.460   4.291  -5.632  1.00  0.00     0.000 C 
ENDROOT
BRANCH   1   2
ATOM      2  C   UNL     1       7.244   4.502  -6.944  1.00  0.00     0.000 C 
BRANCH   2   3
ATOM      3  C   UNL     1       7.391   5.969  -7.392  1.00  0.00     0.000 C 
BRANCH   3   4
ATOM      4  C   UNL     1       6.082   6.781  -7.422  1.00  0.00     0.000 C 
BRANCH   4   5
ATOM      5  C   UNL     1       5.545   6.998  -8.847  1.00  0.00     0.000 C 
BRANCH   5   6
ATOM      6  C   UNL     1       5.875   5.830  -9.793  1.00  0.00     0.000 C 
BRANCH   6   7
ATOM      7  C   UNL     1       6.816   6.181 -10.963  1.00  0.00     0.000 C 
BRANCH   7   8
ATOM      8  C   UNL     1       8.034   5.250 -11.123  1.00  0.00     0.000 C 
BRANCH   8   9
ATOM      9  C   UNL     1       9.294   5.684 -10.345  1.00  0.00     0.000 C 
BRANCH   9  10
ATOM     10  C   UNL     1       9.718   7.147 -10.563  1.00  0.00     0.000 C 
BRANCH  10  11
ATOM     11  C   UNL     1       9.558   8.010  -9.299  1.00  0.00     0.000 C 
BRANCH  11  12
ATOM     12  C   UNL     1       9.119   9.448  -9.616  1.00  0.00     0.000 C 
BRANCH  12  13
ATOM     13  C   UNL     1       7.639   9.699  -9.275  1.00  0.00     0.006 C 
BRANCH  13  14
ATOM     14  C   UNL     1       7.467  10.418  -7.930  1.00  0.00     0.053 C 
BRANCH  14  15
ATOM     15  C   UNL     1       8.784  10.803  -7.331  1.00  0.00     0.041 C 
ATOM     16  O   UNL     1       9.307  10.086  -6.436  1.00  0.00    -0.550 OA
ATOM     17  O   UNL     1       9.448  11.939  -7.778  1.00  0.00    -0.550 OA
ENDBRANCH  14  15
ENDBRANCH  13  14
ENDBRANCH  12  13
ENDBRANCH  11  12
ENDBRANCH  10  11
ENDBRANCH   9  10
ENDBRANCH   8   9
ENDBRANCH   7   8
ENDBRANCH   6   7
ENDBRANCH   5   6
ENDBRANCH   4   5
ENDBRANCH   3   4
ENDBRANCH   2   3
ENDBRANCH   1   2
BRANCH   1  18
ATOM     18  C   UNL     1       6.244   2.819  -5.230  1.00  0.00     0.000 C 
BRANCH  18  19
ATOM     19  C   UNL     1       7.124   1.848  -6.035  1.00  0.00     0.000 C 
BRANCH  19  20
ATOM     20  C   UNL     1       8.586   1.843  -5.556  1.00  0.00     0.000 C 
BRANCH  20  21
ATOM     21  C   UNL     1       9.442   0.789  -6.282  1.00  0.00     0.000 C 
BRANCH  21  22
ATOM     22  C   UNL     1      10.125   1.347  -7.541  1.00  0.00     0.000 C 
BRANCH  22  23
ATOM     23  C   UNL     1       9.416   0.913  -8.838  1.00  0.00     0.000 C 
BRANCH  23  24
ATOM     24  C   UNL     1       8.743   2.091  -9.562  1.00  0.00    -0.000 C 
BRANCH  24  25
ATOM     25  C   UNL     1       7.209   1.983  -9.564  1.00  0.00    -0.000 C 
BRANCH  25  26
ATOM     26  C   UNL     1       6.633   1.698 -10.961  1.00  0.00    -0.000 C 
BRANCH  26  27
ATOM     27  C   UNL     1       5.444   0.713 -10.953  1.00  0.00    -0.000 C 
BRANCH  27  28
ATOM     28  C   UNL     1       5.847  -0.683 -10.449  1.00  0.00    -0.000 C 
BRANCH  28  29
ATOM     29  C   UNL     1       4.637  -1.594 -10.182  1.00  0.00    -0.000 C 
BRANCH  29  30
ATOM     30  C   UNL     1       4.856  -3.056 -10.627  1.00  0.00    -0.000 C 
BRANCH  30  31
ATOM     31  C   UNL     1       6.210  -3.607 -10.154  1.00  0.00    -0.003 C 
ATOM     32  C   UNL     1       6.095  -5.072  -9.740  1.00  0.00     0.004 C 
ENDBRANCH  30  31
ENDBRANCH  29  30
ENDBRANCH  28  29
ENDBRANCH  27  28
ENDBRANCH  26  27
ENDBRANCH  25  26
ENDBRANCH  24  25
ENDBRANCH  23  24
ENDBRANCH  22  23
ENDBRANCH  21  22
ENDBRANCH  20  21
ENDBRANCH  19  20
ENDBRANCH  18  19
ENDBRANCH   1  18
TORSDOF 28
ENDMDL
MODEL 7
REMARK VINA RESULT:    -2.798      4.376      9.021
REMARK INTER + INTRA:         -11.930
REMARK INTER:                  -7.806
REMARK INTRA:                  -4.124
REMARK UNBOUND:                -4.552
REMARK SMILES CCCCCCCCCCCCCCCCCCCCCCCCCCCCCC(=O)[O-]
REMARK SMILES IDX 16 1 17 2 18 3 19 4 20 5 21 6 22 7 23 8 24 9 25 10 26 11
REMARK SMILES IDX 27 12 28 13 29 14 30 15 31 16 32 17 15 18 14 19 13 20 12 21
REMARK SMILES IDX 11 22 10 23 9 24 8 25 7 26 6 27 5 28 4 29 3 30 2 31 1 32
REMARK H PARENT
REMARK Flexibility Score: inf
ROOT
ATOM      1  C   UNL     1       8.023   1.316  -5.476  1.00  0.00     0.000 C 
ENDROOT
BRANCH   1   2
ATOM      2  C   UNL     1       6.813   1.880  -6.247  1.00  0.00     0.000 C 
BRANCH   2   3
ATOM      3  C   UNL     1       6.218   3.182  -5.675  1.00  0.00     0.000 C 
BRANCH   3   4
ATOM      4  C   UNL     1       6.862   4.481  -6.192  1.00  0.00     0.000 C 
BRANCH   4   5
ATOM      5  C   UNL     1       6.923   4.550  -7.727  1.00  0.00     0.000 C 
BRANCH   5   6
ATOM      6  C   UNL     1       8.332   4.270  -8.281  1.00  0.00     0.000 C 
BRANCH   6   7
ATOM      7  C   UNL     1       8.399   4.014  -9.800  1.00  0.00     0.000 C 
BRANCH   7   8
ATOM      8  C   UNL     1       7.797   5.130 -10.677  1.00  0.00     0.000 C 
BRANCH   8   9
ATOM      9  C   UNL     1       8.764   6.280 -11.025  1.00  0.00     0.000 C 
BRANCH   9  10
ATOM     10  C   UNL     1       8.685   7.499 -10.087  1.00  0.00     0.000 C 
BRANCH  10  11
ATOM     11  C   UNL     1       7.259   7.763  -9.572  1.00  0.00     0.000 C 
BRANCH  11  12
ATOM     12  C   UNL     1       7.238   8.255  -8.116  1.00  0.00     0.000 C 
BRANCH  12  13
ATOM     13  C   UNL     1       8.110   9.505  -7.906  1.00  0.00     0.006 C 
BRANCH  13  14
ATOM     14  C   UNL     1       7.276  10.793  -7.859  1.00  0.00     0.053 C 
BRANCH  14  15
ATOM     15  C   UNL     1       7.345  11.549  -9.150  1.00  0.00     0.041 C 
ATOM     16  O   UNL     1       7.998  12.625  -9.220  1.00  0.00    -0.550 OA
ATOM     17  O   UNL     1       6.712  11.054 -10.283  1.00  0.00    -0.550 OA
ENDBRANCH  14  15
ENDBRANCH  13  14
ENDBRANCH  12  13
ENDBRANCH  11  12
ENDBRANCH  10  11
ENDBRANCH   9  10
ENDBRANCH   8   9
ENDBRANCH   7   8
ENDBRANCH   6   7
ENDBRANCH   5   6
ENDBRANCH   4   5
ENDBRANCH   3   4
ENDBRANCH   2   3
ENDBRANCH   1   2
BRANCH   1  18
ATOM     18  C   UNL     1       9.233   0.933  -6.350  1.00  0.00     0.000 C 
BRANCH  18  19
ATOM     19  C   UNL     1       8.894   0.893  -7.850  1.00  0.00     0.000 C 
BRANCH  19  20
ATOM     20  C   UNL     1      10.124   0.594  -8.724  1.00  0.00     0.000 C 
BRANCH  20  21
ATOM     21  C   UNL     1       9.788  -0.299  -9.932  1.00  0.00     0.000 C 
BRANCH  21  22
ATOM     22  C   UNL     1       9.596  -1.774  -9.540  1.00  0.00     0.000 C 
BRANCH  22  23
ATOM     23  C   UNL     1       8.577  -2.495 -10.442  1.00  0.00     0.000 C 
BRANCH  23  24
ATOM     24  C   UNL     1       8.138  -3.851  -9.864  1.00  0.00    -0.000 C 
BRANCH  24  25
ATOM     25  C   UNL     1       6.649  -4.143 -10.112  1.00  0.00    -0.000 C 
BRANCH  25  26
ATOM     26  C   UNL     1       5.920  -2.981 -10.807  1.00  0.00    -0.000 C 
BRANCH  26  27
ATOM     27  C   UNL     1       5.322  -1.947  -9.827  1.00  0.00    -0.000 C 
BRANCH  27  28
ATOM     28  C   UNL     1       4.806  -0.692 -10.549  1.00  0.00    -0.000 C 
BRANCH  28  29
ATOM     29  C   UNL     1       5.804   0.478 -10.501  1.00  0.00    -0.000 C 
BRANCH  29  30
ATOM     30  C   UNL     1       5.347   1.642  -9.596  1.00  0.00    -0.000 C 
BRANCH  30  31
ATOM     31  C   UNL     1       4.939   2.880 -10.410  1.00  0.00    -0.003 C 
ATOM     32  C   UNL     1       3.722   3.566  -9.794  1.00  0.00     0.004 C 
ENDBRANCH  30  31
ENDBRANCH  29  30
ENDBRANCH  28  29
ENDBRANCH  27  28
ENDBRANCH  26  27
ENDBRANCH  25  26
ENDBRANCH  24  25
ENDBRANCH  23  24
ENDBRANCH  22  23
ENDBRANCH  21  22
ENDBRANCH  20  21
ENDBRANCH  19  20
ENDBRANCH  18  19
ENDBRANCH   1  18
TORSDOF 28
ENDMDL
MODEL 8
REMARK VINA RESULT:    -2.707      3.895      8.898
REMARK INTER + INTRA:         -11.691
REMARK INTER:                  -7.969
REMARK INTRA:                  -3.722
REMARK UNBOUND:                -4.552
REMARK SMILES CCCCCCCCCCCCCCCCCCCCCCCCCCCCCC(=O)[O-]
REMARK SMILES IDX 16 1 17 2 18 3 19 4 20 5 21 6 22 7 23 8 24 9 25 10 26 11
REMARK SMILES IDX 27 12 28 13 29 14 30 15 31 16 32 17 15 18 14 19 13 20 12 21
REMARK SMILES IDX 11 22 10 23 9 24 8 25 7 26 6 27 5 28 4 29 3 30 2 31 1 32
REMARK H PARENT
REMARK Flexibility Score: inf
ROOT
ATOM      1  C   UNL     1       5.731   2.936  -7.848  1.00  0.00     0.000 C 
ENDROOT
BRANCH   1   2
ATOM      2  C   UNL     1       6.411   4.240  -7.384  1.00  0.00     0.000 C 
BRANCH   2   3
ATOM      3  C   UNL     1       7.340   4.098  -6.162  1.00  0.00     0.000 C 
BRANCH   3   4
ATOM      4  C   UNL     1       7.213   2.771  -5.391  1.00  0.00     0.000 C 
BRANCH   4   5
ATOM      5  C   UNL     1       8.540   1.997  -5.308  1.00  0.00     0.000 C 
BRANCH   5   6
ATOM      6  C   UNL     1       8.764   1.067  -6.513  1.00  0.00     0.000 C 
BRANCH   6   7
ATOM      7  C   UNL     1       9.898   1.494  -7.467  1.00  0.00     0.000 C 
BRANCH   7   8
ATOM      8  C   UNL     1       9.492   2.515  -8.548  1.00  0.00     0.000 C 
BRANCH   8   9
ATOM      9  C   UNL     1       9.909   2.144  -9.986  1.00  0.00     0.000 C 
BRANCH   9  10
ATOM     10  C   UNL     1      10.100   3.341 -10.935  1.00  0.00     0.000 C 
BRANCH  10  11
ATOM     11  C   UNL     1       9.261   4.565 -10.527  1.00  0.00     0.000 C 
BRANCH  11  12
ATOM     12  C   UNL     1      10.124   5.801 -10.228  1.00  0.00     0.000 C 
BRANCH  12  13
ATOM     13  C   UNL     1       9.277   7.054  -9.943  1.00  0.00     0.006 C 
BRANCH  13  14
ATOM     14  C   UNL     1       8.437   6.907  -8.666  1.00  0.00     0.053 C 
BRANCH  14  15
ATOM     15  C   UNL     1       8.060   8.238  -8.090  1.00  0.00     0.041 C 
ATOM     16  O   UNL     1       7.045   8.849  -8.518  1.00  0.00    -0.550 OA
ATOM     17  O   UNL     1       8.814   8.792  -7.063  1.00  0.00    -0.550 OA
ENDBRANCH  14  15
ENDBRANCH  13  14
ENDBRANCH  12  13
ENDBRANCH  11  12
ENDBRANCH  10  11
ENDBRANCH   9  10
ENDBRANCH   8   9
ENDBRANCH   7   8
ENDBRANCH   6   7
ENDBRANCH   5   6
ENDBRANCH   4   5
ENDBRANCH   3   4
ENDBRANCH   2   3
ENDBRANCH   1   2
BRANCH   1  18
ATOM     18  C   UNL     1       5.244   2.938  -9.310  1.00  0.00     0.000 C 
BRANCH  18  19
ATOM     19  C   UNL     1       6.300   2.396 -10.288  1.00  0.00     0.000 C 
BRANCH  19  20
ATOM     20  C   UNL     1       5.818   1.143 -11.039  1.00  0.00     0.000 C 
BRANCH  20  21
ATOM     21  C   UNL     1       4.451   0.643 -10.538  1.00  0.00     0.000 C 
BRANCH  21  22
ATOM     22  C   UNL     1       4.523  -0.773  -9.941  1.00  0.00     0.000 C 
BRANCH  22  23
ATOM     23  C   UNL     1       3.166  -1.500  -9.982  1.00  0.00     0.000 C 
BRANCH  23  24
ATOM     24  C   UNL     1       3.241  -2.842 -10.731  1.00  0.00    -0.000 C 
BRANCH  24  25
ATOM     25  C   UNL     1       4.677  -3.382 -10.830  1.00  0.00    -0.000 C 
BRANCH  25  26
ATOM     26  C   UNL     1       4.860  -4.725 -10.103  1.00  0.00    -0.000 C 
BRANCH  26  27
ATOM     27  C   UNL     1       6.183  -5.443 -10.448  1.00  0.00    -0.000 C 
BRANCH  27  28
ATOM     28  C   UNL     1       7.379  -4.865  -9.675  1.00  0.00    -0.000 C 
BRANCH  28  29
ATOM     29  C   UNL     1       7.984  -3.623 -10.351  1.00  0.00    -0.000 C 
BRANCH  29  30
ATOM     30  C   UNL     1       9.489  -3.436 -10.064  1.00  0.00    -0.000 C 
BRANCH  30  31
ATOM     31  C   UNL     1       9.827  -1.989  -9.674  1.00  0.00    -0.003 C 
ATOM     32  C   UNL     1       8.623  -1.071  -9.871  1.00  0.00     0.004 C 
ENDBRANCH  30  31
ENDBRANCH  29  30
ENDBRANCH  28  29
ENDBRANCH  27  28
ENDBRANCH  26  27
ENDBRANCH  25  26
ENDBRANCH  24  25
ENDBRANCH  23  24
ENDBRANCH  22  23
ENDBRANCH  21  22
ENDBRANCH  20  21
ENDBRANCH  19  20
ENDBRANCH  18  19
ENDBRANCH   1  18
TORSDOF 28
ENDMDL
MODEL 9
REMARK VINA RESULT:    -2.680      4.512      9.434
REMARK INTER + INTRA:         -11.620
REMARK INTER:                  -7.976
REMARK INTRA:                  -3.644
REMARK UNBOUND:                -4.552
REMARK SMILES CCCCCCCCCCCCCCCCCCCCCCCCCCCCCC(=O)[O-]
REMARK SMILES IDX 16 1 17 2 18 3 19 4 20 5 21 6 22 7 23 8 24 9 25 10 26 11
REMARK SMILES IDX 27 12 28 13 29 14 30 15 31 16 32 17 15 18 14 19 13 20 12 21
REMARK SMILES IDX 11 22 10 23 9 24 8 25 7 26 6 27 5 28 4 29 3 30 2 31 1 32
REMARK H PARENT
REMARK Flexibility Score: inf
ROOT
ATOM      1  C   UNL     1       7.318   4.364  -8.388  1.00  0.00     0.000 C 
ENDROOT
BRANCH   1   2
ATOM      2  C   UNL     1       7.871   4.822  -9.753  1.00  0.00     0.000 C 
BRANCH   2   3
ATOM      3  C   UNL     1       6.839   5.470 -10.696  1.00  0.00     0.000 C 
BRANCH   3   4
ATOM      4  C   UNL     1       6.133   6.720 -10.138  1.00  0.00     0.000 C 
BRANCH   4   5
ATOM      5  C   UNL     1       6.949   8.009 -10.339  1.00  0.00     0.000 C 
BRANCH   5   6
ATOM      6  C   UNL     1       8.302   7.756 -11.028  1.00  0.00     0.000 C 
BRANCH   6   7
ATOM      7  C   UNL     1       9.542   8.103 -10.180  1.00  0.00     0.000 C 
BRANCH   7   8
ATOM      8  C   UNL     1       9.341   7.996  -8.655  1.00  0.00     0.000 C 
BRANCH   8   9
ATOM      9  C   UNL     1      10.073   9.069  -7.823  1.00  0.00     0.000 C 
BRANCH   9  10
ATOM     10  C   UNL     1       9.160   9.938  -6.939  1.00  0.00     0.000 C 
BRANCH  10  11
ATOM     11  C   UNL     1       7.682   9.874  -7.363  1.00  0.00     0.000 C 
BRANCH  11  12
ATOM     12  C   UNL     1       7.145  11.232  -7.841  1.00  0.00     0.000 C 
BRANCH  12  13
ATOM     13  C   UNL     1       7.662  11.609  -9.241  1.00  0.00     0.006 C 
BRANCH  13  14
ATOM     14  C   UNL     1       8.957  12.430  -9.180  1.00  0.00     0.053 C 
BRANCH  14  15
ATOM     15  C   UNL     1       9.679  12.432 -10.492  1.00  0.00     0.041 C 
ATOM     16  O   UNL     1      10.001  11.344 -11.039  1.00  0.00    -0.550 OA
ATOM     17  O   UNL     1       9.972  13.634 -11.125  1.00  0.00    -0.550 OA
ENDBRANCH  14  15
ENDBRANCH  13  14
ENDBRANCH  12  13
ENDBRANCH  11  12
ENDBRANCH  10  11
ENDBRANCH   9  10
ENDBRANCH   8   9
ENDBRANCH   7   8
ENDBRANCH   6   7
ENDBRANCH   5   6
ENDBRANCH   4   5
ENDBRANCH   3   4
ENDBRANCH   2   3
ENDBRANCH   1   2
BRANCH   1  18
ATOM     18  C   UNL     1       7.334   5.438  -7.284  1.00  0.00     0.000 C 
BRANCH  18  19
ATOM     19  C   UNL     1       6.084   5.389  -6.389  1.00  0.00     0.000 C 
BRANCH  19  20
ATOM     20  C   UNL     1       6.204   4.343  -5.267  1.00  0.00     0.000 C 
BRANCH  20  21
ATOM     21  C   UNL     1       5.904   2.914  -5.756  1.00  0.00     0.000 C 
BRANCH  21  22
ATOM     22  C   UNL     1       7.100   1.965  -5.576  1.00  0.00     0.000 C 
BRANCH  22  23
ATOM     23  C   UNL     1       7.976   1.873  -6.839  1.00  0.00     0.000 C 
BRANCH  23  24
ATOM     24  C   UNL     1       9.267   1.073  -6.602  1.00  0.00    -0.000 C 
BRANCH  24  25
ATOM     25  C   UNL     1      10.125   0.948  -7.872  1.00  0.00    -0.000 C 
BRANCH  25  26
ATOM     26  C   UNL     1       9.364   0.305  -9.044  1.00  0.00    -0.000 C 
BRANCH  26  27
ATOM     27  C   UNL     1       9.365   1.162 -10.329  1.00  0.00    -0.000 C 
BRANCH  27  28
ATOM     28  C   UNL     1       7.948   1.374 -10.888  1.00  0.00    -0.000 C 
BRANCH  28  29
ATOM     29  C   UNL     1       6.877   0.587 -10.115  1.00  0.00    -0.000 C 
BRANCH  29  30
ATOM     30  C   UNL     1       5.813   1.484  -9.447  1.00  0.00    -0.000 C 
BRANCH  30  31
ATOM     31  C   UNL     1       4.472   1.445 -10.194  1.00  0.00    -0.003 C 
ATOM     32  C   UNL     1       4.211   2.760 -10.925  1.00  0.00     0.004 C 
ENDBRANCH  30  31
ENDBRANCH  29  30
ENDBRANCH  28  29
ENDBRANCH  27  28
ENDBRANCH  26  27
ENDBRANCH  25  26
ENDBRANCH  24  25
ENDBRANCH  23  24
ENDBRANCH  22  23
ENDBRANCH  21  22
ENDBRANCH  20  21
ENDBRANCH  19  20
ENDBRANCH  18  19
ENDBRANCH   1  18
TORSDOF 28
ENDMDL
