MODEL 1
REMARK VINA RESULT:    73.081      0.000      0.000
REMARK INTER + INTRA:         104.761
REMARK INTER:                 102.988
REMARK INTRA:                   1.774
REMARK UNBOUND:                 1.774
REMARK SMILES C=C(CC[C@H](C(=O)[O-])[C@H]1[C@@H](O)C[C@@]2(C)C3=C(CC[C@@]12C)[C@@]1(C)CC[C@H](O)C(C)(C)[C@H]1CC3)C(C)C
REMARK SMILES IDX 4 1 5 2 6 3 7 4 8 5 9 6 10 7 19 8 12 9 13 10 18 11 20 12
REMARK SMILES IDX 14 13 15 14 17 15 16 16 32 17 21 18 31 19 30 20 23 21 22 22
REMARK SMILES IDX 27 23 24 24 25 25 28 26 29 27 11 28 26 30 3 32 2 33 1 34
REMARK SMILES IDX 33 35 34 36 35 37
REMARK H PARENT 11 29 26 31
REMARK Flexibility Score: inf
ROOT
ATOM      1  C   UNL     1      20.807  16.781  29.026  1.00  0.00     0.014 C 
ENDROOT
BRANCH   1   2
ATOM      2  C   UNL     1      20.670  17.736  27.825  1.00  0.00     0.042 C 
BRANCH   2   3
ATOM      3  C   UNL     1      20.340  19.136  28.296  1.00  0.00     0.045 C 
ATOM      4  O   UNL     1      20.250  20.086  27.458  1.00  0.00    -0.550 OA
ATOM      5  O   UNL     1      20.124  19.400  29.649  1.00  0.00    -0.550 OA
ENDBRANCH   2   3
BRANCH   2   6
ATOM      6  C   UNL     1      19.750  17.307  26.620  1.00  0.00     0.033 C 
ATOM      7  C   UNL     1      20.334  16.248  25.682  1.00  0.00     0.119 C 
ATOM      8  C   UNL     1      18.213  17.005  26.706  1.00  0.00    -0.017 C 
ATOM      9  C   UNL     1      19.199  15.899  24.699  1.00  0.00     0.043 C 
ATOM     10  C   UNL     1      17.886  16.586  25.204  1.00  0.00    -0.003 C 
ATOM     11  C   UNL     1      17.830  15.850  27.704  1.00  0.00     0.012 C 
ATOM     12  C   UNL     1      17.434  18.271  27.164  1.00  0.00     0.013 C 
ATOM     13  C   UNL     1      17.637  17.852  24.305  1.00  0.00     0.017 C 
ATOM     14  C   UNL     1      16.700  15.586  25.087  1.00  0.00    -0.064 C 
ATOM     15  C   UNL     1      17.621  14.473  27.075  1.00  0.00     0.032 C 
ATOM     16  C   UNL     1      16.587  14.545  25.969  1.00  0.00    -0.064 C 
ATOM     17  C   UNL     1      15.744  15.624  23.909  1.00  0.00     0.032 C 
ATOM     18  C   UNL     1      15.671  13.317  25.650  1.00  0.00    -0.008 C 
ATOM     19  C   UNL     1      14.366  15.200  24.368  1.00  0.00     0.009 C 
ATOM     20  C   UNL     1      14.372  13.719  24.801  1.00  0.00     0.007 C 
ATOM     21  C   UNL     1      15.284  12.572  26.966  1.00  0.00     0.014 C 
ATOM     22  C   UNL     1      16.556  12.351  24.812  1.00  0.00     0.016 C 
ATOM     23  C   UNL     1      12.972  13.273  25.384  1.00  0.00    -0.006 C 
ATOM     24  C   UNL     1      14.239  11.462  26.797  1.00  0.00     0.033 C 
ATOM     25  C   UNL     1      13.031  11.800  25.895  1.00  0.00     0.120 C 
ATOM     26  C   UNL     1      11.877  13.340  24.274  1.00  0.00     0.014 C 
ATOM     27  C   UNL     1      12.477  14.211  26.529  1.00  0.00     0.014 C 
BRANCH   7  28
ATOM     28  O   UNL     1      20.745  15.118  26.399  1.00  0.00    -0.393 OA
ATOM     29  H   UNL     1      21.095  14.463  25.735  1.00  0.00     0.210 HD
ENDBRANCH   7  28
BRANCH  25  30
ATOM     30  O   UNL     1      12.945  10.877  24.833  1.00  0.00    -0.393 OA
ATOM     31  H   UNL     1      13.824  10.830  24.388  1.00  0.00     0.210 HD
ENDBRANCH  25  30
ENDBRANCH   2   6
ENDBRANCH   1   2
BRANCH   1  32
ATOM     32  C   UNL     1      20.619  15.310  28.602  1.00  0.00     0.031 C 
BRANCH  32  33
ATOM     33  C   UNL     1      21.354  14.354  29.518  1.00  0.00    -0.075 C 
ATOM     34  C   UNL     1      22.670  14.133  29.340  1.00  0.00     0.008 C 
BRANCH  33  35
ATOM     35  C   UNL     1      20.596  13.721  30.675  1.00  0.00     0.008 C 
ATOM     36  C   UNL     1      20.491  14.661  31.882  1.00  0.00     0.012 C 
ATOM     37  C   UNL     1      19.212  13.250  30.225  1.00  0.00     0.012 C 
ENDBRANCH  33  35
ENDBRANCH  32  33
ENDBRANCH   1  32
TORSDOF 8
ENDMDL
MODEL 2
REMARK VINA RESULT:    74.312      1.760      3.208
REMARK INTER + INTRA:         106.496
REMARK INTER:                 106.888
REMARK INTRA:                  -0.392
REMARK UNBOUND:                 1.774
REMARK SMILES C=C(CC[C@H](C(=O)[O-])[C@H]1[C@@H](O)C[C@@]2(C)C3=C(CC[C@@]12C)[C@@]1(C)CC[C@H](O)C(C)(C)[C@H]1CC3)C(C)C
REMARK SMILES IDX 4 1 5 2 6 3 7 4 8 5 9 6 10 7 19 8 12 9 13 10 18 11 20 12
REMARK SMILES IDX 14 13 15 14 17 15 16 16 32 17 21 18 31 19 30 20 23 21 22 22
REMARK SMILES IDX 27 23 24 24 25 25 28 26 29 27 11 28 26 30 3 32 2 33 1 34
REMARK SMILES IDX 33 35 34 36 35 37
REMARK H PARENT 11 29 26 31
REMARK Flexibility Score: inf
ROOT
ATOM      1  C   UNL     1      21.546  17.633  28.894  1.00  0.00     0.014 C 
ENDROOT
BRANCH   1   2
ATOM      2  C   UNL     1      20.565  16.449  28.778  1.00  0.00     0.042 C 
BRANCH   2   3
ATOM      3  C   UNL     1      21.239  15.160  29.193  1.00  0.00     0.045 C 
ATOM      4  O   UNL     1      20.585  14.273  29.824  1.00  0.00    -0.550 OA
ATOM      5  O   UNL     1      22.580  14.925  28.884  1.00  0.00    -0.550 OA
ENDBRANCH   2   3
BRANCH   2   6
ATOM      6  C   UNL     1      19.758  16.267  27.438  1.00  0.00     0.033 C 
ATOM      7  C   UNL     1      20.345  15.266  26.439  1.00  0.00     0.119 C 
ATOM      8  C   UNL     1      18.200  16.128  27.320  1.00  0.00    -0.017 C 
ATOM      9  C   UNL     1      19.307  15.160  25.305  1.00  0.00     0.043 C 
ATOM     10  C   UNL     1      18.016  15.924  25.752  1.00  0.00    -0.003 C 
ATOM     11  C   UNL     1      17.592  14.914  28.116  1.00  0.00     0.012 C 
ATOM     12  C   UNL     1      17.498  17.410  27.851  1.00  0.00     0.013 C 
ATOM     13  C   UNL     1      17.998  17.306  25.000  1.00  0.00     0.017 C 
ATOM     14  C   UNL     1      16.762  15.081  25.381  1.00  0.00    -0.064 C 
ATOM     15  C   UNL     1      17.328  13.650  27.297  1.00  0.00     0.032 C 
ATOM     16  C   UNL     1      16.445  13.964  26.106  1.00  0.00    -0.064 C 
ATOM     17  C   UNL     1      15.961  15.361  24.123  1.00  0.00     0.032 C 
ATOM     18  C   UNL     1      15.460  12.890  25.537  1.00  0.00    -0.008 C 
ATOM     19  C   UNL     1      14.503  15.041  24.375  1.00  0.00     0.009 C 
ATOM     20  C   UNL     1      14.315  13.528  24.613  1.00  0.00     0.007 C 
ATOM     21  C   UNL     1      14.849  12.044  26.698  1.00  0.00     0.014 C 
ATOM     22  C   UNL     1      16.341  11.936  24.681  1.00  0.00     0.016 C 
ATOM     23  C   UNL     1      12.819  13.174  24.982  1.00  0.00    -0.006 C 
ATOM     24  C   UNL     1      13.730  11.083  26.279  1.00  0.00     0.033 C 
ATOM     25  C   UNL     1      12.676  11.654  25.304  1.00  0.00     0.120 C 
ATOM     26  C   UNL     1      11.876  13.490  23.779  1.00  0.00     0.014 C 
ATOM     27  C   UNL     1      12.285  14.021  26.178  1.00  0.00     0.014 C 
BRANCH   7  28
ATOM     28  O   UNL     1      20.558  14.022  27.045  1.00  0.00    -0.393 OA
ATOM     29  H   UNL     1      20.784  13.379  26.319  1.00  0.00     0.210 HD
ENDBRANCH   7  28
BRANCH  25  30
ATOM     30  O   UNL     1      12.629  10.875  24.129  1.00  0.00    -0.393 OA
ATOM     31  H   UNL     1      13.200  11.302  23.449  1.00  0.00     0.210 HD
ENDBRANCH  25  30
ENDBRANCH   2   6
ENDBRANCH   1   2
BRANCH   1  32
ATOM     32  C   UNL     1      21.244  18.496  30.135  1.00  0.00     0.031 C 
BRANCH  32  33
ATOM     33  C   UNL     1      22.088  19.753  30.174  1.00  0.00    -0.075 C 
ATOM     34  C   UNL     1      23.431  19.659  30.189  1.00  0.00     0.008 C 
BRANCH  33  35
ATOM     35  C   UNL     1      21.391  21.105  30.117  1.00  0.00     0.008 C 
ATOM     36  C   UNL     1      22.226  22.155  29.376  1.00  0.00     0.012 C 
ATOM     37  C   UNL     1      19.999  20.972  29.496  1.00  0.00     0.012 C 
ENDBRANCH  33  35
ENDBRANCH  32  33
ENDBRANCH   1  32
TORSDOF 8
ENDMDL
