MODEL 1
REMARK VINA RESULT:    -5.743      0.000      0.000
REMARK INTER + INTRA:          -6.168
REMARK INTER:                  -6.079
REMARK INTRA:                  -0.089
REMARK UNBOUND:                -0.089
REMARK SMILES C=C(C)[C@H]1CC=C(C)C(=O)C1
REMARK SMILES IDX 8 1 7 2 6 3 5 4 4 5 11 6 9 7 10 8 2 9 1 10 3 11
REMARK H PARENT
REMARK Flexibility Score: inf
ROOT
ATOM      1  C   UNL     1     -12.110 -20.624  31.638  1.00  0.00     0.048 C 
ATOM      2  C   UNL     1     -12.096 -19.814  30.371  1.00  0.00    -0.012 C 
ATOM      3  C   UNL     1     -13.162 -19.834  29.553  1.00  0.00    -0.019 C 
ATOM      4  C   UNL     1     -13.194 -19.055  28.263  1.00  0.00     0.036 C 
ATOM      5  C   UNL     1     -12.386 -17.749  28.386  1.00  0.00     0.025 C 
ATOM      6  C   UNL     1     -10.949 -18.050  28.849  1.00  0.00     0.089 C 
ATOM      7  C   UNL     1     -10.961 -18.898  30.091  1.00  0.00     0.158 C 
ATOM      8  O   UNL     1      -9.976 -18.851  30.877  1.00  0.00    -0.295 OA
ENDROOT
BRANCH   5   9
ATOM      9  C   UNL     1     -12.397 -16.965  27.080  1.00  0.00    -0.077 C 
ATOM     10  C   UNL     1     -13.418 -16.139  26.800  1.00  0.00     0.008 C 
ATOM     11  C   UNL     1     -11.275 -17.089  26.078  1.00  0.00     0.039 C 
ENDBRANCH   5   9
TORSDOF 1
ENDMDL
MODEL 2
REMARK VINA RESULT:    -5.200      1.671      2.273
REMARK INTER + INTRA:          -5.593
REMARK INTER:                  -5.495
REMARK INTRA:                  -0.098
REMARK UNBOUND:                -0.089
REMARK SMILES C=C(C)[C@H]1CC=C(C)C(=O)C1
REMARK SMILES IDX 8 1 7 2 6 3 5 4 4 5 11 6 9 7 10 8 2 9 1 10 3 11
REMARK H PARENT
REMARK Flexibility Score: inf
ROOT
ATOM      1  C   UNL     1     -12.074 -20.626  31.512  1.00  0.00     0.048 C 
ATOM      2  C   UNL     1     -12.451 -19.499  30.590  1.00  0.00    -0.012 C 
ATOM      3  C   UNL     1     -12.342 -18.227  31.008  1.00  0.00    -0.019 C 
ATOM      4  C   UNL     1     -12.723 -17.062  30.132  1.00  0.00     0.036 C 
ATOM      5  C   UNL     1     -12.449 -17.373  28.648  1.00  0.00     0.025 C 
ATOM      6  C   UNL     1     -13.164 -18.672  28.233  1.00  0.00     0.089 C 
ATOM      7  C   UNL     1     -12.822 -19.788  29.181  1.00  0.00     0.158 C 
ATOM      8  O   UNL     1     -12.890 -20.980  28.776  1.00  0.00    -0.295 OA
ENDROOT
BRANCH   5   9
ATOM      9  C   UNL     1     -12.850 -16.208  27.754  1.00  0.00    -0.077 C 
ATOM     10  C   UNL     1     -12.988 -16.392  26.431  1.00  0.00     0.008 C 
ATOM     11  C   UNL     1     -13.104 -14.832  28.318  1.00  0.00     0.039 C 
ENDBRANCH   5   9
TORSDOF 1
ENDMDL
MODEL 3
REMARK VINA RESULT:    -5.127      2.937      4.344
REMARK INTER + INTRA:          -5.515
REMARK INTER:                  -5.417
REMARK INTRA:                  -0.098
REMARK UNBOUND:                -0.089
REMARK SMILES C=C(C)[C@H]1CC=C(C)C(=O)C1
REMARK SMILES IDX 8 1 7 2 6 3 5 4 4 5 11 6 9 7 10 8 2 9 1 10 3 11
REMARK H PARENT
REMARK Flexibility Score: inf
ROOT
ATOM      1  C   UNL     1     -10.955 -17.380  26.838  1.00  0.00     0.048 C 
ATOM      2  C   UNL     1     -11.587 -16.719  28.032  1.00  0.00    -0.012 C 
ATOM      3  C   UNL     1     -12.582 -15.833  27.858  1.00  0.00    -0.019 C 
ATOM      4  C   UNL     1     -13.238 -15.129  29.017  1.00  0.00     0.036 C 
ATOM      5  C   UNL     1     -13.268 -16.029  30.266  1.00  0.00     0.025 C 
ATOM      6  C   UNL     1     -11.848 -16.517  30.608  1.00  0.00     0.089 C 
ATOM      7  C   UNL     1     -11.198 -17.138  29.403  1.00  0.00     0.158 C 
ATOM      8  O   UNL     1     -10.289 -17.996  29.569  1.00  0.00    -0.295 OA
ENDROOT
BRANCH   5   9
ATOM      9  C   UNL     1     -13.911 -15.318  31.449  1.00  0.00    -0.077 C 
ATOM     10  C   UNL     1     -14.739 -14.281  31.241  1.00  0.00     0.008 C 
ATOM     11  C   UNL     1     -13.644 -15.752  32.869  1.00  0.00     0.039 C 
ENDBRANCH   5   9
TORSDOF 1
ENDMDL
MODEL 4
REMARK VINA RESULT:    -5.127      2.331      4.724
REMARK INTER + INTRA:          -5.515
REMARK INTER:                  -5.418
REMARK INTRA:                  -0.097
REMARK UNBOUND:                -0.089
REMARK SMILES C=C(C)[C@H]1CC=C(C)C(=O)C1
REMARK SMILES IDX 8 1 7 2 6 3 5 4 4 5 11 6 9 7 10 8 2 9 1 10 3 11
REMARK H PARENT
REMARK Flexibility Score: inf
ROOT
ATOM      1  C   UNL     1     -13.852 -14.326  27.982  1.00  0.00     0.048 C 
ATOM      2  C   UNL     1     -13.120 -15.490  28.591  1.00  0.00    -0.012 C 
ATOM      3  C   UNL     1     -12.934 -15.542  29.921  1.00  0.00    -0.019 C 
ATOM      4  C   UNL     1     -12.193 -16.675  30.581  1.00  0.00     0.036 C 
ATOM      5  C   UNL     1     -12.407 -17.995  29.817  1.00  0.00     0.025 C 
ATOM      6  C   UNL     1     -12.016 -17.827  28.337  1.00  0.00     0.089 C 
ATOM      7  C   UNL     1     -12.714 -16.637  27.739  1.00  0.00     0.158 C 
ATOM      8  O   UNL     1     -12.919 -16.606  26.495  1.00  0.00    -0.295 OA
ENDROOT
BRANCH   5   9
ATOM      9  C   UNL     1     -11.644 -19.143  30.466  1.00  0.00    -0.077 C 
ATOM     10  C   UNL     1     -10.303 -19.111  30.523  1.00  0.00     0.008 C 
ATOM     11  C   UNL     1     -12.362 -20.330  31.058  1.00  0.00     0.039 C 
ENDBRANCH   5   9
TORSDOF 1
ENDMDL
MODEL 5
REMARK VINA RESULT:    -4.936      3.491      4.230
REMARK INTER + INTRA:          -5.313
REMARK INTER:                  -5.215
REMARK INTRA:                  -0.099
REMARK UNBOUND:                -0.089
REMARK SMILES C=C(C)[C@H]1CC=C(C)C(=O)C1
REMARK SMILES IDX 8 1 7 2 6 3 5 4 4 5 11 6 9 7 10 8 2 9 1 10 3 11
REMARK H PARENT
REMARK Flexibility Score: inf
ROOT
ATOM      1  C   UNL     1     -14.749 -14.975  32.355  1.00  0.00     0.048 C 
ATOM      2  C   UNL     1     -13.829 -15.336  31.220  1.00  0.00    -0.012 C 
ATOM      3  C   UNL     1     -12.948 -16.340  31.367  1.00  0.00    -0.019 C 
ATOM      4  C   UNL     1     -11.992 -16.731  30.270  1.00  0.00     0.036 C 
ATOM      5  C   UNL     1     -12.618 -16.500  28.882  1.00  0.00     0.025 C 
ATOM      6  C   UNL     1     -13.097 -15.042  28.746  1.00  0.00     0.089 C 
ATOM      7  C   UNL     1     -13.981 -14.667  29.903  1.00  0.00     0.158 C 
ATOM      8  O   UNL     1     -14.832 -13.749  29.753  1.00  0.00    -0.295 OA
ENDROOT
BRANCH   5   9
ATOM      9  C   UNL     1     -11.651 -16.873  27.767  1.00  0.00    -0.077 C 
ATOM     10  C   UNL     1     -10.410 -17.292  28.065  1.00  0.00     0.008 C 
ATOM     11  C   UNL     1     -12.052 -16.787  26.315  1.00  0.00     0.039 C 
ENDBRANCH   5   9
TORSDOF 1
ENDMDL
MODEL 6
REMARK VINA RESULT:    -4.713      3.130      4.982
REMARK INTER + INTRA:          -5.077
REMARK INTER:                  -4.988
REMARK INTRA:                  -0.089
REMARK UNBOUND:                -0.089
REMARK SMILES C=C(C)[C@H]1CC=C(C)C(=O)C1
REMARK SMILES IDX 8 1 7 2 6 3 5 4 4 5 11 6 9 7 10 8 2 9 1 10 3 11
REMARK H PARENT
REMARK Flexibility Score: inf
ROOT
ATOM      1  C   UNL     1     -15.195 -13.090  29.327  1.00  0.00     0.048 C 
ATOM      2  C   UNL     1     -14.277 -14.281  29.350  1.00  0.00    -0.012 C 
ATOM      3  C   UNL     1     -13.618 -14.639  28.235  1.00  0.00    -0.019 C 
ATOM      4  C   UNL     1     -12.701 -15.834  28.197  1.00  0.00     0.036 C 
ATOM      5  C   UNL     1     -12.011 -16.045  29.558  1.00  0.00     0.025 C 
ATOM      6  C   UNL     1     -13.060 -16.151  30.680  1.00  0.00     0.089 C 
ATOM      7  C   UNL     1     -14.005 -14.982  30.631  1.00  0.00     0.158 C 
ATOM      8  O   UNL     1     -14.596 -14.625  31.686  1.00  0.00    -0.295 OA
ENDROOT
BRANCH   5   9
ATOM      9  C   UNL     1     -11.097 -17.263  29.535  1.00  0.00    -0.077 C 
ATOM     10  C   UNL     1      -9.875 -17.177  28.985  1.00  0.00     0.008 C 
ATOM     11  C   UNL     1     -11.529 -18.583  30.124  1.00  0.00     0.039 C 
ENDBRANCH   5   9
TORSDOF 1
ENDMDL
MODEL 7
REMARK VINA RESULT:    -4.451      1.914      3.136
REMARK INTER + INTRA:          -4.800
REMARK INTER:                  -4.701
REMARK INTRA:                  -0.099
REMARK UNBOUND:                -0.089
REMARK SMILES C=C(C)[C@H]1CC=C(C)C(=O)C1
REMARK SMILES IDX 8 1 7 2 6 3 5 4 4 5 11 6 9 7 10 8 2 9 1 10 3 11
REMARK H PARENT
REMARK Flexibility Score: inf
ROOT
ATOM      1  C   UNL     1     -14.003 -20.530  28.685  1.00  0.00     0.048 C 
ATOM      2  C   UNL     1     -12.949 -19.501  28.986  1.00  0.00    -0.012 C 
ATOM      3  C   UNL     1     -12.864 -18.390  28.234  1.00  0.00    -0.019 C 
ATOM      4  C   UNL     1     -11.817 -17.336  28.480  1.00  0.00     0.036 C 
ATOM      5  C   UNL     1     -11.474 -17.236  29.979  1.00  0.00     0.025 C 
ATOM      6  C   UNL     1     -11.054 -18.613  30.525  1.00  0.00     0.089 C 
ATOM      7  C   UNL     1     -12.087 -19.652  30.186  1.00  0.00     0.158 C 
ATOM      8  O   UNL     1     -12.189 -20.677  30.914  1.00  0.00    -0.295 OA
ENDROOT
BRANCH   5   9
ATOM      9  C   UNL     1     -10.401 -16.186  30.235  1.00  0.00    -0.077 C 
ATOM     10  C   UNL     1      -9.875 -15.498  29.209  1.00  0.00     0.008 C 
ATOM     11  C   UNL     1      -9.905 -15.891  31.629  1.00  0.00     0.039 C 
ENDBRANCH   5   9
TORSDOF 1
ENDMDL
MODEL 8
REMARK VINA RESULT:    -4.415      2.142      4.462
REMARK INTER + INTRA:          -4.762
REMARK INTER:                  -4.669
REMARK INTRA:                  -0.093
REMARK UNBOUND:                -0.089
REMARK SMILES C=C(C)[C@H]1CC=C(C)C(=O)C1
REMARK SMILES IDX 8 1 7 2 6 3 5 4 4 5 11 6 9 7 10 8 2 9 1 10 3 11
REMARK H PARENT
REMARK Flexibility Score: inf
ROOT
ATOM      1  C   UNL     1      -9.882 -14.742  29.316  1.00  0.00     0.048 C 
ATOM      2  C   UNL     1     -10.498 -16.111  29.406  1.00  0.00    -0.012 C 
ATOM      3  C   UNL     1      -9.877 -17.080  30.100  1.00  0.00    -0.019 C 
ATOM      4  C   UNL     1     -10.440 -18.473  30.208  1.00  0.00     0.036 C 
ATOM      5  C   UNL     1     -11.981 -18.449  30.197  1.00  0.00     0.025 C 
ATOM      6  C   UNL     1     -12.495 -17.706  28.950  1.00  0.00     0.089 C 
ATOM      7  C   UNL     1     -11.847 -16.355  28.835  1.00  0.00     0.158 C 
ATOM      8  O   UNL     1     -12.447 -15.436  28.214  1.00  0.00    -0.295 OA
ENDROOT
BRANCH   5   9
ATOM      9  C   UNL     1     -12.559 -19.855  30.285  1.00  0.00    -0.077 C 
ATOM     10  C   UNL     1     -12.268 -20.637  31.336  1.00  0.00     0.008 C 
ATOM     11  C   UNL     1     -13.465 -20.402  29.210  1.00  0.00     0.039 C 
ENDBRANCH   5   9
TORSDOF 1
ENDMDL
MODEL 9
REMARK VINA RESULT:    -4.302      2.370      2.985
REMARK INTER + INTRA:          -4.642
REMARK INTER:                  -4.544
REMARK INTRA:                  -0.099
REMARK UNBOUND:                -0.089
REMARK SMILES C=C(C)[C@H]1CC=C(C)C(=O)C1
REMARK SMILES IDX 8 1 7 2 6 3 5 4 4 5 11 6 9 7 10 8 2 9 1 10 3 11
REMARK H PARENT
REMARK Flexibility Score: inf
ROOT
ATOM      1  C   UNL     1     -13.504 -15.808  32.341  1.00  0.00     0.048 C 
ATOM      2  C   UNL     1     -13.272 -16.124  30.889  1.00  0.00    -0.012 C 
ATOM      3  C   UNL     1     -13.271 -15.133  29.981  1.00  0.00    -0.019 C 
ATOM      4  C   UNL     1     -13.062 -15.396  28.512  1.00  0.00     0.036 C 
ATOM      5  C   UNL     1     -12.119 -16.594  28.293  1.00  0.00     0.025 C 
ATOM      6  C   UNL     1     -12.647 -17.834  29.038  1.00  0.00     0.089 C 
ATOM      7  C   UNL     1     -12.921 -17.507  30.480  1.00  0.00     0.158 C 
ATOM      8  O   UNL     1     -12.886 -18.432  31.337  1.00  0.00    -0.295 OA
ENDROOT
BRANCH   5   9
ATOM      9  C   UNL     1     -11.918 -16.879  26.811  1.00  0.00    -0.077 C 
ATOM     10  C   UNL     1     -12.872 -16.547  25.927  1.00  0.00     0.008 C 
ATOM     11  C   UNL     1     -10.658 -17.532  26.299  1.00  0.00     0.039 C 
ENDBRANCH   5   9
TORSDOF 1
ENDMDL
