MODEL 1
REMARK VINA RESULT:   112.002      0.000      0.000
REMARK INTER + INTRA:         122.087
REMARK INTER:                 121.824
REMARK INTRA:                   0.263
REMARK UNBOUND:                 0.263
REMARK SMILES C[C@@H]1[C@H]2C3=CC[C@@H]4[C@@]5(C)CC[C@@H](O)C(C)(C)[C@@H]5CC[C@]4(C)[C@@]3(C)CC[C@@]2(C(=O)[O-])CC[C@@H]1C
REMARK SMILES IDX 26 1 30 2 25 3 3 4 31 5 24 6 4 7 2 8 32 9 22 10 5 11 1 12
REMARK SMILES IDX 33 13 23 14 20 15 6 16 7 17 19 18 21 19 8 20 18 21 17 22
REMARK SMILES IDX 10 23 9 24 14 25 11 26 12 27 15 28 16 29 27 30 28 31 29 32
REMARK SMILES IDX 13 33
REMARK H PARENT 13 34
REMARK Flexibility Score: inf
ROOT
ATOM      1  C   UNL     1       7.653  40.510  14.484  1.00  0.00     0.017 C 
ATOM      2  C   UNL     1       7.184  40.715  15.968  1.00  0.00     0.014 C 
ATOM      3  C   UNL     1       8.541  41.732  14.129  1.00  0.00     0.014 C 
ATOM      4  C   UNL     1       6.496  40.359  13.370  1.00  0.00     0.030 C 
ATOM      5  C   UNL     1       5.769  41.233  16.125  1.00  0.00     0.004 C 
ATOM      6  C   UNL     1       9.207  41.567  12.765  1.00  0.00     0.013 C 
ATOM      7  C   UNL     1       6.743  41.262  12.101  1.00  0.00    -0.063 C 
ATOM      8  C   UNL     1       5.000  40.403  13.899  1.00  0.00    -0.003 C 
ATOM      9  C   UNL     1       4.794  40.294  15.428  1.00  0.00    -0.011 C 
ATOM     10  C   UNL     1       8.187  41.433  11.568  1.00  0.00    -0.006 C 
ATOM     11  C   UNL     1       5.703  41.662  11.316  1.00  0.00    -0.027 C 
ATOM     12  C   UNL     1       4.096  39.377  13.164  1.00  0.00     0.008 C 
ATOM     13  C   UNL     1       4.844  38.858  15.992  1.00  0.00     0.008 C 
ATOM     14  C   UNL     1       8.523  40.092  10.868  1.00  0.00     0.017 C 
ATOM     15  C   UNL     1       8.304  42.717  10.592  1.00  0.00    -0.020 C 
ATOM     16  C   UNL     1       5.767  42.452  10.039  1.00  0.00     0.032 C 
ATOM     17  C   UNL     1       7.170  42.792   9.477  1.00  0.00     0.006 C 
ATOM     18  C   UNL     1       9.740  42.870   9.957  1.00  0.00     0.008 C 
ATOM     19  C   UNL     1       8.088  44.002  11.484  1.00  0.00     0.012 C 
ATOM     20  C   UNL     1       7.451  42.278   7.990  1.00  0.00    -0.025 C 
ATOM     21  C   UNL     1       9.953  42.312   8.545  1.00  0.00     0.005 C 
ATOM     22  C   UNL     1       8.871  42.812   7.572  1.00  0.00     0.003 C 
ATOM     23  C   UNL     1       6.400  42.927   7.020  1.00  0.00     0.010 C 
ATOM     24  C   UNL     1       7.300  40.729   7.880  1.00  0.00     0.012 C 
ATOM     25  C   UNL     1       9.254  42.692   6.041  1.00  0.00    -0.006 C 
ATOM     26  C   UNL     1       6.729  42.765   5.525  1.00  0.00     0.033 C 
ATOM     27  C   UNL     1       8.116  43.321   5.175  1.00  0.00     0.120 C 
ATOM     28  C   UNL     1      10.556  43.494   5.750  1.00  0.00     0.014 C 
ATOM     29  C   UNL     1       9.533  41.234   5.587  1.00  0.00     0.014 C 
ENDROOT
BRANCH   1  30
ATOM     30  C   UNL     1       8.529  39.249  14.523  1.00  0.00     0.048 C 
ATOM     31  O   UNL     1       9.780  39.335  14.386  1.00  0.00    -0.550 OA
ATOM     32  O   UNL     1       7.991  38.011  14.861  1.00  0.00    -0.550 OA
ENDBRANCH   1  30
BRANCH  27  33
ATOM     33  O   UNL     1       8.100  44.721   5.334  1.00  0.00    -0.393 OA
ATOM     34  H   UNL     1       8.996  44.987   5.668  1.00  0.00     0.210 HD
ENDBRANCH  27  33
TORSDOF 2
ENDMDL
