MODEL 1
REMARK VINA RESULT:    -3.151      0.000      0.000
REMARK INTER + INTRA:          -3.747
REMARK INTER:                  -3.704
REMARK INTRA:                  -0.043
REMARK UNBOUND:                -0.043
REMARK SMILES O=C([O-])CCC(=O)[O-]
REMARK SMILES IDX 4 1 2 2 1 3 3 4 5 5 6 6 7 7 8 8
REMARK H PARENT
REMARK Flexibility Score: inf
ROOT
ATOM      1  C   UNL     1     188.337 196.598 172.379  1.00  0.00     0.059 C 
ENDROOT
BRANCH   1   2
ATOM      2  C   UNL     1     187.591 196.839 173.656  1.00  0.00     0.042 C 
ATOM      3  O   UNL     1     188.136 197.471 174.600  1.00  0.00    -0.550 OA
ATOM      4  O   UNL     1     186.309 196.330 173.818  1.00  0.00    -0.550 OA
ENDBRANCH   1   2
BRANCH   1   5
ATOM      5  C   UNL     1     189.800 197.035 172.489  1.00  0.00     0.059 C 
BRANCH   5   6
ATOM      6  C   UNL     1     190.380 197.371 171.149  1.00  0.00     0.042 C 
ATOM      7  O   UNL     1     189.779 197.031 170.095  1.00  0.00    -0.550 OA
ATOM      8  O   UNL     1     191.562 198.097 171.063  1.00  0.00    -0.550 OA
ENDBRANCH   5   6
ENDBRANCH   1   5
TORSDOF 3
ENDMDL
MODEL 2
REMARK VINA RESULT:    -3.084      0.227      4.229
REMARK INTER + INTRA:          -3.668
REMARK INTER:                  -3.622
REMARK INTRA:                  -0.046
REMARK UNBOUND:                -0.043
REMARK SMILES O=C([O-])CCC(=O)[O-]
REMARK SMILES IDX 4 1 2 2 1 3 3 4 5 5 6 6 7 7 8 8
REMARK H PARENT
REMARK Flexibility Score: inf
ROOT
ATOM      1  C   UNL     1     189.942 197.096 172.475  1.00  0.00     0.059 C 
ENDROOT
BRANCH   1   2
ATOM      2  C   UNL     1     190.383 197.406 171.077  1.00  0.00     0.042 C 
ATOM      3  O   UNL     1     189.718 196.986 170.093  1.00  0.00    -0.550 OA
ATOM      4  O   UNL     1     191.552 198.125 170.861  1.00  0.00    -0.550 OA
ENDBRANCH   1   2
BRANCH   1   5
ATOM      5  C   UNL     1     188.609 196.342 172.491  1.00  0.00     0.059 C 
BRANCH   5   6
ATOM      6  C   UNL     1     187.725 196.804 173.610  1.00  0.00     0.042 C 
ATOM      7  O   UNL     1     186.493 196.546 173.590  1.00  0.00    -0.550 OA
ATOM      8  O   UNL     1     188.271 197.480 174.694  1.00  0.00    -0.550 OA
ENDBRANCH   5   6
ENDBRANCH   1   5
TORSDOF 3
ENDMDL
MODEL 3
REMARK VINA RESULT:    -2.959     10.004     10.919
REMARK INTER + INTRA:          -3.521
REMARK INTER:                  -3.440
REMARK INTRA:                  -0.081
REMARK UNBOUND:                -0.043
REMARK SMILES O=C([O-])CCC(=O)[O-]
REMARK SMILES IDX 4 1 2 2 1 3 3 4 5 5 6 6 7 7 8 8
REMARK H PARENT
REMARK Flexibility Score: inf
ROOT
ATOM      1  C   UNL     1     183.918 187.971 169.374  1.00  0.00     0.059 C 
ENDROOT
BRANCH   1   2
ATOM      2  C   UNL     1     182.848 187.763 170.401  1.00  0.00     0.042 C 
ATOM      3  O   UNL     1     182.915 186.794 171.202  1.00  0.00    -0.550 OA
ATOM      4  O   UNL     1     181.755 188.620 170.447  1.00  0.00    -0.550 OA
ENDBRANCH   1   2
BRANCH   1   5
ATOM      5  C   UNL     1     185.013 186.905 169.477  1.00  0.00     0.059 C 
BRANCH   5   6
ATOM      6  C   UNL     1     186.177 187.384 170.291  1.00  0.00     0.042 C 
ATOM      7  O   UNL     1     186.636 188.544 170.118  1.00  0.00    -0.550 OA
ATOM      8  O   UNL     1     186.726 186.565 171.270  1.00  0.00    -0.550 OA
ENDBRANCH   5   6
ENDBRANCH   1   5
TORSDOF 3
ENDMDL
MODEL 4
REMARK VINA RESULT:    -2.946     10.697     11.522
REMARK INTER + INTRA:          -3.506
REMARK INTER:                  -3.420
REMARK INTRA:                  -0.086
REMARK UNBOUND:                -0.043
REMARK SMILES O=C([O-])CCC(=O)[O-]
REMARK SMILES IDX 4 1 2 2 1 3 3 4 5 5 6 6 7 7 8 8
REMARK H PARENT
REMARK Flexibility Score: inf
ROOT
ATOM      1  C   UNL     1     185.814 187.835 169.572  1.00  0.00     0.059 C 
ENDROOT
BRANCH   1   2
ATOM      2  C   UNL     1     186.483 186.589 170.069  1.00  0.00     0.042 C 
ATOM      3  O   UNL     1     186.796 186.477 171.283  1.00  0.00    -0.550 OA
ATOM      4  O   UNL     1     186.795 185.567 169.180  1.00  0.00    -0.550 OA
ENDBRANCH   1   2
BRANCH   1   5
ATOM      5  C   UNL     1     184.484 187.523 168.879  1.00  0.00     0.059 C 
BRANCH   5   6
ATOM      6  C   UNL     1     183.314 187.957 169.708  1.00  0.00     0.042 C 
ATOM      7  O   UNL     1     182.557 188.878 169.301  1.00  0.00    -0.550 OA
ATOM      8  O   UNL     1     183.034 187.315 170.908  1.00  0.00    -0.550 OA
ENDBRANCH   5   6
ENDBRANCH   1   5
TORSDOF 3
ENDMDL
MODEL 5
REMARK VINA RESULT:    -2.922     10.631     11.326
REMARK INTER + INTRA:          -3.477
REMARK INTER:                  -3.394
REMARK INTRA:                  -0.083
REMARK UNBOUND:                -0.043
REMARK SMILES O=C([O-])CCC(=O)[O-]
REMARK SMILES IDX 4 1 2 2 1 3 3 4 5 5 6 6 7 7 8 8
REMARK H PARENT
REMARK Flexibility Score: inf
ROOT
ATOM      1  C   UNL     1     186.525 187.775 170.459  1.00  0.00     0.059 C 
ENDROOT
BRANCH   1   2
ATOM      2  C   UNL     1     187.327 186.532 170.697  1.00  0.00     0.042 C 
ATOM      3  O   UNL     1     187.637 185.782 169.734  1.00  0.00    -0.550 OA
ATOM      4  O   UNL     1     187.698 186.183 171.989  1.00  0.00    -0.550 OA
ENDBRANCH   1   2
BRANCH   1   5
ATOM      5  C   UNL     1     185.682 187.667 169.185  1.00  0.00     0.059 C 
BRANCH   5   6
ATOM      6  C   UNL     1     184.216 187.618 169.494  1.00  0.00     0.042 C 
ATOM      7  O   UNL     1     183.374 187.975 168.628  1.00  0.00    -0.550 OA
ATOM      8  O   UNL     1     183.779 187.137 170.722  1.00  0.00    -0.550 OA
ENDBRANCH   5   6
ENDBRANCH   1   5
TORSDOF 3
ENDMDL
MODEL 6
REMARK VINA RESULT:    -2.908     10.635     11.046
REMARK INTER + INTRA:          -3.461
REMARK INTER:                  -3.382
REMARK INTRA:                  -0.080
REMARK UNBOUND:                -0.043
REMARK SMILES O=C([O-])CCC(=O)[O-]
REMARK SMILES IDX 4 1 2 2 1 3 3 4 5 5 6 6 7 7 8 8
REMARK H PARENT
REMARK Flexibility Score: inf
ROOT
ATOM      1  C   UNL     1     185.602 187.621 169.176  1.00  0.00     0.059 C 
ENDROOT
BRANCH   1   2
ATOM      2  C   UNL     1     184.148 187.612 169.539  1.00  0.00     0.042 C 
ATOM      3  O   UNL     1     183.287 188.038 168.726  1.00  0.00    -0.550 OA
ATOM      4  O   UNL     1     183.749 187.168 170.794  1.00  0.00    -0.550 OA
ENDBRANCH   1   2
BRANCH   1   5
ATOM      5  C   UNL     1     186.492 187.751 170.416  1.00  0.00     0.059 C 
BRANCH   5   6
ATOM      6  C   UNL     1     187.307 186.514 170.644  1.00  0.00     0.042 C 
ATOM      7  O   UNL     1     187.622 185.775 169.674  1.00  0.00    -0.550 OA
ATOM      8  O   UNL     1     187.755 186.202 171.922  1.00  0.00    -0.550 OA
ENDBRANCH   5   6
ENDBRANCH   1   5
TORSDOF 3
ENDMDL
MODEL 7
REMARK VINA RESULT:    -2.894      9.608     10.598
REMARK INTER + INTRA:          -3.445
REMARK INTER:                  -3.266
REMARK INTRA:                  -0.179
REMARK UNBOUND:                -0.043
REMARK SMILES O=C([O-])CCC(=O)[O-]
REMARK SMILES IDX 4 1 2 2 1 3 3 4 5 5 6 6 7 7 8 8
REMARK H PARENT
REMARK Flexibility Score: inf
ROOT
ATOM      1  C   UNL     1     187.722 187.363 170.668  1.00  0.00     0.059 C 
ENDROOT
BRANCH   1   2
ATOM      2  C   UNL     1     187.854 188.671 169.949  1.00  0.00     0.042 C 
ATOM      3  O   UNL     1     187.385 189.725 170.455  1.00  0.00    -0.550 OA
ATOM      4  O   UNL     1     188.461 188.718 168.700  1.00  0.00    -0.550 OA
ENDBRANCH   1   2
BRANCH   1   5
ATOM      5  C   UNL     1     186.255 186.960 170.839  1.00  0.00     0.059 C 
BRANCH   5   6
ATOM      6  C   UNL     1     185.587 186.726 169.518  1.00  0.00     0.042 C 
ATOM      7  O   UNL     1     185.866 185.702 168.840  1.00  0.00    -0.550 OA
ATOM      8  O   UNL     1     184.627 187.617 169.056  1.00  0.00    -0.550 OA
ENDBRANCH   5   6
ENDBRANCH   1   5
TORSDOF 3
ENDMDL
MODEL 8
REMARK VINA RESULT:    -2.887      9.600     10.286
REMARK INTER + INTRA:          -3.436
REMARK INTER:                  -3.262
REMARK INTRA:                  -0.174
REMARK UNBOUND:                -0.043
REMARK SMILES O=C([O-])CCC(=O)[O-]
REMARK SMILES IDX 4 1 2 2 1 3 3 4 5 5 6 6 7 7 8 8
REMARK H PARENT
REMARK Flexibility Score: inf
ROOT
ATOM      1  C   UNL     1     186.329 186.918 170.860  1.00  0.00     0.059 C 
ENDROOT
BRANCH   1   2
ATOM      2  C   UNL     1     185.600 186.710 169.567  1.00  0.00     0.042 C 
ATOM      3  O   UNL     1     185.886 185.733 168.827  1.00  0.00    -0.550 OA
ATOM      4  O   UNL     1     184.631 187.620 169.163  1.00  0.00    -0.550 OA
ENDBRANCH   1   2
BRANCH   1   5
ATOM      5  C   UNL     1     187.780 187.348 170.625  1.00  0.00     0.059 C 
BRANCH   5   6
ATOM      6  C   UNL     1     187.859 188.670 169.925  1.00  0.00     0.042 C 
ATOM      7  O   UNL     1     187.396 189.706 170.472  1.00  0.00    -0.550 OA
ATOM      8  O   UNL     1     188.482 188.766 168.687  1.00  0.00    -0.550 OA
ENDBRANCH   5   6
ENDBRANCH   1   5
TORSDOF 3
ENDMDL
MODEL 9
REMARK VINA RESULT:    -2.882     10.684     11.070
REMARK INTER + INTRA:          -3.431
REMARK INTER:                  -3.375
REMARK INTRA:                  -0.056
REMARK UNBOUND:                -0.043
REMARK SMILES O=C([O-])CCC(=O)[O-]
REMARK SMILES IDX 4 1 2 2 1 3 3 4 5 5 6 6 7 7 8 8
REMARK H PARENT
REMARK Flexibility Score: inf
ROOT
ATOM      1  C   UNL     1     185.252 187.292 169.311  1.00  0.00     0.059 C 
ENDROOT
BRANCH   1   2
ATOM      2  C   UNL     1     183.863 187.630 169.759  1.00  0.00     0.042 C 
ATOM      3  O   UNL     1     183.432 187.211 170.866  1.00  0.00    -0.550 OA
ATOM      4  O   UNL     1     183.030 188.375 168.934  1.00  0.00    -0.550 OA
ENDBRANCH   1   2
BRANCH   1   5
ATOM      5  C   UNL     1     186.289 187.634 170.386  1.00  0.00     0.059 C 
BRANCH   5   6
ATOM      6  C   UNL     1     187.225 186.490 170.635  1.00  0.00     0.042 C 
ATOM      7  O   UNL     1     187.640 185.790 169.674  1.00  0.00    -0.550 OA
ATOM      8  O   UNL     1     187.672 186.225 171.924  1.00  0.00    -0.550 OA
ENDBRANCH   5   6
ENDBRANCH   1   5
TORSDOF 3
ENDMDL
