MODEL 1
REMARK VINA RESULT:    -4.080      0.000      0.000
REMARK INTER + INTRA:          -4.467
REMARK INTER:                  -4.437
REMARK INTRA:                  -0.030
REMARK UNBOUND:                -0.030
REMARK SMILES O=C([O-])c1ccc(O)cc1
REMARK SMILES IDX 4 1 5 2 10 3 6 4 9 5 7 6 2 7 1 8 3 9 8 10
REMARK H PARENT 8 11
REMARK Flexibility Score: inf
ROOT
ATOM      1  C   UNL     1       0.862 -15.979  -6.381  1.00  0.00    -0.003 A 
ATOM      2  C   UNL     1       0.206 -16.469  -7.527  1.00  0.00     0.014 A 
ATOM      3  C   UNL     1       0.359 -14.828  -5.748  1.00  0.00     0.014 A 
ATOM      4  C   UNL     1      -0.926 -15.820  -8.026  1.00  0.00     0.047 A 
ATOM      5  C   UNL     1      -0.776 -14.183  -6.251  1.00  0.00     0.047 A 
ATOM      6  C   UNL     1      -1.421 -14.678  -7.392  1.00  0.00     0.115 A 
ENDROOT
BRANCH   1   7
ATOM      7  C   UNL     1       2.062 -16.659  -5.848  1.00  0.00     0.071 C 
ATOM      8  O   UNL     1       2.030 -17.888  -5.569  1.00  0.00    -0.545 OA
ATOM      9  O   UNL     1       3.242 -15.954  -5.647  1.00  0.00    -0.545 OA
ENDBRANCH   1   7
BRANCH   6  10
ATOM     10  O   UNL     1      -2.552 -14.043  -7.900  1.00  0.00    -0.508 OA
ATOM     11  H   UNL     1      -3.386 -13.918  -7.339  1.00  0.00     0.293 HD
ENDBRANCH   6  10
TORSDOF 2
ENDMDL
MODEL 2
REMARK VINA RESULT:    -4.058      0.066      1.533
REMARK INTER + INTRA:          -4.443
REMARK INTER:                  -4.413
REMARK INTRA:                  -0.031
REMARK UNBOUND:                -0.030
REMARK SMILES O=C([O-])c1ccc(O)cc1
REMARK SMILES IDX 4 1 5 2 10 3 6 4 9 5 7 6 2 7 1 8 3 9 8 10
REMARK H PARENT 8 11
REMARK Flexibility Score: inf
ROOT
ATOM      1  C   UNL     1       0.903 -15.989  -6.406  1.00  0.00    -0.003 A 
ATOM      2  C   UNL     1       0.410 -14.831  -5.775  1.00  0.00     0.014 A 
ATOM      3  C   UNL     1       0.228 -16.490  -7.534  1.00  0.00     0.014 A 
ATOM      4  C   UNL     1      -0.733 -14.192  -6.262  1.00  0.00     0.047 A 
ATOM      5  C   UNL     1      -0.916 -15.846  -8.018  1.00  0.00     0.047 A 
ATOM      6  C   UNL     1      -1.399 -14.695  -7.382  1.00  0.00     0.115 A 
ENDROOT
BRANCH   1   7
ATOM      7  C   UNL     1       2.112 -16.672  -5.896  1.00  0.00     0.071 C 
ATOM      8  O   UNL     1       2.111 -17.917  -5.703  1.00  0.00    -0.545 OA
ATOM      9  O   UNL     1       3.267 -15.949  -5.622  1.00  0.00    -0.545 OA
ENDBRANCH   1   7
BRANCH   6  10
ATOM     10  O   UNL     1      -2.536 -14.046  -7.857  1.00  0.00    -0.508 OA
ATOM     11  H   UNL     1      -3.463 -14.430  -7.715  1.00  0.00     0.293 HD
ENDBRANCH   6  10
TORSDOF 2
ENDMDL
MODEL 3
REMARK VINA RESULT:    -4.057      2.238      3.855
REMARK INTER + INTRA:          -4.443
REMARK INTER:                  -4.413
REMARK INTRA:                  -0.029
REMARK UNBOUND:                -0.030
REMARK SMILES O=C([O-])c1ccc(O)cc1
REMARK SMILES IDX 4 1 5 2 10 3 6 4 9 5 7 6 2 7 1 8 3 9 8 10
REMARK H PARENT 8 11
REMARK Flexibility Score: inf
ROOT
ATOM      1  C   UNL     1      -0.505 -14.013  -5.839  1.00  0.00    -0.003 A 
ATOM      2  C   UNL     1      -1.151 -14.192  -7.076  1.00  0.00     0.014 A 
ATOM      3  C   UNL     1       0.540 -14.885  -5.482  1.00  0.00     0.014 A 
ATOM      4  C   UNL     1      -0.760 -15.222  -7.936  1.00  0.00     0.047 A 
ATOM      5  C   UNL     1       0.928 -15.913  -6.347  1.00  0.00     0.047 A 
ATOM      6  C   UNL     1       0.279 -16.084  -7.576  1.00  0.00     0.115 A 
ENDROOT
BRANCH   1   7
ATOM      7  C   UNL     1      -0.914 -12.926  -4.923  1.00  0.00     0.071 C 
ATOM      8  O   UNL     1      -0.075 -12.075  -4.523  1.00  0.00    -0.545 OA
ATOM      9  O   UNL     1      -2.232 -12.826  -4.491  1.00  0.00    -0.545 OA
ENDBRANCH   1   7
BRANCH   6  10
ATOM     10  O   UNL     1       0.658 -17.105  -8.444  1.00  0.00    -0.508 OA
ATOM     11  H   UNL     1       1.039 -17.979  -8.100  1.00  0.00     0.293 HD
ENDBRANCH   6  10
TORSDOF 2
ENDMDL
MODEL 4
REMARK VINA RESULT:    -4.055     17.932     18.725
REMARK INTER + INTRA:          -4.440
REMARK INTER:                  -4.406
REMARK INTRA:                  -0.034
REMARK UNBOUND:                -0.030
REMARK SMILES O=C([O-])c1ccc(O)cc1
REMARK SMILES IDX 4 1 5 2 10 3 6 4 9 5 7 6 2 7 1 8 3 9 8 10
REMARK H PARENT 8 11
REMARK Flexibility Score: inf
ROOT
ATOM      1  C   UNL     1      13.124 -11.776 -19.309  1.00  0.00    -0.003 A 
ATOM      2  C   UNL     1      13.512 -12.557 -18.205  1.00  0.00     0.014 A 
ATOM      3  C   UNL     1      13.373 -10.391 -19.286  1.00  0.00     0.014 A 
ATOM      4  C   UNL     1      14.135 -11.965 -17.103  1.00  0.00     0.047 A 
ATOM      5  C   UNL     1      13.998  -9.804 -18.182  1.00  0.00     0.047 A 
ATOM      6  C   UNL     1      14.380 -10.589 -17.087  1.00  0.00     0.115 A 
ENDROOT
BRANCH   1   7
ATOM      7  C   UNL     1      12.463 -12.395 -20.478  1.00  0.00     0.071 C 
ATOM      8  O   UNL     1      12.566 -11.876 -21.622  1.00  0.00    -0.545 OA
ATOM      9  O   UNL     1      11.718 -13.560 -20.333  1.00  0.00    -0.545 OA
ENDBRANCH   1   7
BRANCH   6  10
ATOM     10  O   UNL     1      15.003 -10.014 -15.982  1.00  0.00    -0.508 OA
ATOM     11  H   UNL     1      15.788  -9.381 -16.087  1.00  0.00     0.293 HD
ENDBRANCH   6  10
TORSDOF 2
ENDMDL
MODEL 5
REMARK VINA RESULT:    -4.031      2.249      3.994
REMARK INTER + INTRA:          -4.415
REMARK INTER:                  -4.385
REMARK INTRA:                  -0.029
REMARK UNBOUND:                -0.030
REMARK SMILES O=C([O-])c1ccc(O)cc1
REMARK SMILES IDX 4 1 5 2 10 3 6 4 9 5 7 6 2 7 1 8 3 9 8 10
REMARK H PARENT 8 11
REMARK Flexibility Score: inf
ROOT
ATOM      1  C   UNL     1      -0.489 -13.962  -5.791  1.00  0.00    -0.003 A 
ATOM      2  C   UNL     1       0.547 -14.836  -5.411  1.00  0.00     0.014 A 
ATOM      3  C   UNL     1      -1.096 -14.130  -7.049  1.00  0.00     0.014 A 
ATOM      4  C   UNL     1       0.965 -15.855  -6.272  1.00  0.00     0.047 A 
ATOM      5  C   UNL     1      -0.674 -15.152  -7.906  1.00  0.00     0.047 A 
ATOM      6  C   UNL     1       0.357 -16.016  -7.519  1.00  0.00     0.115 A 
ENDROOT
BRANCH   1   7
ATOM      7  C   UNL     1      -0.935 -12.881  -4.886  1.00  0.00     0.071 C 
ATOM      8  O   UNL     1      -0.120 -12.013  -4.472  1.00  0.00    -0.545 OA
ATOM      9  O   UNL     1      -2.262 -12.805  -4.479  1.00  0.00    -0.545 OA
ENDBRANCH   1   7
BRANCH   6  10
ATOM     10  O   UNL     1       0.784 -17.037  -8.366  1.00  0.00    -0.508 OA
ATOM     11  H   UNL     1       1.671 -17.506  -8.225  1.00  0.00     0.293 HD
ENDBRANCH   6  10
TORSDOF 2
ENDMDL
MODEL 6
REMARK VINA RESULT:    -3.954      1.890      2.793
REMARK INTER + INTRA:          -4.330
REMARK INTER:                  -4.294
REMARK INTRA:                  -0.036
REMARK UNBOUND:                -0.030
REMARK SMILES O=C([O-])c1ccc(O)cc1
REMARK SMILES IDX 4 1 5 2 10 3 6 4 9 5 7 6 2 7 1 8 3 9 8 10
REMARK H PARENT 8 11
REMARK Flexibility Score: inf
ROOT
ATOM      1  C   UNL     1      -0.197 -17.455  -8.076  1.00  0.00    -0.003 A 
ATOM      2  C   UNL     1       0.316 -16.218  -7.644  1.00  0.00     0.014 A 
ATOM      3  C   UNL     1      -1.555 -17.541  -8.436  1.00  0.00     0.014 A 
ATOM      4  C   UNL     1      -0.511 -15.093  -7.573  1.00  0.00     0.047 A 
ATOM      5  C   UNL     1      -2.378 -16.413  -8.365  1.00  0.00     0.047 A 
ATOM      6  C   UNL     1      -1.858 -15.186  -7.933  1.00  0.00     0.115 A 
ENDROOT
BRANCH   1   7
ATOM      7  C   UNL     1       0.672 -18.649  -8.153  1.00  0.00     0.071 C 
ATOM      8  O   UNL     1       0.213 -19.751  -8.557  1.00  0.00    -0.545 OA
ATOM      9  O   UNL     1       2.008 -18.574  -7.779  1.00  0.00    -0.545 OA
ENDBRANCH   1   7
BRANCH   6  10
ATOM     10  O   UNL     1      -2.669 -14.056  -7.859  1.00  0.00    -0.508 OA
ATOM     11  H   UNL     1      -3.235 -13.758  -8.645  1.00  0.00     0.293 HD
ENDBRANCH   6  10
TORSDOF 2
ENDMDL
MODEL 7
REMARK VINA RESULT:    -3.768      2.537      3.721
REMARK INTER + INTRA:          -4.128
REMARK INTER:                  -4.092
REMARK INTRA:                  -0.036
REMARK UNBOUND:                -0.030
REMARK SMILES O=C([O-])c1ccc(O)cc1
REMARK SMILES IDX 4 1 5 2 10 3 6 4 9 5 7 6 2 7 1 8 3 9 8 10
REMARK H PARENT 8 11
REMARK Flexibility Score: inf
ROOT
ATOM      1  C   UNL     1      -1.128 -14.492  -5.815  1.00  0.00    -0.003 A 
ATOM      2  C   UNL     1       0.248 -14.771  -5.910  1.00  0.00     0.014 A 
ATOM      3  C   UNL     1      -1.944 -14.692  -6.943  1.00  0.00     0.014 A 
ATOM      4  C   UNL     1       0.794 -15.239  -7.109  1.00  0.00     0.047 A 
ATOM      5  C   UNL     1      -1.393 -15.161  -8.140  1.00  0.00     0.047 A 
ATOM      6  C   UNL     1      -0.022 -15.435  -8.226  1.00  0.00     0.115 A 
ENDROOT
BRANCH   1   7
ATOM      7  C   UNL     1      -1.713 -13.996  -4.550  1.00  0.00     0.071 C 
ATOM      8  O   UNL     1      -2.963 -13.935  -4.403  1.00  0.00    -0.545 OA
ATOM      9  O   UNL     1      -0.891 -13.591  -3.505  1.00  0.00    -0.545 OA
ENDBRANCH   1   7
BRANCH   6  10
ATOM     10  O   UNL     1       0.536 -15.903  -9.413  1.00  0.00    -0.508 OA
ATOM     11  H   UNL     1       0.107 -16.654  -9.940  1.00  0.00     0.293 HD
ENDBRANCH   6  10
TORSDOF 2
ENDMDL
MODEL 8
REMARK VINA RESULT:    -3.716      1.471      4.541
REMARK INTER + INTRA:          -4.072
REMARK INTER:                  -4.037
REMARK INTRA:                  -0.034
REMARK UNBOUND:                -0.030
REMARK SMILES O=C([O-])c1ccc(O)cc1
REMARK SMILES IDX 4 1 5 2 10 3 6 4 9 5 7 6 2 7 1 8 3 9 8 10
REMARK H PARENT 8 11
REMARK Flexibility Score: inf
ROOT
ATOM      1  C   UNL     1      -1.045 -16.361  -7.838  1.00  0.00    -0.003 A 
ATOM      2  C   UNL     1      -0.635 -17.526  -8.513  1.00  0.00     0.014 A 
ATOM      3  C   UNL     1      -0.253 -15.868  -6.785  1.00  0.00     0.014 A 
ATOM      4  C   UNL     1       0.542 -18.183  -8.141  1.00  0.00     0.047 A 
ATOM      5  C   UNL     1       0.924 -16.529  -6.417  1.00  0.00     0.047 A 
ATOM      6  C   UNL     1       1.324 -17.688  -7.094  1.00  0.00     0.115 A 
ENDROOT
BRANCH   1   7
ATOM      7  C   UNL     1      -2.289 -15.661  -8.226  1.00  0.00     0.071 C 
ATOM      8  O   UNL     1      -2.440 -14.436  -7.973  1.00  0.00    -0.545 OA
ATOM      9  O   UNL     1      -3.310 -16.345  -8.875  1.00  0.00    -0.545 OA
ENDBRANCH   1   7
BRANCH   6  10
ATOM     10  O   UNL     1       2.494 -18.353  -6.735  1.00  0.00    -0.508 OA
ATOM     11  H   UNL     1       2.632 -18.714  -5.799  1.00  0.00     0.293 HD
ENDBRANCH   6  10
TORSDOF 2
ENDMDL
MODEL 9
REMARK VINA RESULT:    -3.579      1.760      2.571
REMARK INTER + INTRA:          -3.923
REMARK INTER:                  -3.890
REMARK INTRA:                  -0.033
REMARK UNBOUND:                -0.030
REMARK SMILES O=C([O-])c1ccc(O)cc1
REMARK SMILES IDX 4 1 5 2 10 3 6 4 9 5 7 6 2 7 1 8 3 9 8 10
REMARK H PARENT 8 11
REMARK Flexibility Score: inf
ROOT
ATOM      1  C   UNL     1       0.180 -16.425  -7.275  1.00  0.00    -0.003 A 
ATOM      2  C   UNL     1       0.615 -16.063  -5.987  1.00  0.00     0.014 A 
ATOM      3  C   UNL     1      -0.677 -15.555  -7.975  1.00  0.00     0.014 A 
ATOM      4  C   UNL     1       0.201 -14.858  -5.412  1.00  0.00     0.047 A 
ATOM      5  C   UNL     1      -1.087 -14.350  -7.396  1.00  0.00     0.047 A 
ATOM      6  C   UNL     1      -0.650 -13.999  -6.113  1.00  0.00     0.115 A 
ENDROOT
BRANCH   1   7
ATOM      7  C   UNL     1       0.613 -17.699  -7.889  1.00  0.00     0.071 C 
ATOM      8  O   UNL     1      -0.153 -18.328  -8.668  1.00  0.00    -0.545 OA
ATOM      9  O   UNL     1       1.872 -18.221  -7.617  1.00  0.00    -0.545 OA
ENDBRANCH   1   7
BRANCH   6  10
ATOM     10  O   UNL     1      -1.052 -12.801  -5.527  1.00  0.00    -0.508 OA
ATOM     11  H   UNL     1      -0.837 -12.585  -4.561  1.00  0.00     0.293 HD
ENDBRANCH   6  10
TORSDOF 2
ENDMDL
