MODEL 1
REMARK VINA RESULT:    -3.868      0.000      0.000
REMARK INTER + INTRA:          -5.326
REMARK INTER:                  -5.225
REMARK INTRA:                  -0.101
REMARK UNBOUND:                -0.101
REMARK SMILES CCCCCCCC(=O)[O-]
REMARK SMILES IDX 5 1 6 2 7 3 8 4 9 5 10 6 4 7 3 8 2 9 1 10
REMARK H PARENT
REMARK Flexibility Score: inf
ROOT
ATOM      1  C   UNL     1      14.370  32.565  68.455  1.00  0.00     0.000 C 
ENDROOT
BRANCH   1   2
ATOM      2  C   UNL     1      14.688  33.739  67.519  1.00  0.00     0.006 C 
BRANCH   2   3
ATOM      3  C   UNL     1      13.759  34.937  67.752  1.00  0.00     0.053 C 
BRANCH   3   4
ATOM      4  C   UNL     1      14.445  36.238  67.468  1.00  0.00     0.041 C 
ATOM      5  O   UNL     1      13.771  37.258  67.169  1.00  0.00    -0.550 OA
ATOM      6  O   UNL     1      15.828  36.333  67.567  1.00  0.00    -0.550 OA
ENDBRANCH   3   4
ENDBRANCH   2   3
ENDBRANCH   1   2
BRANCH   1   7
ATOM      7  C   UNL     1      15.659  31.884  68.940  1.00  0.00     0.000 C 
BRANCH   7   8
ATOM      8  C   UNL     1      15.418  30.926  70.117  1.00  0.00    -0.000 C 
BRANCH   8   9
ATOM      9  C   UNL     1      16.675  30.713  70.973  1.00  0.00    -0.003 C 
ATOM     10  C   UNL     1      16.535  29.477  71.856  1.00  0.00     0.004 C 
ENDBRANCH   8   9
ENDBRANCH   7   8
ENDBRANCH   1   7
TORSDOF 6
ENDMDL
MODEL 2
REMARK VINA RESULT:    -3.813      1.945      2.981
REMARK INTER + INTRA:          -5.252
REMARK INTER:                  -5.109
REMARK INTRA:                  -0.143
REMARK UNBOUND:                -0.101
REMARK SMILES CCCCCCCC(=O)[O-]
REMARK SMILES IDX 5 1 6 2 7 3 8 4 9 5 10 6 4 7 3 8 2 9 1 10
REMARK H PARENT
REMARK Flexibility Score: inf
ROOT
ATOM      1  C   UNL     1      16.038  30.871  69.850  1.00  0.00     0.000 C 
ENDROOT
BRANCH   1   2
ATOM      2  C   UNL     1      14.911  31.643  69.149  1.00  0.00     0.006 C 
BRANCH   2   3
ATOM      3  C   UNL     1      15.447  32.677  68.151  1.00  0.00     0.053 C 
BRANCH   3   4
ATOM      4  C   UNL     1      14.340  33.366  67.414  1.00  0.00     0.041 C 
ATOM      5  O   UNL     1      13.914  32.894  66.326  1.00  0.00    -0.550 OA
ATOM      6  O   UNL     1      13.754  34.509  67.944  1.00  0.00    -0.550 OA
ENDBRANCH   3   4
ENDBRANCH   2   3
ENDBRANCH   1   2
BRANCH   1   7
ATOM      7  C   UNL     1      15.487  30.027  71.009  1.00  0.00     0.000 C 
BRANCH   7   8
ATOM      8  C   UNL     1      16.596  29.446  71.899  1.00  0.00    -0.000 C 
BRANCH   8   9
ATOM      9  C   UNL     1      16.087  28.334  72.829  1.00  0.00    -0.003 C 
ATOM     10  C   UNL     1      14.662  27.927  72.469  1.00  0.00     0.004 C 
ENDBRANCH   8   9
ENDBRANCH   7   8
ENDBRANCH   1   7
TORSDOF 6
ENDMDL
MODEL 3
REMARK VINA RESULT:    -3.737     12.734     13.404
REMARK INTER + INTRA:          -5.149
REMARK INTER:                  -4.900
REMARK INTRA:                  -0.249
REMARK UNBOUND:                -0.101
REMARK SMILES CCCCCCCC(=O)[O-]
REMARK SMILES IDX 5 1 6 2 7 3 8 4 9 5 10 6 4 7 3 8 2 9 1 10
REMARK H PARENT
REMARK Flexibility Score: inf
ROOT
ATOM      1  C   UNL     1      17.031  43.122  61.698  1.00  0.00     0.000 C 
ENDROOT
BRANCH   1   2
ATOM      2  C   UNL     1      15.625  42.832  61.155  1.00  0.00     0.006 C 
BRANCH   2   3
ATOM      3  C   UNL     1      15.321  43.622  59.875  1.00  0.00     0.053 C 
BRANCH   3   4
ATOM      4  C   UNL     1      14.702  44.952  60.176  1.00  0.00     0.041 C 
ATOM      5  O   UNL     1      15.428  45.930  60.499  1.00  0.00    -0.550 OA
ATOM      6  O   UNL     1      13.328  45.123  60.068  1.00  0.00    -0.550 OA
ENDBRANCH   3   4
ENDBRANCH   2   3
ENDBRANCH   1   2
BRANCH   1   7
ATOM      7  C   UNL     1      18.018  43.393  60.551  1.00  0.00     0.000 C 
BRANCH   7   8
ATOM      8  C   UNL     1      19.485  43.290  60.995  1.00  0.00    -0.000 C 
BRANCH   8   9
ATOM      9  C   UNL     1      19.885  41.860  61.386  1.00  0.00    -0.003 C 
ATOM     10  C   UNL     1      21.133  41.413  60.631  1.00  0.00     0.004 C 
ENDBRANCH   8   9
ENDBRANCH   7   8
ENDBRANCH   1   7
TORSDOF 6
ENDMDL
MODEL 4
REMARK VINA RESULT:    -3.726     12.307     13.179
REMARK INTER + INTRA:          -5.135
REMARK INTER:                  -4.456
REMARK INTRA:                  -0.678
REMARK UNBOUND:                -0.101
REMARK SMILES CCCCCCCC(=O)[O-]
REMARK SMILES IDX 5 1 6 2 7 3 8 4 9 5 10 6 4 7 3 8 2 9 1 10
REMARK H PARENT
REMARK Flexibility Score: inf
ROOT
ATOM      1  C   UNL     1      15.831  44.061  59.878  1.00  0.00     0.000 C 
ENDROOT
BRANCH   1   2
ATOM      2  C   UNL     1      17.290  43.623  60.071  1.00  0.00     0.006 C 
BRANCH   2   3
ATOM      3  C   UNL     1      17.936  44.278  61.299  1.00  0.00     0.053 C 
BRANCH   3   4
ATOM      4  C   UNL     1      17.728  43.462  62.538  1.00  0.00     0.041 C 
ATOM      5  O   UNL     1      17.832  43.997  63.673  1.00  0.00    -0.550 OA
ATOM      6  O   UNL     1      17.387  42.119  62.439  1.00  0.00    -0.550 OA
ENDBRANCH   3   4
ENDBRANCH   2   3
ENDBRANCH   1   2
BRANCH   1   7
ATOM      7  C   UNL     1      14.871  42.882  60.101  1.00  0.00     0.000 C 
BRANCH   7   8
ATOM      8  C   UNL     1      13.989  43.064  61.345  1.00  0.00    -0.000 C 
BRANCH   8   9
ATOM      9  C   UNL     1      14.132  44.458  61.973  1.00  0.00    -0.003 C 
ATOM     10  C   UNL     1      14.266  44.367  63.490  1.00  0.00     0.004 C 
ENDBRANCH   8   9
ENDBRANCH   7   8
ENDBRANCH   1   7
TORSDOF 6
ENDMDL
MODEL 5
REMARK VINA RESULT:    -3.713     12.204     13.460
REMARK INTER + INTRA:          -5.116
REMARK INTER:                  -4.835
REMARK INTRA:                  -0.281
REMARK UNBOUND:                -0.101
REMARK SMILES CCCCCCCC(=O)[O-]
REMARK SMILES IDX 5 1 6 2 7 3 8 4 9 5 10 6 4 7 3 8 2 9 1 10
REMARK H PARENT
REMARK Flexibility Score: inf
ROOT
ATOM      1  C   UNL     1      17.502  43.513  60.531  1.00  0.00     0.000 C 
ENDROOT
BRANCH   1   2
ATOM      2  C   UNL     1      18.993  43.260  60.802  1.00  0.00     0.006 C 
BRANCH   2   3
ATOM      3  C   UNL     1      19.215  42.166  61.854  1.00  0.00     0.053 C 
BRANCH   3   4
ATOM      4  C   UNL     1      20.538  41.484  61.676  1.00  0.00     0.041 C 
ATOM      5  O   UNL     1      21.037  41.361  60.527  1.00  0.00    -0.550 OA
ATOM      6  O   UNL     1      21.235  41.015  62.783  1.00  0.00    -0.550 OA
ENDBRANCH   3   4
ENDBRANCH   2   3
ENDBRANCH   1   2
BRANCH   1   7
ATOM      7  C   UNL     1      16.627  42.801  61.574  1.00  0.00     0.000 C 
BRANCH   7   8
ATOM      8  C   UNL     1      15.142  42.772  61.181  1.00  0.00    -0.000 C 
BRANCH   8   9
ATOM      9  C   UNL     1      14.860  43.536  59.879  1.00  0.00    -0.003 C 
ATOM     10  C   UNL     1      13.928  44.718  60.127  1.00  0.00     0.004 C 
ENDBRANCH   8   9
ENDBRANCH   7   8
ENDBRANCH   1   7
TORSDOF 6
ENDMDL
MODEL 6
REMARK VINA RESULT:    -3.661     12.382     13.249
REMARK INTER + INTRA:          -5.047
REMARK INTER:                  -4.501
REMARK INTRA:                  -0.546
REMARK UNBOUND:                -0.101
REMARK SMILES CCCCCCCC(=O)[O-]
REMARK SMILES IDX 5 1 6 2 7 3 8 4 9 5 10 6 4 7 3 8 2 9 1 10
REMARK H PARENT
REMARK Flexibility Score: inf
ROOT
ATOM      1  C   UNL     1      14.504  43.112  60.293  1.00  0.00     0.000 C 
ENDROOT
BRANCH   1   2
ATOM      2  C   UNL     1      13.871  43.226  61.688  1.00  0.00     0.006 C 
BRANCH   2   3
ATOM      3  C   UNL     1      14.221  44.550  62.379  1.00  0.00     0.053 C 
BRANCH   3   4
ATOM      4  C   UNL     1      14.510  44.358  63.836  1.00  0.00     0.041 C 
ATOM      5  O   UNL     1      15.682  44.104  64.221  1.00  0.00    -0.550 OA
ATOM      6  O   UNL     1      13.493  44.492  64.773  1.00  0.00    -0.550 OA
ENDBRANCH   3   4
ENDBRANCH   2   3
ENDBRANCH   1   2
BRANCH   1   7
ATOM      7  C   UNL     1      15.576  44.194  60.088  1.00  0.00     0.000 C 
BRANCH   7   8
ATOM      8  C   UNL     1      16.979  43.605  59.875  1.00  0.00    -0.000 C 
BRANCH   8   9
ATOM      9  C   UNL     1      17.849  43.677  61.139  1.00  0.00    -0.003 C 
ATOM     10  C   UNL     1      17.887  45.096  61.699  1.00  0.00     0.004 C 
ENDBRANCH   8   9
ENDBRANCH   7   8
ENDBRANCH   1   7
TORSDOF 6
ENDMDL
MODEL 7
REMARK VINA RESULT:    -3.642     12.356     13.271
REMARK INTER + INTRA:          -5.021
REMARK INTER:                  -4.600
REMARK INTRA:                  -0.421
REMARK UNBOUND:                -0.101
REMARK SMILES CCCCCCCC(=O)[O-]
REMARK SMILES IDX 5 1 6 2 7 3 8 4 9 5 10 6 4 7 3 8 2 9 1 10
REMARK H PARENT
REMARK Flexibility Score: inf
ROOT
ATOM      1  C   UNL     1      14.618  42.931  60.468  1.00  0.00     0.000 C 
ENDROOT
BRANCH   1   2
ATOM      2  C   UNL     1      15.554  44.082  60.071  1.00  0.00     0.006 C 
BRANCH   2   3
ATOM      3  C   UNL     1      17.001  43.613  59.875  1.00  0.00     0.053 C 
BRANCH   3   4
ATOM      4  C   UNL     1      17.873  43.999  61.031  1.00  0.00     0.041 C 
ATOM      5  O   UNL     1      17.729  45.121  61.584  1.00  0.00    -0.550 OA
ATOM      6  O   UNL     1      18.820  43.108  61.519  1.00  0.00    -0.550 OA
ENDBRANCH   3   4
ENDBRANCH   2   3
ENDBRANCH   1   2
BRANCH   1   7
ATOM      7  C   UNL     1      13.835  43.275  61.744  1.00  0.00     0.000 C 
BRANCH   7   8
ATOM      8  C   UNL     1      14.178  44.670  62.291  1.00  0.00    -0.000 C 
BRANCH   8   9
ATOM      9  C   UNL     1      14.813  44.617  63.689  1.00  0.00    -0.003 C 
ATOM     10  C   UNL     1      13.762  44.340  64.760  1.00  0.00     0.004 C 
ENDBRANCH   8   9
ENDBRANCH   7   8
ENDBRANCH   1   7
TORSDOF 6
ENDMDL
MODEL 8
REMARK VINA RESULT:    -3.641      3.414      5.977
REMARK INTER + INTRA:          -5.020
REMARK INTER:                  -4.846
REMARK INTRA:                  -0.174
REMARK UNBOUND:                -0.101
REMARK SMILES CCCCCCCC(=O)[O-]
REMARK SMILES IDX 5 1 6 2 7 3 8 4 9 5 10 6 4 7 3 8 2 9 1 10
REMARK H PARENT
REMARK Flexibility Score: inf
ROOT
ATOM      1  C   UNL     1      15.631  33.151  67.742  1.00  0.00     0.000 C 
ENDROOT
BRANCH   1   2
ATOM      2  C   UNL     1      15.138  31.987  68.614  1.00  0.00     0.006 C 
BRANCH   2   3
ATOM      3  C   UNL     1      16.296  31.165  69.194  1.00  0.00     0.053 C 
BRANCH   3   4
ATOM      4  C   UNL     1      16.044  30.777  70.619  1.00  0.00     0.041 C 
ATOM      5  O   UNL     1      16.953  30.906  71.481  1.00  0.00    -0.550 OA
ATOM      6  O   UNL     1      14.795  30.304  71.003  1.00  0.00    -0.550 OA
ENDBRANCH   3   4
ENDBRANCH   2   3
ENDBRANCH   1   2
BRANCH   1   7
ATOM      7  C   UNL     1      14.456  33.832  67.022  1.00  0.00     0.000 C 
BRANCH   7   8
ATOM      8  C   UNL     1      13.817  34.951  67.859  1.00  0.00    -0.000 C 
BRANCH   8   9
ATOM      9  C   UNL     1      14.171  36.353  67.340  1.00  0.00    -0.003 C 
ATOM     10  C   UNL     1      14.916  36.275  66.011  1.00  0.00     0.004 C 
ENDBRANCH   8   9
ENDBRANCH   7   8
ENDBRANCH   1   7
TORSDOF 6
ENDMDL
