MODEL 1
REMARK VINA RESULT:    -3.830      0.000      0.000
REMARK INTER + INTRA:          -4.409
REMARK INTER:                  -4.390
REMARK INTRA:                  -0.019
REMARK UNBOUND:                -0.019
REMARK SMILES CC(C)[C@H]([NH3+])C(=O)[O-]
REMARK SMILES IDX 4 1 5 2 6 6 7 7 8 8 2 9 1 10 3 11
REMARK H PARENT 5 3 5 4 5 5
REMARK Flexibility Score: inf
ROOT
ATOM      1  C   UNL     1     -22.464  -5.444  15.447  1.00  0.00     0.230 C 
ENDROOT
BRANCH   1   2
ATOM      2  N   UNL     1     -21.235  -5.971  16.062  1.00  0.00    -0.350 N 
ATOM      3  H   UNL     1     -20.673  -6.476  15.339  1.00  0.00     0.345 HD
ATOM      4  H   UNL     1     -21.469  -6.656  16.816  1.00  0.00     0.345 HD
ATOM      5  H   UNL     1     -20.648  -5.203  16.461  1.00  0.00     0.345 HD
ENDBRANCH   1   2
BRANCH   1   6
ATOM      6  C   UNL     1     -23.092  -4.384  16.317  1.00  0.00     0.099 C 
ATOM      7  O   UNL     1     -23.875  -3.525  15.827  1.00  0.00    -0.544 OA
ATOM      8  O   UNL     1     -22.769  -4.319  17.666  1.00  0.00    -0.544 OA
ENDBRANCH   1   6
BRANCH   1   9
ATOM      9  C   UNL     1     -23.496  -6.557  15.093  1.00  0.00     0.047 C 
ATOM     10  C   UNL     1     -22.891  -7.969  15.057  1.00  0.00     0.014 C 
ATOM     11  C   UNL     1     -24.227  -6.261  13.775  1.00  0.00     0.014 C 
ENDBRANCH   1   9
TORSDOF 3
ENDMDL
MODEL 2
REMARK VINA RESULT:    -3.713      0.277      1.145
REMARK INTER + INTRA:          -4.275
REMARK INTER:                  -4.229
REMARK INTRA:                  -0.046
REMARK UNBOUND:                -0.019
REMARK SMILES CC(C)[C@H]([NH3+])C(=O)[O-]
REMARK SMILES IDX 4 1 5 2 6 6 7 7 8 8 2 9 1 10 3 11
REMARK H PARENT 5 3 5 4 5 5
REMARK Flexibility Score: inf
ROOT
ATOM      1  C   UNL     1     -22.435  -5.423  15.437  1.00  0.00     0.230 C 
ENDROOT
BRANCH   1   2
ATOM      2  N   UNL     1     -21.237  -5.891  16.151  1.00  0.00    -0.350 N 
ATOM      3  H   UNL     1     -21.145  -6.926  16.035  1.00  0.00     0.345 HD
ATOM      4  H   UNL     1     -21.322  -5.694  17.175  1.00  0.00     0.345 HD
ATOM      5  H   UNL     1     -20.370  -5.438  15.783  1.00  0.00     0.345 HD
ENDBRANCH   1   2
BRANCH   1   6
ATOM      6  C   UNL     1     -23.097  -4.286  16.177  1.00  0.00     0.099 C 
ATOM      7  O   UNL     1     -23.218  -4.315  17.431  1.00  0.00    -0.544 OA
ATOM      8  O   UNL     1     -23.624  -3.216  15.466  1.00  0.00    -0.544 OA
ENDBRANCH   1   6
BRANCH   1   9
ATOM      9  C   UNL     1     -23.455  -6.563  15.141  1.00  0.00     0.047 C 
ATOM     10  C   UNL     1     -22.814  -7.957  15.060  1.00  0.00     0.014 C 
ATOM     11  C   UNL     1     -24.274  -6.283  13.871  1.00  0.00     0.014 C 
ENDBRANCH   1   9
TORSDOF 3
ENDMDL
MODEL 3
REMARK VINA RESULT:    -3.559      2.759      3.552
REMARK INTER + INTRA:          -4.098
REMARK INTER:                  -4.051
REMARK INTRA:                  -0.047
REMARK UNBOUND:                -0.019
REMARK SMILES CC(C)[C@H]([NH3+])C(=O)[O-]
REMARK SMILES IDX 4 1 5 2 6 6 7 7 8 8 2 9 1 10 3 11
REMARK H PARENT 5 3 5 4 5 5
REMARK Flexibility Score: inf
ROOT
ATOM      1  C   UNL     1     -23.876  -5.580  14.737  1.00  0.00     0.230 C 
ENDROOT
BRANCH   1   2
ATOM      2  N   UNL     1     -25.138  -6.168  14.260  1.00  0.00    -0.350 N 
ATOM      3  H   UNL     1     -25.177  -7.176  14.532  1.00  0.00     0.345 HD
ATOM      4  H   UNL     1     -25.192  -6.120  13.217  1.00  0.00     0.345 HD
ATOM      5  H   UNL     1     -25.966  -5.681  14.672  1.00  0.00     0.345 HD
ENDBRANCH   1   2
BRANCH   1   6
ATOM      6  C   UNL     1     -22.862  -6.655  15.045  1.00  0.00     0.099 C 
ATOM      7  O   UNL     1     -21.688  -6.356  15.394  1.00  0.00    -0.544 OA
ATOM      8  O   UNL     1     -23.209  -7.992  14.896  1.00  0.00    -0.544 OA
ENDBRANCH   1   6
BRANCH   1   9
ATOM      9  C   UNL     1     -24.066  -4.631  15.958  1.00  0.00     0.047 C 
ATOM     10  C   UNL     1     -25.521  -4.540  16.447  1.00  0.00     0.014 C 
ATOM     11  C   UNL     1     -23.513  -3.225  15.680  1.00  0.00     0.014 C 
ENDBRANCH   1   9
TORSDOF 3
ENDMDL
MODEL 4
REMARK VINA RESULT:    -3.500      1.877      2.472
REMARK INTER + INTRA:          -4.031
REMARK INTER:                  -3.963
REMARK INTRA:                  -0.068
REMARK UNBOUND:                -0.019
REMARK SMILES CC(C)[C@H]([NH3+])C(=O)[O-]
REMARK SMILES IDX 4 1 5 2 6 6 7 7 8 8 2 9 1 10 3 11
REMARK H PARENT 5 3 5 4 5 5
REMARK Flexibility Score: inf
ROOT
ATOM      1  C   UNL     1     -24.329  -5.079  16.000  1.00  0.00     0.230 C 
ENDROOT
BRANCH   1   2
ATOM      2  N   UNL     1     -25.689  -4.535  15.855  1.00  0.00    -0.350 N 
ATOM      3  H   UNL     1     -25.829  -3.762  16.545  1.00  0.00     0.345 HD
ATOM      4  H   UNL     1     -26.401  -5.273  16.059  1.00  0.00     0.345 HD
ATOM      5  H   UNL     1     -25.849  -4.155  14.895  1.00  0.00     0.345 HD
ENDBRANCH   1   2
BRANCH   1   6
ATOM      6  C   UNL     1     -23.356  -4.000  16.409  1.00  0.00     0.099 C 
ATOM      7  O   UNL     1     -22.713  -4.085  17.490  1.00  0.00    -0.544 OA
ATOM      8  O   UNL     1     -23.201  -2.874  15.611  1.00  0.00    -0.544 OA
ENDBRANCH   1   6
BRANCH   1   9
ATOM      9  C   UNL     1     -23.829  -5.824  14.725  1.00  0.00     0.047 C 
ATOM     10  C   UNL     1     -24.908  -6.691  14.057  1.00  0.00     0.014 C 
ATOM     11  C   UNL     1     -22.575  -6.664  15.009  1.00  0.00     0.014 C 
ENDBRANCH   1   9
TORSDOF 3
ENDMDL
MODEL 5
REMARK VINA RESULT:    -3.363      0.657      1.352
REMARK INTER + INTRA:          -3.873
REMARK INTER:                  -4.032
REMARK INTRA:                   0.159
REMARK UNBOUND:                -0.019
REMARK SMILES CC(C)[C@H]([NH3+])C(=O)[O-]
REMARK SMILES IDX 4 1 5 2 6 6 7 7 8 8 2 9 1 10 3 11
REMARK H PARENT 5 3 5 4 5 5
REMARK Flexibility Score: inf
ROOT
ATOM      1  C   UNL     1     -22.381  -5.224  15.502  1.00  0.00     0.230 C 
ENDROOT
BRANCH   1   2
ATOM      2  N   UNL     1     -21.476  -5.832  16.491  1.00  0.00    -0.350 N 
ATOM      3  H   UNL     1     -20.874  -5.089  16.914  1.00  0.00     0.345 HD
ATOM      4  H   UNL     1     -20.845  -6.526  16.030  1.00  0.00     0.345 HD
ATOM      5  H   UNL     1     -22.008  -6.303  17.258  1.00  0.00     0.345 HD
ENDBRANCH   1   2
BRANCH   1   6
ATOM      6  C   UNL     1     -23.263  -4.182  16.146  1.00  0.00     0.099 C 
ATOM      7  O   UNL     1     -23.620  -3.154  15.510  1.00  0.00    -0.544 OA
ATOM      8  O   UNL     1     -23.649  -4.331  17.472  1.00  0.00    -0.544 OA
ENDBRANCH   1   6
BRANCH   1   9
ATOM      9  C   UNL     1     -23.234  -6.273  14.727  1.00  0.00     0.047 C 
ATOM     10  C   UNL     1     -24.749  -6.080  14.897  1.00  0.00     0.014 C 
ATOM     11  C   UNL     1     -22.840  -7.712  15.091  1.00  0.00     0.014 C 
ENDBRANCH   1   9
TORSDOF 3
ENDMDL
MODEL 6
REMARK VINA RESULT:    -3.304      1.496      2.078
REMARK INTER + INTRA:          -3.806
REMARK INTER:                  -3.746
REMARK INTRA:                  -0.060
REMARK UNBOUND:                -0.019
REMARK SMILES CC(C)[C@H]([NH3+])C(=O)[O-]
REMARK SMILES IDX 4 1 5 2 6 6 7 7 8 8 2 9 1 10 3 11
REMARK H PARENT 5 3 5 4 5 5
REMARK Flexibility Score: inf
ROOT
ATOM      1  C   UNL     1     -23.162  -6.472  14.546  1.00  0.00     0.230 C 
ENDROOT
BRANCH   1   2
ATOM      2  N   UNL     1     -22.724  -7.787  15.037  1.00  0.00    -0.350 N 
ATOM      3  H   UNL     1     -23.172  -7.980  15.962  1.00  0.00     0.345 HD
ATOM      4  H   UNL     1     -21.688  -7.797  15.181  1.00  0.00     0.345 HD
ATOM      5  H   UNL     1     -22.989  -8.551  14.375  1.00  0.00     0.345 HD
ENDBRANCH   1   2
BRANCH   1   6
ATOM      6  C   UNL     1     -22.885  -5.394  15.565  1.00  0.00     0.099 C 
ATOM      7  O   UNL     1     -21.915  -5.494  16.365  1.00  0.00    -0.544 OA
ATOM      8  O   UNL     1     -23.735  -4.300  15.659  1.00  0.00    -0.544 OA
ENDBRANCH   1   6
BRANCH   1   9
ATOM      9  C   UNL     1     -24.657  -6.450  14.107  1.00  0.00     0.047 C 
ATOM     10  C   UNL     1     -25.467  -7.653  14.619  1.00  0.00     0.014 C 
ATOM     11  C   UNL     1     -24.804  -6.324  12.583  1.00  0.00     0.014 C 
ENDBRANCH   1   9
TORSDOF 3
ENDMDL
MODEL 7
REMARK VINA RESULT:    -3.298      2.634      3.534
REMARK INTER + INTRA:          -3.800
REMARK INTER:                  -3.746
REMARK INTRA:                  -0.053
REMARK UNBOUND:                -0.019
REMARK SMILES CC(C)[C@H]([NH3+])C(=O)[O-]
REMARK SMILES IDX 4 1 5 2 6 6 7 7 8 8 2 9 1 10 3 11
REMARK H PARENT 5 3 5 4 5 5
REMARK Flexibility Score: inf
ROOT
ATOM      1  C   UNL     1     -23.691  -6.247  15.181  1.00  0.00     0.230 C 
ENDROOT
BRANCH   1   2
ATOM      2  N   UNL     1     -22.318  -6.472  14.704  1.00  0.00    -0.350 N 
ATOM      3  H   UNL     1     -21.644  -6.282  15.481  1.00  0.00     0.345 HD
ATOM      4  H   UNL     1     -22.091  -5.816  13.922  1.00  0.00     0.345 HD
ATOM      5  H   UNL     1     -22.182  -7.457  14.381  1.00  0.00     0.345 HD
ENDBRANCH   1   2
BRANCH   1   6
ATOM      6  C   UNL     1     -24.701  -6.727  14.168  1.00  0.00     0.099 C 
ATOM      7  O   UNL     1     -25.572  -7.584  14.478  1.00  0.00    -0.544 OA
ATOM      8  O   UNL     1     -24.643  -6.257  12.861  1.00  0.00    -0.544 OA
ENDBRANCH   1   6
BRANCH   1   9
ATOM      9  C   UNL     1     -23.966  -4.765  15.580  1.00  0.00     0.047 C 
ATOM     10  C   UNL     1     -22.891  -4.167  16.502  1.00  0.00     0.014 C 
ATOM     11  C   UNL     1     -25.357  -4.590  16.206  1.00  0.00     0.014 C 
ENDBRANCH   1   9
TORSDOF 3
ENDMDL
MODEL 8
REMARK VINA RESULT:    -3.244      2.620      3.538
REMARK INTER + INTRA:          -3.737
REMARK INTER:                  -3.708
REMARK INTRA:                  -0.029
REMARK UNBOUND:                -0.019
REMARK SMILES CC(C)[C@H]([NH3+])C(=O)[O-]
REMARK SMILES IDX 4 1 5 2 6 6 7 7 8 8 2 9 1 10 3 11
REMARK H PARENT 5 3 5 4 5 5
REMARK Flexibility Score: inf
ROOT
ATOM      1  C   UNL     1     -24.111  -4.935  15.104  1.00  0.00     0.230 C 
ENDROOT
BRANCH   1   2
ATOM      2  N   UNL     1     -25.444  -5.007  15.723  1.00  0.00    -0.350 N 
ATOM      3  H   UNL     1     -25.985  -5.792  15.293  1.00  0.00     0.345 HD
ATOM      4  H   UNL     1     -25.976  -4.124  15.547  1.00  0.00     0.345 HD
ATOM      5  H   UNL     1     -25.380  -5.174  16.753  1.00  0.00     0.345 HD
ENDBRANCH   1   2
BRANCH   1   6
ATOM      6  C   UNL     1     -23.545  -6.316  14.880  1.00  0.00     0.099 C 
ATOM      7  O   UNL     1     -24.288  -7.271  14.527  1.00  0.00    -0.544 OA
ATOM      8  O   UNL     1     -22.195  -6.553  15.112  1.00  0.00    -0.544 OA
ENDBRANCH   1   6
BRANCH   1   9
ATOM      9  C   UNL     1     -23.112  -4.048  15.905  1.00  0.00     0.047 C 
ATOM     10  C   UNL     1     -23.212  -4.229  17.429  1.00  0.00     0.014 C 
ATOM     11  C   UNL     1     -23.246  -2.562  15.540  1.00  0.00     0.014 C 
ENDBRANCH   1   9
TORSDOF 3
ENDMDL
MODEL 9
REMARK VINA RESULT:    -3.043      3.073      3.939
REMARK INTER + INTRA:          -3.506
REMARK INTER:                  -3.460
REMARK INTRA:                  -0.046
REMARK UNBOUND:                -0.019
REMARK SMILES CC(C)[C@H]([NH3+])C(=O)[O-]
REMARK SMILES IDX 4 1 5 2 6 6 7 7 8 8 2 9 1 10 3 11
REMARK H PARENT 5 3 5 4 5 5
REMARK Flexibility Score: inf
ROOT
ATOM      1  C   UNL     1     -23.678  -6.529  14.336  1.00  0.00     0.230 C 
ENDROOT
BRANCH   1   2
ATOM      2  N   UNL     1     -24.580  -5.823  13.412  1.00  0.00    -0.350 N 
ATOM      3  H   UNL     1     -25.219  -6.512  12.955  1.00  0.00     0.345 HD
ATOM      4  H   UNL     1     -24.033  -5.350  12.657  1.00  0.00     0.345 HD
ATOM      5  H   UNL     1     -25.162  -5.114  13.914  1.00  0.00     0.345 HD
ENDBRANCH   1   2
BRANCH   1   6
ATOM      6  C   UNL     1     -24.264  -7.855  14.755  1.00  0.00     0.099 C 
ATOM      7  O   UNL     1     -23.519  -8.810  15.103  1.00  0.00    -0.544 OA
ATOM      8  O   UNL     1     -25.640  -8.044  14.712  1.00  0.00    -0.544 OA
ENDBRANCH   1   6
BRANCH   1   9
ATOM      9  C   UNL     1     -23.286  -5.676  15.580  1.00  0.00     0.047 C 
ATOM     10  C   UNL     1     -23.740  -4.210  15.489  1.00  0.00     0.014 C 
ATOM     11  C   UNL     1     -21.779  -5.747  15.869  1.00  0.00     0.014 C 
ENDBRANCH   1   9
TORSDOF 3
ENDMDL
