MODEL 1
REMARK VINA RESULT:    -2.653      0.000      0.000
REMARK INTER + INTRA:          -2.653
REMARK INTER:                  -2.653
REMARK INTRA:                   0.000
REMARK UNBOUND:                 0.000
REMARK SMILES CC(=O)[O-]
REMARK SMILES IDX 1 1 2 2 3 3 4 4
REMARK H PARENT
REMARK Flexibility Score: inf
ROOT
ATOM      1  C   UNL     1     -24.980   6.195  -4.288  1.00  0.00     0.063 C 
ATOM      2  C   UNL     1     -26.273   5.860  -3.627  1.00  0.00     0.038 C 
ATOM      3  O   UNL     1     -27.323   6.481  -3.940  1.00  0.00    -0.550 OA
ATOM      4  O   UNL     1     -26.335   4.826  -2.703  1.00  0.00    -0.550 OA
ENDROOT
TORSDOF 0
ENDMDL
MODEL 2
REMARK VINA RESULT:    -2.652     13.975     14.522
REMARK INTER + INTRA:          -2.652
REMARK INTER:                  -2.652
REMARK INTRA:                   0.000
REMARK UNBOUND:                 0.000
REMARK SMILES CC(=O)[O-]
REMARK SMILES IDX 1 1 2 2 3 3 4 4
REMARK H PARENT
REMARK Flexibility Score: inf
ROOT
ATOM      1  C   UNL     1     -20.360   0.784   7.258  1.00  0.00     0.063 C 
ATOM      2  C   UNL     1     -20.380  -0.534   7.954  1.00  0.00     0.038 C 
ATOM      3  O   UNL     1     -20.309  -1.602   7.289  1.00  0.00    -0.550 OA
ATOM      4  O   UNL     1     -20.422  -0.588   9.341  1.00  0.00    -0.550 OA
ENDROOT
TORSDOF 0
ENDMDL
MODEL 3
REMARK VINA RESULT:    -2.649     14.275     14.727
REMARK INTER + INTRA:          -2.649
REMARK INTER:                  -2.649
REMARK INTRA:                   0.000
REMARK UNBOUND:                 0.000
REMARK SMILES CC(=O)[O-]
REMARK SMILES IDX 1 1 2 2 3 3 4 4
REMARK H PARENT
REMARK Flexibility Score: inf
ROOT
ATOM      1  C   UNL     1     -20.359   1.130   7.630  1.00  0.00     0.063 C 
ATOM      2  C   UNL     1     -20.717   0.638   8.992  1.00  0.00     0.038 C 
ATOM      3  O   UNL     1     -21.372   1.374   9.777  1.00  0.00    -0.550 OA
ATOM      4  O   UNL     1     -20.378  -0.652   9.378  1.00  0.00    -0.550 OA
ENDROOT
TORSDOF 0
ENDMDL
MODEL 4
REMARK VINA RESULT:    -2.629     14.285     14.706
REMARK INTER + INTRA:          -2.629
REMARK INTER:                  -2.629
REMARK INTRA:                   0.000
REMARK UNBOUND:                 0.000
REMARK SMILES CC(=O)[O-]
REMARK SMILES IDX 1 1 2 2 3 3 4 4
REMARK H PARENT
REMARK Flexibility Score: inf
ROOT
ATOM      1  C   UNL     1     -20.374   1.327   7.627  1.00  0.00     0.063 C 
ATOM      2  C   UNL     1     -20.735   0.687   8.925  1.00  0.00     0.038 C 
ATOM      3  O   UNL     1     -20.399  -0.504   9.157  1.00  0.00    -0.550 OA
ATOM      4  O   UNL     1     -21.393   1.421   9.903  1.00  0.00    -0.550 OA
ENDROOT
TORSDOF 0
ENDMDL
MODEL 5
REMARK VINA RESULT:    -2.614      1.340      2.134
REMARK INTER + INTRA:          -2.614
REMARK INTER:                  -2.614
REMARK INTRA:                   0.000
REMARK UNBOUND:                 0.000
REMARK SMILES CC(=O)[O-]
REMARK SMILES IDX 1 1 2 2 3 3 4 4
REMARK H PARENT
REMARK Flexibility Score: inf
ROOT
ATOM      1  C   UNL     1     -26.455   4.781  -2.529  1.00  0.00     0.063 C 
ATOM      2  C   UNL     1     -26.257   5.808  -3.591  1.00  0.00     0.038 C 
ATOM      3  O   UNL     1     -25.145   5.911  -4.172  1.00  0.00    -0.550 OA
ATOM      4  O   UNL     1     -27.316   6.618  -3.982  1.00  0.00    -0.550 OA
ENDROOT
TORSDOF 0
ENDMDL
MODEL 6
REMARK VINA RESULT:    -2.585      1.397      2.217
REMARK INTER + INTRA:          -2.585
REMARK INTER:                  -2.585
REMARK INTRA:                   0.000
REMARK UNBOUND:                 0.000
REMARK SMILES CC(=O)[O-]
REMARK SMILES IDX 1 1 2 2 3 3 4 4
REMARK H PARENT
REMARK Flexibility Score: inf
ROOT
ATOM      1  C   UNL     1     -23.664   6.625  -4.374  1.00  0.00     0.063 C 
ATOM      2  C   UNL     1     -25.137   6.396  -4.372  1.00  0.00     0.038 C 
ATOM      3  O   UNL     1     -25.635   5.493  -3.649  1.00  0.00    -0.550 OA
ATOM      4  O   UNL     1     -25.969   7.213  -5.125  1.00  0.00    -0.550 OA
ENDROOT
TORSDOF 0
ENDMDL
MODEL 7
REMARK VINA RESULT:    -2.567     14.327     14.971
REMARK INTER + INTRA:          -2.567
REMARK INTER:                  -2.567
REMARK INTRA:                   0.000
REMARK UNBOUND:                 0.000
REMARK SMILES CC(=O)[O-]
REMARK SMILES IDX 1 1 2 2 3 3 4 4
REMARK H PARENT
REMARK Flexibility Score: inf
ROOT
ATOM      1  C   UNL     1     -21.411   1.454  10.229  1.00  0.00     0.063 C 
ATOM      2  C   UNL     1     -20.772   0.670   9.135  1.00  0.00     0.038 C 
ATOM      3  O   UNL     1     -20.417  -0.522   9.335  1.00  0.00    -0.550 OA
ATOM      4  O   UNL     1     -20.616   1.232   7.875  1.00  0.00    -0.550 OA
ENDROOT
TORSDOF 0
ENDMDL
MODEL 8
REMARK VINA RESULT:    -2.545     15.060     15.526
REMARK INTER + INTRA:          -2.545
REMARK INTER:                  -2.545
REMARK INTRA:                   0.000
REMARK UNBOUND:                 0.000
REMARK SMILES CC(=O)[O-]
REMARK SMILES IDX 1 1 2 2 3 3 4 4
REMARK H PARENT
REMARK Flexibility Score: inf
ROOT
ATOM      1  C   UNL     1     -19.980  -1.723  10.028  1.00  0.00     0.063 C 
ATOM      2  C   UNL     1     -20.354  -0.822   8.900  1.00  0.00     0.038 C 
ATOM      3  O   UNL     1     -20.331  -1.250   7.716  1.00  0.00    -0.550 OA
ATOM      4  O   UNL     1     -20.781   0.474   9.157  1.00  0.00    -0.550 OA
ENDROOT
TORSDOF 0
ENDMDL
