MODEL 1
REMARK VINA RESULT:    -5.624      0.000      0.000
REMARK INTER + INTRA:          -6.050
REMARK INTER:                  -5.952
REMARK INTRA:                  -0.097
REMARK UNBOUND:                -0.097
REMARK SMILES C=C(C)[C@H]1CC=C(C)C(=O)C1
REMARK SMILES IDX 8 1 7 2 6 3 5 4 4 5 11 6 9 7 10 8 2 9 1 10 3 11
REMARK H PARENT
REMARK Flexibility Score: inf
ROOT
ATOM      1  C   UNL     1      44.734  20.751  21.903  1.00  0.00     0.048 C 
ATOM      2  C   UNL     1      46.072  20.498  21.266  1.00  0.00    -0.012 C 
ATOM      3  C   UNL     1      46.382  21.079  20.094  1.00  0.00    -0.019 C 
ATOM      4  C   UNL     1      47.677  20.795  19.378  1.00  0.00     0.036 C 
ATOM      5  C   UNL     1      48.803  20.462  20.376  1.00  0.00     0.025 C 
ATOM      6  C   UNL     1      48.378  19.303  21.297  1.00  0.00     0.089 C 
ATOM      7  C   UNL     1      47.040  19.587  21.925  1.00  0.00     0.158 C 
ATOM      8  O   UNL     1      46.731  19.006  22.999  1.00  0.00    -0.295 OA
ENDROOT
BRANCH   5   9
ATOM      9  C   UNL     1      50.115  20.166  19.667  1.00  0.00    -0.077 C 
ATOM     10  C   UNL     1      50.690  18.951  19.731  1.00  0.00     0.008 C 
ATOM     11  C   UNL     1      50.771  21.267  18.875  1.00  0.00     0.039 C 
ENDBRANCH   5   9
TORSDOF 1
ENDMDL
MODEL 2
REMARK VINA RESULT:    -5.456      1.895      4.444
REMARK INTER + INTRA:          -5.872
REMARK INTER:                  -5.777
REMARK INTRA:                  -0.095
REMARK UNBOUND:                -0.097
REMARK SMILES C=C(C)[C@H]1CC=C(C)C(=O)C1
REMARK SMILES IDX 8 1 7 2 6 3 5 4 4 5 11 6 9 7 10 8 2 9 1 10 3 11
REMARK H PARENT
REMARK Flexibility Score: inf
ROOT
ATOM      1  C   UNL     1      51.275  21.568  18.488  1.00  0.00     0.048 C 
ATOM      2  C   UNL     1      50.111  21.213  19.372  1.00  0.00    -0.012 C 
ATOM      3  C   UNL     1      49.199  22.147  19.692  1.00  0.00    -0.019 C 
ATOM      4  C   UNL     1      48.060  21.862  20.637  1.00  0.00     0.036 C 
ATOM      5  C   UNL     1      47.633  20.383  20.562  1.00  0.00     0.025 C 
ATOM      6  C   UNL     1      48.842  19.461  20.809  1.00  0.00     0.089 C 
ATOM      7  C   UNL     1      49.987  19.835  19.906  1.00  0.00     0.158 C 
ATOM      8  O   UNL     1      50.868  18.973  19.645  1.00  0.00    -0.295 OA
ENDROOT
BRANCH   5   9
ATOM      9  C   UNL     1      46.489  20.078  21.516  1.00  0.00    -0.077 C 
ATOM     10  C   UNL     1      45.274  20.632  21.357  1.00  0.00     0.008 C 
ATOM     11  C   UNL     1      46.738  19.127  22.659  1.00  0.00     0.039 C 
ENDBRANCH   5   9
TORSDOF 1
ENDMDL
MODEL 3
REMARK VINA RESULT:    -5.409      2.140      4.742
REMARK INTER + INTRA:          -5.823
REMARK INTER:                  -5.727
REMARK INTRA:                  -0.096
REMARK UNBOUND:                -0.097
REMARK SMILES C=C(C)[C@H]1CC=C(C)C(=O)C1
REMARK SMILES IDX 8 1 7 2 6 3 5 4 4 5 11 6 9 7 10 8 2 9 1 10 3 11
REMARK H PARENT
REMARK Flexibility Score: inf
ROOT
ATOM      1  C   UNL     1      51.976  20.720  18.480  1.00  0.00     0.048 C 
ATOM      2  C   UNL     1      50.659  20.464  19.158  1.00  0.00    -0.012 C 
ATOM      3  C   UNL     1      50.424  19.281  19.751  1.00  0.00    -0.019 C 
ATOM      4  C   UNL     1      49.093  18.948  20.373  1.00  0.00     0.036 C 
ATOM      5  C   UNL     1      48.400  20.214  20.914  1.00  0.00     0.025 C 
ATOM      6  C   UNL     1      48.278  21.275  19.804  1.00  0.00     0.089 C 
ATOM      7  C   UNL     1      49.611  21.515  19.150  1.00  0.00     0.158 C 
ATOM      8  O   UNL     1      49.814  22.606  18.553  1.00  0.00    -0.295 OA
ENDROOT
BRANCH   5   9
ATOM      9  C   UNL     1      47.051  19.895  21.539  1.00  0.00    -0.077 C 
ATOM     10  C   UNL     1      46.947  19.099  22.618  1.00  0.00     0.008 C 
ATOM     11  C   UNL     1      45.813  20.496  20.925  1.00  0.00     0.039 C 
ENDBRANCH   5   9
TORSDOF 1
ENDMDL
MODEL 4
REMARK VINA RESULT:    -5.016      1.624      2.195
REMARK INTER + INTRA:          -5.407
REMARK INTER:                  -5.309
REMARK INTRA:                  -0.097
REMARK UNBOUND:                -0.097
REMARK SMILES C=C(C)[C@H]1CC=C(C)C(=O)C1
REMARK SMILES IDX 8 1 7 2 6 3 5 4 4 5 11 6 9 7 10 8 2 9 1 10 3 11
REMARK H PARENT
REMARK Flexibility Score: inf
ROOT
ATOM      1  C   UNL     1      44.079  20.754  22.263  1.00  0.00     0.048 C 
ATOM      2  C   UNL     1      45.498  20.640  21.778  1.00  0.00    -0.012 C 
ATOM      3  C   UNL     1      46.295  19.663  22.246  1.00  0.00    -0.019 C 
ATOM      4  C   UNL     1      47.744  19.556  21.851  1.00  0.00     0.036 C 
ATOM      5  C   UNL     1      47.976  20.102  20.429  1.00  0.00     0.025 C 
ATOM      6  C   UNL     1      47.444  21.543  20.314  1.00  0.00     0.089 C 
ATOM      7  C   UNL     1      46.022  21.624  20.799  1.00  0.00     0.158 C 
ATOM      8  O   UNL     1      45.290  22.568  20.397  1.00  0.00    -0.295 OA
ENDROOT
BRANCH   5   9
ATOM      9  C   UNL     1      49.437  20.007  20.019  1.00  0.00    -0.077 C 
ATOM     10  C   UNL     1      50.143  18.875  20.190  1.00  0.00     0.008 C 
ATOM     11  C   UNL     1      50.093  21.217  19.405  1.00  0.00     0.039 C 
ENDBRANCH   5   9
TORSDOF 1
ENDMDL
MODEL 5
REMARK VINA RESULT:    -4.968      1.698      2.849
REMARK INTER + INTRA:          -5.356
REMARK INTER:                  -5.256
REMARK INTRA:                  -0.101
REMARK UNBOUND:                -0.097
REMARK SMILES C=C(C)[C@H]1CC=C(C)C(=O)C1
REMARK SMILES IDX 8 1 7 2 6 3 5 4 4 5 11 6 9 7 10 8 2 9 1 10 3 11
REMARK H PARENT
REMARK Flexibility Score: inf
ROOT
ATOM      1  C   UNL     1      46.742  19.586  21.700  1.00  0.00     0.048 C 
ATOM      2  C   UNL     1      47.976  20.083  20.998  1.00  0.00    -0.012 C 
ATOM      3  C   UNL     1      49.015  19.255  20.794  1.00  0.00    -0.019 C 
ATOM      4  C   UNL     1      50.301  19.727  20.167  1.00  0.00     0.036 C 
ATOM      5  C   UNL     1      50.048  20.879  19.175  1.00  0.00     0.025 C 
ATOM      6  C   UNL     1      49.280  22.022  19.866  1.00  0.00     0.089 C 
ATOM      7  C   UNL     1      48.048  21.496  20.553  1.00  0.00     0.158 C 
ATOM      8  O   UNL     1      47.093  22.284  20.787  1.00  0.00    -0.295 OA
ENDROOT
BRANCH   5   9
ATOM      9  C   UNL     1      51.338  21.371  18.540  1.00  0.00    -0.077 C 
ATOM     10  C   UNL     1      51.552  22.678  18.305  1.00  0.00     0.008 C 
ATOM     11  C   UNL     1      52.394  20.359  18.176  1.00  0.00     0.039 C 
ENDBRANCH   5   9
TORSDOF 1
ENDMDL
MODEL 6
REMARK VINA RESULT:    -4.940      3.058      4.999
REMARK INTER + INTRA:          -5.327
REMARK INTER:                  -5.232
REMARK INTRA:                  -0.094
REMARK UNBOUND:                -0.097
REMARK SMILES C=C(C)[C@H]1CC=C(C)C(=O)C1
REMARK SMILES IDX 8 1 7 2 6 3 5 4 4 5 11 6 9 7 10 8 2 9 1 10 3 11
REMARK H PARENT
REMARK Flexibility Score: inf
ROOT
ATOM      1  C   UNL     1      52.233  25.238  20.383  1.00  0.00     0.048 C 
ATOM      2  C   UNL     1      51.273  24.105  20.142  1.00  0.00    -0.012 C 
ATOM      3  C   UNL     1      51.486  23.244  19.132  1.00  0.00    -0.019 C 
ATOM      4  C   UNL     1      50.513  22.143  18.802  1.00  0.00     0.036 C 
ATOM      5  C   UNL     1      49.773  21.658  20.064  1.00  0.00     0.025 C 
ATOM      6  C   UNL     1      49.095  22.842  20.778  1.00  0.00     0.089 C 
ATOM      7  C   UNL     1      50.080  23.956  21.011  1.00  0.00     0.158 C 
ATOM      8  O   UNL     1      49.855  24.790  21.927  1.00  0.00    -0.295 OA
ENDROOT
BRANCH   5   9
ATOM      9  C   UNL     1      48.781  20.550  19.745  1.00  0.00    -0.077 C 
ATOM     10  C   UNL     1      47.547  20.823  19.283  1.00  0.00     0.008 C 
ATOM     11  C   UNL     1      49.207  19.120  19.954  1.00  0.00     0.039 C 
ENDBRANCH   5   9
TORSDOF 1
ENDMDL
MODEL 7
REMARK VINA RESULT:    -4.906      3.457      5.029
REMARK INTER + INTRA:          -5.291
REMARK INTER:                  -5.195
REMARK INTRA:                  -0.096
REMARK UNBOUND:                -0.097
REMARK SMILES C=C(C)[C@H]1CC=C(C)C(=O)C1
REMARK SMILES IDX 8 1 7 2 6 3 5 4 4 5 11 6 9 7 10 8 2 9 1 10 3 11
REMARK H PARENT
REMARK Flexibility Score: inf
ROOT
ATOM      1  C   UNL     1      50.224  25.938  19.021  1.00  0.00     0.048 C 
ATOM      2  C   UNL     1      50.096  24.481  19.374  1.00  0.00    -0.012 C 
ATOM      3  C   UNL     1      50.070  24.099  20.662  1.00  0.00    -0.019 C 
ATOM      4  C   UNL     1      50.022  22.648  21.065  1.00  0.00     0.036 C 
ATOM      5  C   UNL     1      49.282  21.802  20.011  1.00  0.00     0.025 C 
ATOM      6  C   UNL     1      49.913  22.003  18.621  1.00  0.00     0.089 C 
ATOM      7  C   UNL     1      50.022  23.467  18.293  1.00  0.00     0.158 C 
ATOM      8  O   UNL     1      50.094  23.822  17.087  1.00  0.00    -0.295 OA
ENDROOT
BRANCH   5   9
ATOM      9  C   UNL     1      49.233  20.333  20.400  1.00  0.00    -0.077 C 
ATOM     10  C   UNL     1      50.088  19.438  19.875  1.00  0.00     0.008 C 
ATOM     11  C   UNL     1      48.199  19.887  21.403  1.00  0.00     0.039 C 
ENDBRANCH   5   9
TORSDOF 1
ENDMDL
MODEL 8
REMARK VINA RESULT:    -4.903      1.892      4.905
REMARK INTER + INTRA:          -5.287
REMARK INTER:                  -5.190
REMARK INTRA:                  -0.098
REMARK UNBOUND:                -0.097
REMARK SMILES C=C(C)[C@H]1CC=C(C)C(=O)C1
REMARK SMILES IDX 8 1 7 2 6 3 5 4 4 5 11 6 9 7 10 8 2 9 1 10 3 11
REMARK H PARENT
REMARK Flexibility Score: inf
ROOT
ATOM      1  C   UNL     1      49.606  19.447  20.773  1.00  0.00     0.048 C 
ATOM      2  C   UNL     1      48.167  19.846  20.952  1.00  0.00    -0.012 C 
ATOM      3  C   UNL     1      47.484  19.438  22.036  1.00  0.00    -0.019 C 
ATOM      4  C   UNL     1      46.021  19.746  22.221  1.00  0.00     0.036 C 
ATOM      5  C   UNL     1      45.643  21.080  21.548  1.00  0.00     0.025 C 
ATOM      6  C   UNL     1      46.055  21.068  20.064  1.00  0.00     0.089 C 
ATOM      7  C   UNL     1      47.499  20.672  19.917  1.00  0.00     0.158 C 
ATOM      8  O   UNL     1      48.125  21.014  18.878  1.00  0.00    -0.295 OA
ENDROOT
BRANCH   5   9
ATOM      9  C   UNL     1      44.167  21.400  21.720  1.00  0.00    -0.077 C 
ATOM     10  C   UNL     1      43.424  20.802  22.669  1.00  0.00     0.008 C 
ATOM     11  C   UNL     1      43.538  22.415  20.801  1.00  0.00     0.039 C 
ENDBRANCH   5   9
TORSDOF 1
ENDMDL
MODEL 9
REMARK VINA RESULT:    -4.629      4.556      5.984
REMARK INTER + INTRA:          -4.997
REMARK INTER:                  -4.903
REMARK INTRA:                  -0.095
REMARK UNBOUND:                -0.097
REMARK SMILES C=C(C)[C@H]1CC=C(C)C(=O)C1
REMARK SMILES IDX 8 1 7 2 6 3 5 4 4 5 11 6 9 7 10 8 2 9 1 10 3 11
REMARK H PARENT
REMARK Flexibility Score: inf
ROOT
ATOM      1  C   UNL     1      51.895  27.181  22.298  1.00  0.00     0.048 C 
ATOM      2  C   UNL     1      51.313  25.984  21.598  1.00  0.00    -0.012 C 
ATOM      3  C   UNL     1      52.081  25.240  20.784  1.00  0.00    -0.019 C 
ATOM      4  C   UNL     1      51.525  24.080  19.999  1.00  0.00     0.036 C 
ATOM      5  C   UNL     1      50.350  23.417  20.743  1.00  0.00     0.025 C 
ATOM      6  C   UNL     1      49.272  24.463  21.084  1.00  0.00     0.089 C 
ATOM      7  C   UNL     1      49.882  25.644  21.790  1.00  0.00     0.158 C 
ATOM      8  O   UNL     1      49.150  26.369  22.515  1.00  0.00    -0.295 OA
ENDROOT
BRANCH   5   9
ATOM      9  C   UNL     1      49.773  22.249  19.959  1.00  0.00    -0.077 C 
ATOM     10  C   UNL     1      49.782  22.232  18.614  1.00  0.00     0.008 C 
ATOM     11  C   UNL     1      49.184  21.090  20.722  1.00  0.00     0.039 C 
ENDBRANCH   5   9
TORSDOF 1
ENDMDL
