MODEL 1
REMARK VINA RESULT:    -4.444      0.000      0.000
REMARK INTER + INTRA:         -10.895
REMARK INTER:                  -8.340
REMARK INTRA:                  -2.555
REMARK UNBOUND:                -2.555
REMARK SMILES CCCCCCCCC=CCCCCCCCC(=O)[O-]
REMARK SMILES IDX 10 1 9 2 11 3 12 4 13 5 14 6 15 7 16 8 17 9 18 10 19 11
REMARK SMILES IDX 20 12 8 13 7 14 6 15 5 16 4 17 3 18 2 19 1 20
REMARK H PARENT
REMARK Flexibility Score: inf
ROOT
ATOM      1  C   UNL     1      -0.244  21.921  48.639  1.00  0.00    -0.031 C 
ATOM      2  C   UNL     1      -1.520  21.502  48.567  1.00  0.00    -0.031 C 
ENDROOT
BRANCH   1   3
ATOM      3  C   UNL     1       0.865  21.174  49.337  1.00  0.00     0.027 C 
BRANCH   3   4
ATOM      4  C   UNL     1       1.439  22.011  50.490  1.00  0.00     0.004 C 
BRANCH   4   5
ATOM      5  C   UNL     1       0.545  21.993  51.744  1.00  0.00     0.000 C 
BRANCH   5   6
ATOM      6  C   UNL     1       0.353  23.362  52.422  1.00  0.00     0.000 C 
BRANCH   6   7
ATOM      7  C   UNL     1      -1.118  23.675  52.734  1.00  0.00     0.000 C 
BRANCH   7   8
ATOM      8  C   UNL     1      -2.058  22.815  51.879  1.00  0.00     0.006 C 
BRANCH   8   9
ATOM      9  C   UNL     1      -3.325  23.589  51.507  1.00  0.00     0.053 C 
BRANCH   9  10
ATOM     10  C   UNL     1      -2.973  24.872  50.822  1.00  0.00     0.041 C 
ATOM     11  O   UNL     1      -2.339  24.855  49.733  1.00  0.00    -0.550 OA
ATOM     12  O   UNL     1      -3.306  26.087  51.406  1.00  0.00    -0.550 OA
ENDBRANCH   9  10
ENDBRANCH   8   9
ENDBRANCH   7   8
ENDBRANCH   6   7
ENDBRANCH   5   6
ENDBRANCH   4   5
ENDBRANCH   3   4
ENDBRANCH   1   3
BRANCH   2  13
ATOM     13  C   UNL     1      -2.056  20.268  49.250  1.00  0.00     0.027 C 
BRANCH  13  14
ATOM     14  C   UNL     1      -3.174  19.601  48.436  1.00  0.00     0.004 C 
BRANCH  14  15
ATOM     15  C   UNL     1      -3.202  18.076  48.632  1.00  0.00     0.000 C 
BRANCH  15  16
ATOM     16  C   UNL     1      -2.032  17.560  49.486  1.00  0.00     0.000 C 
BRANCH  16  17
ATOM     17  C   UNL     1      -1.387  16.270  48.938  1.00  0.00    -0.000 C 
BRANCH  17  18
ATOM     18  C   UNL     1      -0.655  16.508  47.607  1.00  0.00    -0.000 C 
BRANCH  18  19
ATOM     19  C   UNL     1       0.310  17.694  47.712  1.00  0.00    -0.003 C 
ATOM     20  C   UNL     1       0.055  18.711  46.604  1.00  0.00     0.004 C 
ENDBRANCH  18  19
ENDBRANCH  17  18
ENDBRANCH  16  17
ENDBRANCH  15  16
ENDBRANCH  14  15
ENDBRANCH  13  14
ENDBRANCH   2  13
TORSDOF 15
ENDMDL
MODEL 2
REMARK VINA RESULT:    -4.332      1.312      3.867
REMARK INTER + INTRA:         -10.686
REMARK INTER:                  -8.417
REMARK INTRA:                  -2.268
REMARK UNBOUND:                -2.555
REMARK SMILES CCCCCCCCC=CCCCCCCCC(=O)[O-]
REMARK SMILES IDX 10 1 9 2 11 3 12 4 13 5 14 6 15 7 16 8 17 9 18 10 19 11
REMARK SMILES IDX 20 12 8 13 7 14 6 15 5 16 4 17 3 18 2 19 1 20
REMARK H PARENT
REMARK Flexibility Score: inf
ROOT
ATOM      1  C   UNL     1      -2.315  17.426  49.256  1.00  0.00    -0.031 C 
ATOM      2  C   UNL     1      -1.427  16.500  48.853  1.00  0.00    -0.031 C 
ENDROOT
BRANCH   1   3
ATOM      3  C   UNL     1      -3.346  18.070  48.363  1.00  0.00     0.027 C 
BRANCH   3   4
ATOM      4  C   UNL     1      -3.111  19.584  48.268  1.00  0.00     0.004 C 
BRANCH   4   5
ATOM      5  C   UNL     1      -2.365  20.150  49.491  1.00  0.00     0.000 C 
BRANCH   5   6
ATOM      6  C   UNL     1      -2.193  21.680  49.493  1.00  0.00     0.000 C 
BRANCH   6   7
ATOM      7  C   UNL     1      -1.241  22.174  50.593  1.00  0.00     0.000 C 
BRANCH   7   8
ATOM      8  C   UNL     1      -2.023  22.670  51.816  1.00  0.00     0.006 C 
BRANCH   8   9
ATOM      9  C   UNL     1      -3.319  23.367  51.393  1.00  0.00     0.053 C 
BRANCH   9  10
ATOM     10  C   UNL     1      -3.103  24.843  51.266  1.00  0.00     0.041 C 
ATOM     11  O   UNL     1      -3.027  25.374  50.126  1.00  0.00    -0.550 OA
ATOM     12  O   UNL     1      -2.942  25.623  52.403  1.00  0.00    -0.550 OA
ENDBRANCH   9  10
ENDBRANCH   8   9
ENDBRANCH   7   8
ENDBRANCH   6   7
ENDBRANCH   5   6
ENDBRANCH   4   5
ENDBRANCH   3   4
ENDBRANCH   1   3
BRANCH   2  13
ATOM     13  C   UNL     1      -1.267  16.028  47.428  1.00  0.00     0.027 C 
BRANCH  13  14
ATOM     14  C   UNL     1       0.206  15.985  47.000  1.00  0.00     0.004 C 
BRANCH  14  15
ATOM     15  C   UNL     1       0.848  17.381  46.991  1.00  0.00     0.000 C 
BRANCH  15  16
ATOM     16  C   UNL     1      -0.048  18.449  46.341  1.00  0.00     0.000 C 
BRANCH  16  17
ATOM     17  C   UNL     1       0.235  19.882  46.838  1.00  0.00    -0.000 C 
BRANCH  17  18
ATOM     18  C   UNL     1       0.898  19.895  48.225  1.00  0.00    -0.000 C 
BRANCH  18  19
ATOM     19  C   UNL     1       2.157  20.770  48.225  1.00  0.00    -0.003 C 
ATOM     20  C   UNL     1       3.415  19.924  48.049  1.00  0.00     0.004 C 
ENDBRANCH  18  19
ENDBRANCH  17  18
ENDBRANCH  16  17
ENDBRANCH  15  16
ENDBRANCH  14  15
ENDBRANCH  13  14
ENDBRANCH   2  13
TORSDOF 15
ENDMDL
MODEL 3
REMARK VINA RESULT:    -4.330      3.318      6.313
REMARK INTER + INTRA:         -10.683
REMARK INTER:                  -8.716
REMARK INTRA:                  -1.967
REMARK UNBOUND:                -2.555
REMARK SMILES CCCCCCCCC=CCCCCCCCC(=O)[O-]
REMARK SMILES IDX 10 1 9 2 11 3 12 4 13 5 14 6 15 7 16 8 17 9 18 10 19 11
REMARK SMILES IDX 20 12 8 13 7 14 6 15 5 16 4 17 3 18 2 19 1 20
REMARK H PARENT
REMARK Flexibility Score: inf
ROOT
ATOM      1  C   UNL     1       0.642  17.693  47.020  1.00  0.00    -0.031 C 
ATOM      2  C   UNL     1       1.914  17.261  47.085  1.00  0.00    -0.031 C 
ENDROOT
BRANCH   1   3
ATOM      3  C   UNL     1      -0.357  17.265  45.974  1.00  0.00     0.027 C 
BRANCH   3   4
ATOM      4  C   UNL     1      -1.556  16.564  46.626  1.00  0.00     0.004 C 
BRANCH   4   5
ATOM      5  C   UNL     1      -1.349  16.299  48.129  1.00  0.00     0.000 C 
BRANCH   5   6
ATOM      6  C   UNL     1      -2.243  17.134  49.063  1.00  0.00     0.000 C 
BRANCH   6   7
ATOM      7  C   UNL     1      -3.233  18.030  48.302  1.00  0.00     0.000 C 
BRANCH   7   8
ATOM      8  C   UNL     1      -2.916  19.514  48.525  1.00  0.00     0.006 C 
BRANCH   8   9
ATOM      9  C   UNL     1      -1.605  19.686  49.297  1.00  0.00     0.053 C 
BRANCH   9  10
ATOM     10  C   UNL     1      -1.520  21.058  49.888  1.00  0.00     0.041 C 
ATOM     11  O   UNL     1      -0.408  21.520  50.258  1.00  0.00    -0.550 OA
ATOM     12  O   UNL     1      -2.674  21.809  50.072  1.00  0.00    -0.550 OA
ENDBRANCH   9  10
ENDBRANCH   8   9
ENDBRANCH   7   8
ENDBRANCH   6   7
ENDBRANCH   5   6
ENDBRANCH   4   5
ENDBRANCH   3   4
ENDBRANCH   1   3
BRANCH   2  13
ATOM     13  C   UNL     1       2.562  16.352  46.069  1.00  0.00     0.027 C 
BRANCH  13  14
ATOM     14  C   UNL     1       3.845  16.963  45.488  1.00  0.00     0.004 C 
BRANCH  14  15
ATOM     15  C   UNL     1       5.084  16.106  45.793  1.00  0.00     0.000 C 
BRANCH  15  16
ATOM     16  C   UNL     1       5.986  16.722  46.877  1.00  0.00     0.000 C 
BRANCH  16  17
ATOM     17  C   UNL     1       5.402  16.618  48.301  1.00  0.00    -0.000 C 
BRANCH  17  18
ATOM     18  C   UNL     1       5.492  17.950  49.064  1.00  0.00    -0.000 C 
BRANCH  18  19
ATOM     19  C   UNL     1       5.298  19.140  48.118  1.00  0.00    -0.003 C 
ATOM     20  C   UNL     1       4.069  19.957  48.507  1.00  0.00     0.004 C 
ENDBRANCH  18  19
ENDBRANCH  17  18
ENDBRANCH  16  17
ENDBRANCH  15  16
ENDBRANCH  14  15
ENDBRANCH  13  14
ENDBRANCH   2  13
TORSDOF 15
ENDMDL
MODEL 4
REMARK VINA RESULT:    -4.239      2.941      5.264
REMARK INTER + INTRA:         -10.511
REMARK INTER:                  -8.062
REMARK INTRA:                  -2.449
REMARK UNBOUND:                -2.555
REMARK SMILES CCCCCCCCC=CCCCCCCCC(=O)[O-]
REMARK SMILES IDX 10 1 9 2 11 3 12 4 13 5 14 6 15 7 16 8 17 9 18 10 19 11
REMARK SMILES IDX 20 12 8 13 7 14 6 15 5 16 4 17 3 18 2 19 1 20
REMARK H PARENT
REMARK Flexibility Score: inf
ROOT
ATOM      1  C   UNL     1      -2.268  17.309  48.874  1.00  0.00    -0.031 C 
ATOM      2  C   UNL     1      -1.473  16.449  48.213  1.00  0.00    -0.031 C 
ENDROOT
BRANCH   1   3
ATOM      3  C   UNL     1      -3.289  18.207  48.220  1.00  0.00     0.027 C 
BRANCH   3   4
ATOM      4  C   UNL     1      -2.785  19.656  48.177  1.00  0.00     0.004 C 
BRANCH   4   5
ATOM      5  C   UNL     1      -2.224  20.135  49.529  1.00  0.00     0.000 C 
BRANCH   5   6
ATOM      6  C   UNL     1      -0.793  20.699  49.474  1.00  0.00     0.000 C 
BRANCH   6   7
ATOM      7  C   UNL     1       0.117  19.929  48.504  1.00  0.00     0.000 C 
BRANCH   7   8
ATOM      8  C   UNL     1       0.751  20.875  47.476  1.00  0.00     0.006 C 
BRANCH   8   9
ATOM      9  C   UNL     1      -0.061  20.900  46.179  1.00  0.00     0.053 C 
BRANCH   9  10
ATOM     10  C   UNL     1      -0.578  22.278  45.911  1.00  0.00     0.041 C 
ATOM     11  O   UNL     1       0.003  23.021  45.076  1.00  0.00    -0.550 OA
ATOM     12  O   UNL     1      -1.675  22.759  46.614  1.00  0.00    -0.550 OA
ENDBRANCH   9  10
ENDBRANCH   8   9
ENDBRANCH   7   8
ENDBRANCH   6   7
ENDBRANCH   5   6
ENDBRANCH   4   5
ENDBRANCH   3   4
ENDBRANCH   1   3
BRANCH   2  13
ATOM     13  C   UNL     1      -1.416  16.317  46.710  1.00  0.00     0.027 C 
BRANCH  13  14
ATOM     14  C   UNL     1      -0.328  17.209  46.096  1.00  0.00     0.004 C 
BRANCH  14  15
ATOM     15  C   UNL     1       0.971  16.433  45.823  1.00  0.00     0.000 C 
BRANCH  15  16
ATOM     16  C   UNL     1       2.058  16.696  46.879  1.00  0.00     0.000 C 
BRANCH  16  17
ATOM     17  C   UNL     1       2.831  18.013  46.658  1.00  0.00    -0.000 C 
BRANCH  17  18
ATOM     18  C   UNL     1       3.873  18.266  47.759  1.00  0.00    -0.000 C 
BRANCH  18  19
ATOM     19  C   UNL     1       4.284  16.957  48.441  1.00  0.00    -0.003 C 
ATOM     20  C   UNL     1       5.718  16.576  48.084  1.00  0.00     0.004 C 
ENDBRANCH  18  19
ENDBRANCH  17  18
ENDBRANCH  16  17
ENDBRANCH  15  16
ENDBRANCH  14  15
ENDBRANCH  13  14
ENDBRANCH   2  13
TORSDOF 15
ENDMDL
MODEL 5
REMARK VINA RESULT:    -4.220      2.783      7.103
REMARK INTER + INTRA:         -10.475
REMARK INTER:                  -8.325
REMARK INTRA:                  -2.151
REMARK UNBOUND:                -2.555
REMARK SMILES CCCCCCCCC=CCCCCCCCC(=O)[O-]
REMARK SMILES IDX 10 1 9 2 11 3 12 4 13 5 14 6 15 7 16 8 17 9 18 10 19 11
REMARK SMILES IDX 20 12 8 13 7 14 6 15 5 16 4 17 3 18 2 19 1 20
REMARK H PARENT
REMARK Flexibility Score: inf
ROOT
ATOM      1  C   UNL     1       0.113  22.165  49.689  1.00  0.00    -0.031 C 
ATOM      2  C   UNL     1       0.793  22.757  50.687  1.00  0.00    -0.031 C 
ENDROOT
BRANCH   1   3
ATOM      3  C   UNL     1      -0.603  20.843  49.806  1.00  0.00     0.027 C 
BRANCH   3   4
ATOM      4  C   UNL     1      -2.117  21.031  49.640  1.00  0.00     0.004 C 
BRANCH   4   5
ATOM      5  C   UNL     1      -2.780  19.883  48.855  1.00  0.00     0.000 C 
BRANCH   5   6
ATOM      6  C   UNL     1      -2.333  18.471  49.272  1.00  0.00     0.000 C 
BRANCH   6   7
ATOM      7  C   UNL     1      -2.762  17.387  48.272  1.00  0.00     0.000 C 
BRANCH   7   8
ATOM      8  C   UNL     1      -1.607  16.421  47.976  1.00  0.00     0.006 C 
BRANCH   8   9
ATOM      9  C   UNL     1      -0.349  17.184  47.554  1.00  0.00     0.053 C 
BRANCH   9  10
ATOM     10  C   UNL     1      -0.549  17.828  46.218  1.00  0.00     0.041 C 
ATOM     11  O   UNL     1      -0.638  19.081  46.127  1.00  0.00    -0.550 OA
ATOM     12  O   UNL     1      -0.680  17.043  45.080  1.00  0.00    -0.550 OA
ENDBRANCH   9  10
ENDBRANCH   8   9
ENDBRANCH   7   8
ENDBRANCH   6   7
ENDBRANCH   5   6
ENDBRANCH   4   5
ENDBRANCH   3   4
ENDBRANCH   1   3
BRANCH   2  13
ATOM     13  C   UNL     1       1.019  22.146  52.049  1.00  0.00     0.027 C 
BRANCH  13  14
ATOM     14  C   UNL     1       0.010  22.663  53.085  1.00  0.00     0.004 C 
BRANCH  14  15
ATOM     15  C   UNL     1      -0.203  24.182  52.977  1.00  0.00     0.000 C 
BRANCH  15  16
ATOM     16  C   UNL     1      -1.688  24.582  53.011  1.00  0.00     0.000 C 
BRANCH  16  17
ATOM     17  C   UNL     1      -2.610  23.608  52.248  1.00  0.00    -0.000 C 
BRANCH  17  18
ATOM     18  C   UNL     1      -3.358  24.298  51.096  1.00  0.00    -0.000 C 
BRANCH  18  19
ATOM     19  C   UNL     1      -2.377  24.898  50.083  1.00  0.00    -0.003 C 
ATOM     20  C   UNL     1      -2.753  26.337  49.738  1.00  0.00     0.004 C 
ENDBRANCH  18  19
ENDBRANCH  17  18
ENDBRANCH  16  17
ENDBRANCH  15  16
ENDBRANCH  14  15
ENDBRANCH  13  14
ENDBRANCH   2  13
TORSDOF 15
ENDMDL
MODEL 6
REMARK VINA RESULT:    -4.213      1.826      4.259
REMARK INTER + INTRA:         -10.462
REMARK INTER:                  -8.273
REMARK INTRA:                  -2.189
REMARK UNBOUND:                -2.555
REMARK SMILES CCCCCCCCC=CCCCCCCCC(=O)[O-]
REMARK SMILES IDX 10 1 9 2 11 3 12 4 13 5 14 6 15 7 16 8 17 9 18 10 19 11
REMARK SMILES IDX 20 12 8 13 7 14 6 15 5 16 4 17 3 18 2 19 1 20
REMARK H PARENT
REMARK Flexibility Score: inf
ROOT
ATOM      1  C   UNL     1      -2.291  16.981  48.684  1.00  0.00    -0.031 C 
ATOM      2  C   UNL     1      -1.453  16.297  47.884  1.00  0.00    -0.031 C 
ENDROOT
BRANCH   1   3
ATOM      3  C   UNL     1      -3.454  17.810  48.199  1.00  0.00     0.027 C 
BRANCH   3   4
ATOM      4  C   UNL     1      -3.058  19.290  48.100  1.00  0.00     0.004 C 
BRANCH   4   5
ATOM      5  C   UNL     1      -2.332  19.800  49.360  1.00  0.00     0.000 C 
BRANCH   5   6
ATOM      6  C   UNL     1      -2.560  21.287  49.681  1.00  0.00     0.000 C 
BRANCH   6   7
ATOM      7  C   UNL     1      -1.339  21.953  50.334  1.00  0.00     0.000 C 
BRANCH   7   8
ATOM      8  C   UNL     1      -1.771  22.997  51.373  1.00  0.00     0.006 C 
BRANCH   8   9
ATOM      9  C   UNL     1      -0.840  22.980  52.588  1.00  0.00     0.053 C 
BRANCH   9  10
ATOM     10  C   UNL     1      -0.716  24.352  53.173  1.00  0.00     0.041 C 
ATOM     11  O   UNL     1       0.400  24.937  53.183  1.00  0.00    -0.550 OA
ATOM     12  O   UNL     1      -1.822  24.967  53.745  1.00  0.00    -0.550 OA
ENDBRANCH   9  10
ENDBRANCH   8   9
ENDBRANCH   7   8
ENDBRANCH   6   7
ENDBRANCH   5   6
ENDBRANCH   4   5
ENDBRANCH   3   4
ENDBRANCH   1   3
BRANCH   2  13
ATOM     13  C   UNL     1      -1.492  16.329  46.376  1.00  0.00     0.027 C 
BRANCH  13  14
ATOM     14  C   UNL     1      -0.217  16.944  45.781  1.00  0.00     0.004 C 
BRANCH  14  15
ATOM     15  C   UNL     1       0.989  16.796  46.722  1.00  0.00     0.000 C 
BRANCH  15  16
ATOM     16  C   UNL     1       1.679  18.137  47.027  1.00  0.00     0.000 C 
BRANCH  16  17
ATOM     17  C   UNL     1       0.811  19.106  47.856  1.00  0.00    -0.000 C 
BRANCH  17  18
ATOM     18  C   UNL     1       0.802  20.526  47.268  1.00  0.00    -0.000 C 
BRANCH  18  19
ATOM     19  C   UNL     1      -0.349  20.703  46.271  1.00  0.00    -0.003 C 
ATOM     20  C   UNL     1      -0.615  22.179  45.994  1.00  0.00     0.004 C 
ENDBRANCH  18  19
ENDBRANCH  17  18
ENDBRANCH  16  17
ENDBRANCH  15  16
ENDBRANCH  14  15
ENDBRANCH  13  14
ENDBRANCH   2  13
TORSDOF 15
ENDMDL
MODEL 7
REMARK VINA RESULT:    -4.172      3.933      7.751
REMARK INTER + INTRA:         -10.386
REMARK INTER:                  -8.643
REMARK INTRA:                  -1.743
REMARK UNBOUND:                -2.555
REMARK SMILES CCCCCCCCC=CCCCCCCCC(=O)[O-]
REMARK SMILES IDX 10 1 9 2 11 3 12 4 13 5 14 6 15 7 16 8 17 9 18 10 19 11
REMARK SMILES IDX 20 12 8 13 7 14 6 15 5 16 4 17 3 18 2 19 1 20
REMARK H PARENT
REMARK Flexibility Score: inf
ROOT
ATOM      1  C   UNL     1      -3.135  18.105  48.411  1.00  0.00    -0.031 C 
ATOM      2  C   UNL     1      -3.095  19.449  48.437  1.00  0.00    -0.031 C 
ENDROOT
BRANCH   1   3
ATOM      3  C   UNL     1      -2.226  17.205  49.211  1.00  0.00     0.027 C 
BRANCH   3   4
ATOM      4  C   UNL     1      -1.363  16.342  48.280  1.00  0.00     0.004 C 
BRANCH   4   5
ATOM      5  C   UNL     1      -1.616  16.636  46.789  1.00  0.00     0.000 C 
BRANCH   5   6
ATOM      6  C   UNL     1      -0.450  17.327  46.058  1.00  0.00     0.000 C 
BRANCH   6   7
ATOM      7  C   UNL     1       0.765  17.571  46.966  1.00  0.00     0.000 C 
BRANCH   7   8
ATOM      8  C   UNL     1       1.910  16.609  46.622  1.00  0.00     0.006 C 
BRANCH   8   9
ATOM      9  C   UNL     1       3.169  16.946  47.425  1.00  0.00     0.053 C 
BRANCH   9  10
ATOM     10  C   UNL     1       4.318  17.226  46.507  1.00  0.00     0.041 C 
ATOM     11  O   UNL     1       5.473  17.404  46.975  1.00  0.00    -0.550 OA
ATOM     12  O   UNL     1       4.105  17.332  45.138  1.00  0.00    -0.550 OA
ENDBRANCH   9  10
ENDBRANCH   8   9
ENDBRANCH   7   8
ENDBRANCH   6   7
ENDBRANCH   5   6
ENDBRANCH   4   5
ENDBRANCH   3   4
ENDBRANCH   1   3
BRANCH   2  13
ATOM     13  C   UNL     1      -2.076  20.261  49.199  1.00  0.00     0.027 C 
BRANCH  13  14
ATOM     14  C   UNL     1      -0.820  20.540  48.361  1.00  0.00     0.004 C 
BRANCH  14  15
ATOM     15  C   UNL     1       0.325  21.119  49.208  1.00  0.00     0.000 C 
BRANCH  15  16
ATOM     16  C   UNL     1      -0.080  21.369  50.671  1.00  0.00     0.000 C 
BRANCH  16  17
ATOM     17  C   UNL     1      -0.234  22.863  51.024  1.00  0.00    -0.000 C 
BRANCH  17  18
ATOM     18  C   UNL     1      -0.901  23.071  52.393  1.00  0.00    -0.000 C 
BRANCH  18  19
ATOM     19  C   UNL     1      -2.195  23.882  52.258  1.00  0.00    -0.003 C 
ATOM     20  C   UNL     1      -3.219  23.146  51.399  1.00  0.00     0.004 C 
ENDBRANCH  18  19
ENDBRANCH  17  18
ENDBRANCH  16  17
ENDBRANCH  15  16
ENDBRANCH  14  15
ENDBRANCH  13  14
ENDBRANCH   2  13
TORSDOF 15
ENDMDL
MODEL 8
REMARK VINA RESULT:    -4.146      4.499      7.037
REMARK INTER + INTRA:         -10.336
REMARK INTER:                  -8.119
REMARK INTRA:                  -2.217
REMARK UNBOUND:                -2.555
REMARK SMILES CCCCCCCCC=CCCCCCCCC(=O)[O-]
REMARK SMILES IDX 10 1 9 2 11 3 12 4 13 5 14 6 15 7 16 8 17 9 18 10 19 11
REMARK SMILES IDX 20 12 8 13 7 14 6 15 5 16 4 17 3 18 2 19 1 20
REMARK H PARENT
REMARK Flexibility Score: inf
ROOT
ATOM      1  C   UNL     1       1.886  17.425  47.001  1.00  0.00    -0.031 C 
ATOM      2  C   UNL     1       0.594  17.669  46.717  1.00  0.00    -0.031 C 
ENDROOT
BRANCH   1   3
ATOM      3  C   UNL     1       2.666  16.239  46.492  1.00  0.00     0.027 C 
BRANCH   3   4
ATOM      4  C   UNL     1       3.960  16.056  47.298  1.00  0.00     0.004 C 
BRANCH   4   5
ATOM      5  C   UNL     1       4.085  17.057  48.462  1.00  0.00     0.000 C 
BRANCH   5   6
ATOM      6  C   UNL     1       5.526  17.480  48.800  1.00  0.00     0.000 C 
BRANCH   6   7
ATOM      7  C   UNL     1       5.723  19.003  48.781  1.00  0.00     0.000 C 
BRANCH   7   8
ATOM      8  C   UNL     1       4.474  19.713  48.243  1.00  0.00     0.006 C 
BRANCH   8   9
ATOM      9  C   UNL     1       4.821  20.606  47.049  1.00  0.00     0.053 C 
BRANCH   9  10
ATOM     10  C   UNL     1       5.367  19.787  45.922  1.00  0.00     0.041 C 
ATOM     11  O   UNL     1       4.635  18.941  45.343  1.00  0.00    -0.550 OA
ATOM     12  O   UNL     1       6.695  19.926  45.540  1.00  0.00    -0.550 OA
ENDBRANCH   9  10
ENDBRANCH   8   9
ENDBRANCH   7   8
ENDBRANCH   6   7
ENDBRANCH   5   6
ENDBRANCH   4   5
ENDBRANCH   3   4
ENDBRANCH   1   3
BRANCH   2  13
ATOM     13  C   UNL     1      -0.297  16.747  45.921  1.00  0.00     0.027 C 
BRANCH  13  14
ATOM     14  C   UNL     1      -1.619  16.458  46.646  1.00  0.00     0.004 C 
BRANCH  14  15
ATOM     15  C   UNL     1      -1.419  16.258  48.157  1.00  0.00     0.000 C 
BRANCH  15  16
ATOM     16  C   UNL     1      -2.368  17.121  49.006  1.00  0.00     0.000 C 
BRANCH  16  17
ATOM     17  C   UNL     1      -3.203  18.120  48.179  1.00  0.00    -0.000 C 
BRANCH  17  18
ATOM     18  C   UNL     1      -2.839  19.581  48.491  1.00  0.00    -0.000 C 
BRANCH  18  19
ATOM     19  C   UNL     1      -1.678  19.657  49.489  1.00  0.00    -0.003 C 
ATOM     20  C   UNL     1      -0.489  20.406  48.894  1.00  0.00     0.004 C 
ENDBRANCH  18  19
ENDBRANCH  17  18
ENDBRANCH  16  17
ENDBRANCH  15  16
ENDBRANCH  14  15
ENDBRANCH  13  14
ENDBRANCH   2  13
TORSDOF 15
ENDMDL
MODEL 9
REMARK VINA RESULT:    -4.130      5.622      7.991
REMARK INTER + INTRA:         -10.307
REMARK INTER:                  -8.266
REMARK INTRA:                  -2.041
REMARK UNBOUND:                -2.555
REMARK SMILES CCCCCCCCC=CCCCCCCCC(=O)[O-]
REMARK SMILES IDX 10 1 9 2 11 3 12 4 13 5 14 6 15 7 16 8 17 9 18 10 19 11
REMARK SMILES IDX 20 12 8 13 7 14 6 15 5 16 4 17 3 18 2 19 1 20
REMARK H PARENT
REMARK Flexibility Score: inf
ROOT
ATOM      1  C   UNL     1       2.367  17.630  47.129  1.00  0.00    -0.031 C 
ATOM      2  C   UNL     1       1.218  16.986  46.856  1.00  0.00    -0.031 C 
ENDROOT
BRANCH   1   3
ATOM      3  C   UNL     1       2.564  19.120  47.002  1.00  0.00     0.027 C 
BRANCH   3   4
ATOM      4  C   UNL     1       3.263  19.682  48.247  1.00  0.00     0.004 C 
BRANCH   4   5
ATOM      5  C   UNL     1       4.740  20.038  47.995  1.00  0.00     0.000 C 
BRANCH   5   6
ATOM      6  C   UNL     1       5.748  19.283  48.880  1.00  0.00     0.000 C 
BRANCH   6   7
ATOM      7  C   UNL     1       5.314  17.843  49.188  1.00  0.00     0.000 C 
BRANCH   7   8
ATOM      8  C   UNL     1       5.882  16.862  48.154  1.00  0.00     0.006 C 
BRANCH   8   9
ATOM      9  C   UNL     1       7.306  17.253  47.751  1.00  0.00     0.053 C 
BRANCH   9  10
ATOM     10  C   UNL     1       7.727  16.508  46.524  1.00  0.00     0.041 C 
ATOM     11  O   UNL     1       8.940  16.481  46.185  1.00  0.00    -0.550 OA
ATOM     12  O   UNL     1       6.777  15.878  45.731  1.00  0.00    -0.550 OA
ENDBRANCH   9  10
ENDBRANCH   8   9
ENDBRANCH   7   8
ENDBRANCH   6   7
ENDBRANCH   5   6
ENDBRANCH   4   5
ENDBRANCH   3   4
ENDBRANCH   1   3
BRANCH   2  13
ATOM     13  C   UNL     1      -0.021  17.642  46.296  1.00  0.00     0.027 C 
BRANCH  13  14
ATOM     14  C   UNL     1      -1.272  16.777  46.502  1.00  0.00     0.004 C 
BRANCH  14  15
ATOM     15  C   UNL     1      -1.251  16.040  47.851  1.00  0.00     0.000 C 
BRANCH  15  16
ATOM     16  C   UNL     1      -1.835  16.879  49.001  1.00  0.00     0.000 C 
BRANCH  16  17
ATOM     17  C   UNL     1      -3.017  17.775  48.576  1.00  0.00    -0.000 C 
BRANCH  17  18
ATOM     18  C   UNL     1      -2.751  19.261  48.863  1.00  0.00    -0.000 C 
BRANCH  18  19
ATOM     19  C   UNL     1      -1.403  19.455  49.567  1.00  0.00    -0.003 C 
ATOM     20  C   UNL     1      -0.492  20.379  48.765  1.00  0.00     0.004 C 
ENDBRANCH  18  19
ENDBRANCH  17  18
ENDBRANCH  16  17
ENDBRANCH  15  16
ENDBRANCH  14  15
ENDBRANCH  13  14
ENDBRANCH   2  13
TORSDOF 15
ENDMDL
