MODEL 1
REMARK VINA RESULT:    -1.789      0.000      0.000
REMARK INTER + INTRA:          -1.789
REMARK INTER:                  -1.789
REMARK INTRA:                   0.000
REMARK UNBOUND:                 0.000
REMARK SMILES CC(=O)[O-]
REMARK SMILES IDX 1 1 2 2 3 3 4 4
REMARK H PARENT
REMARK Flexibility Score: inf
ROOT
ATOM      1  C   UNL     1      60.884  31.033  61.809  1.00  0.00     0.063 C 
ATOM      2  C   UNL     1      62.056  30.112  61.768  1.00  0.00     0.038 C 
ATOM      3  O   UNL     1      61.880  28.865  61.747  1.00  0.00    -0.550 OA
ATOM      4  O   UNL     1      63.344  30.627  61.699  1.00  0.00    -0.550 OA
ENDROOT
TORSDOF 0
ENDMDL
MODEL 2
REMARK VINA RESULT:    -1.776      0.089      1.621
REMARK INTER + INTRA:          -1.776
REMARK INTER:                  -1.776
REMARK INTRA:                   0.000
REMARK UNBOUND:                 0.000
REMARK SMILES CC(=O)[O-]
REMARK SMILES IDX 1 1 2 2 3 3 4 4
REMARK H PARENT
REMARK Flexibility Score: inf
ROOT
ATOM      1  C   UNL     1      60.890  31.020  61.816  1.00  0.00     0.063 C 
ATOM      2  C   UNL     1      62.071  30.112  61.737  1.00  0.00     0.038 C 
ATOM      3  O   UNL     1      63.236  30.590  61.715  1.00  0.00    -0.550 OA
ATOM      4  O   UNL     1      61.891  28.735  61.744  1.00  0.00    -0.550 OA
ENDROOT
TORSDOF 0
ENDMDL
MODEL 3
REMARK VINA RESULT:    -1.771     12.772     12.859
REMARK INTER + INTRA:          -1.771
REMARK INTER:                  -1.771
REMARK INTRA:                   0.000
REMARK UNBOUND:                 0.000
REMARK SMILES CC(=O)[O-]
REMARK SMILES IDX 1 1 2 2 3 3 4 4
REMARK H PARENT
REMARK Flexibility Score: inf
ROOT
ATOM      1  C   UNL     1      58.879  29.268  49.237  1.00  0.00     0.063 C 
ATOM      2  C   UNL     1      59.715  28.035  49.300  1.00  0.00     0.038 C 
ATOM      3  O   UNL     1      59.167  26.901  49.322  1.00  0.00    -0.550 OA
ATOM      4  O   UNL     1      61.100  28.131  49.282  1.00  0.00    -0.550 OA
ENDROOT
TORSDOF 0
ENDMDL
MODEL 4
REMARK VINA RESULT:    -1.711     14.458     14.865
REMARK INTER + INTRA:          -1.711
REMARK INTER:                  -1.711
REMARK INTRA:                   0.000
REMARK UNBOUND:                 0.000
REMARK SMILES CC(=O)[O-]
REMARK SMILES IDX 1 1 2 2 3 3 4 4
REMARK H PARENT
REMARK Flexibility Score: inf
ROOT
ATOM      1  C   UNL     1      53.919  27.738  49.872  1.00  0.00     0.063 C 
ATOM      2  C   UNL     1      54.548  26.415  49.592  1.00  0.00     0.038 C 
ATOM      3  O   UNL     1      55.775  26.238  49.816  1.00  0.00    -0.550 OA
ATOM      4  O   UNL     1      53.772  25.358  49.134  1.00  0.00    -0.550 OA
ENDROOT
TORSDOF 0
ENDMDL
MODEL 5
REMARK VINA RESULT:    -1.707      4.804      5.428
REMARK INTER + INTRA:          -1.707
REMARK INTER:                  -1.707
REMARK INTRA:                   0.000
REMARK UNBOUND:                 0.000
REMARK SMILES CC(=O)[O-]
REMARK SMILES IDX 1 1 2 2 3 3 4 4
REMARK H PARENT
REMARK Flexibility Score: inf
ROOT
ATOM      1  C   UNL     1      62.711  35.632  61.026  1.00  0.00     0.063 C 
ATOM      2  C   UNL     1      64.012  34.979  61.348  1.00  0.00     0.038 C 
ATOM      3  O   UNL     1      64.894  35.609  61.989  1.00  0.00    -0.550 OA
ATOM      4  O   UNL     1      64.234  33.655  60.991  1.00  0.00    -0.550 OA
ENDROOT
TORSDOF 0
ENDMDL
MODEL 6
REMARK VINA RESULT:    -1.628      1.370      2.063
REMARK INTER + INTRA:          -1.628
REMARK INTER:                  -1.628
REMARK INTRA:                   0.000
REMARK UNBOUND:                 0.000
REMARK SMILES CC(=O)[O-]
REMARK SMILES IDX 1 1 2 2 3 3 4 4
REMARK H PARENT
REMARK Flexibility Score: inf
ROOT
ATOM      1  C   UNL     1      63.418  30.674  61.452  1.00  0.00     0.063 C 
ATOM      2  C   UNL     1      62.086  30.088  61.779  1.00  0.00     0.038 C 
ATOM      3  O   UNL     1      61.113  30.841  62.049  1.00  0.00    -0.550 OA
ATOM      4  O   UNL     1      61.900  28.712  61.732  1.00  0.00    -0.550 OA
ENDROOT
TORSDOF 0
ENDMDL
MODEL 7
REMARK VINA RESULT:    -1.603     17.030     17.275
REMARK INTER + INTRA:          -1.603
REMARK INTER:                  -1.603
REMARK INTRA:                   0.000
REMARK UNBOUND:                 0.000
REMARK SMILES CC(=O)[O-]
REMARK SMILES IDX 1 1 2 2 3 3 4 4
REMARK H PARENT
REMARK Flexibility Score: inf
ROOT
ATOM      1  C   UNL     1      56.201  18.666  50.550  1.00  0.00     0.063 C 
ATOM      2  C   UNL     1      57.547  18.121  50.211  1.00  0.00     0.038 C 
ATOM      3  O   UNL     1      57.828  16.922  50.473  1.00  0.00    -0.550 OA
ATOM      4  O   UNL     1      58.475  18.919  49.555  1.00  0.00    -0.550 OA
ENDROOT
TORSDOF 0
ENDMDL
MODEL 8
REMARK VINA RESULT:    -1.598     12.863     12.982
REMARK INTER + INTRA:          -1.598
REMARK INTER:                  -1.598
REMARK INTRA:                   0.000
REMARK UNBOUND:                 0.000
REMARK SMILES CC(=O)[O-]
REMARK SMILES IDX 1 1 2 2 3 3 4 4
REMARK H PARENT
REMARK Flexibility Score: inf
ROOT
ATOM      1  C   UNL     1      61.212  27.998  49.549  1.00  0.00     0.063 C 
ATOM      2  C   UNL     1      59.749  27.912  49.273  1.00  0.00     0.038 C 
ATOM      3  O   UNL     1      59.146  26.813  49.396  1.00  0.00    -0.550 OA
ATOM      4  O   UNL     1      59.037  29.055  48.932  1.00  0.00    -0.550 OA
ENDROOT
TORSDOF 0
ENDMDL
MODEL 9
REMARK VINA RESULT:    -1.594     16.647     16.936
REMARK INTER + INTRA:          -1.594
REMARK INTER:                  -1.594
REMARK INTRA:                   0.000
REMARK UNBOUND:                 0.000
REMARK SMILES CC(=O)[O-]
REMARK SMILES IDX 1 1 2 2 3 3 4 4
REMARK H PARENT
REMARK Flexibility Score: inf
ROOT
ATOM      1  C   UNL     1      55.785  19.113  52.317  1.00  0.00     0.063 C 
ATOM      2  C   UNL     1      55.649  19.009  50.836  1.00  0.00     0.038 C 
ATOM      3  O   UNL     1      56.530  18.415  50.160  1.00  0.00    -0.550 OA
ATOM      4  O   UNL     1      54.524  19.521  50.203  1.00  0.00    -0.550 OA
ENDROOT
TORSDOF 0
ENDMDL
