MODEL 1
REMARK VINA RESULT:     4.657      0.000      0.000
REMARK INTER + INTRA:           6.295
REMARK INTER:                   6.290
REMARK INTRA:                   0.005
REMARK UNBOUND:                 0.005
REMARK SMILES CC[C@@H](CC[C@@H](C)[C@H]1CC[C@H]2[C@H]3CC(=O)C4=CC(=O)CC[C@]4(C)[C@H]3CC[C@@]12C)C(C)C
REMARK SMILES IDX 4 1 3 2 2 3 1 4 29 5 30 6 31 7 5 8 6 9 7 10 8 11 9 12 27 13
REMARK SMILES IDX 10 14 11 15 26 16 28 17 12 18 25 19 24 20 13 21 22 22 14 23
REMARK SMILES IDX 16 24 21 25 23 26 15 27 17 28 20 29 18 30 19 31
REMARK H PARENT
REMARK Flexibility Score: inf
ROOT
ATOM      1  C   UNL     1     -10.364 -13.594  35.879  1.00  0.00     0.004 C 
ENDROOT
BRANCH   1   2
ATOM      2  C   UNL     1     -11.298 -12.462  36.400  1.00  0.00    -0.009 C 
BRANCH   2   3
ATOM      3  C   UNL     1     -10.715 -11.020  36.281  1.00  0.00     0.000 C 
ATOM      4  C   UNL     1     -10.138 -10.593  34.927  1.00  0.00     0.004 C 
ENDBRANCH   2   3
BRANCH   2   5
ATOM      5  C   UNL     1     -12.091 -12.828  37.699  1.00  0.00    -0.014 C 
ATOM      6  C   UNL     1     -13.508 -12.245  37.794  1.00  0.00     0.007 C 
ATOM      7  C   UNL     1     -12.091 -14.340  37.981  1.00  0.00     0.007 C 
ENDBRANCH   2   5
ENDBRANCH   1   2
BRANCH   1   8
ATOM      8  C   UNL     1     -10.878 -14.390  34.659  1.00  0.00     0.004 C 
BRANCH   8   9
ATOM      9  C   UNL     1     -12.381 -14.786  34.724  1.00  0.00    -0.011 C 
ATOM     10  C   UNL     1     -13.271 -13.580  34.388  1.00  0.00     0.008 C 
BRANCH   9  11
ATOM     11  C   UNL     1     -12.712 -16.065  33.870  1.00  0.00    -0.002 C 
ATOM     12  C   UNL     1     -14.140 -16.007  33.304  1.00  0.00     0.005 C 
ATOM     13  C   UNL     1     -11.817 -16.450  32.642  1.00  0.00    -0.026 C 
ATOM     14  C   UNL     1     -14.172 -16.898  32.067  1.00  0.00     0.005 C 
ATOM     15  C   UNL     1     -12.747 -17.437  31.887  1.00  0.00    -0.001 C 
ATOM     16  C   UNL     1     -11.412 -15.211  31.758  1.00  0.00     0.007 C 
ATOM     17  C   UNL     1     -10.540 -17.220  33.080  1.00  0.00     0.012 C 
ATOM     18  C   UNL     1     -12.315 -17.778  30.426  1.00  0.00     0.004 C 
ATOM     19  C   UNL     1     -11.930 -15.236  30.315  1.00  0.00     0.005 C 
ATOM     20  C   UNL     1     -11.662 -16.592  29.634  1.00  0.00     0.003 C 
ATOM     21  C   UNL     1     -13.415 -18.534  29.661  1.00  0.00     0.085 C 
ATOM     22  C   UNL     1     -11.920 -16.568  28.065  1.00  0.00    -0.000 C 
ATOM     23  C   UNL     1     -12.906 -18.949  28.321  1.00  0.00     0.159 C 
ATOM     24  C   UNL     1     -12.105 -17.994  27.525  1.00  0.00     0.005 C 
ATOM     25  C   UNL     1     -10.686 -15.899  27.372  1.00  0.00     0.020 C 
ATOM     26  C   UNL     1     -13.197 -15.759  27.708  1.00  0.00     0.017 C 
ATOM     27  O   UNL     1     -13.193 -20.094  27.875  1.00  0.00    -0.295 OA
ATOM     28  C   UNL     1     -11.673 -18.349  26.298  1.00  0.00     0.055 C 
ATOM     29  C   UNL     1     -10.728 -15.996  25.844  1.00  0.00     0.081 C 
ATOM     30  C   UNL     1     -10.956 -17.412  25.422  1.00  0.00     0.156 C 
ATOM     31  O   UNL     1     -10.573 -17.793  24.284  1.00  0.00    -0.295 OA
ENDBRANCH   9  11
ENDBRANCH   8   9
ENDBRANCH   1   8
TORSDOF 6
ENDMDL
MODEL 2
REMARK VINA RESULT:     5.182      0.512      1.758
REMARK INTER + INTRA:           7.004
REMARK INTER:                   6.682
REMARK INTRA:                   0.322
REMARK UNBOUND:                 0.005
REMARK SMILES CC[C@@H](CC[C@@H](C)[C@H]1CC[C@H]2[C@H]3CC(=O)C4=CC(=O)CC[C@]4(C)[C@H]3CC[C@@]12C)C(C)C
REMARK SMILES IDX 4 1 3 2 2 3 1 4 29 5 30 6 31 7 5 8 6 9 7 10 8 11 9 12 27 13
REMARK SMILES IDX 10 14 11 15 26 16 28 17 12 18 25 19 24 20 13 21 22 22 14 23
REMARK SMILES IDX 16 24 21 25 23 26 15 27 17 28 20 29 18 30 19 31
REMARK H PARENT
REMARK Flexibility Score: inf
ROOT
ATOM      1  C   UNL     1     -10.383 -13.728  36.218  1.00  0.00     0.004 C 
ENDROOT
BRANCH   1   2
ATOM      2  C   UNL     1     -10.580 -12.189  36.361  1.00  0.00    -0.009 C 
BRANCH   2   3
ATOM      3  C   UNL     1     -11.995 -11.748  36.844  1.00  0.00     0.000 C 
ATOM      4  C   UNL     1     -12.792 -12.730  37.709  1.00  0.00     0.004 C 
ENDBRANCH   2   3
BRANCH   2   5
ATOM      5  C   UNL     1      -9.891 -11.345  35.238  1.00  0.00    -0.014 C 
ATOM      6  C   UNL     1      -9.875 -11.989  33.843  1.00  0.00     0.007 C 
ATOM      7  C   UNL     1     -10.418  -9.901  35.178  1.00  0.00     0.007 C 
ENDBRANCH   2   5
ENDBRANCH   1   2
BRANCH   1   8
ATOM      8  C   UNL     1     -10.838 -14.348  34.879  1.00  0.00     0.004 C 
BRANCH   8   9
ATOM      9  C   UNL     1     -12.338 -14.757  34.823  1.00  0.00    -0.011 C 
ATOM     10  C   UNL     1     -13.203 -13.572  34.364  1.00  0.00     0.008 C 
BRANCH   9  11
ATOM     11  C   UNL     1     -12.583 -16.069  33.991  1.00  0.00    -0.002 C 
ATOM     12  C   UNL     1     -14.024 -16.136  33.462  1.00  0.00     0.005 C 
ATOM     13  C   UNL     1     -11.689 -16.393  32.745  1.00  0.00    -0.026 C 
ATOM     14  C   UNL     1     -14.013 -17.042  32.234  1.00  0.00     0.005 C 
ATOM     15  C   UNL     1     -12.553 -17.462  32.023  1.00  0.00    -0.001 C 
ATOM     16  C   UNL     1     -11.411 -15.136  31.838  1.00  0.00     0.007 C 
ATOM     17  C   UNL     1     -10.343 -17.049  33.157  1.00  0.00     0.012 C 
ATOM     18  C   UNL     1     -12.130 -17.785  30.555  1.00  0.00     0.004 C 
ATOM     19  C   UNL     1     -11.960 -15.221  30.409  1.00  0.00     0.005 C 
ATOM     20  C   UNL     1     -11.597 -16.558  29.735  1.00  0.00     0.003 C 
ATOM     21  C   UNL     1     -13.182 -18.638  29.827  1.00  0.00     0.085 C 
ATOM     22  C   UNL     1     -11.895 -16.575  28.173  1.00  0.00    -0.000 C 
ATOM     23  C   UNL     1     -12.673 -19.026  28.479  1.00  0.00     0.159 C 
ATOM     24  C   UNL     1     -11.975 -18.018  27.652  1.00  0.00     0.005 C 
ATOM     25  C   UNL     1     -10.738 -15.815  27.442  1.00  0.00     0.020 C 
ATOM     26  C   UNL     1     -13.243 -15.879  27.840  1.00  0.00     0.017 C 
ATOM     27  O   UNL     1     -12.876 -20.196  28.052  1.00  0.00    -0.295 OA
ATOM     28  C   UNL     1     -11.545 -18.351  26.419  1.00  0.00     0.055 C 
ATOM     29  C   UNL     1     -10.810 -15.933  25.917  1.00  0.00     0.081 C 
ATOM     30  C   UNL     1     -10.930 -17.369  25.515  1.00  0.00     0.156 C 
ATOM     31  O   UNL     1     -10.544 -17.730  24.372  1.00  0.00    -0.295 OA
ENDBRANCH   9  11
ENDBRANCH   8   9
ENDBRANCH   1   8
TORSDOF 6
ENDMDL
MODEL 3
REMARK VINA RESULT:     7.218      1.547      2.649
REMARK INTER + INTRA:           9.754
REMARK INTER:                   8.345
REMARK INTRA:                   1.410
REMARK UNBOUND:                 0.005
REMARK SMILES CC[C@@H](CC[C@@H](C)[C@H]1CC[C@H]2[C@H]3CC(=O)C4=CC(=O)CC[C@]4(C)[C@H]3CC[C@@]12C)C(C)C
REMARK SMILES IDX 4 1 3 2 2 3 1 4 29 5 30 6 31 7 5 8 6 9 7 10 8 11 9 12 27 13
REMARK SMILES IDX 10 14 11 15 26 16 28 17 12 18 25 19 24 20 13 21 22 22 14 23
REMARK SMILES IDX 16 24 21 25 23 26 15 27 17 28 20 29 18 30 19 31
REMARK H PARENT
REMARK Flexibility Score: inf
ROOT
ATOM      1  C   UNL     1     -10.263 -13.308  34.563  1.00  0.00     0.004 C 
ENDROOT
BRANCH   1   2
ATOM      2  C   UNL     1     -11.070 -12.431  35.565  1.00  0.00    -0.009 C 
BRANCH   2   3
ATOM      3  C   UNL     1     -10.350 -11.127  36.027  1.00  0.00     0.000 C 
ATOM      4  C   UNL     1     -10.258  -9.969  35.027  1.00  0.00     0.004 C 
ENDBRANCH   2   3
BRANCH   2   5
ATOM      5  C   UNL     1     -11.871 -13.246  36.634  1.00  0.00    -0.014 C 
ATOM      6  C   UNL     1     -11.070 -14.323  37.380  1.00  0.00     0.007 C 
ATOM      7  C   UNL     1     -12.633 -12.339  37.616  1.00  0.00     0.007 C 
ENDBRANCH   2   5
ENDBRANCH   1   2
BRANCH   1   8
ATOM      8  C   UNL     1      -9.876 -14.720  35.056  1.00  0.00     0.004 C 
BRANCH   8   9
ATOM      9  C   UNL     1     -10.666 -15.884  34.390  1.00  0.00    -0.011 C 
ATOM     10  C   UNL     1     -12.162 -15.542  34.308  1.00  0.00     0.008 C 
BRANCH   9  11
ATOM     11  C   UNL     1     -10.050 -16.331  33.014  1.00  0.00    -0.002 C 
ATOM     12  C   UNL     1     -10.173 -17.849  32.812  1.00  0.00     0.005 C 
ATOM     13  C   UNL     1     -10.576 -15.710  31.674  1.00  0.00    -0.026 C 
ATOM     14  C   UNL     1     -10.136 -18.110  31.309  1.00  0.00     0.005 C 
ATOM     15  C   UNL     1     -10.040 -16.734  30.637  1.00  0.00    -0.001 C 
ATOM     16  C   UNL     1     -12.144 -15.574  31.628  1.00  0.00     0.007 C 
ATOM     17  C   UNL     1      -9.921 -14.332  31.382  1.00  0.00     0.012 C 
ATOM     18  C   UNL     1     -10.653 -16.619  29.205  1.00  0.00     0.004 C 
ATOM     19  C   UNL     1     -12.843 -16.395  30.538  1.00  0.00     0.005 C 
ATOM     20  C   UNL     1     -12.169 -16.217  29.164  1.00  0.00     0.003 C 
ATOM     21  C   UNL     1     -10.282 -17.821  28.321  1.00  0.00     0.085 C 
ATOM     22  C   UNL     1     -13.023 -16.816  27.963  1.00  0.00    -0.000 C 
ATOM     23  C   UNL     1     -10.781 -17.601  26.932  1.00  0.00     0.159 C 
ATOM     24  C   UNL     1     -12.136 -17.045  26.730  1.00  0.00     0.005 C 
ATOM     25  C   UNL     1     -14.161 -15.800  27.612  1.00  0.00     0.020 C 
ATOM     26  C   UNL     1     -13.664 -18.179  28.342  1.00  0.00     0.017 C 
ATOM     27  O   UNL     1     -10.053 -17.922  25.953  1.00  0.00    -0.295 OA
ATOM     28  C   UNL     1     -12.607 -16.876  25.478  1.00  0.00     0.055 C 
ATOM     29  C   UNL     1     -14.930 -16.174  26.342  1.00  0.00     0.081 C 
ATOM     30  C   UNL     1     -13.979 -16.418  25.215  1.00  0.00     0.156 C 
ATOM     31  O   UNL     1     -14.371 -16.277  24.026  1.00  0.00    -0.295 OA
ENDBRANCH   9  11
ENDBRANCH   8   9
ENDBRANCH   1   8
TORSDOF 6
ENDMDL
