MODEL 1
REMARK VINA RESULT:     4.178      0.000      0.000
REMARK INTER + INTRA:           6.280
REMARK INTER:                   7.109
REMARK INTRA:                  -0.829
REMARK UNBOUND:                -0.829
REMARK SMILES CCCCCCCCCCCCCC(=O)[O-]
REMARK SMILES IDX 8 1 9 2 10 3 11 4 12 5 13 6 14 7 15 8 16 9 7 10 6 11 5 12
REMARK SMILES IDX 4 13 3 14 2 15 1 16
REMARK H PARENT
REMARK Flexibility Score: inf
ROOT
ATOM      1  C   UNL     1       9.545  17.128   0.379  1.00  0.00     0.000 C 
ENDROOT
BRANCH   1   2
ATOM      2  C   UNL     1      10.433  17.197   1.628  1.00  0.00     0.000 C 
BRANCH   2   3
ATOM      3  C   UNL     1      10.799  15.790   2.125  1.00  0.00     0.000 C 
BRANCH   3   4
ATOM      4  C   UNL     1      12.225  15.375   1.706  1.00  0.00     0.000 C 
BRANCH   4   5
ATOM      5  C   UNL     1      12.566  13.914   2.045  1.00  0.00     0.006 C 
BRANCH   5   6
ATOM      6  C   UNL     1      11.576  12.913   1.439  1.00  0.00     0.053 C 
BRANCH   6   7
ATOM      7  C   UNL     1      11.418  13.157  -0.028  1.00  0.00     0.041 C 
ATOM      8  O   UNL     1      10.271  13.280  -0.532  1.00  0.00    -0.550 OA
ATOM      9  O   UNL     1      12.542  13.299  -0.832  1.00  0.00    -0.550 OA
ENDBRANCH   6   7
ENDBRANCH   5   6
ENDBRANCH   4   5
ENDBRANCH   3   4
ENDBRANCH   2   3
ENDBRANCH   1   2
BRANCH   1  10
ATOM     10  C   UNL     1       8.137  17.665   0.676  1.00  0.00     0.000 C 
BRANCH  10  11
ATOM     11  C   UNL     1       7.658  17.325   2.096  1.00  0.00    -0.000 C 
BRANCH  11  12
ATOM     12  C   UNL     1       6.682  16.136   2.121  1.00  0.00    -0.000 C 
BRANCH  12  13
ATOM     13  C   UNL     1       7.395  14.782   1.964  1.00  0.00    -0.000 C 
BRANCH  13  14
ATOM     14  C   UNL     1       6.694  13.861   0.949  1.00  0.00    -0.000 C 
BRANCH  14  15
ATOM     15  C   UNL     1       5.324  13.374   1.448  1.00  0.00    -0.003 C 
ATOM     16  C   UNL     1       4.219  13.543   0.406  1.00  0.00     0.004 C 
ENDBRANCH  14  15
ENDBRANCH  13  14
ENDBRANCH  12  13
ENDBRANCH  11  12
ENDBRANCH  10  11
ENDBRANCH   1  10
TORSDOF 12
ENDMDL
MODEL 2
REMARK VINA RESULT:     4.801     12.911     14.813
REMARK INTER + INTRA:           7.341
REMARK INTER:                   8.102
REMARK INTRA:                  -0.761
REMARK UNBOUND:                -0.829
REMARK SMILES CCCCCCCCCCCCCC(=O)[O-]
REMARK SMILES IDX 8 1 9 2 10 3 11 4 12 5 13 6 14 7 15 8 16 9 7 10 6 11 5 12
REMARK SMILES IDX 4 13 3 14 2 15 1 16
REMARK H PARENT
REMARK Flexibility Score: inf
ROOT
ATOM      1  C   UNL     1      15.820  15.118 -12.765  1.00  0.00     0.000 C 
ENDROOT
BRANCH   1   2
ATOM      2  C   UNL     1      17.198  14.586 -13.177  1.00  0.00     0.000 C 
BRANCH   2   3
ATOM      3  C   UNL     1      18.239  15.715 -13.212  1.00  0.00     0.000 C 
BRANCH   3   4
ATOM      4  C   UNL     1      17.806  16.934 -12.370  1.00  0.00     0.000 C 
BRANCH   4   5
ATOM      5  C   UNL     1      18.976  17.840 -11.949  1.00  0.00     0.006 C 
BRANCH   5   6
ATOM      6  C   UNL     1      18.515  19.192 -11.394  1.00  0.00     0.053 C 
BRANCH   6   7
ATOM      7  C   UNL     1      18.822  20.288 -12.364  1.00  0.00     0.041 C 
ATOM      8  O   UNL     1      17.950  20.670 -13.188  1.00  0.00    -0.550 OA
ATOM      9  O   UNL     1      20.057  20.923 -12.325  1.00  0.00    -0.550 OA
ENDBRANCH   6   7
ENDBRANCH   5   6
ENDBRANCH   4   5
ENDBRANCH   3   4
ENDBRANCH   2   3
ENDBRANCH   1   2
BRANCH   1  10
ATOM     10  C   UNL     1      15.235  14.293 -11.609  1.00  0.00     0.000 C 
BRANCH  10  11
ATOM     11  C   UNL     1      14.567  15.165 -10.534  1.00  0.00    -0.000 C 
BRANCH  11  12
ATOM     12  C   UNL     1      15.583  15.780  -9.557  1.00  0.00    -0.000 C 
BRANCH  12  13
ATOM     13  C   UNL     1      15.229  15.505  -8.085  1.00  0.00    -0.000 C 
BRANCH  13  14
ATOM     14  C   UNL     1      13.932  16.209  -7.650  1.00  0.00    -0.000 C 
BRANCH  14  15
ATOM     15  C   UNL     1      14.143  17.131  -6.438  1.00  0.00    -0.003 C 
ATOM     16  C   UNL     1      12.830  17.565  -5.787  1.00  0.00     0.004 C 
ENDBRANCH  14  15
ENDBRANCH  13  14
ENDBRANCH  12  13
ENDBRANCH  11  12
ENDBRANCH  10  11
ENDBRANCH   1  10
TORSDOF 12
ENDMDL
MODEL 3
REMARK VINA RESULT:     5.420      5.210      7.602
REMARK INTER + INTRA:           8.394
REMARK INTER:                   9.027
REMARK INTRA:                  -0.633
REMARK UNBOUND:                -0.829
REMARK SMILES CCCCCCCCCCCCCC(=O)[O-]
REMARK SMILES IDX 8 1 9 2 10 3 11 4 12 5 13 6 14 7 15 8 16 9 7 10 6 11 5 12
REMARK SMILES IDX 4 13 3 14 2 15 1 16
REMARK H PARENT
REMARK Flexibility Score: inf
ROOT
ATOM      1  C   UNL     1      10.849  13.555  -3.475  1.00  0.00     0.000 C 
ENDROOT
BRANCH   1   2
ATOM      2  C   UNL     1      11.281  14.256  -2.181  1.00  0.00     0.000 C 
BRANCH   2   3
ATOM      3  C   UNL     1      10.583  13.638  -0.959  1.00  0.00     0.000 C 
BRANCH   3   4
ATOM      4  C   UNL     1      11.559  13.405   0.214  1.00  0.00     0.000 C 
BRANCH   4   5
ATOM      5  C   UNL     1      11.138  14.108   1.516  1.00  0.00     0.006 C 
BRANCH   5   6
ATOM      6  C   UNL     1       9.763  14.778   1.414  1.00  0.00     0.053 C 
BRANCH   6   7
ATOM      7  C   UNL     1       9.871  16.241   1.703  1.00  0.00     0.041 C 
ATOM      8  O   UNL     1       8.846  16.906   2.010  1.00  0.00    -0.550 OA
ATOM      9  O   UNL     1      11.113  16.863   1.682  1.00  0.00    -0.550 OA
ENDBRANCH   6   7
ENDBRANCH   5   6
ENDBRANCH   4   5
ENDBRANCH   3   4
ENDBRANCH   2   3
ENDBRANCH   1   2
BRANCH   1  10
ATOM     10  C   UNL     1      10.709  14.564  -4.625  1.00  0.00     0.000 C 
BRANCH  10  11
ATOM     11  C   UNL     1      11.722  15.716  -4.532  1.00  0.00    -0.000 C 
BRANCH  11  12
ATOM     12  C   UNL     1      12.021  16.352  -5.900  1.00  0.00    -0.000 C 
BRANCH  12  13
ATOM     13  C   UNL     1      12.856  17.640  -5.783  1.00  0.00    -0.000 C 
BRANCH  13  14
ATOM     14  C   UNL     1      14.200  17.540  -6.526  1.00  0.00    -0.000 C 
BRANCH  14  15
ATOM     15  C   UNL     1      14.575  16.090  -6.869  1.00  0.00    -0.003 C 
ATOM     16  C   UNL     1      14.990  15.915  -8.329  1.00  0.00     0.004 C 
ENDBRANCH  14  15
ENDBRANCH  13  14
ENDBRANCH  12  13
ENDBRANCH  11  12
ENDBRANCH  10  11
ENDBRANCH   1  10
TORSDOF 12
ENDMDL
MODEL 4
REMARK VINA RESULT:     5.476     12.368     14.904
REMARK INTER + INTRA:           8.489
REMARK INTER:                   9.226
REMARK INTRA:                  -0.737
REMARK UNBOUND:                -0.829
REMARK SMILES CCCCCCCCCCCCCC(=O)[O-]
REMARK SMILES IDX 8 1 9 2 10 3 11 4 12 5 13 6 14 7 15 8 16 9 7 10 6 11 5 12
REMARK SMILES IDX 4 13 3 14 2 15 1 16
REMARK H PARENT
REMARK Flexibility Score: inf
ROOT
ATOM      1  C   UNL     1      15.676  15.338 -12.423  1.00  0.00     0.000 C 
ENDROOT
BRANCH   1   2
ATOM      2  C   UNL     1      15.136  14.378 -11.355  1.00  0.00     0.000 C 
BRANCH   2   3
ATOM      3  C   UNL     1      14.450  15.148 -10.216  1.00  0.00     0.000 C 
BRANCH   3   4
ATOM      4  C   UNL     1      15.466  15.746  -9.220  1.00  0.00     0.000 C 
BRANCH   4   5
ATOM      5  C   UNL     1      14.998  15.691  -7.755  1.00  0.00     0.006 C 
BRANCH   5   6
ATOM      6  C   UNL     1      13.610  16.308  -7.548  1.00  0.00     0.053 C 
BRANCH   6   7
ATOM      7  C   UNL     1      13.606  17.194  -6.343  1.00  0.00     0.041 C 
ATOM      8  O   UNL     1      14.572  17.971  -6.123  1.00  0.00    -0.550 OA
ATOM      9  O   UNL     1      12.512  17.197  -5.488  1.00  0.00    -0.550 OA
ENDBRANCH   6   7
ENDBRANCH   5   6
ENDBRANCH   4   5
ENDBRANCH   3   4
ENDBRANCH   2   3
ENDBRANCH   1   2
BRANCH   1  10
ATOM     10  C   UNL     1      16.814  14.686 -13.222  1.00  0.00     0.000 C 
BRANCH  10  11
ATOM     11  C   UNL     1      18.112  15.509 -13.186  1.00  0.00    -0.000 C 
BRANCH  11  12
ATOM     12  C   UNL     1      17.864  16.991 -12.860  1.00  0.00    -0.000 C 
BRANCH  12  13
ATOM     13  C   UNL     1      18.745  17.497 -11.705  1.00  0.00    -0.000 C 
BRANCH  13  14
ATOM     14  C   UNL     1      18.455  18.964 -11.341  1.00  0.00    -0.000 C 
BRANCH  14  15
ATOM     15  C   UNL     1      18.722  19.924 -12.510  1.00  0.00    -0.003 C 
ATOM     16  C   UNL     1      19.731  21.018 -12.161  1.00  0.00     0.004 C 
ENDBRANCH  14  15
ENDBRANCH  13  14
ENDBRANCH  12  13
ENDBRANCH  11  12
ENDBRANCH  10  11
ENDBRANCH   1  10
TORSDOF 12
ENDMDL
MODEL 5
REMARK VINA RESULT:     6.316      4.258      6.044
REMARK INTER + INTRA:           9.918
REMARK INTER:                   9.528
REMARK INTRA:                   0.389
REMARK UNBOUND:                -0.829
REMARK SMILES CCCCCCCCCCCCCC(=O)[O-]
REMARK SMILES IDX 8 1 9 2 10 3 11 4 12 5 13 6 14 7 15 8 16 9 7 10 6 11 5 12
REMARK SMILES IDX 4 13 3 14 2 15 1 16
REMARK H PARENT
REMARK Flexibility Score: inf
ROOT
ATOM      1  C   UNL     1      10.674  14.097  -0.817  1.00  0.00     0.000 C 
ENDROOT
BRANCH   1   2
ATOM      2  C   UNL     1      10.155  13.797  -2.228  1.00  0.00     0.000 C 
BRANCH   2   3
ATOM      3  C   UNL     1      11.237  14.069  -3.285  1.00  0.00     0.000 C 
BRANCH   3   4
ATOM      4  C   UNL     1      10.960  15.360  -4.084  1.00  0.00     0.000 C 
BRANCH   4   5
ATOM      5  C   UNL     1      11.893  15.548  -5.293  1.00  0.00     0.006 C 
BRANCH   5   6
ATOM      6  C   UNL     1      12.101  17.021  -5.663  1.00  0.00     0.053 C 
BRANCH   6   7
ATOM      7  C   UNL     1      13.445  17.218  -6.289  1.00  0.00     0.041 C 
ATOM      8  O   UNL     1      14.060  18.307  -6.144  1.00  0.00    -0.550 OA
ATOM      9  O   UNL     1      14.042  16.179  -6.992  1.00  0.00    -0.550 OA
ENDBRANCH   6   7
ENDBRANCH   5   6
ENDBRANCH   4   5
ENDBRANCH   3   4
ENDBRANCH   2   3
ENDBRANCH   1   2
BRANCH   1  10
ATOM     10  C   UNL     1      11.892  13.223  -0.482  1.00  0.00     0.000 C 
BRANCH  10  11
ATOM     11  C   UNL     1      12.260  13.264   1.010  1.00  0.00    -0.000 C 
BRANCH  11  12
ATOM     12  C   UNL     1      11.209  14.000   1.859  1.00  0.00    -0.000 C 
BRANCH  12  13
ATOM     13  C   UNL     1      11.371  15.529   1.803  1.00  0.00    -0.000 C 
BRANCH  13  14
ATOM     14  C   UNL     1      10.152  16.228   1.176  1.00  0.00    -0.000 C 
BRANCH  14  15
ATOM     15  C   UNL     1       8.944  16.265   2.125  1.00  0.00    -0.003 C 
ATOM     16  C   UNL     1       8.064  15.020   2.016  1.00  0.00     0.004 C 
ENDBRANCH  14  15
ENDBRANCH  13  14
ENDBRANCH  12  13
ENDBRANCH  11  12
ENDBRANCH  10  11
ENDBRANCH   1  10
TORSDOF 12
ENDMDL
MODEL 6
REMARK VINA RESULT:     6.394     17.099     19.117
REMARK INTER + INTRA:          10.051
REMARK INTER:                  10.500
REMARK INTRA:                  -0.449
REMARK UNBOUND:                -0.829
REMARK SMILES CCCCCCCCCCCCCC(=O)[O-]
REMARK SMILES IDX 8 1 9 2 10 3 11 4 12 5 13 6 14 7 15 8 16 9 7 10 6 11 5 12
REMARK SMILES IDX 4 13 3 14 2 15 1 16
REMARK H PARENT
REMARK Flexibility Score: inf
ROOT
ATOM      1  C   UNL     1      19.390  19.791 -12.186  1.00  0.00     0.000 C 
ENDROOT
BRANCH   1   2
ATOM      2  C   UNL     1      19.396  21.319 -12.059  1.00  0.00     0.000 C 
BRANCH   2   3
ATOM      3  C   UNL     1      18.578  21.971 -13.184  1.00  0.00     0.000 C 
BRANCH   3   4
ATOM      4  C   UNL     1      18.715  23.509 -13.190  1.00  0.00     0.000 C 
BRANCH   4   5
ATOM      5  C   UNL     1      17.834  24.202 -14.243  1.00  0.00     0.006 C 
BRANCH   5   6
ATOM      6  C   UNL     1      18.329  25.606 -14.606  1.00  0.00     0.053 C 
BRANCH   6   7
ATOM      7  C   UNL     1      18.928  25.612 -15.976  1.00  0.00     0.041 C 
ATOM      8  O   UNL     1      18.400  26.290 -16.897  1.00  0.00    -0.550 OA
ATOM      9  O   UNL     1      20.098  24.907 -16.225  1.00  0.00    -0.550 OA
ENDBRANCH   6   7
ENDBRANCH   5   6
ENDBRANCH   4   5
ENDBRANCH   3   4
ENDBRANCH   2   3
ENDBRANCH   1   2
BRANCH   1  10
ATOM     10  C   UNL     1      18.293  19.171 -11.306  1.00  0.00     0.000 C 
BRANCH  10  11
ATOM     11  C   UNL     1      18.354  17.635 -11.274  1.00  0.00    -0.000 C 
BRANCH  11  12
ATOM     12  C   UNL     1      18.434  17.018 -12.681  1.00  0.00    -0.000 C 
BRANCH  12  13
ATOM     13  C   UNL     1      17.483  15.821 -12.855  1.00  0.00    -0.000 C 
BRANCH  13  14
ATOM     14  C   UNL     1      18.038  14.762 -13.823  1.00  0.00    -0.000 C 
BRANCH  14  15
ATOM     15  C   UNL     1      18.450  13.468 -13.104  1.00  0.00    -0.003 C 
ATOM     16  C   UNL     1      19.951  13.395 -12.825  1.00  0.00     0.004 C 
ENDBRANCH  14  15
ENDBRANCH  13  14
ENDBRANCH  12  13
ENDBRANCH  11  12
ENDBRANCH  10  11
ENDBRANCH   1  10
TORSDOF 12
ENDMDL
MODEL 7
REMARK VINA RESULT:     6.486     13.372     15.821
REMARK INTER + INTRA:          10.208
REMARK INTER:                  11.233
REMARK INTRA:                  -1.025
REMARK UNBOUND:                -0.829
REMARK SMILES CCCCCCCCCCCCCC(=O)[O-]
REMARK SMILES IDX 8 1 9 2 10 3 11 4 12 5 13 6 14 7 15 8 16 9 7 10 6 11 5 12
REMARK SMILES IDX 4 13 3 14 2 15 1 16
REMARK H PARENT
REMARK Flexibility Score: inf
ROOT
ATOM      1  C   UNL     1      18.286  15.247 -13.284  1.00  0.00     0.000 C 
ENDROOT
BRANCH   1   2
ATOM      2  C   UNL     1      17.055  14.332 -13.272  1.00  0.00     0.000 C 
BRANCH   2   3
ATOM      3  C   UNL     1      15.798  15.102 -12.838  1.00  0.00     0.000 C 
BRANCH   3   4
ATOM      4  C   UNL     1      15.240  14.596 -11.491  1.00  0.00     0.000 C 
BRANCH   4   5
ATOM      5  C   UNL     1      15.356  15.623 -10.352  1.00  0.00     0.006 C 
BRANCH   5   6
ATOM      6  C   UNL     1      14.268  15.456  -9.285  1.00  0.00     0.053 C 
BRANCH   6   7
ATOM      7  C   UNL     1      14.856  15.578  -7.915  1.00  0.00     0.041 C 
ATOM      8  O   UNL     1      14.401  16.425  -7.102  1.00  0.00    -0.550 OA
ATOM      9  O   UNL     1      15.874  14.721  -7.518  1.00  0.00    -0.550 OA
ENDBRANCH   6   7
ENDBRANCH   5   6
ENDBRANCH   4   5
ENDBRANCH   3   4
ENDBRANCH   2   3
ENDBRANCH   1   2
BRANCH   1  10
ATOM     10  C   UNL     1      17.884  16.711 -13.045  1.00  0.00     0.000 C 
BRANCH  10  11
ATOM     11  C   UNL     1      18.893  17.468 -12.166  1.00  0.00    -0.000 C 
BRANCH  11  12
ATOM     12  C   UNL     1      18.234  18.121 -10.939  1.00  0.00    -0.000 C 
BRANCH  12  13
ATOM     13  C   UNL     1      18.194  19.656 -11.037  1.00  0.00    -0.000 C 
BRANCH  13  14
ATOM     14  C   UNL     1      18.357  20.159 -12.482  1.00  0.00    -0.000 C 
BRANCH  14  15
ATOM     15  C   UNL     1      19.493  21.184 -12.623  1.00  0.00    -0.003 C 
ATOM     16  C   UNL     1      20.833  20.659 -12.111  1.00  0.00     0.004 C 
ENDBRANCH  14  15
ENDBRANCH  13  14
ENDBRANCH  12  13
ENDBRANCH  11  12
ENDBRANCH  10  11
ENDBRANCH   1  10
TORSDOF 12
ENDMDL
MODEL 8
REMARK VINA RESULT:     6.918     16.587     18.637
REMARK INTER + INTRA:          10.942
REMARK INTER:                  11.371
REMARK INTRA:                  -0.429
REMARK UNBOUND:                -0.829
REMARK SMILES CCCCCCCCCCCCCC(=O)[O-]
REMARK SMILES IDX 8 1 9 2 10 3 11 4 12 5 13 6 14 7 15 8 16 9 7 10 6 11 5 12
REMARK SMILES IDX 4 13 3 14 2 15 1 16
REMARK H PARENT
REMARK Flexibility Score: inf
ROOT
ATOM      1  C   UNL     1      19.206  19.859 -12.095  1.00  0.00     0.000 C 
ENDROOT
BRANCH   1   2
ATOM      2  C   UNL     1      18.251  19.286 -11.040  1.00  0.00     0.000 C 
BRANCH   2   3
ATOM      3  C   UNL     1      18.155  17.757 -11.155  1.00  0.00     0.000 C 
BRANCH   3   4
ATOM      4  C   UNL     1      18.028  17.288 -12.620  1.00  0.00     0.000 C 
BRANCH   4   5
ATOM      5  C   UNL     1      17.434  15.876 -12.765  1.00  0.00     0.006 C 
BRANCH   5   6
ATOM      6  C   UNL     1      18.186  15.015 -13.786  1.00  0.00     0.053 C 
BRANCH   6   7
ATOM      7  C   UNL     1      19.050  14.012 -13.089  1.00  0.00     0.041 C 
ATOM      8  O   UNL     1      18.593  12.875 -12.796  1.00  0.00    -0.550 OA
ATOM      9  O   UNL     1      20.376  14.314 -12.807  1.00  0.00    -0.550 OA
ENDBRANCH   6   7
ENDBRANCH   5   6
ENDBRANCH   4   5
ENDBRANCH   3   4
ENDBRANCH   2   3
ENDBRANCH   1   2
BRANCH   1  10
ATOM     10  C   UNL     1      18.456  20.775 -13.075  1.00  0.00     0.000 C 
BRANCH  10  11
ATOM     11  C   UNL     1      18.723  22.267 -12.817  1.00  0.00    -0.000 C 
BRANCH  11  12
ATOM     12  C   UNL     1      18.020  23.178 -13.837  1.00  0.00    -0.000 C 
BRANCH  12  13
ATOM     13  C   UNL     1      18.643  24.583 -13.902  1.00  0.00    -0.000 C 
BRANCH  13  14
ATOM     14  C   UNL     1      18.042  25.443 -15.028  1.00  0.00    -0.000 C 
BRANCH  14  15
ATOM     15  C   UNL     1      19.028  25.667 -16.185  1.00  0.00    -0.003 C 
ATOM     16  C   UNL     1      20.477  25.373 -15.796  1.00  0.00     0.004 C 
ENDBRANCH  14  15
ENDBRANCH  13  14
ENDBRANCH  12  13
ENDBRANCH  11  12
ENDBRANCH  10  11
ENDBRANCH   1  10
TORSDOF 12
ENDMDL
MODEL 9
REMARK VINA RESULT:     7.002     13.811     15.773
REMARK INTER + INTRA:          11.085
REMARK INTER:                  11.723
REMARK INTRA:                  -0.637
REMARK UNBOUND:                -0.829
REMARK SMILES CCCCCCCCCCCCCC(=O)[O-]
REMARK SMILES IDX 8 1 9 2 10 3 11 4 12 5 13 6 14 7 15 8 16 9 7 10 6 11 5 12
REMARK SMILES IDX 4 13 3 14 2 15 1 16
REMARK H PARENT
REMARK Flexibility Score: inf
ROOT
ATOM      1  C   UNL     1      18.458  15.327 -13.049  1.00  0.00     0.000 C 
ENDROOT
BRANCH   1   2
ATOM      2  C   UNL     1      18.079  16.795 -12.817  1.00  0.00     0.000 C 
BRANCH   2   3
ATOM      3  C   UNL     1      18.604  17.294 -11.462  1.00  0.00     0.000 C 
BRANCH   3   4
ATOM      4  C   UNL     1      18.368  18.806 -11.266  1.00  0.00     0.000 C 
BRANCH   4   5
ATOM      5  C   UNL     1      17.661  19.479 -12.455  1.00  0.00     0.006 C 
BRANCH   5   6
ATOM      6  C   UNL     1      18.464  20.645 -13.045  1.00  0.00     0.053 C 
BRANCH   6   7
ATOM      7  C   UNL     1      19.738  20.840 -12.285  1.00  0.00     0.041 C 
ATOM      8  O   UNL     1      20.749  20.137 -12.548  1.00  0.00    -0.550 OA
ATOM      9  O   UNL     1      19.823  21.834 -11.318  1.00  0.00    -0.550 OA
ENDBRANCH   6   7
ENDBRANCH   5   6
ENDBRANCH   4   5
ENDBRANCH   3   4
ENDBRANCH   2   3
ENDBRANCH   1   2
BRANCH   1  10
ATOM     10  C   UNL     1      17.204  14.458 -13.234  1.00  0.00     0.000 C 
BRANCH  10  11
ATOM     11  C   UNL     1      15.907  15.206 -12.889  1.00  0.00    -0.000 C 
BRANCH  11  12
ATOM     12  C   UNL     1      15.259  14.698 -11.590  1.00  0.00    -0.000 C 
BRANCH  12  13
ATOM     13  C   UNL     1      15.562  15.604 -10.384  1.00  0.00    -0.000 C 
BRANCH  13  14
ATOM     14  C   UNL     1      14.519  15.462  -9.262  1.00  0.00    -0.000 C 
BRANCH  14  15
ATOM     15  C   UNL     1      15.099  15.785  -7.876  1.00  0.00    -0.003 C 
ATOM     16  C   UNL     1      14.129  16.571  -6.995  1.00  0.00     0.004 C 
ENDBRANCH  14  15
ENDBRANCH  13  14
ENDBRANCH  12  13
ENDBRANCH  11  12
ENDBRANCH  10  11
ENDBRANCH   1  10
TORSDOF 12
ENDMDL
