MODEL 1
REMARK VINA RESULT:    -4.519      0.000      0.000
REMARK INTER + INTRA:          -9.160
REMARK INTER:                  -7.953
REMARK INTRA:                  -1.207
REMARK UNBOUND:                -1.207
REMARK SMILES CCCCCCCCCCCCCCC(=O)[O-]
REMARK SMILES IDX 9 1 10 2 11 3 12 4 13 5 14 6 15 7 16 8 17 9 8 10 7 11 6 12
REMARK SMILES IDX 5 13 4 14 3 15 2 16 1 17
REMARK H PARENT
REMARK Flexibility Score: inf
ROOT
ATOM      1  C   UNL     1      70.074 -37.183   7.201  1.00  0.00     0.000 C 
ENDROOT
BRANCH   1   2
ATOM      2  C   UNL     1      69.580 -35.950   6.432  1.00  0.00     0.000 C 
BRANCH   2   3
ATOM      3  C   UNL     1      68.988 -34.873   7.355  1.00  0.00     0.000 C 
BRANCH   3   4
ATOM      4  C   UNL     1      69.537 -33.470   7.058  1.00  0.00     0.000 C 
BRANCH   4   5
ATOM      5  C   UNL     1      70.470 -33.493   5.838  1.00  0.00     0.006 C 
BRANCH   5   6
ATOM      6  C   UNL     1      71.882 -32.996   6.178  1.00  0.00     0.053 C 
BRANCH   6   7
ATOM      7  C   UNL     1      72.846 -34.131   6.339  1.00  0.00     0.041 C 
ATOM      8  O   UNL     1      72.779 -34.882   7.348  1.00  0.00    -0.550 OA
ATOM      9  O   UNL     1      73.798 -34.379   5.358  1.00  0.00    -0.550 OA
ENDBRANCH   6   7
ENDBRANCH   5   6
ENDBRANCH   4   5
ENDBRANCH   3   4
ENDBRANCH   2   3
ENDBRANCH   1   2
BRANCH   1  10
ATOM     10  C   UNL     1      69.928 -36.982   8.715  1.00  0.00     0.000 C 
BRANCH  10  11
ATOM     11  C   UNL     1      69.866 -38.328   9.447  1.00  0.00    -0.000 C 
BRANCH  11  12
ATOM     12  C   UNL     1      70.142 -38.152  10.945  1.00  0.00    -0.000 C 
BRANCH  12  13
ATOM     13  C   UNL     1      71.428 -38.878  11.357  1.00  0.00    -0.000 C 
BRANCH  13  14
ATOM     14  C   UNL     1      72.527 -37.880  11.740  1.00  0.00    -0.000 C 
BRANCH  14  15
ATOM     15  C   UNL     1      73.208 -37.305  10.489  1.00  0.00    -0.000 C 
BRANCH  15  16
ATOM     16  C   UNL     1      74.740 -37.286  10.607  1.00  0.00    -0.003 C 
ATOM     17  C   UNL     1      75.252 -38.093  11.800  1.00  0.00     0.004 C 
ENDBRANCH  15  16
ENDBRANCH  14  15
ENDBRANCH  13  14
ENDBRANCH  12  13
ENDBRANCH  11  12
ENDBRANCH  10  11
ENDBRANCH   1  10
TORSDOF 13
ENDMDL
MODEL 2
REMARK VINA RESULT:    -4.411      2.307      5.367
REMARK INTER + INTRA:          -8.971
REMARK INTER:                  -7.270
REMARK INTRA:                  -1.701
REMARK UNBOUND:                -1.207
REMARK SMILES CCCCCCCCCCCCCCC(=O)[O-]
REMARK SMILES IDX 9 1 10 2 11 3 12 4 13 5 14 6 15 7 16 8 17 9 8 10 7 11 6 12
REMARK SMILES IDX 5 13 4 14 3 15 2 16 1 17
REMARK H PARENT
REMARK Flexibility Score: inf
ROOT
ATOM      1  C   UNL     1      72.275 -33.753   7.408  1.00  0.00     0.000 C 
ENDROOT
BRANCH   1   2
ATOM      2  C   UNL     1      72.809 -34.785   6.404  1.00  0.00     0.000 C 
BRANCH   2   3
ATOM      3  C   UNL     1      72.729 -36.225   6.935  1.00  0.00     0.000 C 
BRANCH   3   4
ATOM      4  C   UNL     1      72.740 -36.293   8.469  1.00  0.00     0.000 C 
BRANCH   4   5
ATOM      5  C   UNL     1      74.092 -36.806   8.986  1.00  0.00     0.006 C 
BRANCH   5   6
ATOM      6  C   UNL     1      74.012 -37.289  10.441  1.00  0.00     0.053 C 
BRANCH   6   7
ATOM      7  C   UNL     1      75.358 -37.294  11.098  1.00  0.00     0.041 C 
ATOM      8  O   UNL     1      76.250 -36.488  10.725  1.00  0.00    -0.550 OA
ATOM      9  O   UNL     1      75.616 -38.169  12.147  1.00  0.00    -0.550 OA
ENDBRANCH   6   7
ENDBRANCH   5   6
ENDBRANCH   4   5
ENDBRANCH   3   4
ENDBRANCH   2   3
ENDBRANCH   1   2
BRANCH   1  10
ATOM     10  C   UNL     1      71.203 -32.864   6.765  1.00  0.00     0.000 C 
BRANCH  10  11
ATOM     11  C   UNL     1      70.031 -33.704   6.242  1.00  0.00    -0.000 C 
BRANCH  11  12
ATOM     12  C   UNL     1      69.212 -34.285   7.400  1.00  0.00    -0.000 C 
BRANCH  12  13
ATOM     13  C   UNL     1      68.723 -35.701   7.073  1.00  0.00    -0.000 C 
BRANCH  13  14
ATOM     14  C   UNL     1      68.761 -36.599   8.316  1.00  0.00    -0.000 C 
BRANCH  14  15
ATOM     15  C   UNL     1      69.550 -37.887   8.040  1.00  0.00    -0.000 C 
BRANCH  15  16
ATOM     16  C   UNL     1      69.812 -38.703   9.315  1.00  0.00    -0.003 C 
ATOM     17  C   UNL     1      70.158 -37.826  10.519  1.00  0.00     0.004 C 
ENDBRANCH  15  16
ENDBRANCH  14  15
ENDBRANCH  13  14
ENDBRANCH  12  13
ENDBRANCH  11  12
ENDBRANCH  10  11
ENDBRANCH   1  10
TORSDOF 13
ENDMDL
MODEL 3
REMARK VINA RESULT:    -4.409      2.278      5.595
REMARK INTER + INTRA:          -8.966
REMARK INTER:                  -7.399
REMARK INTRA:                  -1.567
REMARK UNBOUND:                -1.207
REMARK SMILES CCCCCCCCCCCCCCC(=O)[O-]
REMARK SMILES IDX 9 1 10 2 11 3 12 4 13 5 14 6 15 7 16 8 17 9 8 10 7 11 6 12
REMARK SMILES IDX 5 13 4 14 3 15 2 16 1 17
REMARK H PARENT
REMARK Flexibility Score: inf
ROOT
ATOM      1  C   UNL     1      68.986 -36.958   8.934  1.00  0.00     0.000 C 
ENDROOT
BRANCH   1   2
ATOM      2  C   UNL     1      70.225 -37.864   8.971  1.00  0.00     0.000 C 
BRANCH   2   3
ATOM      3  C   UNL     1      71.343 -37.302   9.863  1.00  0.00     0.000 C 
BRANCH   3   4
ATOM      4  C   UNL     1      71.522 -38.103  11.162  1.00  0.00     0.000 C 
BRANCH   4   5
ATOM      5  C   UNL     1      72.972 -38.018  11.663  1.00  0.00     0.006 C 
BRANCH   5   6
ATOM      6  C   UNL     1      73.892 -37.312  10.658  1.00  0.00     0.053 C 
BRANCH   6   7
ATOM      7  C   UNL     1      75.313 -37.285  11.132  1.00  0.00     0.041 C 
ATOM      8  O   UNL     1      76.143 -36.498  10.606  1.00  0.00    -0.550 OA
ATOM      9  O   UNL     1      75.713 -38.108  12.178  1.00  0.00    -0.550 OA
ENDBRANCH   6   7
ENDBRANCH   5   6
ENDBRANCH   4   5
ENDBRANCH   3   4
ENDBRANCH   2   3
ENDBRANCH   1   2
BRANCH   1  10
ATOM     10  C   UNL     1      68.353 -36.950   7.537  1.00  0.00     0.000 C 
BRANCH  10  11
ATOM     11  C   UNL     1      69.066 -35.954   6.614  1.00  0.00    -0.000 C 
BRANCH  11  12
ATOM     12  C   UNL     1      69.280 -34.608   7.317  1.00  0.00    -0.000 C 
BRANCH  12  13
ATOM     13  C   UNL     1      70.036 -33.628   6.412  1.00  0.00    -0.000 C 
BRANCH  13  14
ATOM     14  C   UNL     1      71.364 -33.201   7.050  1.00  0.00    -0.000 C 
BRANCH  14  15
ATOM     15  C   UNL     1      72.174 -34.424   7.505  1.00  0.00    -0.000 C 
BRANCH  15  16
ATOM     16  C   UNL     1      72.869 -35.140   6.337  1.00  0.00    -0.003 C 
ATOM     17  C   UNL     1      72.703 -36.658   6.389  1.00  0.00     0.004 C 
ENDBRANCH  15  16
ENDBRANCH  14  15
ENDBRANCH  13  14
ENDBRANCH  12  13
ENDBRANCH  11  12
ENDBRANCH  10  11
ENDBRANCH   1  10
TORSDOF 13
ENDMDL
MODEL 4
REMARK VINA RESULT:    -4.369      2.033      6.465
REMARK INTER + INTRA:          -8.897
REMARK INTER:                  -7.908
REMARK INTRA:                  -0.989
REMARK UNBOUND:                -1.207
REMARK SMILES CCCCCCCCCCCCCCC(=O)[O-]
REMARK SMILES IDX 9 1 10 2 11 3 12 4 13 5 14 6 15 7 16 8 17 9 8 10 7 11 6 12
REMARK SMILES IDX 5 13 4 14 3 15 2 16 1 17
REMARK H PARENT
REMARK Flexibility Score: inf
ROOT
ATOM      1  C   UNL     1      75.154 -37.157   9.608  1.00  0.00     0.000 C 
ENDROOT
BRANCH   1   2
ATOM      2  C   UNL     1      74.494 -37.449  10.964  1.00  0.00     0.000 C 
BRANCH   2   3
ATOM      3  C   UNL     1      72.968 -37.267  10.932  1.00  0.00     0.000 C 
BRANCH   3   4
ATOM      4  C   UNL     1      72.236 -38.236  11.873  1.00  0.00     0.000 C 
BRANCH   4   5
ATOM      5  C   UNL     1      71.050 -38.902  11.160  1.00  0.00     0.006 C 
BRANCH   5   6
ATOM      6  C   UNL     1      69.979 -37.884  10.742  1.00  0.00     0.053 C 
BRANCH   6   7
ATOM      7  C   UNL     1      69.827 -37.819   9.253  1.00  0.00     0.041 C 
ATOM      8  O   UNL     1      70.295 -36.844   8.609  1.00  0.00    -0.550 OA
ATOM      9  O   UNL     1      69.196 -38.854   8.573  1.00  0.00    -0.550 OA
ENDBRANCH   6   7
ENDBRANCH   5   6
ENDBRANCH   4   5
ENDBRANCH   3   4
ENDBRANCH   2   3
ENDBRANCH   1   2
BRANCH   1  10
ATOM     10  C   UNL     1      74.138 -36.576   8.617  1.00  0.00     0.000 C 
BRANCH  10  11
ATOM     11  C   UNL     1      74.638 -36.711   7.173  1.00  0.00    -0.000 C 
BRANCH  11  12
ATOM     12  C   UNL     1      73.582 -36.218   6.177  1.00  0.00    -0.000 C 
BRANCH  12  13
ATOM     13  C   UNL     1      73.986 -34.870   5.569  1.00  0.00    -0.000 C 
BRANCH  13  14
ATOM     14  C   UNL     1      72.808 -33.888   5.571  1.00  0.00    -0.000 C 
BRANCH  14  15
ATOM     15  C   UNL     1      72.140 -33.835   6.953  1.00  0.00    -0.000 C 
BRANCH  15  16
ATOM     16  C   UNL     1      70.921 -32.901   6.983  1.00  0.00    -0.003 C 
ATOM     17  C   UNL     1      69.595 -33.659   7.038  1.00  0.00     0.004 C 
ENDBRANCH  15  16
ENDBRANCH  14  15
ENDBRANCH  13  14
ENDBRANCH  12  13
ENDBRANCH  11  12
ENDBRANCH  10  11
ENDBRANCH   1  10
TORSDOF 13
ENDMDL
MODEL 5
REMARK VINA RESULT:    -4.249      2.439      4.419
REMARK INTER + INTRA:          -8.685
REMARK INTER:                  -7.123
REMARK INTRA:                  -1.562
REMARK UNBOUND:                -1.207
REMARK SMILES CCCCCCCCCCCCCCC(=O)[O-]
REMARK SMILES IDX 9 1 10 2 11 3 12 4 13 5 14 6 15 7 16 8 17 9 8 10 7 11 6 12
REMARK SMILES IDX 5 13 4 14 3 15 2 16 1 17
REMARK H PARENT
REMARK Flexibility Score: inf
ROOT
ATOM      1  C   UNL     1      72.863 -33.534   5.344  1.00  0.00     0.000 C 
ENDROOT
BRANCH   1   2
ATOM      2  C   UNL     1      71.957 -33.563   6.584  1.00  0.00     0.000 C 
BRANCH   2   3
ATOM      3  C   UNL     1      70.466 -33.441   6.231  1.00  0.00     0.000 C 
BRANCH   3   4
ATOM      4  C   UNL     1      69.561 -34.207   7.209  1.00  0.00     0.000 C 
BRANCH   4   5
ATOM      5  C   UNL     1      69.609 -35.717   6.932  1.00  0.00     0.006 C 
BRANCH   5   6
ATOM      6  C   UNL     1      70.031 -36.520   8.170  1.00  0.00     0.053 C 
BRANCH   6   7
ATOM      7  C   UNL     1      68.852 -37.120   8.872  1.00  0.00     0.041 C 
ATOM      8  O   UNL     1      67.782 -37.334   8.244  1.00  0.00    -0.550 OA
ATOM      9  O   UNL     1      68.946 -37.472  10.213  1.00  0.00    -0.550 OA
ENDBRANCH   6   7
ENDBRANCH   5   6
ENDBRANCH   4   5
ENDBRANCH   3   4
ENDBRANCH   2   3
ENDBRANCH   1   2
BRANCH   1  10
ATOM     10  C   UNL     1      73.834 -34.721   5.345  1.00  0.00     0.000 C 
BRANCH  10  11
ATOM     11  C   UNL     1      73.182 -35.966   5.958  1.00  0.00    -0.000 C 
BRANCH  11  12
ATOM     12  C   UNL     1      74.131 -36.656   6.944  1.00  0.00    -0.000 C 
BRANCH  12  13
ATOM     13  C   UNL     1      73.762 -36.315   8.393  1.00  0.00    -0.000 C 
BRANCH  13  14
ATOM     14  C   UNL     1      74.831 -36.824   9.368  1.00  0.00    -0.000 C 
BRANCH  14  15
ATOM     15  C   UNL     1      74.186 -37.450  10.613  1.00  0.00    -0.000 C 
BRANCH  15  16
ATOM     16  C   UNL     1      72.650 -37.415  10.563  1.00  0.00    -0.003 C 
ATOM     17  C   UNL     1      72.005 -37.842  11.881  1.00  0.00     0.004 C 
ENDBRANCH  15  16
ENDBRANCH  14  15
ENDBRANCH  13  14
ENDBRANCH  12  13
ENDBRANCH  11  12
ENDBRANCH  10  11
ENDBRANCH   1  10
TORSDOF 13
ENDMDL
MODEL 6
REMARK VINA RESULT:    -4.239      2.259      5.872
REMARK INTER + INTRA:          -8.668
REMARK INTER:                  -7.713
REMARK INTRA:                  -0.955
REMARK UNBOUND:                -1.207
REMARK SMILES CCCCCCCCCCCCCCC(=O)[O-]
REMARK SMILES IDX 9 1 10 2 11 3 12 4 13 5 14 6 15 7 16 8 17 9 8 10 7 11 6 12
REMARK SMILES IDX 5 13 4 14 3 15 2 16 1 17
REMARK H PARENT
REMARK Flexibility Score: inf
ROOT
ATOM      1  C   UNL     1      69.868 -39.798   9.541  1.00  0.00     0.000 C 
ENDROOT
BRANCH   1   2
ATOM      2  C   UNL     1      70.329 -40.044  10.984  1.00  0.00     0.000 C 
BRANCH   2   3
ATOM      3  C   UNL     1      71.302 -38.967  11.488  1.00  0.00     0.000 C 
BRANCH   3   4
ATOM      4  C   UNL     1      71.408 -37.769  10.532  1.00  0.00     0.000 C 
BRANCH   4   5
ATOM      5  C   UNL     1      72.767 -37.070  10.677  1.00  0.00     0.006 C 
BRANCH   5   6
ATOM      6  C   UNL     1      73.757 -37.893  11.515  1.00  0.00     0.053 C 
BRANCH   6   7
ATOM      7  C   UNL     1      75.178 -37.541  11.198  1.00  0.00     0.041 C 
ATOM      8  O   UNL     1      76.110 -37.931  11.949  1.00  0.00    -0.550 OA
ATOM      9  O   UNL     1      75.475 -36.808  10.055  1.00  0.00    -0.550 OA
ENDBRANCH   6   7
ENDBRANCH   5   6
ENDBRANCH   4   5
ENDBRANCH   3   4
ENDBRANCH   2   3
ENDBRANCH   1   2
BRANCH   1  10
ATOM     10  C   UNL     1      68.337 -39.785   9.447  1.00  0.00     0.000 C 
BRANCH  10  11
ATOM     11  C   UNL     1      67.810 -38.365   9.207  1.00  0.00    -0.000 C 
BRANCH  11  12
ATOM     12  C   UNL     1      68.695 -37.612   8.207  1.00  0.00    -0.000 C 
BRANCH  12  13
ATOM     13  C   UNL     1      67.876 -36.593   7.406  1.00  0.00    -0.000 C 
BRANCH  13  14
ATOM     14  C   UNL     1      68.282 -35.157   7.762  1.00  0.00    -0.000 C 
BRANCH  14  15
ATOM     15  C   UNL     1      69.661 -34.816   7.179  1.00  0.00    -0.000 C 
BRANCH  15  16
ATOM     16  C   UNL     1      69.787 -33.335   6.790  1.00  0.00    -0.003 C 
ATOM     17  C   UNL     1      71.205 -32.794   6.969  1.00  0.00     0.004 C 
ENDBRANCH  15  16
ENDBRANCH  14  15
ENDBRANCH  13  14
ENDBRANCH  12  13
ENDBRANCH  11  12
ENDBRANCH  10  11
ENDBRANCH   1  10
TORSDOF 13
ENDMDL
MODEL 7
REMARK VINA RESULT:    -4.174      1.923      5.563
REMARK INTER + INTRA:          -8.554
REMARK INTER:                  -7.106
REMARK INTRA:                  -1.448
REMARK UNBOUND:                -1.207
REMARK SMILES CCCCCCCCCCCCCCC(=O)[O-]
REMARK SMILES IDX 9 1 10 2 11 3 12 4 13 5 14 6 15 7 16 8 17 9 8 10 7 11 6 12
REMARK SMILES IDX 5 13 4 14 3 15 2 16 1 17
REMARK H PARENT
REMARK Flexibility Score: inf
ROOT
ATOM      1  C   UNL     1      69.248 -38.137   8.582  1.00  0.00     0.000 C 
ENDROOT
BRANCH   1   2
ATOM      2  C   UNL     1      69.400 -38.150  10.110  1.00  0.00     0.000 C 
BRANCH   2   3
ATOM      3  C   UNL     1      70.673 -38.876  10.573  1.00  0.00     0.000 C 
BRANCH   3   4
ATOM      4  C   UNL     1      71.530 -38.024  11.521  1.00  0.00     0.000 C 
BRANCH   4   5
ATOM      5  C   UNL     1      72.688 -37.358  10.763  1.00  0.00     0.006 C 
BRANCH   5   6
ATOM      6  C   UNL     1      74.059 -37.792  11.300  1.00  0.00     0.053 C 
BRANCH   6   7
ATOM      7  C   UNL     1      75.179 -37.119  10.568  1.00  0.00     0.041 C 
ATOM      8  O   UNL     1      75.146 -37.014   9.314  1.00  0.00    -0.550 OA
ATOM      9  O   UNL     1      76.246 -36.579  11.277  1.00  0.00    -0.550 OA
ENDBRANCH   6   7
ENDBRANCH   5   6
ENDBRANCH   4   5
ENDBRANCH   3   4
ENDBRANCH   2   3
ENDBRANCH   1   2
BRANCH   1  10
ATOM     10  C   UNL     1      68.875 -36.737   8.079  1.00  0.00     0.000 C 
BRANCH  10  11
ATOM     11  C   UNL     1      70.106 -35.997   7.542  1.00  0.00    -0.000 C 
BRANCH  11  12
ATOM     12  C   UNL     1      71.141 -36.983   6.987  1.00  0.00    -0.000 C 
BRANCH  12  13
ATOM     13  C   UNL     1      72.549 -36.375   7.011  1.00  0.00    -0.000 C 
BRANCH  13  14
ATOM     14  C   UNL     1      72.491 -34.858   7.226  1.00  0.00    -0.000 C 
BRANCH  14  15
ATOM     15  C   UNL     1      72.837 -34.105   5.933  1.00  0.00    -0.000 C 
BRANCH  15  16
ATOM     16  C   UNL     1      71.880 -32.936   5.656  1.00  0.00    -0.003 C 
ATOM     17  C   UNL     1      71.016 -32.578   6.865  1.00  0.00     0.004 C 
ENDBRANCH  15  16
ENDBRANCH  14  15
ENDBRANCH  13  14
ENDBRANCH  12  13
ENDBRANCH  11  12
ENDBRANCH  10  11
ENDBRANCH   1  10
TORSDOF 13
ENDMDL
MODEL 8
REMARK VINA RESULT:    -4.170     11.803     13.372
REMARK INTER + INTRA:          -8.547
REMARK INTER:                  -7.118
REMARK INTRA:                  -1.429
REMARK UNBOUND:                -1.207
REMARK SMILES CCCCCCCCCCCCCCC(=O)[O-]
REMARK SMILES IDX 9 1 10 2 11 3 12 4 13 5 14 6 15 7 16 8 17 9 8 10 7 11 6 12
REMARK SMILES IDX 5 13 4 14 3 15 2 16 1 17
REMARK H PARENT
REMARK Flexibility Score: inf
ROOT
ATOM      1  C   UNL     1      72.551 -32.822  21.327  1.00  0.00     0.000 C 
ENDROOT
BRANCH   1   2
ATOM      2  C   UNL     1      71.333 -32.255  20.583  1.00  0.00     0.000 C 
BRANCH   2   3
ATOM      3  C   UNL     1      71.718 -31.204  19.530  1.00  0.00     0.000 C 
BRANCH   3   4
ATOM      4  C   UNL     1      71.989 -29.822  20.144  1.00  0.00     0.000 C 
BRANCH   4   5
ATOM      5  C   UNL     1      71.278 -28.719  19.348  1.00  0.00     0.006 C 
BRANCH   5   6
ATOM      6  C   UNL     1      71.262 -29.009  17.840  1.00  0.00     0.053 C 
BRANCH   6   7
ATOM      7  C   UNL     1      72.402 -28.340  17.135  1.00  0.00     0.041 C 
ATOM      8  O   UNL     1      72.407 -28.251  15.880  1.00  0.00    -0.550 OA
ATOM      9  O   UNL     1      73.445 -27.787  17.869  1.00  0.00    -0.550 OA
ENDBRANCH   6   7
ENDBRANCH   5   6
ENDBRANCH   4   5
ENDBRANCH   3   4
ENDBRANCH   2   3
ENDBRANCH   1   2
BRANCH   1  10
ATOM     10  C   UNL     1      72.484 -32.492  22.823  1.00  0.00     0.000 C 
BRANCH  10  11
ATOM     11  C   UNL     1      73.850 -32.036  23.350  1.00  0.00    -0.000 C 
BRANCH  11  12
ATOM     12  C   UNL     1      74.891 -32.006  22.225  1.00  0.00    -0.000 C 
BRANCH  12  13
ATOM     13  C   UNL     1      76.052 -32.963  22.523  1.00  0.00    -0.000 C 
BRANCH  13  14
ATOM     14  C   UNL     1      75.577 -34.165  23.347  1.00  0.00    -0.000 C 
BRANCH  14  15
ATOM     15  C   UNL     1      75.160 -35.327  22.434  1.00  0.00    -0.000 C 
BRANCH  15  16
ATOM     16  C   UNL     1      73.894 -36.042  22.929  1.00  0.00    -0.003 C 
ATOM     17  C   UNL     1      72.976 -36.480  21.788  1.00  0.00     0.004 C 
ENDBRANCH  15  16
ENDBRANCH  14  15
ENDBRANCH  13  14
ENDBRANCH  12  13
ENDBRANCH  11  12
ENDBRANCH  10  11
ENDBRANCH   1  10
TORSDOF 13
ENDMDL
MODEL 9
REMARK VINA RESULT:    -4.132      1.908      5.548
REMARK INTER + INTRA:          -8.478
REMARK INTER:                  -6.837
REMARK INTRA:                  -1.641
REMARK UNBOUND:                -1.207
REMARK SMILES CCCCCCCCCCCCCCC(=O)[O-]
REMARK SMILES IDX 9 1 10 2 11 3 12 4 13 5 14 6 15 7 16 8 17 9 8 10 7 11 6 12
REMARK SMILES IDX 5 13 4 14 3 15 2 16 1 17
REMARK H PARENT
REMARK Flexibility Score: inf
ROOT
ATOM      1  C   UNL     1      69.563 -37.398   6.521  1.00  0.00     0.000 C 
ENDROOT
BRANCH   1   2
ATOM      2  C   UNL     1      69.814 -37.596   8.023  1.00  0.00     0.000 C 
BRANCH   2   3
ATOM      3  C   UNL     1      69.551 -39.039   8.483  1.00  0.00     0.000 C 
BRANCH   3   4
ATOM      4  C   UNL     1      69.473 -39.169  10.012  1.00  0.00     0.000 C 
BRANCH   4   5
ATOM      5  C   UNL     1      70.026 -37.911  10.698  1.00  0.00     0.006 C 
BRANCH   5   6
ATOM      6  C   UNL     1      71.150 -38.238  11.691  1.00  0.00     0.053 C 
BRANCH   6   7
ATOM      7  C   UNL     1      72.471 -37.704  11.229  1.00  0.00     0.041 C 
ATOM      8  O   UNL     1      73.540 -38.120  11.747  1.00  0.00    -0.550 OA
ATOM      9  O   UNL     1      72.522 -36.769  10.202  1.00  0.00    -0.550 OA
ENDBRANCH   6   7
ENDBRANCH   5   6
ENDBRANCH   4   5
ENDBRANCH   3   4
ENDBRANCH   2   3
ENDBRANCH   1   2
BRANCH   1  10
ATOM     10  C   UNL     1      69.537 -35.907   6.161  1.00  0.00     0.000 C 
BRANCH  10  11
ATOM     11  C   UNL     1      69.128 -35.055   7.368  1.00  0.00    -0.000 C 
BRANCH  11  12
ATOM     12  C   UNL     1      69.459 -33.577   7.135  1.00  0.00    -0.000 C 
BRANCH  12  13
ATOM     13  C   UNL     1      70.373 -33.403   5.916  1.00  0.00    -0.000 C 
BRANCH  13  14
ATOM     14  C   UNL     1      71.776 -32.952   6.339  1.00  0.00    -0.000 C 
BRANCH  14  15
ATOM     15  C   UNL     1      72.817 -34.040   6.037  1.00  0.00    -0.000 C 
BRANCH  15  16
ATOM     16  C   UNL     1      72.911 -35.093   7.153  1.00  0.00    -0.003 C 
ATOM     17  C   UNL     1      73.429 -36.441   6.654  1.00  0.00     0.004 C 
ENDBRANCH  15  16
ENDBRANCH  14  15
ENDBRANCH  13  14
ENDBRANCH  12  13
ENDBRANCH  11  12
ENDBRANCH  10  11
ENDBRANCH   1  10
TORSDOF 13
ENDMDL
