MODEL 1
REMARK VINA RESULT:    -7.702      0.000      0.000
REMARK INTER + INTRA:         -12.126
REMARK INTER:                 -10.628
REMARK INTRA:                  -1.498
REMARK UNBOUND:                -1.498
REMARK SMILES CC[C@H](CC[C@H](C)[C@H]1CC[C@H]2[C@@H]3CC=C4C[C@@H](O)CC[C@]4(C)[C@@H]3CC[C@@]12C)C(C)C
REMARK SMILES IDX 5 1 4 2 3 3 2 4 1 5 28 6 29 7 30 8 6 9 7 10 8 11 9 12 26 13
REMARK SMILES IDX 10 14 11 15 25 16 27 17 12 18 24 19 23 20 13 21 21 22 14 23
REMARK SMILES IDX 15 24 20 25 22 26 16 27 19 28 17 29 18 30
REMARK H PARENT 18 31
REMARK Flexibility Score: inf
ROOT
ATOM      1  C   UNL     1      -1.088  20.060  47.144  1.00  0.00     0.004 C 
ENDROOT
BRANCH   1   2
ATOM      2  C   UNL     1      -2.126  19.492  46.151  1.00  0.00     0.004 C 
BRANCH   2   3
ATOM      3  C   UNL     1      -2.883  18.254  46.706  1.00  0.00    -0.009 C 
BRANCH   3   4
ATOM      4  C   UNL     1      -2.193  16.899  46.383  1.00  0.00     0.000 C 
ATOM      5  C   UNL     1      -1.251  16.911  45.179  1.00  0.00     0.004 C 
ENDBRANCH   3   4
BRANCH   3   6
ATOM      6  C   UNL     1      -3.270  18.390  48.220  1.00  0.00    -0.014 C 
ATOM      7  C   UNL     1      -4.777  18.580  48.477  1.00  0.00     0.007 C 
ATOM      8  C   UNL     1      -2.767  17.181  49.028  1.00  0.00     0.007 C 
ENDBRANCH   3   6
ENDBRANCH   2   3
ENDBRANCH   1   2
BRANCH   1   9
ATOM      9  C   UNL     1      -1.224  21.581  47.423  1.00  0.00    -0.011 C 
ATOM     10  C   UNL     1       0.175  22.168  47.717  1.00  0.00     0.008 C 
BRANCH   9  11
ATOM     11  C   UNL     1      -2.259  21.995  48.542  1.00  0.00    -0.002 C 
ATOM     12  C   UNL     1      -1.575  22.864  49.614  1.00  0.00     0.005 C 
ATOM     13  C   UNL     1      -3.548  22.798  48.142  1.00  0.00    -0.026 C 
ATOM     14  C   UNL     1      -2.627  23.778  50.217  1.00  0.00     0.005 C 
ATOM     15  C   UNL     1      -3.940  23.498  49.483  1.00  0.00    -0.001 C 
ATOM     16  C   UNL     1      -3.249  23.848  47.036  1.00  0.00     0.007 C 
ATOM     17  C   UNL     1      -4.676  21.830  47.687  1.00  0.00     0.012 C 
ATOM     18  C   UNL     1      -4.831  24.780  49.397  1.00  0.00     0.000 C 
ATOM     19  C   UNL     1      -4.301  24.961  46.926  1.00  0.00     0.005 C 
ATOM     20  C   UNL     1      -4.415  25.744  48.254  1.00  0.00     0.003 C 
ATOM     21  C   UNL     1      -6.327  24.431  49.331  1.00  0.00     0.031 C 
ATOM     22  C   UNL     1      -5.323  27.048  48.228  1.00  0.00    -0.008 C 
ATOM     23  C   UNL     1      -7.203  25.630  49.143  1.00  0.00    -0.027 C 
ATOM     24  C   UNL     1      -6.800  26.756  48.522  1.00  0.00    -0.065 C 
ATOM     25  C   UNL     1      -5.236  27.782  46.852  1.00  0.00     0.014 C 
ATOM     26  C   UNL     1      -4.799  28.006  49.336  1.00  0.00     0.016 C 
ATOM     27  C   UNL     1      -7.814  27.870  48.319  1.00  0.00     0.063 C 
ATOM     28  C   UNL     1      -6.192  28.980  46.725  1.00  0.00     0.033 C 
ATOM     29  C   UNL     1      -7.644  28.538  46.947  1.00  0.00     0.118 C 
BRANCH  29  30
ATOM     30  O   UNL     1      -8.482  29.660  46.854  1.00  0.00    -0.393 OA
ATOM     31  H   UNL     1      -8.086  30.362  47.436  1.00  0.00     0.210 HD
ENDBRANCH  29  30
ENDBRANCH   9  11
ENDBRANCH   1   9
TORSDOF 7
ENDMDL
MODEL 2
REMARK VINA RESULT:    -7.629      0.592      1.620
REMARK INTER + INTRA:         -12.026
REMARK INTER:                 -10.461
REMARK INTRA:                  -1.565
REMARK UNBOUND:                -1.498
REMARK SMILES CC[C@H](CC[C@H](C)[C@H]1CC[C@H]2[C@@H]3CC=C4C[C@@H](O)CC[C@]4(C)[C@@H]3CC[C@@]12C)C(C)C
REMARK SMILES IDX 5 1 4 2 3 3 2 4 1 5 28 6 29 7 30 8 6 9 7 10 8 11 9 12 26 13
REMARK SMILES IDX 10 14 11 15 25 16 27 17 12 18 24 19 23 20 13 21 21 22 14 23
REMARK SMILES IDX 15 24 20 25 22 26 16 27 19 28 17 29 18 30
REMARK H PARENT 18 31
REMARK Flexibility Score: inf
ROOT
ATOM      1  C   UNL     1      -1.561  20.277  46.354  1.00  0.00     0.004 C 
ENDROOT
BRANCH   1   2
ATOM      2  C   UNL     1      -0.873  19.024  46.939  1.00  0.00     0.004 C 
BRANCH   2   3
ATOM      3  C   UNL     1      -1.864  17.859  47.212  1.00  0.00    -0.009 C 
BRANCH   3   4
ATOM      4  C   UNL     1      -3.233  18.320  47.785  1.00  0.00     0.000 C 
ATOM      5  C   UNL     1      -3.230  18.708  49.264  1.00  0.00     0.004 C 
ENDBRANCH   3   4
BRANCH   3   6
ATOM      6  C   UNL     1      -2.016  16.875  46.000  1.00  0.00    -0.014 C 
ATOM      7  C   UNL     1      -3.245  17.147  45.111  1.00  0.00     0.007 C 
ATOM      8  C   UNL     1      -0.750  16.875  45.128  1.00  0.00     0.007 C 
ENDBRANCH   3   6
ENDBRANCH   2   3
ENDBRANCH   1   2
BRANCH   1   9
ATOM      9  C   UNL     1      -1.255  21.596  47.112  1.00  0.00    -0.011 C 
ATOM     10  C   UNL     1       0.209  21.566  47.608  1.00  0.00     0.008 C 
BRANCH   9  11
ATOM     11  C   UNL     1      -2.243  21.973  48.285  1.00  0.00    -0.002 C 
ATOM     12  C   UNL     1      -1.525  22.838  49.338  1.00  0.00     0.005 C 
ATOM     13  C   UNL     1      -3.565  22.755  47.961  1.00  0.00    -0.026 C 
ATOM     14  C   UNL     1      -2.565  23.720  50.006  1.00  0.00     0.005 C 
ATOM     15  C   UNL     1      -3.906  23.426  49.329  1.00  0.00    -0.001 C 
ATOM     16  C   UNL     1      -3.339  23.829  46.859  1.00  0.00     0.007 C 
ATOM     17  C   UNL     1      -4.694  21.773  47.543  1.00  0.00     0.012 C 
ATOM     18  C   UNL     1      -4.824  24.691  49.307  1.00  0.00     0.000 C 
ATOM     19  C   UNL     1      -4.416  24.922  46.818  1.00  0.00     0.005 C 
ATOM     20  C   UNL     1      -4.482  25.681  48.162  1.00  0.00     0.003 C 
ATOM     21  C   UNL     1      -6.315  24.314  49.306  1.00  0.00     0.031 C 
ATOM     22  C   UNL     1      -5.415  26.968  48.201  1.00  0.00    -0.008 C 
ATOM     23  C   UNL     1      -7.222  25.498  49.180  1.00  0.00    -0.027 C 
ATOM     24  C   UNL     1      -6.871  26.641  48.559  1.00  0.00    -0.065 C 
ATOM     25  C   UNL     1      -5.407  27.725  46.835  1.00  0.00     0.014 C 
ATOM     26  C   UNL     1      -4.857  27.918  49.299  1.00  0.00     0.016 C 
ATOM     27  C   UNL     1      -7.914  27.738  48.423  1.00  0.00     0.063 C 
ATOM     28  C   UNL     1      -6.391  28.905  46.773  1.00  0.00     0.033 C 
ATOM     29  C   UNL     1      -7.822  28.431  47.056  1.00  0.00     0.118 C 
BRANCH  29  30
ATOM     30  O   UNL     1      -8.685  29.538  47.022  1.00  0.00    -0.393 OA
ATOM     31  H   UNL     1      -8.417  30.085  46.237  1.00  0.00     0.210 HD
ENDBRANCH  29  30
ENDBRANCH   9  11
ENDBRANCH   1   9
TORSDOF 7
ENDMDL
MODEL 3
REMARK VINA RESULT:    -7.303      3.360      7.965
REMARK INTER + INTRA:         -11.576
REMARK INTER:                  -9.323
REMARK INTRA:                  -2.253
REMARK UNBOUND:                -1.498
REMARK SMILES CC[C@H](CC[C@H](C)[C@H]1CC[C@H]2[C@@H]3CC=C4C[C@@H](O)CC[C@]4(C)[C@@H]3CC[C@@]12C)C(C)C
REMARK SMILES IDX 5 1 4 2 3 3 2 4 1 5 28 6 29 7 30 8 6 9 7 10 8 11 9 12 26 13
REMARK SMILES IDX 10 14 11 15 25 16 27 17 12 18 24 19 23 20 13 21 21 22 14 23
REMARK SMILES IDX 15 24 20 25 22 26 16 27 19 28 17 29 18 30
REMARK H PARENT 18 31
REMARK Flexibility Score: inf
ROOT
ATOM      1  C   UNL     1      -4.327  28.320  50.554  1.00  0.00     0.004 C 
ENDROOT
BRANCH   1   2
ATOM      2  C   UNL     1      -3.256  28.418  51.662  1.00  0.00     0.004 C 
BRANCH   2   3
ATOM      3  C   UNL     1      -2.347  27.161  51.740  1.00  0.00    -0.009 C 
BRANCH   3   4
ATOM      4  C   UNL     1      -0.836  27.464  51.536  1.00  0.00     0.000 C 
ATOM      5  C   UNL     1      -0.257  27.039  50.185  1.00  0.00     0.004 C 
ENDBRANCH   3   4
BRANCH   3   6
ATOM      6  C   UNL     1      -2.619  26.274  53.005  1.00  0.00    -0.014 C 
ATOM      7  C   UNL     1      -3.924  26.613  53.751  1.00  0.00     0.007 C 
ATOM      8  C   UNL     1      -2.617  24.779  52.641  1.00  0.00     0.007 C 
ENDBRANCH   3   6
ENDBRANCH   2   3
ENDBRANCH   1   2
BRANCH   1   9
ATOM      9  C   UNL     1      -3.818  27.725  49.213  1.00  0.00    -0.011 C 
ATOM     10  C   UNL     1      -3.520  28.880  48.229  1.00  0.00     0.008 C 
BRANCH   9  11
ATOM     11  C   UNL     1      -4.739  26.631  48.541  1.00  0.00    -0.002 C 
ATOM     12  C   UNL     1      -4.660  26.729  47.006  1.00  0.00     0.005 C 
ATOM     13  C   UNL     1      -4.489  25.113  48.856  1.00  0.00    -0.026 C 
ATOM     14  C   UNL     1      -4.930  25.349  46.435  1.00  0.00     0.005 C 
ATOM     15  C   UNL     1      -5.128  24.402  47.621  1.00  0.00    -0.001 C 
ATOM     16  C   UNL     1      -2.972  24.791  48.959  1.00  0.00     0.007 C 
ATOM     17  C   UNL     1      -5.225  24.697  50.161  1.00  0.00     0.012 C 
ATOM     18  C   UNL     1      -4.637  22.956  47.285  1.00  0.00     0.000 C 
ATOM     19  C   UNL     1      -2.634  23.303  48.796  1.00  0.00     0.005 C 
ATOM     20  C   UNL     1      -3.102  22.778  47.419  1.00  0.00     0.003 C 
ATOM     21  C   UNL     1      -5.406  21.893  48.088  1.00  0.00     0.031 C 
ATOM     22  C   UNL     1      -2.646  21.306  47.033  1.00  0.00    -0.008 C 
ATOM     23  C   UNL     1      -4.891  20.505  47.869  1.00  0.00    -0.027 C 
ATOM     24  C   UNL     1      -3.616  20.227  47.534  1.00  0.00    -0.065 C 
ATOM     25  C   UNL     1      -1.224  20.979  47.591  1.00  0.00     0.014 C 
ATOM     26  C   UNL     1      -2.602  21.221  45.480  1.00  0.00     0.016 C 
ATOM     27  C   UNL     1      -3.199  18.770  47.424  1.00  0.00     0.063 C 
ATOM     28  C   UNL     1      -0.785  19.524  47.358  1.00  0.00     0.033 C 
ATOM     29  C   UNL     1      -1.787  18.548  47.987  1.00  0.00     0.118 C 
BRANCH  29  30
ATOM     30  O   UNL     1      -1.370  17.234  47.727  1.00  0.00    -0.393 OA
ATOM     31  H   UNL     1      -1.276  16.784  48.608  1.00  0.00     0.210 HD
ENDBRANCH  29  30
ENDBRANCH   9  11
ENDBRANCH   1   9
TORSDOF 7
ENDMDL
MODEL 4
REMARK VINA RESULT:    -7.161      2.938      8.816
REMARK INTER + INTRA:         -11.380
REMARK INTER:                  -9.200
REMARK INTRA:                  -2.180
REMARK UNBOUND:                -1.498
REMARK SMILES CC[C@H](CC[C@H](C)[C@H]1CC[C@H]2[C@@H]3CC=C4C[C@@H](O)CC[C@]4(C)[C@@H]3CC[C@@]12C)C(C)C
REMARK SMILES IDX 5 1 4 2 3 3 2 4 1 5 28 6 29 7 30 8 6 9 7 10 8 11 9 12 26 13
REMARK SMILES IDX 10 14 11 15 25 16 27 17 12 18 24 19 23 20 13 21 21 22 14 23
REMARK SMILES IDX 15 24 20 25 22 26 16 27 19 28 17 29 18 30
REMARK H PARENT 18 31
REMARK Flexibility Score: inf
ROOT
ATOM      1  C   UNL     1      -7.408  27.955  48.162  1.00  0.00     0.004 C 
ENDROOT
BRANCH   1   2
ATOM      2  C   UNL     1      -6.738  28.483  46.874  1.00  0.00     0.004 C 
BRANCH   2   3
ATOM      3  C   UNL     1      -5.986  29.826  47.089  1.00  0.00    -0.009 C 
BRANCH   3   4
ATOM      4  C   UNL     1      -6.121  30.398  48.528  1.00  0.00     0.000 C 
ATOM      5  C   UNL     1      -6.131  31.924  48.630  1.00  0.00     0.004 C 
ENDBRANCH   3   4
BRANCH   3   6
ATOM      6  C   UNL     1      -4.500  29.793  46.589  1.00  0.00    -0.014 C 
ATOM      7  C   UNL     1      -3.458  29.571  47.702  1.00  0.00     0.007 C 
ATOM      8  C   UNL     1      -4.309  28.727  45.497  1.00  0.00     0.007 C 
ENDBRANCH   3   6
ENDBRANCH   2   3
ENDBRANCH   1   2
BRANCH   1   9
ATOM      9  C   UNL     1      -6.666  26.772  48.839  1.00  0.00    -0.011 C 
ATOM     10  C   UNL     1      -6.617  27.013  50.366  1.00  0.00     0.008 C 
BRANCH   9  11
ATOM     11  C   UNL     1      -5.230  26.434  48.274  1.00  0.00    -0.002 C 
ATOM     12  C   UNL     1      -4.190  26.435  49.409  1.00  0.00     0.005 C 
ATOM     13  C   UNL     1      -4.998  25.075  47.521  1.00  0.00    -0.026 C 
ATOM     14  C   UNL     1      -3.074  25.479  49.022  1.00  0.00     0.005 C 
ATOM     15  C   UNL     1      -3.458  24.863  47.675  1.00  0.00    -0.001 C 
ATOM     16  C   UNL     1      -5.786  23.911  48.185  1.00  0.00     0.007 C 
ATOM     17  C   UNL     1      -5.379  25.208  46.021  1.00  0.00     0.012 C 
ATOM     18  C   UNL     1      -2.911  23.405  47.537  1.00  0.00     0.000 C 
ATOM     19  C   UNL     1      -5.264  22.513  47.822  1.00  0.00     0.005 C 
ATOM     20  C   UNL     1      -3.790  22.346  48.254  1.00  0.00     0.003 C 
ATOM     21  C   UNL     1      -2.651  23.029  46.068  1.00  0.00     0.031 C 
ATOM     22  C   UNL     1      -3.176  20.886  48.120  1.00  0.00    -0.008 C 
ATOM     23  C   UNL     1      -2.226  21.605  45.892  1.00  0.00    -0.027 C 
ATOM     24  C   UNL     1      -2.577  20.613  46.733  1.00  0.00    -0.065 C 
ATOM     25  C   UNL     1      -4.243  19.785  48.415  1.00  0.00     0.014 C 
ATOM     26  C   UNL     1      -2.031  20.761  49.165  1.00  0.00     0.016 C 
ATOM     27  C   UNL     1      -2.151  19.195  46.395  1.00  0.00     0.063 C 
ATOM     28  C   UNL     1      -3.740  18.352  48.174  1.00  0.00     0.033 C 
ATOM     29  C   UNL     1      -3.257  18.183  46.728  1.00  0.00     0.118 C 
BRANCH  29  30
ATOM     30  O   UNL     1      -2.778  16.875  46.556  1.00  0.00    -0.393 OA
ATOM     31  H   UNL     1      -3.535  16.264  46.758  1.00  0.00     0.210 HD
ENDBRANCH  29  30
ENDBRANCH   9  11
ENDBRANCH   1   9
TORSDOF 7
ENDMDL
MODEL 5
REMARK VINA RESULT:    -7.147      1.415      2.439
REMARK INTER + INTRA:         -11.361
REMARK INTER:                  -9.783
REMARK INTRA:                  -1.578
REMARK UNBOUND:                -1.498
REMARK SMILES CC[C@H](CC[C@H](C)[C@H]1CC[C@H]2[C@@H]3CC=C4C[C@@H](O)CC[C@]4(C)[C@@H]3CC[C@@]12C)C(C)C
REMARK SMILES IDX 5 1 4 2 3 3 2 4 1 5 28 6 29 7 30 8 6 9 7 10 8 11 9 12 26 13
REMARK SMILES IDX 10 14 11 15 25 16 27 17 12 18 24 19 23 20 13 21 21 22 14 23
REMARK SMILES IDX 15 24 20 25 22 26 16 27 19 28 17 29 18 30
REMARK H PARENT 18 31
REMARK Flexibility Score: inf
ROOT
ATOM      1  C   UNL     1      -1.242  21.109  47.531  1.00  0.00     0.004 C 
ENDROOT
BRANCH   1   2
ATOM      2  C   UNL     1      -1.891  20.540  46.250  1.00  0.00     0.004 C 
BRANCH   2   3
ATOM      3  C   UNL     1      -2.715  19.248  46.509  1.00  0.00    -0.009 C 
BRANCH   3   4
ATOM      4  C   UNL     1      -2.169  17.996  45.768  1.00  0.00     0.000 C 
ATOM      5  C   UNL     1      -3.222  17.138  45.064  1.00  0.00     0.004 C 
ENDBRANCH   3   4
BRANCH   3   6
ATOM      6  C   UNL     1      -2.986  18.979  48.030  1.00  0.00    -0.014 C 
ATOM      7  C   UNL     1      -4.477  18.840  48.396  1.00  0.00     0.007 C 
ATOM      8  C   UNL     1      -2.227  17.732  48.514  1.00  0.00     0.007 C 
ENDBRANCH   3   6
ENDBRANCH   2   3
ENDBRANCH   1   2
BRANCH   1   9
ATOM      9  C   UNL     1      -1.895  22.413  48.063  1.00  0.00    -0.011 C 
ATOM     10  C   UNL     1      -1.983  22.341  49.605  1.00  0.00     0.008 C 
BRANCH   9  11
ATOM     11  C   UNL     1      -3.290  22.802  47.434  1.00  0.00    -0.002 C 
ATOM     12  C   UNL     1      -4.437  22.426  48.390  1.00  0.00     0.005 C 
ATOM     13  C   UNL     1      -3.571  24.296  47.043  1.00  0.00    -0.026 C 
ATOM     14  C   UNL     1      -5.592  23.378  48.134  1.00  0.00     0.005 C 
ATOM     15  C   UNL     1      -5.132  24.361  47.055  1.00  0.00    -0.001 C 
ATOM     16  C   UNL     1      -2.968  25.282  48.083  1.00  0.00     0.007 C 
ATOM     17  C   UNL     1      -3.027  24.602  45.620  1.00  0.00     0.012 C 
ATOM     18  C   UNL     1      -5.796  25.764  47.240  1.00  0.00     0.000 C 
ATOM     19  C   UNL     1      -3.578  26.690  48.040  1.00  0.00     0.005 C 
ATOM     20  C   UNL     1      -5.099  26.640  48.314  1.00  0.00     0.003 C 
ATOM     21  C   UNL     1      -5.938  26.509  45.902  1.00  0.00     0.031 C 
ATOM     22  C   UNL     1      -5.830  28.040  48.495  1.00  0.00    -0.008 C 
ATOM     23  C   UNL     1      -6.475  27.898  46.056  1.00  0.00    -0.027 C 
ATOM     24  C   UNL     1      -6.306  28.642  47.166  1.00  0.00    -0.065 C 
ATOM     25  C   UNL     1      -4.907  29.084  49.199  1.00  0.00     0.014 C 
ATOM     26  C   UNL     1      -7.083  27.803  49.385  1.00  0.00     0.016 C 
ATOM     27  C   UNL     1      -6.827  30.070  47.163  1.00  0.00     0.063 C 
ATOM     28  C   UNL     1      -5.515  30.494  49.285  1.00  0.00     0.033 C 
ATOM     29  C   UNL     1      -5.861  31.020  47.886  1.00  0.00     0.118 C 
BRANCH  29  30
ATOM     30  O   UNL     1      -6.441  32.292  48.007  1.00  0.00    -0.393 OA
ATOM     31  H   UNL     1      -7.346  32.233  47.600  1.00  0.00     0.210 HD
ENDBRANCH  29  30
ENDBRANCH   9  11
ENDBRANCH   1   9
TORSDOF 7
ENDMDL
MODEL 6
REMARK VINA RESULT:    -6.955      3.126      9.157
REMARK INTER + INTRA:         -11.096
REMARK INTER:                 -10.284
REMARK INTRA:                  -0.812
REMARK UNBOUND:                -1.498
REMARK SMILES CC[C@H](CC[C@H](C)[C@H]1CC[C@H]2[C@@H]3CC=C4C[C@@H](O)CC[C@]4(C)[C@@H]3CC[C@@]12C)C(C)C
REMARK SMILES IDX 5 1 4 2 3 3 2 4 1 5 28 6 29 7 30 8 6 9 7 10 8 11 9 12 26 13
REMARK SMILES IDX 10 14 11 15 25 16 27 17 12 18 24 19 23 20 13 21 21 22 14 23
REMARK SMILES IDX 15 24 20 25 22 26 16 27 19 28 17 29 18 30
REMARK H PARENT 18 31
REMARK Flexibility Score: inf
ROOT
ATOM      1  C   UNL     1      -7.500  27.624  47.635  1.00  0.00     0.004 C 
ENDROOT
BRANCH   1   2
ATOM      2  C   UNL     1      -8.997  27.880  47.916  1.00  0.00     0.004 C 
BRANCH   2   3
ATOM      3  C   UNL     1      -9.607  28.976  47.000  1.00  0.00    -0.009 C 
BRANCH   3   4
ATOM      4  C   UNL     1      -8.582  29.627  46.031  1.00  0.00     0.000 C 
ATOM      5  C   UNL     1      -8.385  31.135  46.197  1.00  0.00     0.004 C 
ENDBRANCH   3   4
BRANCH   3   6
ATOM      6  C   UNL     1     -10.919  28.518  46.273  1.00  0.00    -0.014 C 
ATOM      7  C   UNL     1     -12.083  28.167  47.220  1.00  0.00     0.007 C 
ATOM      8  C   UNL     1     -11.390  29.580  45.264  1.00  0.00     0.007 C 
ENDBRANCH   3   6
ENDBRANCH   2   3
ENDBRANCH   1   2
BRANCH   1   9
ATOM      9  C   UNL     1      -6.805  26.675  48.648  1.00  0.00    -0.011 C 
ATOM     10  C   UNL     1      -6.982  27.241  50.076  1.00  0.00     0.008 C 
BRANCH   9  11
ATOM     11  C   UNL     1      -5.289  26.334  48.359  1.00  0.00    -0.002 C 
ATOM     12  C   UNL     1      -4.505  26.202  49.677  1.00  0.00     0.005 C 
ATOM     13  C   UNL     1      -4.930  25.037  47.550  1.00  0.00    -0.026 C 
ATOM     14  C   UNL     1      -3.351  25.244  49.441  1.00  0.00     0.005 C 
ATOM     15  C   UNL     1      -3.459  24.758  47.994  1.00  0.00    -0.001 C 
ATOM     16  C   UNL     1      -5.859  23.850  47.931  1.00  0.00     0.007 C 
ATOM     17  C   UNL     1      -4.992  25.310  46.021  1.00  0.00     0.012 C 
ATOM     18  C   UNL     1      -2.921  23.298  47.840  1.00  0.00     0.000 C 
ATOM     19  C   UNL     1      -5.298  22.470  47.558  1.00  0.00     0.005 C 
ATOM     20  C   UNL     1      -3.947  22.215  48.264  1.00  0.00     0.003 C 
ATOM     21  C   UNL     1      -2.371  23.040  46.427  1.00  0.00     0.031 C 
ATOM     22  C   UNL     1      -3.344  20.750  48.126  1.00  0.00    -0.008 C 
ATOM     23  C   UNL     1      -1.943  21.622  46.213  1.00  0.00    -0.027 C 
ATOM     24  C   UNL     1      -2.478  20.575  46.872  1.00  0.00    -0.065 C 
ATOM     25  C   UNL     1      -4.468  19.667  48.097  1.00  0.00     0.014 C 
ATOM     26  C   UNL     1      -2.441  20.497  49.367  1.00  0.00     0.016 C 
ATOM     27  C   UNL     1      -2.015  19.176  46.501  1.00  0.00     0.063 C 
ATOM     28  C   UNL     1      -3.952  18.242  47.836  1.00  0.00     0.033 C 
ATOM     29  C   UNL     1      -3.184  18.180  46.509  1.00  0.00     0.118 C 
BRANCH  29  30
ATOM     30  O   UNL     1      -2.702  16.875  46.321  1.00  0.00    -0.393 OA
ATOM     31  H   UNL     1      -2.964  16.603  45.402  1.00  0.00     0.210 HD
ENDBRANCH  29  30
ENDBRANCH   9  11
ENDBRANCH   1   9
TORSDOF 7
ENDMDL
MODEL 7
REMARK VINA RESULT:    -6.887      1.379      2.350
REMARK INTER + INTRA:         -11.002
REMARK INTER:                  -9.903
REMARK INTRA:                  -1.099
REMARK UNBOUND:                -1.498
REMARK SMILES CC[C@H](CC[C@H](C)[C@H]1CC[C@H]2[C@@H]3CC=C4C[C@@H](O)CC[C@]4(C)[C@@H]3CC[C@@]12C)C(C)C
REMARK SMILES IDX 5 1 4 2 3 3 2 4 1 5 28 6 29 7 30 8 6 9 7 10 8 11 9 12 26 13
REMARK SMILES IDX 10 14 11 15 25 16 27 17 12 18 24 19 23 20 13 21 21 22 14 23
REMARK SMILES IDX 15 24 20 25 22 26 16 27 19 28 17 29 18 30
REMARK H PARENT 18 31
REMARK Flexibility Score: inf
ROOT
ATOM      1  C   UNL     1      -2.752  20.817  48.886  1.00  0.00     0.004 C 
ENDROOT
BRANCH   1   2
ATOM      2  C   UNL     1      -2.544  20.207  47.482  1.00  0.00     0.004 C 
BRANCH   2   3
ATOM      3  C   UNL     1      -1.517  19.041  47.474  1.00  0.00    -0.009 C 
BRANCH   3   4
ATOM      4  C   UNL     1      -2.109  17.686  46.997  1.00  0.00     0.000 C 
ATOM      5  C   UNL     1      -2.931  17.744  45.708  1.00  0.00     0.004 C 
ENDBRANCH   3   4
BRANCH   3   6
ATOM      6  C   UNL     1      -0.173  19.401  46.751  1.00  0.00    -0.014 C 
ATOM      7  C   UNL     1       0.113  20.912  46.655  1.00  0.00     0.007 C 
ATOM      8  C   UNL     1       1.020  18.701  47.423  1.00  0.00     0.007 C 
ENDBRANCH   3   6
ENDBRANCH   2   3
ENDBRANCH   1   2
BRANCH   1   9
ATOM      9  C   UNL     1      -2.690  22.368  48.933  1.00  0.00    -0.011 C 
ATOM     10  C   UNL     1      -1.344  22.801  49.560  1.00  0.00     0.008 C 
BRANCH   9  11
ATOM     11  C   UNL     1      -3.903  23.094  49.638  1.00  0.00    -0.002 C 
ATOM     12  C   UNL     1      -3.401  23.993  50.783  1.00  0.00     0.005 C 
ATOM     13  C   UNL     1      -4.847  24.019  48.790  1.00  0.00    -0.026 C 
ATOM     14  C   UNL     1      -4.389  25.134  50.949  1.00  0.00     0.005 C 
ATOM     15  C   UNL     1      -5.465  24.956  49.876  1.00  0.00    -0.001 C 
ATOM     16  C   UNL     1      -4.050  24.839  47.737  1.00  0.00     0.007 C 
ATOM     17  C   UNL     1      -5.960  23.180  48.101  1.00  0.00     0.012 C 
ATOM     18  C   UNL     1      -6.033  26.334  49.403  1.00  0.00     0.000 C 
ATOM     19  C   UNL     1      -4.795  26.073  47.209  1.00  0.00     0.005 C 
ATOM     20  C   UNL     1      -5.134  27.048  48.360  1.00  0.00     0.003 C 
ATOM     21  C   UNL     1      -7.487  26.214  48.914  1.00  0.00     0.031 C 
ATOM     22  C   UNL     1      -5.731  28.459  47.938  1.00  0.00    -0.008 C 
ATOM     23  C   UNL     1      -8.027  27.494  48.357  1.00  0.00    -0.027 C 
ATOM     24  C   UNL     1      -7.258  28.442  47.789  1.00  0.00    -0.065 C 
ATOM     25  C   UNL     1      -5.116  28.964  46.593  1.00  0.00     0.014 C 
ATOM     26  C   UNL     1      -5.373  29.474  49.060  1.00  0.00     0.016 C 
ATOM     27  C   UNL     1      -7.940  29.658  47.184  1.00  0.00     0.063 C 
ATOM     28  C   UNL     1      -5.750  30.263  46.070  1.00  0.00     0.033 C 
ATOM     29  C   UNL     1      -7.262  30.087  45.875  1.00  0.00     0.118 C 
BRANCH  29  30
ATOM     30  O   UNL     1      -7.809  31.300  45.427  1.00  0.00    -0.393 OA
ATOM     31  H   UNL     1      -8.362  31.656  46.172  1.00  0.00     0.210 HD
ENDBRANCH  29  30
ENDBRANCH   9  11
ENDBRANCH   1   9
TORSDOF 7
ENDMDL
MODEL 8
REMARK VINA RESULT:    -6.673      1.584      2.957
REMARK INTER + INTRA:         -10.707
REMARK INTER:                  -9.682
REMARK INTRA:                  -1.025
REMARK UNBOUND:                -1.498
REMARK SMILES CC[C@H](CC[C@H](C)[C@H]1CC[C@H]2[C@@H]3CC=C4C[C@@H](O)CC[C@]4(C)[C@@H]3CC[C@@]12C)C(C)C
REMARK SMILES IDX 5 1 4 2 3 3 2 4 1 5 28 6 29 7 30 8 6 9 7 10 8 11 9 12 26 13
REMARK SMILES IDX 10 14 11 15 25 16 27 17 12 18 24 19 23 20 13 21 21 22 14 23
REMARK SMILES IDX 15 24 20 25 22 26 16 27 19 28 17 29 18 30
REMARK H PARENT 18 31
REMARK Flexibility Score: inf
ROOT
ATOM      1  C   UNL     1      -3.855  20.088  48.885  1.00  0.00     0.004 C 
ENDROOT
BRANCH   1   2
ATOM      2  C   UNL     1      -3.664  19.218  47.622  1.00  0.00     0.004 C 
BRANCH   2   3
ATOM      3  C   UNL     1      -2.369  18.360  47.667  1.00  0.00    -0.009 C 
BRANCH   3   4
ATOM      4  C   UNL     1      -2.428  17.087  46.778  1.00  0.00     0.000 C 
ATOM      5  C   UNL     1      -3.200  17.236  45.466  1.00  0.00     0.004 C 
ENDBRANCH   3   4
BRANCH   3   6
ATOM      6  C   UNL     1      -1.062  19.196  47.441  1.00  0.00    -0.014 C 
ATOM      7  C   UNL     1       0.177  18.354  47.077  1.00  0.00     0.007 C 
ATOM      8  C   UNL     1      -1.276  20.273  46.364  1.00  0.00     0.007 C 
ENDBRANCH   3   6
ENDBRANCH   2   3
ENDBRANCH   1   2
BRANCH   1   9
ATOM      9  C   UNL     1      -4.359  21.529  48.607  1.00  0.00    -0.011 C 
ATOM     10  C   UNL     1      -4.639  21.684  47.094  1.00  0.00     0.008 C 
BRANCH   9  11
ATOM     11  C   UNL     1      -3.442  22.703  49.135  1.00  0.00    -0.002 C 
ATOM     12  C   UNL     1      -2.386  23.080  48.079  1.00  0.00     0.005 C 
ATOM     13  C   UNL     1      -4.099  24.068  49.547  1.00  0.00    -0.026 C 
ATOM     14  C   UNL     1      -2.034  24.544  48.273  1.00  0.00     0.005 C 
ATOM     15  C   UNL     1      -2.907  25.070  49.414  1.00  0.00    -0.001 C 
ATOM     16  C   UNL     1      -5.260  24.458  48.590  1.00  0.00     0.007 C 
ATOM     17  C   UNL     1      -4.598  24.014  51.018  1.00  0.00     0.012 C 
ATOM     18  C   UNL     1      -3.251  26.583  49.219  1.00  0.00     0.000 C 
ATOM     19  C   UNL     1      -5.631  25.947  48.627  1.00  0.00     0.005 C 
ATOM     20  C   UNL     1      -4.423  26.826  48.232  1.00  0.00     0.003 C 
ATOM     21  C   UNL     1      -3.484  27.292  50.564  1.00  0.00     0.031 C 
ATOM     22  C   UNL     1      -4.712  28.377  48.036  1.00  0.00    -0.008 C 
ATOM     23  C   UNL     1      -3.917  28.716  50.410  1.00  0.00    -0.027 C 
ATOM     24  C   UNL     1      -4.594  29.177  49.341  1.00  0.00    -0.065 C 
ATOM     25  C   UNL     1      -6.134  28.626  47.439  1.00  0.00     0.014 C 
ATOM     26  C   UNL     1      -3.652  28.930  47.042  1.00  0.00     0.016 C 
ATOM     27  C   UNL     1      -5.052  30.626  49.345  1.00  0.00     0.063 C 
ATOM     28  C   UNL     1      -6.519  30.112  47.348  1.00  0.00     0.033 C 
ATOM     29  C   UNL     1      -6.452  30.773  48.731  1.00  0.00     0.118 C 
BRANCH  29  30
ATOM     30  O   UNL     1      -6.778  32.132  48.603  1.00  0.00    -0.393 OA
ATOM     31  H   UNL     1      -6.481  32.578  49.440  1.00  0.00     0.210 HD
ENDBRANCH  29  30
ENDBRANCH   9  11
ENDBRANCH   1   9
TORSDOF 7
ENDMDL
MODEL 9
REMARK VINA RESULT:    -6.655      3.615      7.535
REMARK INTER + INTRA:         -10.682
REMARK INTER:                  -9.738
REMARK INTRA:                  -0.944
REMARK UNBOUND:                -1.498
REMARK SMILES CC[C@H](CC[C@H](C)[C@H]1CC[C@H]2[C@@H]3CC=C4C[C@@H](O)CC[C@]4(C)[C@@H]3CC[C@@]12C)C(C)C
REMARK SMILES IDX 5 1 4 2 3 3 2 4 1 5 28 6 29 7 30 8 6 9 7 10 8 11 9 12 26 13
REMARK SMILES IDX 10 14 11 15 25 16 27 17 12 18 24 19 23 20 13 21 21 22 14 23
REMARK SMILES IDX 15 24 20 25 22 26 16 27 19 28 17 29 18 30
REMARK H PARENT 18 31
REMARK Flexibility Score: inf
ROOT
ATOM      1  C   UNL     1      -1.749  26.354  52.360  1.00  0.00     0.004 C 
ENDROOT
BRANCH   1   2
ATOM      2  C   UNL     1      -1.348  25.638  53.668  1.00  0.00     0.004 C 
BRANCH   2   3
ATOM      3  C   UNL     1       0.045  24.956  53.584  1.00  0.00    -0.009 C 
BRANCH   3   4
ATOM      4  C   UNL     1       0.029  23.446  53.951  1.00  0.00     0.000 C 
ATOM      5  C   UNL     1      -1.314  22.738  53.766  1.00  0.00     0.004 C 
ENDBRANCH   3   4
BRANCH   3   6
ATOM      6  C   UNL     1       0.797  25.242  52.237  1.00  0.00    -0.014 C 
ATOM      7  C   UNL     1       1.977  26.225  52.363  1.00  0.00     0.007 C 
ATOM      8  C   UNL     1       1.292  23.936  51.594  1.00  0.00     0.007 C 
ENDBRANCH   3   6
ENDBRANCH   2   3
ENDBRANCH   1   2
BRANCH   1   9
ATOM      9  C   UNL     1      -3.196  26.916  52.347  1.00  0.00    -0.011 C 
ATOM     10  C   UNL     1      -3.857  26.643  53.718  1.00  0.00     0.008 C 
BRANCH   9  11
ATOM     11  C   UNL     1      -4.123  26.428  51.165  1.00  0.00    -0.002 C 
ATOM     12  C   UNL     1      -3.884  27.281  49.905  1.00  0.00     0.005 C 
ATOM     13  C   UNL     1      -4.021  24.943  50.666  1.00  0.00    -0.026 C 
ATOM     14  C   UNL     1      -4.199  26.422  48.693  1.00  0.00     0.005 C 
ATOM     15  C   UNL     1      -4.584  25.035  49.212  1.00  0.00    -0.001 C 
ATOM     16  C   UNL     1      -2.551  24.441  50.661  1.00  0.00     0.007 C 
ATOM     17  C   UNL     1      -4.913  24.012  51.534  1.00  0.00     0.012 C 
ATOM     18  C   UNL     1      -4.172  23.913  48.204  1.00  0.00     0.000 C 
ATOM     19  C   UNL     1      -2.311  23.212  49.772  1.00  0.00     0.005 C 
ATOM     20  C   UNL     1      -2.676  23.515  48.301  1.00  0.00     0.003 C 
ATOM     21  C   UNL     1      -5.095  22.686  48.308  1.00  0.00     0.031 C 
ATOM     22  C   UNL     1      -2.295  22.401  47.234  1.00  0.00    -0.008 C 
ATOM     23  C   UNL     1      -4.666  21.552  47.431  1.00  0.00    -0.027 C 
ATOM     24  C   UNL     1      -3.389  21.338  47.062  1.00  0.00    -0.065 C 
ATOM     25  C   UNL     1      -0.965  21.674  47.612  1.00  0.00     0.014 C 
ATOM     26  C   UNL     1      -2.102  23.110  45.863  1.00  0.00     0.016 C 
ATOM     27  C   UNL     1      -3.073  20.100  46.239  1.00  0.00     0.063 C 
ATOM     28  C   UNL     1      -0.614  20.498  46.686  1.00  0.00     0.033 C 
ATOM     29  C   UNL     1      -1.745  19.462  46.674  1.00  0.00     0.118 C 
BRANCH  29  30
ATOM     30  O   UNL     1      -1.404  18.422  45.796  1.00  0.00    -0.393 OA
ATOM     31  H   UNL     1      -1.094  17.663  46.357  1.00  0.00     0.210 HD
ENDBRANCH  29  30
ENDBRANCH   9  11
ENDBRANCH   1   9
TORSDOF 7
ENDMDL
