MODEL 1
REMARK VINA RESULT:    -2.641      0.000      0.000
REMARK INTER + INTRA:          -3.180
REMARK INTER:                  -3.104
REMARK INTRA:                  -0.076
REMARK UNBOUND:                -0.076
REMARK SMILES O=C([O-])CCC(=O)[O-]
REMARK SMILES IDX 4 1 2 2 1 3 3 4 5 5 6 6 7 7 8 8
REMARK H PARENT
REMARK Flexibility Score: inf
ROOT
ATOM      1  C   UNL     1       9.972  -1.310   9.528  1.00  0.00     0.059 C 
ENDROOT
BRANCH   1   2
ATOM      2  C   UNL     1       9.650  -0.313   8.458  1.00  0.00     0.042 C 
ATOM      3  O   UNL     1       9.251  -0.703   7.328  1.00  0.00    -0.550 OA
ATOM      4  O   UNL     1       9.749   1.047   8.721  1.00  0.00    -0.550 OA
ENDBRANCH   1   2
BRANCH   1   5
ATOM      5  C   UNL     1      10.533  -2.609   8.940  1.00  0.00     0.059 C 
BRANCH   5   6
ATOM      6  C   UNL     1       9.600  -3.760   9.157  1.00  0.00     0.042 C 
ATOM      7  O   UNL     1       9.406  -4.601   8.240  1.00  0.00    -0.550 OA
ATOM      8  O   UNL     1       8.975  -3.926  10.386  1.00  0.00    -0.550 OA
ENDBRANCH   5   6
ENDBRANCH   1   5
TORSDOF 3
ENDMDL
MODEL 2
REMARK VINA RESULT:    -2.584      0.984      4.117
REMARK INTER + INTRA:          -3.114
REMARK INTER:                  -3.082
REMARK INTRA:                  -0.032
REMARK UNBOUND:                -0.076
REMARK SMILES O=C([O-])CCC(=O)[O-]
REMARK SMILES IDX 4 1 2 2 1 3 3 4 5 5 6 6 7 7 8 8
REMARK H PARENT
REMARK Flexibility Score: inf
ROOT
ATOM      1  C   UNL     1       9.402  -3.001   8.089  1.00  0.00     0.059 C 
ENDROOT
BRANCH   1   2
ATOM      2  C   UNL     1       9.440  -4.363   8.709  1.00  0.00     0.042 C 
ATOM      3  O   UNL     1      10.002  -5.318   8.110  1.00  0.00    -0.550 OA
ATOM      4  O   UNL     1       8.891  -4.570   9.968  1.00  0.00    -0.550 OA
ENDBRANCH   1   2
BRANCH   1   5
ATOM      5  C   UNL     1      10.559  -2.125   8.580  1.00  0.00     0.059 C 
BRANCH   5   6
ATOM      6  C   UNL     1      10.274  -0.669   8.373  1.00  0.00     0.042 C 
ATOM      7  O   UNL     1      11.112   0.199   8.735  1.00  0.00    -0.550 OA
ATOM      8  O   UNL     1       9.101  -0.272   7.744  1.00  0.00    -0.550 OA
ENDBRANCH   5   6
ENDBRANCH   1   5
TORSDOF 3
ENDMDL
MODEL 3
REMARK VINA RESULT:    -2.441     14.469     14.813
REMARK INTER + INTRA:          -2.945
REMARK INTER:                  -2.894
REMARK INTRA:                  -0.051
REMARK UNBOUND:                -0.076
REMARK SMILES O=C([O-])CCC(=O)[O-]
REMARK SMILES IDX 4 1 2 2 1 3 3 4 5 5 6 6 7 7 8 8
REMARK H PARENT
REMARK Flexibility Score: inf
ROOT
ATOM      1  C   UNL     1      -4.160  -2.525  11.827  1.00  0.00     0.059 C 
ENDROOT
BRANCH   1   2
ATOM      2  C   UNL     1      -3.270  -1.458  11.269  1.00  0.00     0.042 C 
ATOM      3  O   UNL     1      -2.410  -1.744  10.395  1.00  0.00    -0.550 OA
ATOM      4  O   UNL     1      -3.418  -0.141  11.684  1.00  0.00    -0.550 OA
ENDBRANCH   1   2
BRANCH   1   5
ATOM      5  C   UNL     1      -5.639  -2.216  11.573  1.00  0.00     0.059 C 
BRANCH   5   6
ATOM      6  C   UNL     1      -6.385  -3.430  11.111  1.00  0.00     0.042 C 
ATOM      7  O   UNL     1      -5.891  -4.180  10.228  1.00  0.00    -0.550 OA
ATOM      8  O   UNL     1      -7.607  -3.757  11.686  1.00  0.00    -0.550 OA
ENDBRANCH   5   6
ENDBRANCH   1   5
TORSDOF 3
ENDMDL
MODEL 4
REMARK VINA RESULT:    -2.437     14.466     15.149
REMARK INTER + INTRA:          -2.941
REMARK INTER:                  -2.890
REMARK INTRA:                  -0.052
REMARK UNBOUND:                -0.076
REMARK SMILES O=C([O-])CCC(=O)[O-]
REMARK SMILES IDX 4 1 2 2 1 3 3 4 5 5 6 6 7 7 8 8
REMARK H PARENT
REMARK Flexibility Score: inf
ROOT
ATOM      1  C   UNL     1      -5.695  -2.280  11.473  1.00  0.00     0.059 C 
ENDROOT
BRANCH   1   2
ATOM      2  C   UNL     1      -6.366  -3.513  10.950  1.00  0.00     0.042 C 
ATOM      3  O   UNL     1      -5.789  -4.234  10.094  1.00  0.00    -0.550 OA
ATOM      4  O   UNL     1      -7.610  -3.889  11.440  1.00  0.00    -0.550 OA
ENDBRANCH   1   2
BRANCH   1   5
ATOM      5  C   UNL     1      -4.220  -2.536  11.799  1.00  0.00     0.059 C 
BRANCH   5   6
ATOM      6  C   UNL     1      -3.343  -1.439  11.280  1.00  0.00     0.042 C 
ATOM      7  O   UNL     1      -3.450  -0.270  11.736  1.00  0.00    -0.550 OA
ATOM      8  O   UNL     1      -2.378  -1.715  10.319  1.00  0.00    -0.550 OA
ENDBRANCH   5   6
ENDBRANCH   1   5
TORSDOF 3
ENDMDL
MODEL 5
REMARK VINA RESULT:    -2.414     14.443     14.849
REMARK INTER + INTRA:          -2.913
REMARK INTER:                  -2.863
REMARK INTRA:                  -0.050
REMARK UNBOUND:                -0.076
REMARK SMILES O=C([O-])CCC(=O)[O-]
REMARK SMILES IDX 4 1 2 2 1 3 3 4 5 5 6 6 7 7 8 8
REMARK H PARENT
REMARK Flexibility Score: inf
ROOT
ATOM      1  C   UNL     1      -4.180  -2.576  11.754  1.00  0.00     0.059 C 
ENDROOT
BRANCH   1   2
ATOM      2  C   UNL     1      -3.363  -1.413  11.284  1.00  0.00     0.042 C 
ATOM      3  O   UNL     1      -3.565  -0.263  11.757  1.00  0.00    -0.550 OA
ATOM      4  O   UNL     1      -2.350  -1.605  10.353  1.00  0.00    -0.550 OA
ENDBRANCH   1   2
BRANCH   1   5
ATOM      5  C   UNL     1      -5.679  -2.336  11.543  1.00  0.00     0.059 C 
BRANCH   5   6
ATOM      6  C   UNL     1      -6.344  -3.523  10.918  1.00  0.00     0.042 C 
ATOM      7  O   UNL     1      -7.500  -3.867  11.281  1.00  0.00    -0.550 OA
ATOM      8  O   UNL     1      -5.704  -4.226   9.905  1.00  0.00    -0.550 OA
ENDBRANCH   5   6
ENDBRANCH   1   5
TORSDOF 3
ENDMDL
MODEL 6
REMARK VINA RESULT:    -2.394      9.941     10.885
REMARK INTER + INTRA:          -2.890
REMARK INTER:                  -2.837
REMARK INTRA:                  -0.053
REMARK UNBOUND:                -0.076
REMARK SMILES O=C([O-])CCC(=O)[O-]
REMARK SMILES IDX 4 1 2 2 1 3 3 4 5 5 6 6 7 7 8 8
REMARK H PARENT
REMARK Flexibility Score: inf
ROOT
ATOM      1  C   UNL     1       4.463  -0.907  -1.454  1.00  0.00     0.059 C 
ENDROOT
BRANCH   1   2
ATOM      2  C   UNL     1       3.738   0.351  -1.088  1.00  0.00     0.042 C 
ATOM      3  O   UNL     1       4.333   1.460  -1.127  1.00  0.00    -0.550 OA
ATOM      4  O   UNL     1       2.393   0.304  -0.744  1.00  0.00    -0.550 OA
ENDBRANCH   1   2
BRANCH   1   5
ATOM      5  C   UNL     1       5.965  -0.795  -1.171  1.00  0.00     0.059 C 
BRANCH   5   6
ATOM      6  C   UNL     1       6.457  -1.943  -0.344  1.00  0.00     0.042 C 
ATOM      7  O   UNL     1       5.760  -2.985  -0.228  1.00  0.00    -0.550 OA
ATOM      8  O   UNL     1       7.704  -1.878   0.266  1.00  0.00    -0.550 OA
ENDBRANCH   5   6
ENDBRANCH   1   5
TORSDOF 3
ENDMDL
MODEL 7
REMARK VINA RESULT:    -2.390      9.971     11.375
REMARK INTER + INTRA:          -2.886
REMARK INTER:                  -2.842
REMARK INTRA:                  -0.044
REMARK UNBOUND:                -0.076
REMARK SMILES O=C([O-])CCC(=O)[O-]
REMARK SMILES IDX 4 1 2 2 1 3 3 4 5 5 6 6 7 7 8 8
REMARK H PARENT
REMARK Flexibility Score: inf
ROOT
ATOM      1  C   UNL     1       5.915  -0.786  -1.125  1.00  0.00     0.059 C 
ENDROOT
BRANCH   1   2
ATOM      2  C   UNL     1       6.401  -1.971  -0.349  1.00  0.00     0.042 C 
ATOM      3  O   UNL     1       7.514  -1.932   0.238  1.00  0.00    -0.550 OA
ATOM      4  O   UNL     1       5.605  -3.104  -0.239  1.00  0.00    -0.550 OA
ENDBRANCH   1   2
BRANCH   1   5
ATOM      5  C   UNL     1       4.423  -0.900  -1.455  1.00  0.00     0.059 C 
BRANCH   5   6
ATOM      6  C   UNL     1       3.687   0.360  -1.119  1.00  0.00     0.042 C 
ATOM      7  O   UNL     1       2.500   0.310  -0.702  1.00  0.00    -0.550 OA
ATOM      8  O   UNL     1       4.326   1.589  -1.227  1.00  0.00    -0.550 OA
ENDBRANCH   5   6
ENDBRANCH   1   5
TORSDOF 3
ENDMDL
MODEL 8
REMARK VINA RESULT:    -2.339     10.734     11.895
REMARK INTER + INTRA:          -2.825
REMARK INTER:                  -2.706
REMARK INTRA:                  -0.120
REMARK UNBOUND:                -0.076
REMARK SMILES O=C([O-])CCC(=O)[O-]
REMARK SMILES IDX 4 1 2 2 1 3 3 4 5 5 6 6 7 7 8 8
REMARK H PARENT
REMARK Flexibility Score: inf
ROOT
ATOM      1  C   UNL     1       4.337   0.791  -1.111  1.00  0.00     0.059 C 
ENDROOT
BRANCH   1   2
ATOM      2  C   UNL     1       4.527   1.797  -2.204  1.00  0.00     0.042 C 
ATOM      3  O   UNL     1       4.783   2.997  -1.922  1.00  0.00    -0.550 OA
ATOM      4  O   UNL     1       4.462   1.401  -3.533  1.00  0.00    -0.550 OA
ENDBRANCH   1   2
BRANCH   1   5
ATOM      5  C   UNL     1       4.769  -0.612  -1.554  1.00  0.00     0.059 C 
BRANCH   5   6
ATOM      6  C   UNL     1       6.225  -0.847  -1.292  1.00  0.00     0.042 C 
ATOM      7  O   UNL     1       6.594  -1.424  -0.235  1.00  0.00    -0.550 OA
ATOM      8  O   UNL     1       7.172  -0.467  -2.234  1.00  0.00    -0.550 OA
ENDBRANCH   5   6
ENDBRANCH   1   5
TORSDOF 3
ENDMDL
MODEL 9
REMARK VINA RESULT:    -2.258     12.035     12.743
REMARK INTER + INTRA:          -2.730
REMARK INTER:                  -2.639
REMARK INTRA:                  -0.092
REMARK UNBOUND:                -0.076
REMARK SMILES O=C([O-])CCC(=O)[O-]
REMARK SMILES IDX 4 1 2 2 1 3 3 4 5 5 6 6 7 7 8 8
REMARK H PARENT
REMARK Flexibility Score: inf
ROOT
ATOM      1  C   UNL     1      -1.937  -3.453   7.174  1.00  0.00     0.059 C 
ENDROOT
BRANCH   1   2
ATOM      2  C   UNL     1      -3.261  -4.064   6.833  1.00  0.00     0.042 C 
ATOM      3  O   UNL     1      -3.368  -5.312   6.697  1.00  0.00    -0.550 OA
ATOM      4  O   UNL     1      -4.386  -3.260   6.706  1.00  0.00    -0.550 OA
ENDBRANCH   1   2
BRANCH   1   5
ATOM      5  C   UNL     1      -1.927  -1.944   6.911  1.00  0.00     0.059 C 
BRANCH   5   6
ATOM      6  C   UNL     1      -1.248  -1.614   5.618  1.00  0.00     0.042 C 
ATOM      7  O   UNL     1      -0.054  -1.963   5.422  1.00  0.00    -0.550 OA
ATOM      8  O   UNL     1      -1.946  -0.958   4.612  1.00  0.00    -0.550 OA
ENDBRANCH   5   6
ENDBRANCH   1   5
TORSDOF 3
ENDMDL
