MODEL 1
REMARK VINA RESULT:    -3.587      0.000      0.000
REMARK INTER + INTRA:          -5.750
REMARK INTER:                  -4.425
REMARK INTRA:                  -1.325
REMARK UNBOUND:                -1.325
REMARK SMILES CC(C)=CCC[C@H](C)c1ccc(C)cc1
REMARK SMILES IDX 6 1 7 2 8 3 9 4 13 5 12 6 11 7 14 8 10 9 15 10 5 11 4 12
REMARK SMILES IDX 2 13 1 14 3 15
REMARK H PARENT
REMARK Flexibility Score: inf
ROOT
ATOM      1  C   UNL     1       6.465   7.828   0.724  1.00  0.00     0.012 C 
ENDROOT
BRANCH   1   2
ATOM      2  C   UNL     1       6.511   8.104   2.247  1.00  0.00     0.016 C 
ATOM      3  C   UNL     1       7.443   7.138   2.994  1.00  0.00     0.013 C 
BRANCH   2   4
ATOM      4  C   UNL     1       5.111   8.045   2.831  1.00  0.00    -0.045 A 
ATOM      5  C   UNL     1       1.136   7.938   4.521  1.00  0.00     0.044 C 
ATOM      6  C   UNL     1       2.517   7.944   3.936  1.00  0.00    -0.051 A 
ATOM      7  C   UNL     1       3.638   8.076   4.768  1.00  0.00     0.004 A 
ATOM      8  C   UNL     1       2.696   7.891   2.546  1.00  0.00     0.004 A 
ATOM      9  C   UNL     1       4.924   8.120   4.223  1.00  0.00     0.004 A 
ATOM     10  C   UNL     1       3.981   7.936   1.998  1.00  0.00     0.004 A 
ENDBRANCH   2   4
ENDBRANCH   1   2
BRANCH   1  11
ATOM     11  C   UNL     1       6.941   6.415   0.331  1.00  0.00     0.028 C 
BRANCH  11  12
ATOM     12  C   UNL     1       5.859   5.614  -0.352  1.00  0.00    -0.028 C 
ATOM     13  C   UNL     1       5.048   4.733   0.275  1.00  0.00    -0.080 C 
ATOM     14  C   UNL     1       4.022   3.993  -0.546  1.00  0.00     0.039 C 
ATOM     15  C   UNL     1       5.118   4.497   1.766  1.00  0.00     0.039 C 
ENDBRANCH  11  12
ENDBRANCH   1  11
TORSDOF 4
ENDMDL
MODEL 2
REMARK VINA RESULT:    -2.840      1.273      2.156
REMARK INTER + INTRA:          -4.830
REMARK INTER:                  -5.127
REMARK INTRA:                   0.298
REMARK UNBOUND:                -1.325
REMARK SMILES CC(C)=CCC[C@H](C)c1ccc(C)cc1
REMARK SMILES IDX 6 1 7 2 8 3 9 4 13 5 12 6 11 7 14 8 10 9 15 10 5 11 4 12
REMARK SMILES IDX 2 13 1 14 3 15
REMARK H PARENT
REMARK Flexibility Score: inf
ROOT
ATOM      1  C   UNL     1       4.783   6.857   0.562  1.00  0.00     0.012 C 
ENDROOT
BRANCH   1   2
ATOM      2  C   UNL     1       4.991   8.026   1.555  1.00  0.00     0.016 C 
ATOM      3  C   UNL     1       6.346   7.954   2.277  1.00  0.00     0.013 C 
BRANCH   2   4
ATOM      4  C   UNL     1       3.857   8.063   2.564  1.00  0.00    -0.045 A 
ATOM      5  C   UNL     1       0.604   8.110   5.407  1.00  0.00     0.044 C 
ATOM      6  C   UNL     1       1.734   8.124   4.421  1.00  0.00    -0.051 A 
ATOM      7  C   UNL     1       1.471   8.119   3.043  1.00  0.00     0.004 A 
ATOM      8  C   UNL     1       3.062   8.071   4.867  1.00  0.00     0.004 A 
ATOM      9  C   UNL     1       2.522   8.094   2.122  1.00  0.00     0.004 A 
ATOM     10  C   UNL     1       4.114   8.046   3.947  1.00  0.00     0.004 A 
ENDBRANCH   2   4
ENDBRANCH   1   2
BRANCH   1  11
ATOM     11  C   UNL     1       5.985   6.610  -0.372  1.00  0.00     0.028 C 
BRANCH  11  12
ATOM     12  C   UNL     1       7.093   5.842   0.309  1.00  0.00    -0.028 C 
ATOM     13  C   UNL     1       6.921   4.674   0.966  1.00  0.00    -0.080 C 
ATOM     14  C   UNL     1       8.123   4.031   1.612  1.00  0.00     0.039 C 
ATOM     15  C   UNL     1       5.579   3.985   1.043  1.00  0.00     0.039 C 
ENDBRANCH  11  12
ENDBRANCH   1  11
TORSDOF 4
ENDMDL
MODEL 3
REMARK VINA RESULT:    -2.606      1.157      1.597
REMARK INTER + INTRA:          -4.540
REMARK INTER:                  -4.952
REMARK INTRA:                   0.412
REMARK UNBOUND:                -1.325
REMARK SMILES CC(C)=CCC[C@H](C)c1ccc(C)cc1
REMARK SMILES IDX 6 1 7 2 8 3 9 4 13 5 12 6 11 7 14 8 10 9 15 10 5 11 4 12
REMARK SMILES IDX 2 13 1 14 3 15
REMARK H PARENT
REMARK Flexibility Score: inf
ROOT
ATOM      1  C   UNL     1       5.850   7.203   0.614  1.00  0.00     0.012 C 
ENDROOT
BRANCH   1   2
ATOM      2  C   UNL     1       5.927   8.125   1.855  1.00  0.00     0.016 C 
ATOM      3  C   UNL     1       7.137   7.812   2.748  1.00  0.00     0.013 C 
BRANCH   2   4
ATOM      4  C   UNL     1       4.641   8.032   2.656  1.00  0.00    -0.045 A 
ATOM      5  C   UNL     1       0.992   7.831   4.961  1.00  0.00     0.044 C 
ATOM      6  C   UNL     1       2.261   7.871   4.162  1.00  0.00    -0.051 A 
ATOM      7  C   UNL     1       3.496   8.046   4.804  1.00  0.00     0.004 A 
ATOM      8  C   UNL     1       2.218   7.805   2.763  1.00  0.00     0.004 A 
ATOM      9  C   UNL     1       4.676   8.121   4.059  1.00  0.00     0.004 A 
ATOM     10  C   UNL     1       3.397   7.879   2.016  1.00  0.00     0.004 A 
ENDBRANCH   2   4
ENDBRANCH   1   2
BRANCH   1  11
ATOM     11  C   UNL     1       7.221   6.896  -0.022  1.00  0.00     0.028 C 
BRANCH  11  12
ATOM     12  C   UNL     1       7.920   5.739   0.650  1.00  0.00    -0.028 C 
ATOM     13  C   UNL     1       7.294   4.638   1.122  1.00  0.00    -0.080 C 
ATOM     14  C   UNL     1       8.125   3.569   1.786  1.00  0.00     0.039 C 
ATOM     15  C   UNL     1       5.803   4.435   0.975  1.00  0.00     0.039 C 
ENDBRANCH  11  12
ENDBRANCH   1  11
TORSDOF 4
ENDMDL
MODEL 4
REMARK VINA RESULT:    -2.522     21.062     23.506
REMARK INTER + INTRA:          -4.437
REMARK INTER:                  -3.871
REMARK INTRA:                  -0.566
REMARK UNBOUND:                -1.325
REMARK SMILES CC(C)=CCC[C@H](C)c1ccc(C)cc1
REMARK SMILES IDX 6 1 7 2 8 3 9 4 13 5 12 6 11 7 14 8 10 9 15 10 5 11 4 12
REMARK SMILES IDX 2 13 1 14 3 15
REMARK H PARENT
REMARK Flexibility Score: inf
ROOT
ATOM      1  C   UNL     1      -9.407 -10.470  -2.971  1.00  0.00     0.012 C 
ENDROOT
BRANCH   1   2
ATOM      2  C   UNL     1     -10.930 -10.670  -2.773  1.00  0.00     0.016 C 
ATOM      3  C   UNL     1     -11.763  -9.564  -3.439  1.00  0.00     0.013 C 
BRANCH   2   4
ATOM      4  C   UNL     1     -11.257 -10.760  -1.293  1.00  0.00    -0.045 A 
ATOM      5  C   UNL     1     -12.123 -11.033   2.931  1.00  0.00     0.044 C 
ATOM      6  C   UNL     1     -11.851 -10.945   1.458  1.00  0.00    -0.051 A 
ATOM      7  C   UNL     1     -11.377 -12.064   0.759  1.00  0.00     0.004 A 
ATOM      8  C   UNL     1     -12.001  -9.725   0.784  1.00  0.00     0.004 A 
ATOM      9  C   UNL     1     -11.087 -11.975  -0.605  1.00  0.00     0.004 A 
ATOM     10  C   UNL     1     -11.712  -9.634  -0.581  1.00  0.00     0.004 A 
ENDBRANCH   2   4
ENDBRANCH   1   2
BRANCH   1  11
ATOM     11  C   UNL     1      -8.851 -11.136  -4.245  1.00  0.00     0.028 C 
BRANCH  11  12
ATOM     12  C   UNL     1      -7.485 -10.612  -4.619  1.00  0.00    -0.028 C 
ATOM     13  C   UNL     1      -7.266  -9.592  -5.478  1.00  0.00    -0.080 C 
ATOM     14  C   UNL     1      -5.842  -9.189  -5.766  1.00  0.00     0.039 C 
ATOM     15  C   UNL     1      -8.399  -8.829  -6.125  1.00  0.00     0.039 C 
ENDBRANCH  11  12
ENDBRANCH   1  11
TORSDOF 4
ENDMDL
MODEL 5
REMARK VINA RESULT:    -2.281      1.229      2.651
REMARK INTER + INTRA:          -4.140
REMARK INTER:                  -3.745
REMARK INTRA:                  -0.395
REMARK UNBOUND:                -1.325
REMARK SMILES CC(C)=CCC[C@H](C)c1ccc(C)cc1
REMARK SMILES IDX 6 1 7 2 8 3 9 4 13 5 12 6 11 7 14 8 10 9 15 10 5 11 4 12
REMARK SMILES IDX 2 13 1 14 3 15
REMARK H PARENT
REMARK Flexibility Score: inf
ROOT
ATOM      1  C   UNL     1       5.671   5.452   1.817  1.00  0.00     0.012 C 
ENDROOT
BRANCH   1   2
ATOM      2  C   UNL     1       5.592   6.969   2.115  1.00  0.00     0.016 C 
ATOM      3  C   UNL     1       6.816   7.484   2.889  1.00  0.00     0.013 C 
BRANCH   2   4
ATOM      4  C   UNL     1       4.316   7.287   2.874  1.00  0.00    -0.045 A 
ATOM      5  C   UNL     1       0.664   8.125   5.025  1.00  0.00     0.044 C 
ATOM      6  C   UNL     1       1.932   7.863   4.268  1.00  0.00    -0.051 A 
ATOM      7  C   UNL     1       1.884   7.360   2.960  1.00  0.00     0.004 A 
ATOM      8  C   UNL     1       3.176   8.051   4.887  1.00  0.00     0.004 A 
ATOM      9  C   UNL     1       3.064   7.079   2.266  1.00  0.00     0.004 A 
ATOM     10  C   UNL     1       4.358   7.770   4.195  1.00  0.00     0.004 A 
ENDBRANCH   2   4
ENDBRANCH   1   2
BRANCH   1  11
ATOM     11  C   UNL     1       6.103   5.122   0.374  1.00  0.00     0.028 C 
BRANCH  11  12
ATOM     12  C   UNL     1       7.171   6.060  -0.136  1.00  0.00    -0.028 C 
ATOM     13  C   UNL     1       6.925   7.188  -0.839  1.00  0.00    -0.080 C 
ATOM     14  C   UNL     1       8.098   8.018  -1.297  1.00  0.00     0.039 C 
ATOM     15  C   UNL     1       5.521   7.652  -1.149  1.00  0.00     0.039 C 
ENDBRANCH  11  12
ENDBRANCH   1  11
TORSDOF 4
ENDMDL
MODEL 6
REMARK VINA RESULT:    -1.970     23.193     24.321
REMARK INTER + INTRA:          -3.756
REMARK INTER:                  -3.138
REMARK INTRA:                  -0.618
REMARK UNBOUND:                -1.325
REMARK SMILES CC(C)=CCC[C@H](C)c1ccc(C)cc1
REMARK SMILES IDX 6 1 7 2 8 3 9 4 13 5 12 6 11 7 14 8 10 9 15 10 5 11 4 12
REMARK SMILES IDX 2 13 1 14 3 15
REMARK H PARENT
REMARK Flexibility Score: inf
ROOT
ATOM      1  C   UNL     1      -9.859 -10.582  -0.878  1.00  0.00     0.012 C 
ENDROOT
BRANCH   1   2
ATOM      2  C   UNL     1     -10.671 -11.832  -0.460  1.00  0.00     0.016 C 
ATOM      3  C   UNL     1     -12.065 -11.873  -1.105  1.00  0.00     0.013 C 
BRANCH   2   4
ATOM      4  C   UNL     1     -10.786 -11.900   1.052  1.00  0.00    -0.045 A 
ATOM      5  C   UNL     1     -11.069 -12.039   5.361  1.00  0.00     0.044 C 
ATOM      6  C   UNL     1     -10.975 -12.021   3.864  1.00  0.00    -0.051 A 
ATOM      7  C   UNL     1      -9.727 -12.125   3.232  1.00  0.00     0.004 A 
ATOM      8  C   UNL     1     -12.125 -11.828   3.085  1.00  0.00     0.004 A 
ATOM      9  C   UNL     1      -9.632 -12.071   1.839  1.00  0.00     0.004 A 
ATOM     10  C   UNL     1     -12.033 -11.774   1.692  1.00  0.00     0.004 A 
ENDBRANCH   2   4
ENDBRANCH   1   2
BRANCH   1  11
ATOM     11  C   UNL     1     -10.315  -9.959  -2.213  1.00  0.00     0.028 C 
BRANCH  11  12
ATOM     12  C   UNL     1      -9.575 -10.534  -3.397  1.00  0.00    -0.028 C 
ATOM     13  C   UNL     1     -10.122 -10.736  -4.616  1.00  0.00    -0.080 C 
ATOM     14  C   UNL     1      -9.261 -11.334  -5.699  1.00  0.00     0.039 C 
ATOM     15  C   UNL     1     -11.550 -10.351  -4.930  1.00  0.00     0.039 C 
ENDBRANCH  11  12
ENDBRANCH   1  11
TORSDOF 4
ENDMDL
MODEL 7
REMARK VINA RESULT:    -1.851     24.134     25.378
REMARK INTER + INTRA:          -3.608
REMARK INTER:                  -2.954
REMARK INTRA:                  -0.654
REMARK UNBOUND:                -1.325
REMARK SMILES CC(C)=CCC[C@H](C)c1ccc(C)cc1
REMARK SMILES IDX 6 1 7 2 8 3 9 4 13 5 12 6 11 7 14 8 10 9 15 10 5 11 4 12
REMARK SMILES IDX 2 13 1 14 3 15
REMARK H PARENT
REMARK Flexibility Score: inf
ROOT
ATOM      1  C   UNL     1     -10.698 -10.311   9.764  1.00  0.00     0.012 C 
ENDROOT
BRANCH   1   2
ATOM      2  C   UNL     1     -10.300 -11.735   9.305  1.00  0.00     0.016 C 
ATOM      3  C   UNL     1      -8.883 -12.125   9.753  1.00  0.00     0.013 C 
BRANCH   2   4
ATOM      4  C   UNL     1     -10.428 -11.852   7.796  1.00  0.00    -0.045 A 
ATOM      5  C   UNL     1     -10.820 -12.125   3.502  1.00  0.00     0.044 C 
ATOM      6  C   UNL     1     -10.686 -12.061   4.995  1.00  0.00    -0.051 A 
ATOM      7  C   UNL     1     -11.819 -11.868   5.799  1.00  0.00     0.004 A 
ATOM      8  C   UNL     1      -9.420 -12.120   5.594  1.00  0.00     0.004 A 
ATOM      9  C   UNL     1     -11.693 -11.770   7.188  1.00  0.00     0.004 A 
ATOM     10  C   UNL     1      -9.292 -12.022   6.983  1.00  0.00     0.004 A 
ENDBRANCH   2   4
ENDBRANCH   1   2
BRANCH   1  11
ATOM     11  C   UNL     1     -11.934 -10.276  10.686  1.00  0.00     0.028 C 
BRANCH  11  12
ATOM     12  C   UNL     1     -11.771  -9.303  11.829  1.00  0.00    -0.028 C 
ATOM     13  C   UNL     1     -11.260  -9.624  13.039  1.00  0.00    -0.080 C 
ATOM     14  C   UNL     1     -11.175  -8.546  14.089  1.00  0.00     0.039 C 
ATOM     15  C   UNL     1     -10.747 -11.010  13.353  1.00  0.00     0.039 C 
ENDBRANCH  11  12
ENDBRANCH   1  11
TORSDOF 4
ENDMDL
MODEL 8
REMARK VINA RESULT:    -1.835     21.131     23.347
REMARK INTER + INTRA:          -3.589
REMARK INTER:                  -3.174
REMARK INTRA:                  -0.415
REMARK UNBOUND:                -1.325
REMARK SMILES CC(C)=CCC[C@H](C)c1ccc(C)cc1
REMARK SMILES IDX 6 1 7 2 8 3 9 4 13 5 12 6 11 7 14 8 10 9 15 10 5 11 4 12
REMARK SMILES IDX 2 13 1 14 3 15
REMARK H PARENT
REMARK Flexibility Score: inf
ROOT
ATOM      1  C   UNL     1      -8.995 -11.354  -4.372  1.00  0.00     0.012 C 
ENDROOT
BRANCH   1   2
ATOM      2  C   UNL     1     -10.504 -11.555  -4.092  1.00  0.00     0.016 C 
ATOM      3  C   UNL     1     -11.381 -11.206  -5.304  1.00  0.00     0.013 C 
BRANCH   2   4
ATOM      4  C   UNL     1     -10.925 -10.739  -2.883  1.00  0.00    -0.045 A 
ATOM      5  C   UNL     1     -12.055  -8.405   0.573  1.00  0.00     0.044 C 
ATOM      6  C   UNL     1     -11.688  -9.233  -0.623  1.00  0.00    -0.051 A 
ATOM      7  C   UNL     1     -10.862 -10.357  -0.480  1.00  0.00     0.004 A 
ATOM      8  C   UNL     1     -12.108  -8.848  -1.905  1.00  0.00     0.004 A 
ATOM      9  C   UNL     1     -10.488 -11.108  -1.598  1.00  0.00     0.004 A 
ATOM     10  C   UNL     1     -11.734  -9.597  -3.024  1.00  0.00     0.004 A 
ENDBRANCH   2   4
ENDBRANCH   1   2
BRANCH   1  11
ATOM     11  C   UNL     1      -8.655 -11.185  -5.867  1.00  0.00     0.028 C 
BRANCH  11  12
ATOM     12  C   UNL     1      -7.171 -11.038  -6.105  1.00  0.00    -0.028 C 
ATOM     13  C   UNL     1      -6.456  -9.929  -5.814  1.00  0.00    -0.080 C 
ATOM     14  C   UNL     1      -4.981  -9.925  -6.125  1.00  0.00     0.039 C 
ATOM     15  C   UNL     1      -7.081  -8.719  -5.160  1.00  0.00     0.039 C 
ENDBRANCH  11  12
ENDBRANCH   1  11
TORSDOF 4
ENDMDL
MODEL 9
REMARK VINA RESULT:    -1.411     21.584     23.669
REMARK INTER + INTRA:          -3.066
REMARK INTER:                  -2.563
REMARK INTRA:                  -0.503
REMARK UNBOUND:                -1.325
REMARK SMILES CC(C)=CCC[C@H](C)c1ccc(C)cc1
REMARK SMILES IDX 6 1 7 2 8 3 9 4 13 5 12 6 11 7 14 8 10 9 15 10 5 11 4 12
REMARK SMILES IDX 2 13 1 14 3 15
REMARK H PARENT
REMARK Flexibility Score: inf
ROOT
ATOM      1  C   UNL     1      -8.630 -12.092   6.874  1.00  0.00     0.012 C 
ENDROOT
BRANCH   1   2
ATOM      2  C   UNL     1     -10.161 -12.125   7.098  1.00  0.00     0.016 C 
ATOM      3  C   UNL     1     -10.948 -11.618   5.879  1.00  0.00     0.013 C 
BRANCH   2   4
ATOM      4  C   UNL     1     -10.526 -11.321   8.334  1.00  0.00    -0.045 A 
ATOM      5  C   UNL     1     -11.572  -9.092  11.884  1.00  0.00     0.044 C 
ATOM      6  C   UNL     1     -11.221  -9.844  10.634  1.00  0.00    -0.051 A 
ATOM      7  C   UNL     1     -12.114 -10.784  10.099  1.00  0.00     0.004 A 
ATOM      8  C   UNL     1      -9.968  -9.666  10.031  1.00  0.00     0.004 A 
ATOM      9  C   UNL     1     -11.773 -11.512   8.956  1.00  0.00     0.004 A 
ATOM     10  C   UNL     1      -9.625 -10.393   8.888  1.00  0.00     0.004 A 
ENDBRANCH   2   4
ENDBRANCH   1   2
BRANCH   1  11
ATOM     11  C   UNL     1      -8.216 -12.118   5.389  1.00  0.00     0.028 C 
BRANCH  11  12
ATOM     12  C   UNL     1      -6.923 -11.379   5.139  1.00  0.00    -0.028 C 
ATOM     13  C   UNL     1      -6.252 -11.387   3.966  1.00  0.00    -0.080 C 
ATOM     14  C   UNL     1      -4.962 -10.613   3.873  1.00  0.00     0.039 C 
ATOM     15  C   UNL     1      -6.770 -12.117   2.749  1.00  0.00     0.039 C 
ENDBRANCH  11  12
ENDBRANCH   1  11
TORSDOF 4
ENDMDL
