MODEL 1
REMARK VINA RESULT:    -5.253      0.000      0.000
REMARK INTER + INTRA:         -10.417
REMARK INTER:                  -9.552
REMARK INTRA:                  -0.865
REMARK UNBOUND:                -0.865
REMARK SMILES CCCCCC=CCC=CCCCCCCCC(=O)[O-]
REMARK SMILES IDX 11 1 12 2 13 3 14 4 15 5 16 6 17 7 18 8 19 9 20 10 10 11
REMARK SMILES IDX 9 12 8 13 7 14 6 15 5 16 4 17 3 18 2 19 1 20
REMARK H PARENT
REMARK Flexibility Score: inf
ROOT
ATOM      1  C   UNL     1       1.171  20.276  33.135  1.00  0.00     0.027 C 
ENDROOT
BRANCH   1   2
ATOM      2  C   UNL     1       0.482  21.583  32.707  1.00  0.00     0.004 C 
BRANCH   2   3
ATOM      3  C   UNL     1      -0.715  21.394  31.753  1.00  0.00     0.000 C 
BRANCH   3   4
ATOM      4  C   UNL     1      -0.563  20.252  30.731  1.00  0.00     0.000 C 
BRANCH   4   5
ATOM      5  C   UNL     1      -1.582  20.333  29.585  1.00  0.00     0.000 C 
BRANCH   5   6
ATOM      6  C   UNL     1      -1.592  19.036  28.769  1.00  0.00     0.006 C 
BRANCH   6   7
ATOM      7  C   UNL     1      -2.697  19.066  27.705  1.00  0.00     0.053 C 
BRANCH   7   8
ATOM      8  C   UNL     1      -2.725  20.384  26.995  1.00  0.00     0.041 C 
ATOM      9  O   UNL     1      -1.795  20.702  26.209  1.00  0.00    -0.550 OA
ATOM     10  O   UNL     1      -3.792  21.253  27.183  1.00  0.00    -0.550 OA
ENDBRANCH   7   8
ENDBRANCH   6   7
ENDBRANCH   5   6
ENDBRANCH   4   5
ENDBRANCH   3   4
ENDBRANCH   2   3
ENDBRANCH   1   2
BRANCH   1  11
ATOM     11  C   UNL     1       2.467  20.043  32.399  1.00  0.00    -0.031 C 
ATOM     12  C   UNL     1       3.612  19.625  32.971  1.00  0.00    -0.027 C 
BRANCH  12  13
ATOM     13  C   UNL     1       3.764  19.260  34.427  1.00  0.00     0.054 C 
BRANCH  13  14
ATOM     14  C   UNL     1       3.866  17.767  34.612  1.00  0.00    -0.027 C 
ATOM     15  C   UNL     1       5.009  17.061  34.530  1.00  0.00    -0.031 C 
BRANCH  15  16
ATOM     16  C   UNL     1       6.378  17.662  34.324  1.00  0.00     0.027 C 
BRANCH  16  17
ATOM     17  C   UNL     1       6.768  17.711  32.838  1.00  0.00     0.004 C 
BRANCH  17  18
ATOM     18  C   UNL     1       6.452  16.395  32.110  1.00  0.00     0.000 C 
BRANCH  18  19
ATOM     19  C   UNL     1       7.740  15.669  31.701  1.00  0.00    -0.003 C 
ATOM     20  C   UNL     1       7.433  14.456  30.826  1.00  0.00     0.004 C 
ENDBRANCH  18  19
ENDBRANCH  17  18
ENDBRANCH  16  17
ENDBRANCH  15  16
ENDBRANCH  13  14
ENDBRANCH  12  13
ENDBRANCH   1  11
TORSDOF 14
ENDMDL
MODEL 2
REMARK VINA RESULT:    -5.004     14.927     18.547
REMARK INTER + INTRA:          -9.965
REMARK INTER:                  -8.980
REMARK INTRA:                  -0.985
REMARK UNBOUND:                -0.865
REMARK SMILES CCCCCC=CCC=CCCCCCCCC(=O)[O-]
REMARK SMILES IDX 11 1 12 2 13 3 14 4 15 5 16 6 17 7 18 8 19 9 20 10 10 11
REMARK SMILES IDX 9 12 8 13 7 14 6 15 5 16 4 17 3 18 2 19 1 20
REMARK H PARENT
REMARK Flexibility Score: inf
ROOT
ATOM      1  C   UNL     1       4.923   9.754  15.909  1.00  0.00     0.027 C 
ENDROOT
BRANCH   1   2
ATOM      2  C   UNL     1       6.319   9.909  15.279  1.00  0.00     0.004 C 
BRANCH   2   3
ATOM      3  C   UNL     1       6.711  11.361  14.939  1.00  0.00     0.000 C 
BRANCH   3   4
ATOM      4  C   UNL     1       7.978  11.879  15.645  1.00  0.00     0.000 C 
BRANCH   4   5
ATOM      5  C   UNL     1       8.654  10.814  16.520  1.00  0.00     0.000 C 
BRANCH   5   6
ATOM      6  C   UNL     1       8.897  11.343  17.938  1.00  0.00     0.006 C 
BRANCH   6   7
ATOM      7  C   UNL     1       8.198  12.692  18.147  1.00  0.00     0.053 C 
BRANCH   7   8
ATOM      8  C   UNL     1       9.047  13.616  18.965  1.00  0.00     0.041 C 
ATOM      9  O   UNL     1      10.230  13.301  19.257  1.00  0.00    -0.550 OA
ATOM     10  O   UNL     1       8.539  14.838  19.384  1.00  0.00    -0.550 OA
ENDBRANCH   7   8
ENDBRANCH   6   7
ENDBRANCH   5   6
ENDBRANCH   4   5
ENDBRANCH   3   4
ENDBRANCH   2   3
ENDBRANCH   1   2
BRANCH   1  11
ATOM     11  C   UNL     1       3.824   9.761  14.875  1.00  0.00    -0.031 C 
ATOM     12  C   UNL     1       2.546   9.408  15.110  1.00  0.00    -0.027 C 
BRANCH  12  13
ATOM     13  C   UNL     1       1.995   9.013  16.457  1.00  0.00     0.054 C 
BRANCH  13  14
ATOM     14  C   UNL     1       0.515   8.732  16.385  1.00  0.00    -0.027 C 
ATOM     15  C   UNL     1      -0.416   9.323  17.157  1.00  0.00    -0.031 C 
BRANCH  15  16
ATOM     16  C   UNL     1      -0.134  10.417  18.158  1.00  0.00     0.027 C 
BRANCH  16  17
ATOM     17  C   UNL     1      -1.420  10.946  18.811  1.00  0.00     0.004 C 
BRANCH  17  18
ATOM     18  C   UNL     1      -2.474   9.843  18.998  1.00  0.00     0.000 C 
BRANCH  18  19
ATOM     19  C   UNL     1      -2.830   9.666  20.479  1.00  0.00    -0.003 C 
ATOM     20  C   UNL     1      -1.617   9.209  21.285  1.00  0.00     0.004 C 
ENDBRANCH  18  19
ENDBRANCH  17  18
ENDBRANCH  16  17
ENDBRANCH  15  16
ENDBRANCH  13  14
ENDBRANCH  12  13
ENDBRANCH   1  11
TORSDOF 14
ENDMDL
MODEL 3
REMARK VINA RESULT:    -4.822      4.114      8.525
REMARK INTER + INTRA:          -9.635
REMARK INTER:                  -8.119
REMARK INTRA:                  -1.515
REMARK UNBOUND:                -0.865
REMARK SMILES CCCCCC=CCC=CCCCCCCCC(=O)[O-]
REMARK SMILES IDX 11 1 12 2 13 3 14 4 15 5 16 6 17 7 18 8 19 9 20 10 10 11
REMARK SMILES IDX 9 12 8 13 7 14 6 15 5 16 4 17 3 18 2 19 1 20
REMARK H PARENT
REMARK Flexibility Score: inf
ROOT
ATOM      1  C   UNL     1       2.510  19.244  33.032  1.00  0.00     0.027 C 
ENDROOT
BRANCH   1   2
ATOM      2  C   UNL     1       2.330  17.915  33.786  1.00  0.00     0.004 C 
BRANCH   2   3
ATOM      3  C   UNL     1       3.144  17.803  35.091  1.00  0.00     0.000 C 
BRANCH   3   4
ATOM      4  C   UNL     1       4.538  17.168  34.939  1.00  0.00     0.000 C 
BRANCH   4   5
ATOM      5  C   UNL     1       5.624  18.187  34.562  1.00  0.00     0.000 C 
BRANCH   5   6
ATOM      6  C   UNL     1       6.099  17.972  33.122  1.00  0.00     0.006 C 
BRANCH   6   7
ATOM      7  C   UNL     1       6.031  16.489  32.736  1.00  0.00     0.053 C 
BRANCH   7   8
ATOM      8  C   UNL     1       7.173  16.112  31.845  1.00  0.00     0.041 C 
ATOM      9  O   UNL     1       8.127  16.912  31.660  1.00  0.00    -0.550 OA
ATOM     10  O   UNL     1       7.198  14.864  31.237  1.00  0.00    -0.550 OA
ENDBRANCH   7   8
ENDBRANCH   6   7
ENDBRANCH   5   6
ENDBRANCH   4   5
ENDBRANCH   3   4
ENDBRANCH   2   3
ENDBRANCH   1   2
BRANCH   1  11
ATOM     11  C   UNL     1       2.795  20.397  33.962  1.00  0.00    -0.031 C 
ATOM     12  C   UNL     1       1.858  21.205  34.494  1.00  0.00    -0.027 C 
BRANCH  12  13
ATOM     13  C   UNL     1       0.371  21.047  34.298  1.00  0.00     0.054 C 
BRANCH  13  14
ATOM     14  C   UNL     1      -0.185  22.134  33.413  1.00  0.00    -0.027 C 
ATOM     15  C   UNL     1      -0.529  21.971  32.122  1.00  0.00    -0.031 C 
BRANCH  15  16
ATOM     16  C   UNL     1      -0.490  20.656  31.382  1.00  0.00     0.027 C 
BRANCH  16  17
ATOM     17  C   UNL     1      -1.415  20.658  30.155  1.00  0.00     0.004 C 
BRANCH  17  18
ATOM     18  C   UNL     1      -1.284  19.371  29.325  1.00  0.00     0.000 C 
BRANCH  18  19
ATOM     19  C   UNL     1      -1.645  19.623  27.856  1.00  0.00    -0.003 C 
ATOM     20  C   UNL     1      -3.132  19.381  27.606  1.00  0.00     0.004 C 
ENDBRANCH  18  19
ENDBRANCH  17  18
ENDBRANCH  16  17
ENDBRANCH  15  16
ENDBRANCH  13  14
ENDBRANCH  12  13
ENDBRANCH   1  11
TORSDOF 14
ENDMDL
MODEL 4
REMARK VINA RESULT:    -4.817      4.097      8.550
REMARK INTER + INTRA:          -9.624
REMARK INTER:                  -8.488
REMARK INTRA:                  -1.136
REMARK UNBOUND:                -0.865
REMARK SMILES CCCCCC=CCC=CCCCCCCCC(=O)[O-]
REMARK SMILES IDX 11 1 12 2 13 3 14 4 15 5 16 6 17 7 18 8 19 9 20 10 10 11
REMARK SMILES IDX 9 12 8 13 7 14 6 15 5 16 4 17 3 18 2 19 1 20
REMARK H PARENT
REMARK Flexibility Score: inf
ROOT
ATOM      1  C   UNL     1       0.172  20.881  34.983  1.00  0.00     0.027 C 
ENDROOT
BRANCH   1   2
ATOM      2  C   UNL     1       1.583  20.281  35.123  1.00  0.00     0.004 C 
BRANCH   2   3
ATOM      3  C   UNL     1       2.431  20.332  33.836  1.00  0.00     0.000 C 
BRANCH   3   4
ATOM      4  C   UNL     1       2.793  18.960  33.236  1.00  0.00     0.000 C 
BRANCH   4   5
ATOM      5  C   UNL     1       3.135  17.911  34.304  1.00  0.00     0.000 C 
BRANCH   5   6
ATOM      6  C   UNL     1       4.582  17.429  34.155  1.00  0.00     0.006 C 
BRANCH   6   7
ATOM      7  C   UNL     1       5.210  17.970  32.865  1.00  0.00     0.053 C 
BRANCH   7   8
ATOM      8  C   UNL     1       6.598  17.440  32.679  1.00  0.00     0.041 C 
ATOM      9  O   UNL     1       6.792  16.206  32.527  1.00  0.00    -0.550 OA
ATOM     10  O   UNL     1       7.678  18.313  32.649  1.00  0.00    -0.550 OA
ENDBRANCH   7   8
ENDBRANCH   6   7
ENDBRANCH   5   6
ENDBRANCH   4   5
ENDBRANCH   3   4
ENDBRANCH   2   3
ENDBRANCH   1   2
BRANCH   1  11
ATOM     11  C   UNL     1       0.205  22.337  34.592  1.00  0.00    -0.031 C 
ATOM     12  C   UNL     1      -0.283  22.835  33.440  1.00  0.00    -0.027 C 
BRANCH  12  13
ATOM     13  C   UNL     1      -0.997  22.026  32.386  1.00  0.00     0.054 C 
BRANCH  13  14
ATOM     14  C   UNL     1      -0.027  21.220  31.559  1.00  0.00    -0.027 C 
ATOM     15  C   UNL     1      -0.376  20.386  30.564  1.00  0.00    -0.031 C 
BRANCH  15  16
ATOM     16  C   UNL     1      -1.787  20.188  30.063  1.00  0.00     0.027 C 
BRANCH  16  17
ATOM     17  C   UNL     1      -1.818  19.606  28.642  1.00  0.00     0.004 C 
BRANCH  17  18
ATOM     18  C   UNL     1      -3.089  20.007  27.877  1.00  0.00     0.000 C 
BRANCH  18  19
ATOM     19  C   UNL     1      -2.741  20.741  26.576  1.00  0.00    -0.003 C 
ATOM     20  C   UNL     1      -1.252  20.619  26.257  1.00  0.00     0.004 C 
ENDBRANCH  18  19
ENDBRANCH  17  18
ENDBRANCH  16  17
ENDBRANCH  15  16
ENDBRANCH  13  14
ENDBRANCH  12  13
ENDBRANCH   1  11
TORSDOF 14
ENDMDL
MODEL 5
REMARK VINA RESULT:    -4.785      4.148      9.054
REMARK INTER + INTRA:          -9.567
REMARK INTER:                  -8.750
REMARK INTRA:                  -0.816
REMARK UNBOUND:                -0.865
REMARK SMILES CCCCCC=CCC=CCCCCCCCC(=O)[O-]
REMARK SMILES IDX 11 1 12 2 13 3 14 4 15 5 16 6 17 7 18 8 19 9 20 10 10 11
REMARK SMILES IDX 9 12 8 13 7 14 6 15 5 16 4 17 3 18 2 19 1 20
REMARK H PARENT
REMARK Flexibility Score: inf
ROOT
ATOM      1  C   UNL     1       2.952  20.101  33.149  1.00  0.00     0.027 C 
ENDROOT
BRANCH   1   2
ATOM      2  C   UNL     1       2.988  18.654  33.672  1.00  0.00     0.004 C 
BRANCH   2   3
ATOM      3  C   UNL     1       3.943  18.425  34.861  1.00  0.00     0.000 C 
BRANCH   3   4
ATOM      4  C   UNL     1       4.653  17.060  34.877  1.00  0.00     0.000 C 
BRANCH   4   5
ATOM      5  C   UNL     1       6.183  17.178  34.811  1.00  0.00     0.000 C 
BRANCH   5   6
ATOM      6  C   UNL     1       6.655  17.382  33.368  1.00  0.00     0.006 C 
BRANCH   6   7
ATOM      7  C   UNL     1       6.269  16.185  32.490  1.00  0.00     0.053 C 
BRANCH   7   8
ATOM      8  C   UNL     1       7.414  15.763  31.622  1.00  0.00     0.041 C 
ATOM      9  O   UNL     1       8.386  16.539  31.430  1.00  0.00    -0.550 OA
ATOM     10  O   UNL     1       7.419  14.501  31.043  1.00  0.00    -0.550 OA
ENDBRANCH   7   8
ENDBRANCH   6   7
ENDBRANCH   5   6
ENDBRANCH   4   5
ENDBRANCH   3   4
ENDBRANCH   2   3
ENDBRANCH   1   2
BRANCH   1  11
ATOM     11  C   UNL     1       1.773  20.874  33.685  1.00  0.00    -0.031 C 
ATOM     12  C   UNL     1       0.583  20.988  33.066  1.00  0.00    -0.027 C 
BRANCH  12  13
ATOM     13  C   UNL     1       0.217  20.306  31.771  1.00  0.00     0.054 C 
BRANCH  13  14
ATOM     14  C   UNL     1      -0.873  21.055  31.044  1.00  0.00    -0.027 C 
ATOM     15  C   UNL     1      -1.452  20.647  29.901  1.00  0.00    -0.031 C 
BRANCH  15  16
ATOM     16  C   UNL     1      -1.162  19.336  29.211  1.00  0.00     0.027 C 
BRANCH  16  17
ATOM     17  C   UNL     1      -2.320  18.894  28.303  1.00  0.00     0.004 C 
BRANCH  17  18
ATOM     18  C   UNL     1      -2.519  19.842  27.110  1.00  0.00     0.000 C 
BRANCH  18  19
ATOM     19  C   UNL     1      -1.171  20.283  26.526  1.00  0.00    -0.003 C 
ATOM     20  C   UNL     1      -1.308  21.595  25.756  1.00  0.00     0.004 C 
ENDBRANCH  18  19
ENDBRANCH  17  18
ENDBRANCH  16  17
ENDBRANCH  15  16
ENDBRANCH  13  14
ENDBRANCH  12  13
ENDBRANCH   1  11
TORSDOF 14
ENDMDL
MODEL 6
REMARK VINA RESULT:    -4.699      4.024      9.166
REMARK INTER + INTRA:          -9.411
REMARK INTER:                  -8.544
REMARK INTRA:                  -0.866
REMARK UNBOUND:                -0.865
REMARK SMILES CCCCCC=CCC=CCCCCCCCC(=O)[O-]
REMARK SMILES IDX 11 1 12 2 13 3 14 4 15 5 16 6 17 7 18 8 19 9 20 10 10 11
REMARK SMILES IDX 9 12 8 13 7 14 6 15 5 16 4 17 3 18 2 19 1 20
REMARK H PARENT
REMARK Flexibility Score: inf
ROOT
ATOM      1  C   UNL     1       0.540  20.210  31.399  1.00  0.00     0.027 C 
ENDROOT
BRANCH   1   2
ATOM      2  C   UNL     1       0.815  20.586  32.866  1.00  0.00     0.004 C 
BRANCH   2   3
ATOM      3  C   UNL     1       1.765  19.623  33.607  1.00  0.00     0.000 C 
BRANCH   3   4
ATOM      4  C   UNL     1       2.931  20.299  34.352  1.00  0.00     0.000 C 
BRANCH   4   5
ATOM      5  C   UNL     1       4.163  19.392  34.484  1.00  0.00     0.000 C 
BRANCH   5   6
ATOM      6  C   UNL     1       4.225  18.380  33.335  1.00  0.00     0.006 C 
BRANCH   6   7
ATOM      7  C   UNL     1       5.117  17.188  33.702  1.00  0.00     0.053 C 
BRANCH   7   8
ATOM      8  C   UNL     1       6.357  17.166  32.863  1.00  0.00     0.041 C 
ATOM      9  O   UNL     1       7.133  18.156  32.850  1.00  0.00    -0.550 OA
ATOM     10  O   UNL     1       6.671  16.039  32.115  1.00  0.00    -0.550 OA
ENDBRANCH   7   8
ENDBRANCH   6   7
ENDBRANCH   5   6
ENDBRANCH   4   5
ENDBRANCH   3   4
ENDBRANCH   2   3
ENDBRANCH   1   2
BRANCH   1  11
ATOM     11  C   UNL     1      -0.843  20.612  30.954  1.00  0.00    -0.031 C 
ATOM     12  C   UNL     1      -1.459  20.152  29.848  1.00  0.00    -0.027 C 
BRANCH  12  13
ATOM     13  C   UNL     1      -0.890  19.113  28.914  1.00  0.00     0.054 C 
BRANCH  13  14
ATOM     14  C   UNL     1      -1.719  17.853  28.923  1.00  0.00    -0.027 C 
ATOM     15  C   UNL     1      -2.723  17.591  28.066  1.00  0.00    -0.031 C 
BRANCH  15  16
ATOM     16  C   UNL     1      -3.121  18.477  26.911  1.00  0.00     0.027 C 
BRANCH  16  17
ATOM     17  C   UNL     1      -3.840  19.750  27.382  1.00  0.00     0.004 C 
BRANCH  17  18
ATOM     18  C   UNL     1      -3.172  21.027  26.848  1.00  0.00     0.000 C 
BRANCH  18  19
ATOM     19  C   UNL     1      -1.840  20.706  26.160  1.00  0.00    -0.003 C 
ATOM     20  C   UNL     1      -1.160  21.978  25.658  1.00  0.00     0.004 C 
ENDBRANCH  18  19
ENDBRANCH  17  18
ENDBRANCH  16  17
ENDBRANCH  15  16
ENDBRANCH  13  14
ENDBRANCH  12  13
ENDBRANCH   1  11
TORSDOF 14
ENDMDL
MODEL 7
REMARK VINA RESULT:    -4.664      1.113      2.415
REMARK INTER + INTRA:          -9.347
REMARK INTER:                  -8.349
REMARK INTRA:                  -0.998
REMARK UNBOUND:                -0.865
REMARK SMILES CCCCCC=CCC=CCCCCCCCC(=O)[O-]
REMARK SMILES IDX 11 1 12 2 13 3 14 4 15 5 16 6 17 7 18 8 19 9 20 10 10 11
REMARK SMILES IDX 9 12 8 13 7 14 6 15 5 16 4 17 3 18 2 19 1 20
REMARK H PARENT
REMARK Flexibility Score: inf
ROOT
ATOM      1  C   UNL     1       0.471  21.712  32.904  1.00  0.00     0.027 C 
ENDROOT
BRANCH   1   2
ATOM      2  C   UNL     1      -0.602  21.695  31.801  1.00  0.00     0.004 C 
BRANCH   2   3
ATOM      3  C   UNL     1      -0.421  20.582  30.748  1.00  0.00     0.000 C 
BRANCH   3   4
ATOM      4  C   UNL     1      -1.647  20.323  29.853  1.00  0.00     0.000 C 
BRANCH   4   5
ATOM      5  C   UNL     1      -1.531  19.027  29.039  1.00  0.00     0.000 C 
BRANCH   5   6
ATOM      6  C   UNL     1      -2.760  18.830  28.144  1.00  0.00     0.006 C 
BRANCH   6   7
ATOM      7  C   UNL     1      -2.459  19.245  26.699  1.00  0.00     0.053 C 
BRANCH   7   8
ATOM      8  C   UNL     1      -2.485  20.735  26.551  1.00  0.00     0.041 C 
ATOM      9  O   UNL     1      -3.448  21.402  27.008  1.00  0.00    -0.550 OA
ATOM     10  O   UNL     1      -1.431  21.391  25.928  1.00  0.00    -0.550 OA
ENDBRANCH   7   8
ENDBRANCH   6   7
ENDBRANCH   5   6
ENDBRANCH   4   5
ENDBRANCH   3   4
ENDBRANCH   2   3
ENDBRANCH   1   2
BRANCH   1  11
ATOM     11  C   UNL     1      -0.114  21.495  34.277  1.00  0.00    -0.031 C 
ATOM     12  C   UNL     1       0.258  20.517  35.125  1.00  0.00    -0.027 C 
BRANCH  12  13
ATOM     13  C   UNL     1       1.362  19.524  34.863  1.00  0.00     0.054 C 
BRANCH  13  14
ATOM     14  C   UNL     1       2.719  20.129  35.125  1.00  0.00    -0.027 C 
ATOM     15  C   UNL     1       3.765  20.059  34.282  1.00  0.00    -0.031 C 
BRANCH  15  16
ATOM     16  C   UNL     1       3.721  19.436  32.907  1.00  0.00     0.027 C 
BRANCH  16  17
ATOM     17  C   UNL     1       4.789  18.346  32.734  1.00  0.00     0.004 C 
BRANCH  17  18
ATOM     18  C   UNL     1       5.546  18.059  34.040  1.00  0.00     0.000 C 
BRANCH  18  19
ATOM     19  C   UNL     1       6.316  16.736  33.952  1.00  0.00    -0.003 C 
ATOM     20  C   UNL     1       6.621  16.372  32.501  1.00  0.00     0.004 C 
ENDBRANCH  18  19
ENDBRANCH  17  18
ENDBRANCH  16  17
ENDBRANCH  15  16
ENDBRANCH  13  14
ENDBRANCH  12  13
ENDBRANCH   1  11
TORSDOF 14
ENDMDL
MODEL 8
REMARK VINA RESULT:    -4.501      1.175      3.013
REMARK INTER + INTRA:          -9.050
REMARK INTER:                  -8.216
REMARK INTRA:                  -0.834
REMARK UNBOUND:                -0.865
REMARK SMILES CCCCCC=CCC=CCCCCCCCC(=O)[O-]
REMARK SMILES IDX 11 1 12 2 13 3 14 4 15 5 16 6 17 7 18 8 19 9 20 10 10 11
REMARK SMILES IDX 9 12 8 13 7 14 6 15 5 16 4 17 3 18 2 19 1 20
REMARK H PARENT
REMARK Flexibility Score: inf
ROOT
ATOM      1  C   UNL     1      -0.887  20.229  31.210  1.00  0.00     0.027 C 
ENDROOT
BRANCH   1   2
ATOM      2  C   UNL     1      -1.253  20.291  29.716  1.00  0.00     0.004 C 
BRANCH   2   3
ATOM      3  C   UNL     1      -0.999  18.982  28.940  1.00  0.00     0.000 C 
BRANCH   3   4
ATOM      4  C   UNL     1      -2.261  18.293  28.390  1.00  0.00     0.000 C 
BRANCH   4   5
ATOM      5  C   UNL     1      -3.378  19.284  28.033  1.00  0.00     0.000 C 
BRANCH   5   6
ATOM      6  C   UNL     1      -3.284  19.709  26.564  1.00  0.00     0.006 C 
BRANCH   6   7
ATOM      7  C   UNL     1      -2.837  21.171  26.444  1.00  0.00     0.053 C 
BRANCH   7   8
ATOM      8  C   UNL     1      -1.433  21.264  25.932  1.00  0.00     0.041 C 
ATOM      9  O   UNL     1      -1.035  22.309  25.355  1.00  0.00    -0.550 OA
ATOM     10  O   UNL     1      -0.554  20.204  26.115  1.00  0.00    -0.550 OA
ENDBRANCH   7   8
ENDBRANCH   6   7
ENDBRANCH   5   6
ENDBRANCH   4   5
ENDBRANCH   3   4
ENDBRANCH   2   3
ENDBRANCH   1   2
BRANCH   1  11
ATOM     11  C   UNL     1      -0.497  21.578  31.761  1.00  0.00    -0.031 C 
ATOM     12  C   UNL     1       0.371  21.773  32.772  1.00  0.00    -0.027 C 
BRANCH  12  13
ATOM     13  C   UNL     1       1.140  20.680  33.471  1.00  0.00     0.054 C 
BRANCH  13  14
ATOM     14  C   UNL     1       2.277  20.176  32.617  1.00  0.00    -0.027 C 
ATOM     15  C   UNL     1       3.274  19.387  33.057  1.00  0.00    -0.031 C 
BRANCH  15  16
ATOM     16  C   UNL     1       3.367  18.815  34.451  1.00  0.00     0.027 C 
BRANCH  16  17
ATOM     17  C   UNL     1       4.372  17.656  34.533  1.00  0.00     0.004 C 
BRANCH  17  18
ATOM     18  C   UNL     1       5.105  17.427  33.203  1.00  0.00     0.000 C 
BRANCH  18  19
ATOM     19  C   UNL     1       6.417  16.662  33.421  1.00  0.00    -0.003 C 
ATOM     20  C   UNL     1       6.956  16.108  32.104  1.00  0.00     0.004 C 
ENDBRANCH  18  19
ENDBRANCH  17  18
ENDBRANCH  16  17
ENDBRANCH  15  16
ENDBRANCH  13  14
ENDBRANCH  12  13
ENDBRANCH   1  11
TORSDOF 14
ENDMDL
MODEL 9
REMARK VINA RESULT:    -4.478     16.031     20.096
REMARK INTER + INTRA:          -9.008
REMARK INTER:                  -8.817
REMARK INTRA:                  -0.191
REMARK UNBOUND:                -0.865
REMARK SMILES CCCCCC=CCC=CCCCCCCCC(=O)[O-]
REMARK SMILES IDX 11 1 12 2 13 3 14 4 15 5 16 6 17 7 18 8 19 9 20 10 10 11
REMARK SMILES IDX 9 12 8 13 7 14 6 15 5 16 4 17 3 18 2 19 1 20
REMARK H PARENT
REMARK Flexibility Score: inf
ROOT
ATOM      1  C   UNL     1       4.918  10.130  14.963  1.00  0.00     0.027 C 
ENDROOT
BRANCH   1   2
ATOM      2  C   UNL     1       6.435   9.962  15.162  1.00  0.00     0.004 C 
BRANCH   2   3
ATOM      3  C   UNL     1       7.074  10.991  16.117  1.00  0.00     0.000 C 
BRANCH   3   4
ATOM      4  C   UNL     1       8.613  10.965  16.171  1.00  0.00     0.000 C 
BRANCH   4   5
ATOM      5  C   UNL     1       9.249  10.420  14.885  1.00  0.00     0.000 C 
BRANCH   5   6
ATOM      6  C   UNL     1       9.566   8.927  15.020  1.00  0.00     0.006 C 
BRANCH   6   7
ATOM      7  C   UNL     1      11.075   8.675  14.924  1.00  0.00     0.053 C 
BRANCH   7   8
ATOM      8  C   UNL     1      11.645   8.302  16.257  1.00  0.00     0.041 C 
ATOM      9  O   UNL     1      12.682   7.593  16.330  1.00  0.00    -0.550 OA
ATOM     10  O   UNL     1      11.043   8.758  17.423  1.00  0.00    -0.550 OA
ENDBRANCH   7   8
ENDBRANCH   6   7
ENDBRANCH   5   6
ENDBRANCH   4   5
ENDBRANCH   3   4
ENDBRANCH   2   3
ENDBRANCH   1   2
BRANCH   1  11
ATOM     11  C   UNL     1       4.138   9.819  16.215  1.00  0.00    -0.031 C 
ATOM     12  C   UNL     1       2.893   9.306  16.238  1.00  0.00    -0.027 C 
BRANCH  12  13
ATOM     13  C   UNL     1       2.107   8.899  15.017  1.00  0.00     0.054 C 
BRANCH  13  14
ATOM     14  C   UNL     1       0.986   7.955  15.374  1.00  0.00    -0.027 C 
ATOM     15  C   UNL     1       0.062   8.187  16.325  1.00  0.00    -0.031 C 
BRANCH  15  16
ATOM     16  C   UNL     1      -0.047   9.464  17.124  1.00  0.00     0.027 C 
BRANCH  16  17
ATOM     17  C   UNL     1      -1.241   9.439  18.090  1.00  0.00     0.004 C 
BRANCH  17  18
ATOM     18  C   UNL     1      -1.288  10.683  18.990  1.00  0.00     0.000 C 
BRANCH  18  19
ATOM     19  C   UNL     1      -2.190  10.450  20.208  1.00  0.00    -0.003 C 
ATOM     20  C   UNL     1      -1.574   9.428  21.161  1.00  0.00     0.004 C 
ENDBRANCH  18  19
ENDBRANCH  17  18
ENDBRANCH  16  17
ENDBRANCH  15  16
ENDBRANCH  13  14
ENDBRANCH  12  13
ENDBRANCH   1  11
TORSDOF 14
ENDMDL
