MODEL 1
REMARK VINA RESULT:    -5.263      0.000      0.000
REMARK INTER + INTRA:          -6.459
REMARK INTER:                  -6.186
REMARK INTRA:                  -0.273
REMARK UNBOUND:                -0.273
REMARK SMILES O=c1c(O)c(-c2ccc(O)cc2)oc2cc(O)cc(O)c12
REMARK SMILES IDX 5 1 3 2 2 3 1 4 21 5 19 6 18 7 16 8 15 9 14 10 13 11 6 12
REMARK SMILES IDX 7 13 8 14 9 15 12 16 11 17 10 18 4 20 20 22 17 24
REMARK H PARENT 10 19 4 21 20 23 17 25
REMARK Flexibility Score: inf
ROOT
ATOM      1  C   UNL     1      15.390  34.828  52.565  1.00  0.00     0.180 A 
ATOM      2  C   UNL     1      16.490  34.072  53.010  1.00  0.00     0.208 A 
ATOM      3  C   UNL     1      16.339  33.248  54.136  1.00  0.00     0.238 A 
ATOM      4  O   UNL     1      17.304  32.518  54.483  1.00  0.00    -0.285 OA
ATOM      5  C   UNL     1      15.110  33.232  54.838  1.00  0.00     0.111 A 
ATOM      6  C   UNL     1      14.858  32.469  56.019  1.00  0.00     0.134 A 
ATOM      7  C   UNL     1      13.569  32.449  56.567  1.00  0.00     0.093 A 
ATOM      8  C   UNL     1      12.541  33.211  56.017  1.00  0.00     0.123 A 
ATOM      9  C   UNL     1      12.788  34.004  54.896  1.00  0.00     0.094 A 
ATOM     10  C   UNL     1      14.053  34.016  54.303  1.00  0.00     0.146 A 
ATOM     11  O   UNL     1      14.240  34.767  53.225  1.00  0.00    -0.452 OA
ENDROOT
BRANCH   1  12
ATOM     12  C   UNL     1      15.468  35.708  51.377  1.00  0.00     0.021 A 
ATOM     13  C   UNL     1      15.755  37.081  51.498  1.00  0.00     0.016 A 
ATOM     14  C   UNL     1      15.849  37.886  50.359  1.00  0.00     0.047 A 
ATOM     15  C   UNL     1      15.671  37.330  49.086  1.00  0.00     0.115 A 
ATOM     16  C   UNL     1      15.313  35.154  50.095  1.00  0.00     0.016 A 
ATOM     17  C   UNL     1      15.406  35.963  48.958  1.00  0.00     0.047 A 
BRANCH  15  18
ATOM     18  O   UNL     1      15.760  38.123  47.945  1.00  0.00    -0.508 OA
ATOM     19  H   UNL     1      16.317  38.970  47.932  1.00  0.00     0.293 HD
ENDBRANCH  15  18
ENDBRANCH   1  12
BRANCH   2  20
ATOM     20  O   UNL     1      17.717  34.161  52.348  1.00  0.00    -0.502 OA
ATOM     21  H   UNL     1      18.192  35.044  52.196  1.00  0.00     0.293 HD
ENDBRANCH   2  20
BRANCH   6  22
ATOM     22  O   UNL     1      15.835  31.739  56.703  1.00  0.00    -0.507 OA
ATOM     23  H   UNL     1      15.708  30.811  57.075  1.00  0.00     0.293 HD
ENDBRANCH   6  22
BRANCH   8  24
ATOM     24  O   UNL     1      11.275  33.181  56.600  1.00  0.00    -0.508 OA
ATOM     25  H   UNL     1      10.556  33.848  56.342  1.00  0.00     0.293 HD
ENDBRANCH   8  24
TORSDOF 5
ENDMDL
MODEL 2
REMARK VINA RESULT:    -5.102      1.740      3.541
REMARK INTER + INTRA:          -6.269
REMARK INTER:                  -5.995
REMARK INTRA:                  -0.274
REMARK UNBOUND:                -0.273
REMARK SMILES O=c1c(O)c(-c2ccc(O)cc2)oc2cc(O)cc(O)c12
REMARK SMILES IDX 5 1 3 2 2 3 1 4 21 5 19 6 18 7 16 8 15 9 14 10 13 11 6 12
REMARK SMILES IDX 7 13 8 14 9 15 12 16 11 17 10 18 4 20 20 22 17 24
REMARK H PARENT 10 19 4 21 20 23 17 25
REMARK Flexibility Score: inf
ROOT
ATOM      1  C   UNL     1      14.245  33.871  54.054  1.00  0.00     0.180 A 
ATOM      2  C   UNL     1      12.912  34.016  54.476  1.00  0.00     0.208 A 
ATOM      3  C   UNL     1      12.546  33.550  55.749  1.00  0.00     0.238 A 
ATOM      4  O   UNL     1      11.371  33.751  56.150  1.00  0.00    -0.285 OA
ATOM      5  C   UNL     1      13.503  32.894  56.562  1.00  0.00     0.111 A 
ATOM      6  C   UNL     1      13.232  32.342  57.851  1.00  0.00     0.134 A 
ATOM      7  C   UNL     1      14.283  31.810  58.608  1.00  0.00     0.093 A 
ATOM      8  C   UNL     1      15.580  31.753  58.102  1.00  0.00     0.123 A 
ATOM      9  C   UNL     1      15.846  32.239  56.821  1.00  0.00     0.094 A 
ATOM     10  C   UNL     1      14.827  32.811  56.055  1.00  0.00     0.146 A 
ATOM     11  O   UNL     1      15.127  33.281  54.851  1.00  0.00    -0.452 OA
ENDROOT
BRANCH   1  12
ATOM     12  C   UNL     1      14.709  34.350  52.732  1.00  0.00     0.021 A 
ATOM     13  C   UNL     1      15.385  35.576  52.591  1.00  0.00     0.016 A 
ATOM     14  C   UNL     1      15.837  35.993  51.335  1.00  0.00     0.047 A 
ATOM     15  C   UNL     1      15.631  35.187  50.208  1.00  0.00     0.115 A 
ATOM     16  C   UNL     1      14.526  33.537  51.600  1.00  0.00     0.016 A 
ATOM     17  C   UNL     1      14.978  33.959  50.346  1.00  0.00     0.047 A 
BRANCH  15  18
ATOM     18  O   UNL     1      16.075  35.594  48.952  1.00  0.00    -0.508 OA
ATOM     19  H   UNL     1      16.302  36.563  48.759  1.00  0.00     0.293 HD
ENDBRANCH  15  18
ENDBRANCH   1  12
BRANCH   2  20
ATOM     20  O   UNL     1      11.965  34.597  53.629  1.00  0.00    -0.502 OA
ATOM     21  H   UNL     1      12.105  35.503  53.196  1.00  0.00     0.293 HD
ENDBRANCH   2  20
BRANCH   6  22
ATOM     22  O   UNL     1      11.957  32.267  58.419  1.00  0.00    -0.507 OA
ATOM     23  H   UNL     1      11.094  32.428  57.923  1.00  0.00     0.293 HD
ENDBRANCH   6  22
BRANCH   8  24
ATOM     24  O   UNL     1      16.598  31.200  58.877  1.00  0.00    -0.508 OA
ATOM     25  H   UNL     1      16.669  31.389  59.870  1.00  0.00     0.293 HD
ENDBRANCH   8  24
TORSDOF 5
ENDMDL
MODEL 3
REMARK VINA RESULT:    -5.054      4.921      7.927
REMARK INTER + INTRA:          -6.214
REMARK INTER:                  -5.916
REMARK INTRA:                  -0.297
REMARK UNBOUND:                -0.273
REMARK SMILES O=c1c(O)c(-c2ccc(O)cc2)oc2cc(O)cc(O)c12
REMARK SMILES IDX 5 1 3 2 2 3 1 4 21 5 19 6 18 7 16 8 15 9 14 10 13 11 6 12
REMARK SMILES IDX 7 13 8 14 9 15 12 16 11 17 10 18 4 20 20 22 17 24
REMARK H PARENT 10 19 4 21 20 23 17 25
REMARK Flexibility Score: inf
ROOT
ATOM      1  C   UNL     1      11.609  36.185  48.293  1.00  0.00     0.180 A 
ATOM      2  C   UNL     1      12.327  36.194  47.085  1.00  0.00     0.208 A 
ATOM      3  C   UNL     1      13.681  36.564  47.100  1.00  0.00     0.238 A 
ATOM      4  O   UNL     1      14.337  36.496  46.028  1.00  0.00    -0.285 OA
ATOM      5  C   UNL     1      14.287  36.974  48.313  1.00  0.00     0.111 A 
ATOM      6  C   UNL     1      15.640  37.411  48.438  1.00  0.00     0.134 A 
ATOM      7  C   UNL     1      16.160  37.692  49.708  1.00  0.00     0.093 A 
ATOM      8  C   UNL     1      15.363  37.612  50.848  1.00  0.00     0.123 A 
ATOM      9  C   UNL     1      14.023  37.238  50.731  1.00  0.00     0.094 A 
ATOM     10  C   UNL     1      13.484  36.915  49.484  1.00  0.00     0.146 A 
ATOM     11  O   UNL     1      12.212  36.544  49.420  1.00  0.00    -0.452 OA
ENDROOT
BRANCH   1  12
ATOM     12  C   UNL     1      10.182  35.795  48.359  1.00  0.00     0.021 A 
ATOM     13  C   UNL     1       9.795  34.451  48.514  1.00  0.00     0.016 A 
ATOM     14  C   UNL     1       8.442  34.110  48.600  1.00  0.00     0.047 A 
ATOM     15  C   UNL     1       7.459  35.107  48.545  1.00  0.00     0.115 A 
ATOM     16  C   UNL     1       9.191  36.790  48.327  1.00  0.00     0.016 A 
ATOM     17  C   UNL     1       7.838  36.446  48.411  1.00  0.00     0.047 A 
BRANCH  15  18
ATOM     18  O   UNL     1       6.108  34.780  48.627  1.00  0.00    -0.508 OA
ATOM     19  H   UNL     1       5.555  34.600  47.796  1.00  0.00     0.293 HD
ENDBRANCH  15  18
ENDBRANCH   1  12
BRANCH   2  20
ATOM     20  O   UNL     1      11.691  35.860  45.887  1.00  0.00    -0.502 OA
ATOM     21  H   UNL     1      11.720  36.458  45.069  1.00  0.00     0.293 HD
ENDBRANCH   2  20
BRANCH   6  22
ATOM     22  O   UNL     1      16.502  37.611  47.356  1.00  0.00    -0.507 OA
ATOM     23  H   UNL     1      16.946  36.876  46.828  1.00  0.00     0.293 HD
ENDBRANCH   6  22
BRANCH   8  24
ATOM     24  O   UNL     1      15.909  37.916  52.093  1.00  0.00    -0.508 OA
ATOM     25  H   UNL     1      16.657  37.361  52.493  1.00  0.00     0.293 HD
ENDBRANCH   8  24
TORSDOF 5
ENDMDL
MODEL 4
REMARK VINA RESULT:    -4.970      1.861      7.058
REMARK INTER + INTRA:          -6.114
REMARK INTER:                  -5.834
REMARK INTRA:                  -0.280
REMARK UNBOUND:                -0.273
REMARK SMILES O=c1c(O)c(-c2ccc(O)cc2)oc2cc(O)cc(O)c12
REMARK SMILES IDX 5 1 3 2 2 3 1 4 21 5 19 6 18 7 16 8 15 9 14 10 13 11 6 12
REMARK SMILES IDX 7 13 8 14 9 15 12 16 11 17 10 18 4 20 20 22 17 24
REMARK H PARENT 10 19 4 21 20 23 17 25
REMARK Flexibility Score: inf
ROOT
ATOM      1  C   UNL     1      14.142  34.087  53.377  1.00  0.00     0.180 A 
ATOM      2  C   UNL     1      12.964  34.030  52.612  1.00  0.00     0.208 A 
ATOM      3  C   UNL     1      12.855  34.837  51.468  1.00  0.00     0.238 A 
ATOM      4  O   UNL     1      11.830  34.725  50.747  1.00  0.00    -0.285 OA
ATOM      5  C   UNL     1      13.901  35.731  51.133  1.00  0.00     0.111 A 
ATOM      6  C   UNL     1      13.879  36.627  50.022  1.00  0.00     0.134 A 
ATOM      7  C   UNL     1      15.017  37.390  49.728  1.00  0.00     0.093 A 
ATOM      8  C   UNL     1      16.149  37.338  50.538  1.00  0.00     0.123 A 
ATOM      9  C   UNL     1      16.161  36.506  51.659  1.00  0.00     0.094 A 
ATOM     10  C   UNL     1      15.057  35.704  51.957  1.00  0.00     0.146 A 
ATOM     11  O   UNL     1      15.119  34.912  53.020  1.00  0.00    -0.452 OA
ENDROOT
BRANCH   1  12
ATOM     12  C   UNL     1      14.336  33.257  54.588  1.00  0.00     0.021 A 
ATOM     13  C   UNL     1      15.045  32.043  54.540  1.00  0.00     0.016 A 
ATOM     14  C   UNL     1      15.238  31.291  55.703  1.00  0.00     0.047 A 
ATOM     15  C   UNL     1      14.735  31.747  56.929  1.00  0.00     0.115 A 
ATOM     16  C   UNL     1      13.855  33.718  55.825  1.00  0.00     0.016 A 
ATOM     17  C   UNL     1      14.047  32.963  56.986  1.00  0.00     0.047 A 
BRANCH  15  18
ATOM     18  O   UNL     1      14.919  31.005  58.093  1.00  0.00    -0.508 OA
ATOM     19  H   UNL     1      14.132  30.686  58.647  1.00  0.00     0.293 HD
ENDBRANCH  15  18
ENDBRANCH   1  12
BRANCH   2  20
ATOM     20  O   UNL     1      11.912  33.197  53.002  1.00  0.00    -0.502 OA
ATOM     21  H   UNL     1      11.924  32.196  52.844  1.00  0.00     0.293 HD
ENDBRANCH   2  20
BRANCH   6  22
ATOM     22  O   UNL     1      12.768  36.825  49.197  1.00  0.00    -0.507 OA
ATOM     23  H   UNL     1      12.241  37.682  49.134  1.00  0.00     0.293 HD
ENDBRANCH   6  22
BRANCH   8  24
ATOM     24  O   UNL     1      17.256  38.125  50.225  1.00  0.00    -0.508 OA
ATOM     25  H   UNL     1      18.164  37.713  50.043  1.00  0.00     0.293 HD
ENDBRANCH   8  24
TORSDOF 5
ENDMDL
MODEL 5
REMARK VINA RESULT:    -4.930      1.599      2.034
REMARK INTER + INTRA:          -6.068
REMARK INTER:                  -5.781
REMARK INTRA:                  -0.287
REMARK UNBOUND:                -0.273
REMARK SMILES O=c1c(O)c(-c2ccc(O)cc2)oc2cc(O)cc(O)c12
REMARK SMILES IDX 5 1 3 2 2 3 1 4 21 5 19 6 18 7 16 8 15 9 14 10 13 11 6 12
REMARK SMILES IDX 7 13 8 14 9 15 12 16 11 17 10 18 4 20 20 22 17 24
REMARK H PARENT 10 19 4 21 20 23 17 25
REMARK Flexibility Score: inf
ROOT
ATOM      1  C   UNL     1      14.012  34.556  52.009  1.00  0.00     0.180 A 
ATOM      2  C   UNL     1      15.300  34.243  52.478  1.00  0.00     0.208 A 
ATOM      3  C   UNL     1      15.447  33.746  53.783  1.00  0.00     0.238 A 
ATOM      4  O   UNL     1      16.592  33.397  54.170  1.00  0.00    -0.285 OA
ATOM      5  C   UNL     1      14.314  33.622  54.622  1.00  0.00     0.111 A 
ATOM      6  C   UNL     1      14.351  33.172  55.977  1.00  0.00     0.134 A 
ATOM      7  C   UNL     1      13.151  32.988  56.677  1.00  0.00     0.093 A 
ATOM      8  C   UNL     1      11.923  33.296  56.096  1.00  0.00     0.123 A 
ATOM      9  C   UNL     1      11.878  33.789  54.791  1.00  0.00     0.094 A 
ATOM     10  C   UNL     1      13.053  33.947  54.053  1.00  0.00     0.146 A 
ATOM     11  O   UNL     1      12.964  34.398  52.808  1.00  0.00    -0.452 OA
ENDROOT
BRANCH   1  12
ATOM     12  C   UNL     1      13.776  35.071  50.641  1.00  0.00     0.021 A 
ATOM     13  C   UNL     1      13.420  34.212  49.584  1.00  0.00     0.016 A 
ATOM     14  C   UNL     1      13.176  34.726  48.307  1.00  0.00     0.047 A 
ATOM     15  C   UNL     1      13.272  36.104  48.072  1.00  0.00     0.115 A 
ATOM     16  C   UNL     1      13.848  36.454  50.401  1.00  0.00     0.016 A 
ATOM     17  C   UNL     1      13.605  36.964  49.122  1.00  0.00     0.047 A 
BRANCH  15  18
ATOM     18  O   UNL     1      13.034  36.627  46.803  1.00  0.00    -0.508 OA
ATOM     19  H   UNL     1      13.793  36.942  46.209  1.00  0.00     0.293 HD
ENDBRANCH  15  18
ENDBRANCH   1  12
BRANCH   2  20
ATOM     20  O   UNL     1      16.415  34.445  51.660  1.00  0.00    -0.502 OA
ATOM     21  H   UNL     1      16.822  35.361  51.511  1.00  0.00     0.293 HD
ENDBRANCH   2  20
BRANCH   6  22
ATOM     22  O   UNL     1      15.529  32.918  56.686  1.00  0.00    -0.507 OA
ATOM     23  H   UNL     1      15.696  32.103  57.255  1.00  0.00     0.293 HD
ENDBRANCH   6  22
BRANCH   8  24
ATOM     24  O   UNL     1      10.751  33.118  56.828  1.00  0.00    -0.508 OA
ATOM     25  H   UNL     1      10.648  32.353  57.486  1.00  0.00     0.293 HD
ENDBRANCH   8  24
TORSDOF 5
ENDMDL
MODEL 6
REMARK VINA RESULT:    -4.826      3.933      6.388
REMARK INTER + INTRA:          -5.946
REMARK INTER:                  -6.449
REMARK INTRA:                   0.503
REMARK UNBOUND:                -0.273
REMARK SMILES O=c1c(O)c(-c2ccc(O)cc2)oc2cc(O)cc(O)c12
REMARK SMILES IDX 5 1 3 2 2 3 1 4 21 5 19 6 18 7 16 8 15 9 14 10 13 11 6 12
REMARK SMILES IDX 7 13 8 14 9 15 12 16 11 17 10 18 4 20 20 22 17 24
REMARK H PARENT 10 19 4 21 20 23 17 25
REMARK Flexibility Score: inf
ROOT
ATOM      1  C   UNL     1      14.299  32.186  57.886  1.00  0.00     0.180 A 
ATOM      2  C   UNL     1      15.697  32.060  57.969  1.00  0.00     0.208 A 
ATOM      3  C   UNL     1      16.257  31.391  59.069  1.00  0.00     0.238 A 
ATOM      4  O   UNL     1      17.503  31.216  59.098  1.00  0.00    -0.285 OA
ATOM      5  C   UNL     1      15.418  30.905  60.101  1.00  0.00     0.111 A 
ATOM      6  C   UNL     1      15.879  30.251  61.283  1.00  0.00     0.134 A 
ATOM      7  C   UNL     1      14.949  29.718  62.185  1.00  0.00     0.093 A 
ATOM      8  C   UNL     1      13.579  29.870  61.981  1.00  0.00     0.123 A 
ATOM      9  C   UNL     1      13.117  30.556  60.857  1.00  0.00     0.094 A 
ATOM     10  C   UNL     1      14.018  31.065  59.919  1.00  0.00     0.146 A 
ATOM     11  O   UNL     1      13.536  31.692  58.853  1.00  0.00    -0.452 OA
ENDROOT
BRANCH   1  12
ATOM     12  C   UNL     1      13.635  32.866  56.751  1.00  0.00     0.021 A 
ATOM     13  C   UNL     1      14.379  33.454  55.711  1.00  0.00     0.016 A 
ATOM     14  C   UNL     1      13.728  34.067  54.636  1.00  0.00     0.047 A 
ATOM     15  C   UNL     1      12.328  34.090  54.580  1.00  0.00     0.115 A 
ATOM     16  C   UNL     1      12.232  32.874  56.676  1.00  0.00     0.016 A 
ATOM     17  C   UNL     1      11.584  33.490  55.600  1.00  0.00     0.047 A 
BRANCH  15  18
ATOM     18  O   UNL     1      11.669  34.700  53.515  1.00  0.00    -0.508 OA
ATOM     19  H   UNL     1      12.157  35.310  52.870  1.00  0.00     0.293 HD
ENDBRANCH  15  18
ENDBRANCH   1  12
BRANCH   2  20
ATOM     20  O   UNL     1      16.513  32.613  56.978  1.00  0.00    -0.502 OA
ATOM     21  H   UNL     1      16.200  33.362  56.371  1.00  0.00     0.293 HD
ENDBRANCH   2  20
BRANCH   6  22
ATOM     22  O   UNL     1      17.226  30.121  61.631  1.00  0.00    -0.507 OA
ATOM     23  H   UNL     1      17.567  29.941  62.563  1.00  0.00     0.293 HD
ENDBRANCH   6  22
BRANCH   8  24
ATOM     24  O   UNL     1      12.682  29.343  62.909  1.00  0.00    -0.508 OA
ATOM     25  H   UNL     1      12.290  28.415  62.799  1.00  0.00     0.293 HD
ENDBRANCH   8  24
TORSDOF 5
ENDMDL
MODEL 7
REMARK VINA RESULT:    -4.786      4.133      7.020
REMARK INTER + INTRA:          -5.898
REMARK INTER:                  -5.826
REMARK INTRA:                  -0.072
REMARK UNBOUND:                -0.273
REMARK SMILES O=c1c(O)c(-c2ccc(O)cc2)oc2cc(O)cc(O)c12
REMARK SMILES IDX 5 1 3 2 2 3 1 4 21 5 19 6 18 7 16 8 15 9 14 10 13 11 6 12
REMARK SMILES IDX 7 13 8 14 9 15 12 16 11 17 10 18 4 20 20 22 17 24
REMARK H PARENT 10 19 4 21 20 23 17 25
REMARK Flexibility Score: inf
ROOT
ATOM      1  C   UNL     1      15.688  31.954  57.950  1.00  0.00     0.180 A 
ATOM      2  C   UNL     1      15.003  30.968  58.681  1.00  0.00     0.208 A 
ATOM      3  C   UNL     1      15.605  30.428  59.828  1.00  0.00     0.238 A 
ATOM      4  O   UNL     1      14.955  29.601  60.519  1.00  0.00    -0.285 OA
ATOM      5  C   UNL     1      16.909  30.838  60.199  1.00  0.00     0.111 A 
ATOM      6  C   UNL     1      17.635  30.325  61.317  1.00  0.00     0.134 A 
ATOM      7  C   UNL     1      18.876  30.883  61.649  1.00  0.00     0.093 A 
ATOM      8  C   UNL     1      19.445  31.889  60.871  1.00  0.00     0.123 A 
ATOM      9  C   UNL     1      18.770  32.360  59.744  1.00  0.00     0.094 A 
ATOM     10  C   UNL     1      17.513  31.851  59.408  1.00  0.00     0.146 A 
ATOM     11  O   UNL     1      16.895  32.342  58.341  1.00  0.00    -0.452 OA
ENDROOT
BRANCH   1  12
ATOM     12  C   UNL     1      15.111  32.580  56.738  1.00  0.00     0.021 A 
ATOM     13  C   UNL     1      13.871  33.243  56.774  1.00  0.00     0.016 A 
ATOM     14  C   UNL     1      13.360  33.849  55.622  1.00  0.00     0.047 A 
ATOM     15  C   UNL     1      14.086  33.811  54.425  1.00  0.00     0.115 A 
ATOM     16  C   UNL     1      15.843  32.565  55.539  1.00  0.00     0.016 A 
ATOM     17  C   UNL     1      15.329  33.171  54.388  1.00  0.00     0.047 A 
BRANCH  15  18
ATOM     18  O   UNL     1      13.587  34.409  53.271  1.00  0.00    -0.508 OA
ATOM     19  H   UNL     1      13.609  33.934  52.375  1.00  0.00     0.293 HD
ENDBRANCH  15  18
ENDBRANCH   1  12
BRANCH   2  20
ATOM     20  O   UNL     1      13.749  30.521  58.255  1.00  0.00    -0.502 OA
ATOM     21  H   UNL     1      12.891  31.015  58.474  1.00  0.00     0.293 HD
ENDBRANCH   2  20
BRANCH   6  22
ATOM     22  O   UNL     1      17.200  29.261  62.112  1.00  0.00    -0.507 OA
ATOM     23  H   UNL     1      17.070  28.314  61.789  1.00  0.00     0.293 HD
ENDBRANCH   6  22
BRANCH   8  24
ATOM     24  O   UNL     1      20.690  32.409  61.221  1.00  0.00    -0.508 OA
ATOM     25  H   UNL     1      21.068  33.232  60.766  1.00  0.00     0.293 HD
ENDBRANCH   8  24
TORSDOF 5
ENDMDL
MODEL 8
REMARK VINA RESULT:    -4.761      1.265      2.900
REMARK INTER + INTRA:          -5.869
REMARK INTER:                  -5.572
REMARK INTRA:                  -0.297
REMARK UNBOUND:                -0.273
REMARK SMILES O=c1c(O)c(-c2ccc(O)cc2)oc2cc(O)cc(O)c12
REMARK SMILES IDX 5 1 3 2 2 3 1 4 21 5 19 6 18 7 16 8 15 9 14 10 13 11 6 12
REMARK SMILES IDX 7 13 8 14 9 15 12 16 11 17 10 18 4 20 20 22 17 24
REMARK H PARENT 10 19 4 21 20 23 17 25
REMARK Flexibility Score: inf
ROOT
ATOM      1  C   UNL     1      14.769  34.784  52.511  1.00  0.00     0.180 A 
ATOM      2  C   UNL     1      13.432  34.580  52.895  1.00  0.00     0.208 A 
ATOM      3  C   UNL     1      13.157  33.729  53.977  1.00  0.00     0.238 A 
ATOM      4  O   UNL     1      11.965  33.610  54.363  1.00  0.00    -0.285 OA
ATOM      5  C   UNL     1      14.216  33.049  54.627  1.00  0.00     0.111 A 
ATOM      6  C   UNL     1      14.050  32.129  55.706  1.00  0.00     0.134 A 
ATOM      7  C   UNL     1      15.180  31.598  56.340  1.00  0.00     0.093 A 
ATOM      8  C   UNL     1      16.465  31.902  55.897  1.00  0.00     0.123 A 
ATOM      9  C   UNL     1      16.639  32.757  54.808  1.00  0.00     0.094 A 
ATOM     10  C   UNL     1      15.533  33.334  54.178  1.00  0.00     0.146 A 
ATOM     11  O   UNL     1      15.743  34.158  53.160  1.00  0.00    -0.452 OA
ENDROOT
BRANCH   1  12
ATOM     12  C   UNL     1      15.139  35.677  51.389  1.00  0.00     0.021 A 
ATOM     13  C   UNL     1      15.413  37.042  51.596  1.00  0.00     0.016 A 
ATOM     14  C   UNL     1      15.786  37.858  50.524  1.00  0.00     0.047 A 
ATOM     15  C   UNL     1      15.901  37.321  49.235  1.00  0.00     0.115 A 
ATOM     16  C   UNL     1      15.279  35.141  50.097  1.00  0.00     0.016 A 
ATOM     17  C   UNL     1      15.651  35.961  49.027  1.00  0.00     0.047 A 
BRANCH  15  18
ATOM     18  O   UNL     1      16.270  38.125  48.160  1.00  0.00    -0.508 OA
ATOM     19  H   UNL     1      17.065  38.753  48.216  1.00  0.00     0.293 HD
ENDBRANCH  15  18
ENDBRANCH   1  12
BRANCH   2  20
ATOM     20  O   UNL     1      12.396  35.200  52.192  1.00  0.00    -0.502 OA
ATOM     21  H   UNL     1      11.419  35.054  52.420  1.00  0.00     0.293 HD
ENDBRANCH   2  20
BRANCH   6  22
ATOM     22  O   UNL     1      12.809  31.686  56.173  1.00  0.00    -0.507 OA
ATOM     23  H   UNL     1      12.336  32.047  56.988  1.00  0.00     0.293 HD
ENDBRANCH   6  22
BRANCH   8  24
ATOM     24  O   UNL     1      17.566  31.341  56.541  1.00  0.00    -0.508 OA
ATOM     25  H   UNL     1      17.615  31.279  57.552  1.00  0.00     0.293 HD
ENDBRANCH   8  24
TORSDOF 5
ENDMDL
MODEL 9
REMARK VINA RESULT:    -4.707      2.230      6.153
REMARK INTER + INTRA:          -5.805
REMARK INTER:                  -5.585
REMARK INTRA:                  -0.220
REMARK UNBOUND:                -0.273
REMARK SMILES O=c1c(O)c(-c2ccc(O)cc2)oc2cc(O)cc(O)c12
REMARK SMILES IDX 5 1 3 2 2 3 1 4 21 5 19 6 18 7 16 8 15 9 14 10 13 11 6 12
REMARK SMILES IDX 7 13 8 14 9 15 12 16 11 17 10 18 4 20 20 22 17 24
REMARK H PARENT 10 19 4 21 20 23 17 25
REMARK Flexibility Score: inf
ROOT
ATOM      1  C   UNL     1      12.851  33.188  54.369  1.00  0.00     0.180 A 
ATOM      2  C   UNL     1      13.709  32.302  55.043  1.00  0.00     0.208 A 
ATOM      3  C   UNL     1      15.091  32.385  54.814  1.00  0.00     0.238 A 
ATOM      4  O   UNL     1      15.859  31.641  55.478  1.00  0.00    -0.285 OA
ATOM      5  C   UNL     1      15.595  33.315  53.872  1.00  0.00     0.111 A 
ATOM      6  C   UNL     1      16.974  33.457  53.528  1.00  0.00     0.134 A 
ATOM      7  C   UNL     1      17.366  34.484  52.660  1.00  0.00     0.093 A 
ATOM      8  C   UNL     1      16.428  35.332  52.076  1.00  0.00     0.123 A 
ATOM      9  C   UNL     1      15.072  35.169  52.363  1.00  0.00     0.094 A 
ATOM     10  C   UNL     1      14.652  34.178  53.254  1.00  0.00     0.146 A 
ATOM     11  O   UNL     1      13.355  34.070  53.516  1.00  0.00    -0.452 OA
ENDROOT
BRANCH   1  12
ATOM     12  C   UNL     1      11.384  33.169  54.569  1.00  0.00     0.021 A 
ATOM     13  C   UNL     1      10.799  33.633  55.762  1.00  0.00     0.016 A 
ATOM     14  C   UNL     1       9.410  33.630  55.916  1.00  0.00     0.047 A 
ATOM     15  C   UNL     1       8.587  33.175  54.877  1.00  0.00     0.115 A 
ATOM     16  C   UNL     1      10.550  32.736  53.524  1.00  0.00     0.016 A 
ATOM     17  C   UNL     1       9.160  32.733  53.682  1.00  0.00     0.047 A 
BRANCH  15  18
ATOM     18  O   UNL     1       7.201  33.166  55.020  1.00  0.00    -0.508 OA
ATOM     19  H   UNL     1       6.688  34.007  55.260  1.00  0.00     0.293 HD
ENDBRANCH  15  18
ENDBRANCH   1  12
BRANCH   2  20
ATOM     20  O   UNL     1      13.185  31.340  55.912  1.00  0.00    -0.502 OA
ATOM     21  H   UNL     1      13.187  31.457  56.919  1.00  0.00     0.293 HD
ENDBRANCH   2  20
BRANCH   6  22
ATOM     22  O   UNL     1      17.986  32.608  53.984  1.00  0.00    -0.507 OA
ATOM     23  H   UNL     1      18.623  32.820  54.736  1.00  0.00     0.293 HD
ENDBRANCH   6  22
BRANCH   8  24
ATOM     24  O   UNL     1      16.854  36.332  51.203  1.00  0.00    -0.508 OA
ATOM     25  H   UNL     1      17.784  36.324  50.801  1.00  0.00     0.293 HD
ENDBRANCH   8  24
TORSDOF 5
ENDMDL
