MODEL 1
REMARK VINA RESULT:    -3.571      0.000      0.000
REMARK INTER + INTRA:          -5.631
REMARK INTER:                  -5.033
REMARK INTRA:                  -0.599
REMARK UNBOUND:                -0.599
REMARK SMILES C=CCCCCCCC(=O)[O-]
REMARK SMILES IDX 6 1 7 2 8 3 9 4 10 5 11 6 5 7 4 8 3 9 2 10 1 11
REMARK H PARENT
REMARK Flexibility Score: inf
ROOT
ATOM      1  C   UNL     1       2.025  -7.793  -9.526  1.00  0.00     0.000 C 
ENDROOT
BRANCH   1   2
ATOM      2  C   UNL     1       2.589  -6.748  -8.546  1.00  0.00     0.006 C 
BRANCH   2   3
ATOM      3  C   UNL     1       2.534  -5.328  -9.122  1.00  0.00     0.053 C 
BRANCH   3   4
ATOM      4  C   UNL     1       1.822  -4.382  -8.204  1.00  0.00     0.041 C 
ATOM      5  O   UNL     1       1.712  -4.649  -6.979  1.00  0.00    -0.550 OA
ATOM      6  O   UNL     1       1.253  -3.220  -8.708  1.00  0.00    -0.550 OA
ENDBRANCH   3   4
ENDBRANCH   2   3
ENDBRANCH   1   2
BRANCH   1   7
ATOM      7  C   UNL     1       2.922  -9.036  -9.645  1.00  0.00     0.000 C 
BRANCH   7   8
ATOM      8  C   UNL     1       3.946  -9.140  -8.504  1.00  0.00     0.004 C 
BRANCH   8   9
ATOM      9  C   UNL     1       5.378  -9.086  -9.048  1.00  0.00     0.027 C 
BRANCH   9  10
ATOM     10  C   UNL     1       6.143  -7.933  -8.458  1.00  0.00    -0.035 C 
ATOM     11  C   UNL     1       6.366  -6.810  -9.147  1.00  0.00     0.004 C 
ENDBRANCH   9  10
ENDBRANCH   8   9
ENDBRANCH   7   8
ENDBRANCH   1   7
TORSDOF 7
ENDMDL
MODEL 2
REMARK VINA RESULT:    -3.556      3.001      5.050
REMARK INTER + INTRA:          -5.611
REMARK INTER:                  -5.102
REMARK INTRA:                  -0.509
REMARK UNBOUND:                -0.599
REMARK SMILES C=CCCCCCCC(=O)[O-]
REMARK SMILES IDX 6 1 7 2 8 3 9 4 10 5 11 6 5 7 4 8 3 9 2 10 1 11
REMARK H PARENT
REMARK Flexibility Score: inf
ROOT
ATOM      1  C   UNL     1       3.016  -7.972  -8.312  1.00  0.00     0.000 C 
ENDROOT
BRANCH   1   2
ATOM      2  C   UNL     1       4.323  -8.671  -7.897  1.00  0.00     0.006 C 
BRANCH   2   3
ATOM      3  C   UNL     1       5.279  -8.859  -9.081  1.00  0.00     0.053 C 
BRANCH   3   4
ATOM      4  C   UNL     1       6.641  -8.308  -8.789  1.00  0.00     0.041 C 
ATOM      5  O   UNL     1       7.650  -9.060  -8.823  1.00  0.00    -0.550 OA
ATOM      6  O   UNL     1       6.792  -6.970  -8.452  1.00  0.00    -0.550 OA
ENDBRANCH   3   4
ENDBRANCH   2   3
ENDBRANCH   1   2
BRANCH   1   7
ATOM      7  C   UNL     1       3.125  -7.281  -9.681  1.00  0.00     0.000 C 
BRANCH   7   8
ATOM      8  C   UNL     1       3.158  -5.749  -9.571  1.00  0.00     0.004 C 
BRANCH   8   9
ATOM      9  C   UNL     1       1.742  -5.181  -9.413  1.00  0.00     0.027 C 
BRANCH   9  10
ATOM     10  C   UNL     1       1.671  -4.200  -8.275  1.00  0.00    -0.035 C 
ATOM     11  C   UNL     1       1.840  -4.581  -7.006  1.00  0.00     0.004 C 
ENDBRANCH   9  10
ENDBRANCH   8   9
ENDBRANCH   7   8
ENDBRANCH   1   7
TORSDOF 7
ENDMDL
MODEL 3
REMARK VINA RESULT:    -3.483     15.891     17.295
REMARK INTER + INTRA:          -5.507
REMARK INTER:                  -4.984
REMARK INTRA:                  -0.523
REMARK UNBOUND:                -0.599
REMARK SMILES C=CCCCCCCC(=O)[O-]
REMARK SMILES IDX 6 1 7 2 8 3 9 4 10 5 11 6 5 7 4 8 3 9 2 10 1 11
REMARK H PARENT
REMARK Flexibility Score: inf
ROOT
ATOM      1  C   UNL     1      -5.201   5.667  -2.176  1.00  0.00     0.000 C 
ENDROOT
BRANCH   1   2
ATOM      2  C   UNL     1      -5.577   6.281  -0.815  1.00  0.00     0.006 C 
BRANCH   2   3
ATOM      3  C   UNL     1      -7.055   6.686  -0.753  1.00  0.00     0.053 C 
BRANCH   3   4
ATOM      4  C   UNL     1      -7.812   5.875   0.255  1.00  0.00     0.041 C 
ATOM      5  O   UNL     1      -7.203   5.080   1.017  1.00  0.00    -0.550 OA
ATOM      6  O   UNL     1      -9.195   5.978   0.331  1.00  0.00    -0.550 OA
ENDBRANCH   3   4
ENDBRANCH   2   3
ENDBRANCH   1   2
BRANCH   1   7
ATOM      7  C   UNL     1      -4.185   6.524  -2.949  1.00  0.00     0.000 C 
BRANCH   7   8
ATOM      8  C   UNL     1      -3.003   6.975  -2.077  1.00  0.00     0.004 C 
BRANCH   8   9
ATOM      9  C   UNL     1      -1.828   5.997  -2.201  1.00  0.00     0.027 C 
BRANCH   9  10
ATOM     10  C   UNL     1      -1.644   5.201  -0.938  1.00  0.00    -0.035 C 
ATOM     11  C   UNL     1      -2.236   5.554   0.208  1.00  0.00     0.004 C 
ENDBRANCH   9  10
ENDBRANCH   8   9
ENDBRANCH   7   8
ENDBRANCH   1   7
TORSDOF 7
ENDMDL
MODEL 4
REMARK VINA RESULT:    -3.464     15.174     15.938
REMARK INTER + INTRA:          -5.481
REMARK INTER:                  -4.831
REMARK INTRA:                  -0.650
REMARK UNBOUND:                -0.599
REMARK SMILES C=CCCCCCCC(=O)[O-]
REMARK SMILES IDX 6 1 7 2 8 3 9 4 10 5 11 6 5 7 4 8 3 9 2 10 1 11
REMARK H PARENT
REMARK Flexibility Score: inf
ROOT
ATOM      1  C   UNL     1      -4.816   5.441  -2.116  1.00  0.00     0.000 C 
ENDROOT
BRANCH   1   2
ATOM      2  C   UNL     1      -5.138   6.562  -3.120  1.00  0.00     0.006 C 
BRANCH   2   3
ATOM      3  C   UNL     1      -4.300   6.451  -4.399  1.00  0.00     0.053 C 
BRANCH   3   4
ATOM      4  C   UNL     1      -5.043   5.746  -5.493  1.00  0.00     0.041 C 
ATOM      5  O   UNL     1      -6.281   5.542  -5.389  1.00  0.00    -0.550 OA
ATOM      6  O   UNL     1      -4.363   5.289  -6.614  1.00  0.00    -0.550 OA
ENDBRANCH   3   4
ENDBRANCH   2   3
ENDBRANCH   1   2
BRANCH   1   7
ATOM      7  C   UNL     1      -4.750   5.947  -0.666  1.00  0.00     0.000 C 
BRANCH   7   8
ATOM      8  C   UNL     1      -3.309   6.124  -0.164  1.00  0.00     0.004 C 
BRANCH   8   9
ATOM      9  C   UNL     1      -2.388   5.050  -0.755  1.00  0.00     0.027 C 
BRANCH   9  10
ATOM     10  C   UNL     1      -1.147   5.660  -1.347  1.00  0.00    -0.035 C 
ATOM     11  C   UNL     1      -1.159   6.260  -2.541  1.00  0.00     0.004 C 
ENDBRANCH   9  10
ENDBRANCH   8   9
ENDBRANCH   7   8
ENDBRANCH   1   7
TORSDOF 7
ENDMDL
MODEL 5
REMARK VINA RESULT:    -3.398     14.665     16.005
REMARK INTER + INTRA:          -5.387
REMARK INTER:                  -5.007
REMARK INTRA:                  -0.380
REMARK UNBOUND:                -0.599
REMARK SMILES C=CCCCCCCC(=O)[O-]
REMARK SMILES IDX 6 1 7 2 8 3 9 4 10 5 11 6 5 7 4 8 3 9 2 10 1 11
REMARK H PARENT
REMARK Flexibility Score: inf
ROOT
ATOM      1  C   UNL     1      -4.512   5.238  -1.909  1.00  0.00     0.000 C 
ENDROOT
BRANCH   1   2
ATOM      2  C   UNL     1      -3.683   5.972  -0.839  1.00  0.00     0.006 C 
BRANCH   2   3
ATOM      3  C   UNL     1      -2.348   5.270  -0.562  1.00  0.00     0.053 C 
BRANCH   3   4
ATOM      4  C   UNL     1      -1.196   5.998  -1.185  1.00  0.00     0.041 C 
ATOM      5  O   UNL     1      -0.316   6.533  -0.462  1.00  0.00    -0.550 OA
ATOM      6  O   UNL     1      -1.112   6.110  -2.567  1.00  0.00    -0.550 OA
ENDBRANCH   3   4
ENDBRANCH   2   3
ENDBRANCH   1   2
BRANCH   1   7
ATOM      7  C   UNL     1      -5.124   6.198  -2.942  1.00  0.00     0.000 C 
BRANCH   7   8
ATOM      8  C   UNL     1      -4.148   6.552  -4.075  1.00  0.00     0.004 C 
BRANCH   8   9
ATOM      9  C   UNL     1      -4.779   6.280  -5.446  1.00  0.00     0.027 C 
BRANCH   9  10
ATOM     10  C   UNL     1      -5.545   4.985  -5.447  1.00  0.00    -0.035 C 
ATOM     11  C   UNL     1      -5.603   4.203  -6.529  1.00  0.00     0.004 C 
ENDBRANCH   9  10
ENDBRANCH   8   9
ENDBRANCH   7   8
ENDBRANCH   1   7
TORSDOF 7
ENDMDL
MODEL 6
REMARK VINA RESULT:    -3.333     12.379     13.103
REMARK INTER + INTRA:          -5.296
REMARK INTER:                  -4.912
REMARK INTRA:                  -0.384
REMARK UNBOUND:                -0.599
REMARK SMILES C=CCCCCCCC(=O)[O-]
REMARK SMILES IDX 6 1 7 2 8 3 9 4 10 5 11 6 5 7 4 8 3 9 2 10 1 11
REMARK H PARENT
REMARK Flexibility Score: inf
ROOT
ATOM      1  C   UNL     1      -7.801  -2.491  -4.844  1.00  0.00     0.000 C 
ENDROOT
BRANCH   1   2
ATOM      2  C   UNL     1      -8.886  -1.871  -5.741  1.00  0.00     0.006 C 
BRANCH   2   3
ATOM      3  C   UNL     1      -9.331  -2.827  -6.855  1.00  0.00     0.053 C 
BRANCH   3   4
ATOM      4  C   UNL     1      -8.318  -2.907  -7.957  1.00  0.00     0.041 C 
ATOM      5  O   UNL     1      -7.506  -3.867  -8.005  1.00  0.00    -0.550 OA
ATOM      6  O   UNL     1      -8.254  -1.903  -8.915  1.00  0.00    -0.550 OA
ENDBRANCH   3   4
ENDBRANCH   2   3
ENDBRANCH   1   2
BRANCH   1   7
ATOM      7  C   UNL     1      -8.379  -3.468  -3.807  1.00  0.00     0.000 C 
BRANCH   7   8
ATOM      8  C   UNL     1      -7.937  -4.920  -4.048  1.00  0.00     0.004 C 
BRANCH   8   9
ATOM      9  C   UNL     1      -9.118  -5.780  -4.516  1.00  0.00     0.027 C 
BRANCH   9  10
ATOM     10  C   UNL     1      -8.909  -7.228  -4.168  1.00  0.00    -0.035 C 
ATOM     11  C   UNL     1      -9.781  -8.172  -4.535  1.00  0.00     0.004 C 
ENDBRANCH   9  10
ENDBRANCH   8   9
ENDBRANCH   7   8
ENDBRANCH   1   7
TORSDOF 7
ENDMDL
MODEL 7
REMARK VINA RESULT:    -3.312     17.311     18.491
REMARK INTER + INTRA:          -5.266
REMARK INTER:                  -4.909
REMARK INTRA:                  -0.356
REMARK UNBOUND:                -0.599
REMARK SMILES C=CCCCCCCC(=O)[O-]
REMARK SMILES IDX 6 1 7 2 8 3 9 4 10 5 11 6 5 7 4 8 3 9 2 10 1 11
REMARK H PARENT
REMARK Flexibility Score: inf
ROOT
ATOM      1  C   UNL     1      -2.305  -8.951   8.351  1.00  0.00     0.000 C 
ENDROOT
BRANCH   1   2
ATOM      2  C   UNL     1      -1.212  -9.514   9.278  1.00  0.00     0.006 C 
BRANCH   2   3
ATOM      3  C   UNL     1       0.153  -8.861   9.024  1.00  0.00     0.053 C 
BRANCH   3   4
ATOM      4  C   UNL     1       1.050  -9.746   8.214  1.00  0.00     0.041 C 
ATOM      5  O   UNL     1       1.800  -9.252   7.331  1.00  0.00    -0.550 OA
ATOM      6  O   UNL     1       1.037 -11.120   8.415  1.00  0.00    -0.550 OA
ENDBRANCH   3   4
ENDBRANCH   2   3
ENDBRANCH   1   2
BRANCH   1   7
ATOM      7  C   UNL     1      -3.430  -8.246   9.125  1.00  0.00     0.000 C 
BRANCH   7   8
ATOM      8  C   UNL     1      -4.480  -7.611   8.200  1.00  0.00     0.004 C 
BRANCH   8   9
ATOM      9  C   UNL     1      -4.205  -7.968   6.734  1.00  0.00     0.027 C 
BRANCH   9  10
ATOM     10  C   UNL     1      -5.253  -8.903   6.195  1.00  0.00    -0.035 C 
ATOM     11  C   UNL     1      -5.938  -9.727   6.993  1.00  0.00     0.004 C 
ENDBRANCH   9  10
ENDBRANCH   8   9
ENDBRANCH   7   8
ENDBRANCH   1   7
TORSDOF 7
ENDMDL
MODEL 8
REMARK VINA RESULT:    -3.274     14.010     15.316
REMARK INTER + INTRA:          -5.213
REMARK INTER:                  -4.929
REMARK INTRA:                  -0.283
REMARK UNBOUND:                -0.599
REMARK SMILES C=CCCCCCCC(=O)[O-]
REMARK SMILES IDX 6 1 7 2 8 3 9 4 10 5 11 6 5 7 4 8 3 9 2 10 1 11
REMARK H PARENT
REMARK Flexibility Score: inf
ROOT
ATOM      1  C   UNL     1      -5.541   6.022  -4.417  1.00  0.00     0.000 C 
ENDROOT
BRANCH   1   2
ATOM      2  C   UNL     1      -4.934   5.718  -5.799  1.00  0.00     0.006 C 
BRANCH   2   3
ATOM      3  C   UNL     1      -5.485   4.418  -6.398  1.00  0.00     0.053 C 
BRANCH   3   4
ATOM      4  C   UNL     1      -5.052   4.233  -7.820  1.00  0.00     0.041 C 
ATOM      5  O   UNL     1      -5.905   4.027  -8.722  1.00  0.00    -0.550 OA
ATOM      6  O   UNL     1      -3.702   4.261  -8.144  1.00  0.00    -0.550 OA
ENDBRANCH   3   4
ENDBRANCH   2   3
ENDBRANCH   1   2
BRANCH   1   7
ATOM      7  C   UNL     1      -4.469   6.236  -3.336  1.00  0.00     0.000 C 
BRANCH   7   8
ATOM      8  C   UNL     1      -4.763   5.455  -2.046  1.00  0.00     0.004 C 
BRANCH   8   9
ATOM      9  C   UNL     1      -3.524   5.404  -1.143  1.00  0.00     0.027 C 
BRANCH   9  10
ATOM     10  C   UNL     1      -2.299   5.889  -1.869  1.00  0.00    -0.035 C 
ATOM     11  C   UNL     1      -1.070   5.512  -1.505  1.00  0.00     0.004 C 
ENDBRANCH   9  10
ENDBRANCH   8   9
ENDBRANCH   7   8
ENDBRANCH   1   7
TORSDOF 7
ENDMDL
MODEL 9
REMARK VINA RESULT:    -3.261     11.155     12.697
REMARK INTER + INTRA:          -5.194
REMARK INTER:                  -4.593
REMARK INTRA:                  -0.600
REMARK UNBOUND:                -0.599
REMARK SMILES C=CCCCCCCC(=O)[O-]
REMARK SMILES IDX 6 1 7 2 8 3 9 4 10 5 11 6 5 7 4 8 3 9 2 10 1 11
REMARK H PARENT
REMARK Flexibility Score: inf
ROOT
ATOM      1  C   UNL     1      -8.976  -1.890  -6.581  1.00  0.00     0.000 C 
ENDROOT
BRANCH   1   2
ATOM      2  C   UNL     1      -8.965  -2.989  -7.658  1.00  0.00     0.006 C 
BRANCH   2   3
ATOM      3  C   UNL     1      -7.576  -3.615  -7.830  1.00  0.00     0.053 C 
BRANCH   3   4
ATOM      4  C   UNL     1      -6.986  -3.301  -9.171  1.00  0.00     0.041 C 
ATOM      5  O   UNL     1      -6.329  -4.173  -9.797  1.00  0.00    -0.550 OA
ATOM      6  O   UNL     1      -7.137  -2.032  -9.716  1.00  0.00    -0.550 OA
ENDBRANCH   3   4
ENDBRANCH   2   3
ENDBRANCH   1   2
BRANCH   1   7
ATOM      7  C   UNL     1      -8.008  -2.188  -5.424  1.00  0.00     0.000 C 
BRANCH   7   8
ATOM      8  C   UNL     1      -8.711  -2.812  -4.208  1.00  0.00     0.004 C 
BRANCH   8   9
ATOM      9  C   UNL     1      -8.002  -4.099  -3.768  1.00  0.00     0.027 C 
BRANCH   9  10
ATOM     10  C   UNL     1      -8.339  -5.247  -4.680  1.00  0.00    -0.035 C 
ATOM     11  C   UNL     1      -9.072  -6.284  -4.264  1.00  0.00     0.004 C 
ENDBRANCH   9  10
ENDBRANCH   8   9
ENDBRANCH   7   8
ENDBRANCH   1   7
TORSDOF 7
ENDMDL
