MODEL 1
REMARK VINA RESULT:    -4.820      0.000      0.000
REMARK INTER + INTRA:          -6.819
REMARK INTER:                  -6.511
REMARK INTRA:                  -0.308
REMARK UNBOUND:                -0.308
REMARK SMILES CCCCCCC=CC(=O)[O-]
REMARK SMILES IDX 5 1 6 2 7 3 8 4 9 5 10 6 11 7 4 8 3 9 2 10 1 11
REMARK H PARENT
REMARK Flexibility Score: inf
ROOT
ATOM      1  C   UNL     1      13.551  16.621  28.176  1.00  0.00     0.004 C 
ENDROOT
BRANCH   1   2
ATOM      2  C   UNL     1      14.842  15.868  27.822  1.00  0.00     0.027 C 
BRANCH   2   3
ATOM      3  C   UNL     1      15.153  14.771  28.802  1.00  0.00    -0.025 C 
ATOM      4  C   UNL     1      14.581  14.730  30.009  1.00  0.00     0.020 C 
BRANCH   4   5
ATOM      5  C   UNL     1      14.871  13.660  30.975  1.00  0.00     0.064 C 
ATOM      6  O   UNL     1      14.721  13.876  32.206  1.00  0.00    -0.545 OA
ATOM      7  O   UNL     1      15.311  12.412  30.550  1.00  0.00    -0.545 OA
ENDBRANCH   4   5
ENDBRANCH   2   3
ENDBRANCH   1   2
BRANCH   1   8
ATOM      8  C   UNL     1      13.253  17.756  27.184  1.00  0.00     0.000 C 
BRANCH   8   9
ATOM      9  C   UNL     1      11.829  17.632  26.620  1.00  0.00    -0.000 C 
BRANCH   9  10
ATOM     10  C   UNL     1      11.803  17.604  25.084  1.00  0.00    -0.003 C 
ATOM     11  C   UNL     1      12.150  16.230  24.512  1.00  0.00     0.004 C 
ENDBRANCH   9  10
ENDBRANCH   8   9
ENDBRANCH   1   8
TORSDOF 6
ENDMDL
MODEL 2
REMARK VINA RESULT:    -4.553      3.626      6.187
REMARK INTER + INTRA:          -6.459
REMARK INTER:                  -6.150
REMARK INTRA:                  -0.308
REMARK UNBOUND:                -0.308
REMARK SMILES CCCCCCC=CC(=O)[O-]
REMARK SMILES IDX 5 1 6 2 7 3 8 4 9 5 10 6 11 7 4 8 3 9 2 10 1 11
REMARK H PARENT
REMARK Flexibility Score: inf
ROOT
ATOM      1  C   UNL     1      15.039  15.504  28.666  1.00  0.00     0.004 C 
ENDROOT
BRANCH   1   2
ATOM      2  C   UNL     1      13.636  16.126  28.729  1.00  0.00     0.027 C 
BRANCH   2   3
ATOM      3  C   UNL     1      13.109  16.490  27.370  1.00  0.00    -0.025 C 
ATOM      4  C   UNL     1      13.602  15.937  26.258  1.00  0.00     0.020 C 
BRANCH   4   5
ATOM      5  C   UNL     1      13.090  16.280  24.922  1.00  0.00     0.064 C 
ATOM      6  O   UNL     1      13.725  17.096  24.205  1.00  0.00    -0.545 OA
ATOM      7  O   UNL     1      11.915  15.717  24.440  1.00  0.00    -0.545 OA
ENDBRANCH   4   5
ENDBRANCH   2   3
ENDBRANCH   1   2
BRANCH   1   8
ATOM      8  C   UNL     1      15.137  14.210  29.490  1.00  0.00     0.000 C 
BRANCH   8   9
ATOM      9  C   UNL     1      14.331  14.327  30.792  1.00  0.00    -0.000 C 
BRANCH   9  10
ATOM     10  C   UNL     1      15.021  13.633  31.977  1.00  0.00    -0.003 C 
ATOM     11  C   UNL     1      15.600  12.268  31.606  1.00  0.00     0.004 C 
ENDBRANCH   9  10
ENDBRANCH   8   9
ENDBRANCH   1   8
TORSDOF 6
ENDMDL
MODEL 3
REMARK VINA RESULT:    -4.167      3.143      5.921
REMARK INTER + INTRA:          -5.937
REMARK INTER:                  -5.419
REMARK INTRA:                  -0.519
REMARK UNBOUND:                -0.308
REMARK SMILES CCCCCCC=CC(=O)[O-]
REMARK SMILES IDX 5 1 6 2 7 3 8 4 9 5 10 6 11 7 4 8 3 9 2 10 1 11
REMARK H PARENT
REMARK Flexibility Score: inf
ROOT
ATOM      1  C   UNL     1      14.489  14.089  30.849  1.00  0.00     0.004 C 
ENDROOT
BRANCH   1   2
ATOM      2  C   UNL     1      15.521  14.850  30.004  1.00  0.00     0.027 C 
BRANCH   2   3
ATOM      3  C   UNL     1      15.114  14.958  28.562  1.00  0.00    -0.025 C 
ATOM      4  C   UNL     1      13.900  15.392  28.209  1.00  0.00     0.020 C 
BRANCH   4   5
ATOM      5  C   UNL     1      13.492  15.509  26.801  1.00  0.00     0.064 C 
ATOM      6  O   UNL     1      12.310  15.228  26.471  1.00  0.00    -0.545 OA
ATOM      7  O   UNL     1      14.392  15.924  25.826  1.00  0.00    -0.545 OA
ENDBRANCH   4   5
ENDBRANCH   2   3
ENDBRANCH   1   2
BRANCH   1   8
ATOM      8  C   UNL     1      15.141  13.321  32.009  1.00  0.00     0.000 C 
BRANCH   8   9
ATOM      9  C   UNL     1      15.948  12.122  31.488  1.00  0.00    -0.000 C 
BRANCH   9  10
ATOM     10  C   UNL     1      15.145  11.249  30.511  1.00  0.00    -0.003 C 
ATOM     11  C   UNL     1      15.890  10.989  29.202  1.00  0.00     0.004 C 
ENDBRANCH   9  10
ENDBRANCH   8   9
ENDBRANCH   1   8
TORSDOF 6
ENDMDL
MODEL 4
REMARK VINA RESULT:    -4.166      4.731      6.873
REMARK INTER + INTRA:          -5.935
REMARK INTER:                  -5.556
REMARK INTRA:                  -0.379
REMARK UNBOUND:                -0.308
REMARK SMILES CCCCCCC=CC(=O)[O-]
REMARK SMILES IDX 5 1 6 2 7 3 8 4 9 5 10 6 11 7 4 8 3 9 2 10 1 11
REMARK H PARENT
REMARK Flexibility Score: inf
ROOT
ATOM      1  C   UNL     1      12.612  15.887  26.890  1.00  0.00     0.004 C 
ENDROOT
BRANCH   1   2
ATOM      2  C   UNL     1      12.135  17.205  26.262  1.00  0.00     0.027 C 
BRANCH   2   3
ATOM      3  C   UNL     1      12.719  17.433  24.897  1.00  0.00    -0.025 C 
ATOM      4  C   UNL     1      11.942  17.619  23.826  1.00  0.00     0.020 C 
BRANCH   4   5
ATOM      5  C   UNL     1      12.502  17.850  22.485  1.00  0.00     0.064 C 
ATOM      6  O   UNL     1      13.724  18.125  22.361  1.00  0.00    -0.545 OA
ATOM      7  O   UNL     1      11.701  17.771  21.352  1.00  0.00    -0.545 OA
ENDBRANCH   4   5
ENDBRANCH   2   3
ENDBRANCH   1   2
BRANCH   1   8
ATOM      8  C   UNL     1      13.990  15.459  26.364  1.00  0.00     0.000 C 
BRANCH   8   9
ATOM      9  C   UNL     1      15.048  15.531  27.474  1.00  0.00    -0.000 C 
BRANCH   9  10
ATOM     10  C   UNL     1      14.428  15.686  28.872  1.00  0.00    -0.003 C 
ATOM     11  C   UNL     1      14.912  14.620  29.854  1.00  0.00     0.004 C 
ENDBRANCH   9  10
ENDBRANCH   8   9
ENDBRANCH   1   8
TORSDOF 6
ENDMDL
MODEL 5
REMARK VINA RESULT:    -4.022      2.110      3.129
REMARK INTER + INTRA:          -5.740
REMARK INTER:                  -5.120
REMARK INTRA:                  -0.621
REMARK UNBOUND:                -0.308
REMARK SMILES CCCCCCC=CC(=O)[O-]
REMARK SMILES IDX 5 1 6 2 7 3 8 4 9 5 10 6 11 7 4 8 3 9 2 10 1 11
REMARK H PARENT
REMARK Flexibility Score: inf
ROOT
ATOM      1  C   UNL     1      11.366  16.945  26.014  1.00  0.00     0.004 C 
ENDROOT
BRANCH   1   2
ATOM      2  C   UNL     1      12.234  15.679  25.963  1.00  0.00     0.027 C 
BRANCH   2   3
ATOM      3  C   UNL     1      13.030  15.478  27.222  1.00  0.00    -0.025 C 
ATOM      4  C   UNL     1      14.366  15.501  27.216  1.00  0.00     0.020 C 
BRANCH   4   5
ATOM      5  C   UNL     1      15.156  15.313  28.442  1.00  0.00     0.064 C 
ATOM      6  O   UNL     1      16.412  15.346  28.383  1.00  0.00    -0.545 OA
ATOM      7  O   UNL     1      14.535  15.097  29.667  1.00  0.00    -0.545 OA
ENDBRANCH   4   5
ENDBRANCH   2   3
ENDBRANCH   1   2
BRANCH   1   8
ATOM      8  C   UNL     1      11.622  17.872  24.816  1.00  0.00     0.000 C 
BRANCH   8   9
ATOM      9  C   UNL     1      12.587  17.221  23.815  1.00  0.00    -0.000 C 
BRANCH   9  10
ATOM     10  C   UNL     1      13.784  18.124  23.477  1.00  0.00    -0.003 C 
ATOM     11  C   UNL     1      14.995  17.858  24.371  1.00  0.00     0.004 C 
ENDBRANCH   9  10
ENDBRANCH   8   9
ENDBRANCH   1   8
TORSDOF 6
ENDMDL
MODEL 6
REMARK VINA RESULT:    -3.999      1.717      2.249
REMARK INTER + INTRA:          -5.710
REMARK INTER:                  -5.374
REMARK INTRA:                  -0.335
REMARK UNBOUND:                -0.308
REMARK SMILES CCCCCCC=CC(=O)[O-]
REMARK SMILES IDX 5 1 6 2 7 3 8 4 9 5 10 6 11 7 4 8 3 9 2 10 1 11
REMARK H PARENT
REMARK Flexibility Score: inf
ROOT
ATOM      1  C   UNL     1      12.758  16.521  26.255  1.00  0.00     0.004 C 
ENDROOT
BRANCH   1   2
ATOM      2  C   UNL     1      12.715  17.147  27.657  1.00  0.00     0.027 C 
BRANCH   2   3
ATOM      3  C   UNL     1      13.780  16.595  28.564  1.00  0.00    -0.025 C 
ATOM      4  C   UNL     1      13.682  15.372  29.093  1.00  0.00     0.020 C 
BRANCH   4   5
ATOM      5  C   UNL     1      14.720  14.818  29.976  1.00  0.00     0.064 C 
ATOM      6  O   UNL     1      15.931  15.074  29.748  1.00  0.00    -0.545 OA
ATOM      7  O   UNL     1      14.384  14.013  31.058  1.00  0.00    -0.545 OA
ENDBRANCH   4   5
ENDBRANCH   2   3
ENDBRANCH   1   2
BRANCH   1   8
ATOM      8  C   UNL     1      14.166  16.569  25.642  1.00  0.00     0.000 C 
BRANCH   8   9
ATOM      9  C   UNL     1      14.169  17.376  24.335  1.00  0.00    -0.000 C 
BRANCH   9  10
ATOM     10  C   UNL     1      12.848  18.125  24.102  1.00  0.00    -0.003 C 
ATOM     11  C   UNL     1      12.153  17.706  22.807  1.00  0.00     0.004 C 
ENDBRANCH   9  10
ENDBRANCH   8   9
ENDBRANCH   1   8
TORSDOF 6
ENDMDL
MODEL 7
REMARK VINA RESULT:    -3.800      4.037      6.319
REMARK INTER + INTRA:          -5.441
REMARK INTER:                  -5.195
REMARK INTRA:                  -0.245
REMARK UNBOUND:                -0.308
REMARK SMILES CCCCCCC=CC(=O)[O-]
REMARK SMILES IDX 5 1 6 2 7 3 8 4 9 5 10 6 11 7 4 8 3 9 2 10 1 11
REMARK H PARENT
REMARK Flexibility Score: inf
ROOT
ATOM      1  C   UNL     1      12.932  15.690  27.824  1.00  0.00     0.004 C 
ENDROOT
BRANCH   1   2
ATOM      2  C   UNL     1      12.401  17.082  27.452  1.00  0.00     0.027 C 
BRANCH   2   3
ATOM      3  C   UNL     1      12.776  17.484  26.053  1.00  0.00    -0.025 C 
ATOM      4  C   UNL     1      14.039  17.423  25.623  1.00  0.00     0.020 C 
BRANCH   4   5
ATOM      5  C   UNL     1      14.418  17.806  24.255  1.00  0.00     0.064 C 
ATOM      6  O   UNL     1      13.539  17.847  23.355  1.00  0.00    -0.545 OA
ATOM      7  O   UNL     1      15.734  18.123  23.938  1.00  0.00    -0.545 OA
ENDBRANCH   4   5
ENDBRANCH   2   3
ENDBRANCH   1   2
BRANCH   1   8
ATOM      8  C   UNL     1      13.657  15.689  29.179  1.00  0.00     0.000 C 
BRANCH   8   9
ATOM      9  C   UNL     1      14.799  14.662  29.188  1.00  0.00    -0.000 C 
BRANCH   9  10
ATOM     10  C   UNL     1      15.533  14.607  30.537  1.00  0.00    -0.003 C 
ATOM     11  C   UNL     1      14.813  13.734  31.565  1.00  0.00     0.004 C 
ENDBRANCH   9  10
ENDBRANCH   8   9
ENDBRANCH   1   8
TORSDOF 6
ENDMDL
MODEL 8
REMARK VINA RESULT:    -3.656      1.253      1.903
REMARK INTER + INTRA:          -5.247
REMARK INTER:                  -4.956
REMARK INTRA:                  -0.290
REMARK UNBOUND:                -0.308
REMARK SMILES CCCCCCC=CC(=O)[O-]
REMARK SMILES IDX 5 1 6 2 7 3 8 4 9 5 10 6 11 7 4 8 3 9 2 10 1 11
REMARK H PARENT
REMARK Flexibility Score: inf
ROOT
ATOM      1  C   UNL     1      13.610  15.965  28.198  1.00  0.00     0.004 C 
ENDROOT
BRANCH   1   2
ATOM      2  C   UNL     1      14.427  16.082  29.493  1.00  0.00     0.027 C 
BRANCH   2   3
ATOM      3  C   UNL     1      15.204  14.832  29.796  1.00  0.00    -0.025 C 
ATOM      4  C   UNL     1      14.660  13.819  30.477  1.00  0.00     0.020 C 
BRANCH   4   5
ATOM      5  C   UNL     1      15.407  12.587  30.774  1.00  0.00     0.064 C 
ATOM      6  O   UNL     1      15.228  11.565  30.061  1.00  0.00    -0.545 OA
ATOM      7  O   UNL     1      16.308  12.534  31.830  1.00  0.00    -0.545 OA
ENDBRANCH   4   5
ENDBRANCH   2   3
ENDBRANCH   1   2
BRANCH   1   8
ATOM      8  C   UNL     1      14.478  15.543  27.002  1.00  0.00     0.000 C 
BRANCH   8   9
ATOM      9  C   UNL     1      13.618  15.341  25.745  1.00  0.00    -0.000 C 
BRANCH   9  10
ATOM     10  C   UNL     1      13.380  16.650  24.976  1.00  0.00    -0.003 C 
ATOM     11  C   UNL     1      11.908  17.060  24.950  1.00  0.00     0.004 C 
ENDBRANCH   9  10
ENDBRANCH   8   9
ENDBRANCH   1   8
TORSDOF 6
ENDMDL
MODEL 9
REMARK VINA RESULT:    -3.449      4.241      6.229
REMARK INTER + INTRA:          -4.967
REMARK INTER:                  -4.692
REMARK INTRA:                  -0.275
REMARK UNBOUND:                -0.308
REMARK SMILES CCCCCCC=CC(=O)[O-]
REMARK SMILES IDX 5 1 6 2 7 3 8 4 9 5 10 6 11 7 4 8 3 9 2 10 1 11
REMARK H PARENT
REMARK Flexibility Score: inf
ROOT
ATOM      1  C   UNL     1      14.811  15.780  27.054  1.00  0.00     0.004 C 
ENDROOT
BRANCH   1   2
ATOM      2  C   UNL     1      15.148  16.795  25.952  1.00  0.00     0.027 C 
BRANCH   2   3
ATOM      3  C   UNL     1      13.919  17.410  25.343  1.00  0.00    -0.025 C 
ATOM      4  C   UNL     1      13.101  16.706  24.555  1.00  0.00     0.020 C 
BRANCH   4   5
ATOM      5  C   UNL     1      11.892  17.295  23.960  1.00  0.00     0.064 C 
ATOM      6  O   UNL     1      10.872  17.475  24.676  1.00  0.00    -0.545 OA
ATOM      7  O   UNL     1      11.857  17.654  22.618  1.00  0.00    -0.545 OA
ENDBRANCH   4   5
ENDBRANCH   2   3
ENDBRANCH   1   2
BRANCH   1   8
ATOM      8  C   UNL     1      14.478  16.464  28.389  1.00  0.00     0.000 C 
BRANCH   8   9
ATOM      9  C   UNL     1      13.464  15.635  29.191  1.00  0.00    -0.000 C 
BRANCH   9  10
ATOM     10  C   UNL     1      14.100  14.404  29.855  1.00  0.00    -0.003 C 
ATOM     11  C   UNL     1      15.503  14.682  30.393  1.00  0.00     0.004 C 
ENDBRANCH   9  10
ENDBRANCH   8   9
ENDBRANCH   1   8
TORSDOF 6
ENDMDL
