MODEL 1
REMARK VINA RESULT:     5.350      0.000      0.000
REMARK INTER + INTRA:           9.142
REMARK INTER:                   9.728
REMARK INTRA:                  -0.585
REMARK UNBOUND:                -0.585
REMARK SMILES CCCCCCCCCCCCCCCC(=O)[O-]
REMARK SMILES IDX 9 1 10 2 11 3 12 4 13 5 14 6 15 7 16 8 17 9 18 10 8 11 7 12
REMARK SMILES IDX 6 13 5 14 4 15 3 16 2 17 1 18
REMARK H PARENT
REMARK Flexibility Score: inf
ROOT
ATOM      1  C   UNL     1      -1.503 -20.049 -26.247  1.00  0.00     0.000 C 
ENDROOT
BRANCH   1   2
ATOM      2  C   UNL     1      -0.668 -21.345 -26.176  1.00  0.00     0.000 C 
BRANCH   2   3
ATOM      3  C   UNL     1       0.494 -21.317 -25.165  1.00  0.00     0.000 C 
BRANCH   3   4
ATOM      4  C   UNL     1       0.792 -22.667 -24.482  1.00  0.00     0.000 C 
BRANCH   4   5
ATOM      5  C   UNL     1       1.355 -23.759 -25.411  1.00  0.00     0.000 C 
BRANCH   5   6
ATOM      6  C   UNL     1       0.840 -25.183 -25.129  1.00  0.00     0.006 C 
BRANCH   6   7
ATOM      7  C   UNL     1       1.795 -26.273 -25.631  1.00  0.00     0.053 C 
BRANCH   7   8
ATOM      8  C   UNL     1       2.389 -27.018 -24.479  1.00  0.00     0.041 C 
ATOM      9  O   UNL     1       2.144 -26.658 -23.297  1.00  0.00    -0.550 OA
ATOM     10  O   UNL     1       3.255 -28.080 -24.708  1.00  0.00    -0.550 OA
ENDBRANCH   7   8
ENDBRANCH   6   7
ENDBRANCH   5   6
ENDBRANCH   4   5
ENDBRANCH   3   4
ENDBRANCH   2   3
ENDBRANCH   1   2
BRANCH   1  11
ATOM     11  C   UNL     1      -0.963 -18.881 -25.403  1.00  0.00     0.000 C 
BRANCH  11  12
ATOM     12  C   UNL     1      -0.935 -17.552 -26.172  1.00  0.00    -0.000 C 
BRANCH  12  13
ATOM     13  C   UNL     1      -2.091 -16.643 -25.740  1.00  0.00    -0.000 C 
BRANCH  13  14
ATOM     14  C   UNL     1      -2.071 -15.319 -26.514  1.00  0.00    -0.000 C 
BRANCH  14  15
ATOM     15  C   UNL     1      -0.633 -14.866 -26.793  1.00  0.00    -0.000 C 
BRANCH  15  16
ATOM     16  C   UNL     1      -0.596 -13.795 -27.890  1.00  0.00    -0.000 C 
BRANCH  16  17
ATOM     17  C   UNL     1      -1.067 -12.439 -27.350  1.00  0.00    -0.003 C 
ATOM     18  C   UNL     1       0.040 -11.393 -27.446  1.00  0.00     0.004 C 
ENDBRANCH  16  17
ENDBRANCH  15  16
ENDBRANCH  14  15
ENDBRANCH  13  14
ENDBRANCH  12  13
ENDBRANCH  11  12
ENDBRANCH   1  11
TORSDOF 14
ENDMDL
MODEL 2
REMARK VINA RESULT:     5.509      0.831      1.236
REMARK INTER + INTRA:           9.432
REMARK INTER:                   9.909
REMARK INTRA:                  -0.477
REMARK UNBOUND:                -0.585
REMARK SMILES CCCCCCCCCCCCCCCC(=O)[O-]
REMARK SMILES IDX 9 1 10 2 11 3 12 4 13 5 14 6 15 7 16 8 17 9 18 10 8 11 7 12
REMARK SMILES IDX 6 13 5 14 4 15 3 16 2 17 1 18
REMARK H PARENT
REMARK Flexibility Score: inf
ROOT
ATOM      1  C   UNL     1      -0.815 -18.528 -25.889  1.00  0.00     0.000 C 
ENDROOT
BRANCH   1   2
ATOM      2  C   UNL     1      -0.997 -20.060 -25.898  1.00  0.00     0.000 C 
BRANCH   2   3
ATOM      3  C   UNL     1       0.253 -20.868 -25.499  1.00  0.00     0.000 C 
BRANCH   3   4
ATOM      4  C   UNL     1      -0.021 -22.331 -25.098  1.00  0.00     0.000 C 
BRANCH   4   5
ATOM      5  C   UNL     1       1.016 -23.352 -25.606  1.00  0.00     0.000 C 
BRANCH   5   6
ATOM      6  C   UNL     1       1.262 -24.550 -24.670  1.00  0.00     0.006 C 
BRANCH   6   7
ATOM      7  C   UNL     1       1.115 -25.902 -25.379  1.00  0.00     0.053 C 
BRANCH   7   8
ATOM      8  C   UNL     1       2.132 -26.872 -24.869  1.00  0.00     0.041 C 
ATOM      9  O   UNL     1       2.088 -27.267 -23.675  1.00  0.00    -0.550 OA
ATOM     10  O   UNL     1       3.159 -27.304 -25.700  1.00  0.00    -0.550 OA
ENDBRANCH   7   8
ENDBRANCH   6   7
ENDBRANCH   5   6
ENDBRANCH   4   5
ENDBRANCH   3   4
ENDBRANCH   2   3
ENDBRANCH   1   2
BRANCH   1  11
ATOM     11  C   UNL     1      -2.017 -17.733 -25.350  1.00  0.00     0.000 C 
BRANCH  11  12
ATOM     12  C   UNL     1      -2.125 -16.327 -25.958  1.00  0.00    -0.000 C 
BRANCH  12  13
ATOM     13  C   UNL     1      -0.755 -15.826 -26.429  1.00  0.00    -0.000 C 
BRANCH  13  14
ATOM     14  C   UNL     1      -0.797 -15.410 -27.904  1.00  0.00    -0.000 C 
BRANCH  14  15
ATOM     15  C   UNL     1      -0.229 -13.999 -28.095  1.00  0.00    -0.000 C 
BRANCH  15  16
ATOM     16  C   UNL     1      -0.925 -12.995 -27.168  1.00  0.00    -0.000 C 
BRANCH  16  17
ATOM     17  C   UNL     1      -0.938 -11.592 -27.787  1.00  0.00    -0.003 C 
ATOM     18  C   UNL     1       0.401 -10.889 -27.584  1.00  0.00     0.004 C 
ENDBRANCH  16  17
ENDBRANCH  15  16
ENDBRANCH  14  15
ENDBRANCH  13  14
ENDBRANCH  12  13
ENDBRANCH  11  12
ENDBRANCH   1  11
TORSDOF 14
ENDMDL
MODEL 3
REMARK VINA RESULT:     8.245     12.398     13.716
REMARK INTER + INTRA:          14.407
REMARK INTER:                  14.704
REMARK INTRA:                  -0.297
REMARK UNBOUND:                -0.585
REMARK SMILES CCCCCCCCCCCCCCCC(=O)[O-]
REMARK SMILES IDX 9 1 10 2 11 3 12 4 13 5 14 6 15 7 16 8 17 9 18 10 8 11 7 12
REMARK SMILES IDX 6 13 5 14 4 15 3 16 2 17 1 18
REMARK H PARENT
REMARK Flexibility Score: inf
ROOT
ATOM      1  C   UNL     1       8.027 -25.082 -17.909  1.00  0.00     0.000 C 
ENDROOT
BRANCH   1   2
ATOM      2  C   UNL     1       6.786 -25.790 -17.326  1.00  0.00     0.000 C 
BRANCH   2   3
ATOM      3  C   UNL     1       6.192 -25.132 -16.066  1.00  0.00     0.000 C 
BRANCH   3   4
ATOM      4  C   UNL     1       4.704 -25.444 -15.811  1.00  0.00     0.000 C 
BRANCH   4   5
ATOM      5  C   UNL     1       4.334 -25.706 -14.338  1.00  0.00     0.000 C 
BRANCH   5   6
ATOM      6  C   UNL     1       3.994 -24.448 -13.519  1.00  0.00     0.006 C 
BRANCH   6   7
ATOM      7  C   UNL     1       5.203 -23.881 -12.765  1.00  0.00     0.053 C 
BRANCH   7   8
ATOM      8  C   UNL     1       5.849 -22.791 -13.559  1.00  0.00     0.041 C 
ATOM      9  O   UNL     1       5.256 -22.293 -14.551  1.00  0.00    -0.550 OA
ATOM     10  O   UNL     1       7.128 -22.357 -13.232  1.00  0.00    -0.550 OA
ENDBRANCH   7   8
ENDBRANCH   6   7
ENDBRANCH   5   6
ENDBRANCH   4   5
ENDBRANCH   3   4
ENDBRANCH   2   3
ENDBRANCH   1   2
BRANCH   1  11
ATOM     11  C   UNL     1       8.062 -24.991 -19.445  1.00  0.00     0.000 C 
BRANCH  11  12
ATOM     12  C   UNL     1       9.464 -24.688 -19.993  1.00  0.00    -0.000 C 
BRANCH  12  13
ATOM     13  C   UNL     1       9.382 -23.909 -21.311  1.00  0.00    -0.000 C 
BRANCH  13  14
ATOM     14  C   UNL     1      10.630 -24.145 -22.170  1.00  0.00    -0.000 C 
BRANCH  14  15
ATOM     15  C   UNL     1      10.775 -23.058 -23.241  1.00  0.00    -0.000 C 
BRANCH  15  16
ATOM     16  C   UNL     1      11.448 -23.615 -24.502  1.00  0.00    -0.000 C 
BRANCH  16  17
ATOM     17  C   UNL     1      12.833 -22.988 -24.708  1.00  0.00    -0.003 C 
ATOM     18  C   UNL     1      13.541 -23.601 -25.912  1.00  0.00     0.004 C 
ENDBRANCH  16  17
ENDBRANCH  15  16
ENDBRANCH  14  15
ENDBRANCH  13  14
ENDBRANCH  12  13
ENDBRANCH  11  12
ENDBRANCH   1  11
TORSDOF 14
ENDMDL
