MODEL 1
REMARK VINA RESULT:    26.081      0.000      0.000
REMARK INTER + INTRA:          30.369
REMARK INTER:                  30.656
REMARK INTRA:                  -0.286
REMARK UNBOUND:                -0.286
REMARK SMILES O=c1cc(-c2ccc(O)c(O)c2)oc2cc(O)cc(O)c12
REMARK SMILES IDX 4 1 3 2 2 3 1 4 21 5 19 6 18 7 16 8 15 9 14 10 13 11 5 12
REMARK SMILES IDX 6 13 7 14 8 15 12 16 10 17 9 18 11 20 20 22 17 24
REMARK H PARENT 9 19 11 21 20 23 17 25
REMARK Flexibility Score: inf
ROOT
ATOM      1  C   UNL     1     -10.397   8.043  19.490  1.00  0.00     0.138 A 
ATOM      2  C   UNL     1      -9.002   8.146  19.586  1.00  0.00     0.100 A 
ATOM      3  C   UNL     1      -8.361   9.294  19.118  1.00  0.00     0.197 A 
ATOM      4  O   UNL     1      -7.105   9.332  19.162  1.00  0.00    -0.289 OA
ATOM      5  C   UNL     1      -9.126  10.356  18.578  1.00  0.00     0.107 A 
ATOM      6  C   UNL     1      -8.583  11.589  18.108  1.00  0.00     0.134 A 
ATOM      7  C   UNL     1      -9.426  12.520  17.487  1.00  0.00     0.093 A 
ATOM      8  C   UNL     1     -10.800  12.288  17.374  1.00  0.00     0.123 A 
ATOM      9  C   UNL     1     -11.345  11.110  17.880  1.00  0.00     0.094 A 
ATOM     10  C   UNL     1     -10.526  10.147  18.473  1.00  0.00     0.146 A 
ATOM     11  O   UNL     1     -11.086   9.031  18.929  1.00  0.00    -0.456 OA
ENDROOT
BRANCH   1  12
ATOM     12  C   UNL     1     -11.129   6.845  19.973  1.00  0.00     0.021 A 
ATOM     13  C   UNL     1     -12.335   6.426  19.380  1.00  0.00     0.016 A 
ATOM     14  C   UNL     1     -12.997   5.288  19.848  1.00  0.00     0.051 A 
ATOM     15  C   UNL     1     -12.463   4.545  20.908  1.00  0.00     0.157 A 
ATOM     16  C   UNL     1     -10.593   6.085  21.029  1.00  0.00     0.062 A 
ATOM     17  C   UNL     1     -11.258   4.943  21.497  1.00  0.00     0.158 A 
BRANCH  15  18
ATOM     18  O   UNL     1     -13.122   3.410  21.378  1.00  0.00    -0.504 OA
ATOM     19  H   UNL     1     -14.068   3.189  21.090  1.00  0.00     0.293 HD
ENDBRANCH  15  18
BRANCH  17  20
ATOM     20  O   UNL     1     -10.727   4.199  22.550  1.00  0.00    -0.504 OA
ATOM     21  H   UNL     1     -11.037   4.336  23.506  1.00  0.00     0.293 HD
ENDBRANCH  17  20
ENDBRANCH   1  12
BRANCH   6  22
ATOM     22  O   UNL     1      -7.242  11.957  18.247  1.00  0.00    -0.507 OA
ATOM     23  H   UNL     1      -6.908  12.703  18.837  1.00  0.00     0.293 HD
ENDBRANCH   6  22
BRANCH   8  24
ATOM     24  O   UNL     1     -11.631  13.227  16.769  1.00  0.00    -0.508 OA
ATOM     25  H   UNL     1     -11.686  14.181  17.103  1.00  0.00     0.293 HD
ENDBRANCH   8  24
TORSDOF 5
ENDMDL
MODEL 2
REMARK VINA RESULT:    26.625      4.785      5.705
REMARK INTER + INTRA:          31.008
REMARK INTER:                  31.271
REMARK INTRA:                  -0.263
REMARK UNBOUND:                -0.286
REMARK SMILES O=c1cc(-c2ccc(O)c(O)c2)oc2cc(O)cc(O)c12
REMARK SMILES IDX 4 1 3 2 2 3 1 4 21 5 19 6 18 7 16 8 15 9 14 10 13 11 5 12
REMARK SMILES IDX 6 13 7 14 8 15 12 16 10 17 9 18 11 20 20 22 17 24
REMARK H PARENT 9 19 11 21 20 23 17 25
REMARK Flexibility Score: inf
ROOT
ATOM      1  C   UNL     1      -5.967   7.755  16.601  1.00  0.00     0.138 A 
ATOM      2  C   UNL     1      -4.755   8.429  16.399  1.00  0.00     0.100 A 
ATOM      3  C   UNL     1      -4.688   9.807  16.609  1.00  0.00     0.197 A 
ATOM      4  O   UNL     1      -3.603  10.393  16.360  1.00  0.00    -0.289 OA
ATOM      5  C   UNL     1      -5.835  10.508  17.052  1.00  0.00     0.107 A 
ATOM      6  C   UNL     1      -5.873  11.905  17.338  1.00  0.00     0.134 A 
ATOM      7  C   UNL     1      -7.095  12.510  17.659  1.00  0.00     0.093 A 
ATOM      8  C   UNL     1      -8.268  11.757  17.764  1.00  0.00     0.123 A 
ATOM      9  C   UNL     1      -8.229  10.382  17.539  1.00  0.00     0.094 A 
ATOM     10  C   UNL     1      -7.033   9.756  17.184  1.00  0.00     0.146 A 
ATOM     11  O   UNL     1      -7.043   8.444  16.965  1.00  0.00    -0.456 OA
ENDROOT
BRANCH   1  12
ATOM     12  C   UNL     1      -6.093   6.290  16.393  1.00  0.00     0.021 A 
ATOM     13  C   UNL     1      -5.869   5.372  17.437  1.00  0.00     0.016 A 
ATOM     14  C   UNL     1      -6.006   3.999  17.215  1.00  0.00     0.051 A 
ATOM     15  C   UNL     1      -6.376   3.521  15.953  1.00  0.00     0.157 A 
ATOM     16  C   UNL     1      -6.478   5.801  15.131  1.00  0.00     0.062 A 
ATOM     17  C   UNL     1      -6.615   4.423  14.910  1.00  0.00     0.158 A 
BRANCH  15  18
ATOM     18  O   UNL     1      -6.512   2.152  15.729  1.00  0.00    -0.504 OA
ATOM     19  H   UNL     1      -6.069   1.698  14.939  1.00  0.00     0.293 HD
ENDBRANCH  15  18
BRANCH  17  20
ATOM     20  O   UNL     1      -6.987   3.943  13.655  1.00  0.00    -0.504 OA
ATOM     21  H   UNL     1      -7.792   3.338  13.536  1.00  0.00     0.293 HD
ENDBRANCH  17  20
ENDBRANCH   1  12
BRANCH   6  22
ATOM     22  O   UNL     1      -4.746  12.733  17.345  1.00  0.00    -0.507 OA
ATOM     23  H   UNL     1      -3.996  12.677  18.016  1.00  0.00     0.293 HD
ENDBRANCH   6  22
BRANCH   8  24
ATOM     24  O   UNL     1      -9.475  12.365  18.098  1.00  0.00    -0.508 OA
ATOM     25  H   UNL     1      -9.975  12.949  17.439  1.00  0.00     0.293 HD
ENDBRANCH   8  24
TORSDOF 5
ENDMDL
MODEL 3
REMARK VINA RESULT:    26.701      5.261      8.519
REMARK INTER + INTRA:          31.098
REMARK INTER:                  31.367
REMARK INTRA:                  -0.269
REMARK UNBOUND:                -0.286
REMARK SMILES O=c1cc(-c2ccc(O)c(O)c2)oc2cc(O)cc(O)c12
REMARK SMILES IDX 4 1 3 2 2 3 1 4 21 5 19 6 18 7 16 8 15 9 14 10 13 11 5 12
REMARK SMILES IDX 6 13 7 14 8 15 12 16 10 17 9 18 11 20 20 22 17 24
REMARK H PARENT 9 19 11 21 20 23 17 25
REMARK Flexibility Score: inf
ROOT
ATOM      1  C   UNL     1      -5.905   7.346  16.628  1.00  0.00     0.138 A 
ATOM      2  C   UNL     1      -5.541   6.412  17.607  1.00  0.00     0.100 A 
ATOM      3  C   UNL     1      -5.789   5.055  17.393  1.00  0.00     0.197 A 
ATOM      4  O   UNL     1      -5.507   4.247  18.314  1.00  0.00    -0.289 OA
ATOM      5  C   UNL     1      -6.378   4.631  16.177  1.00  0.00     0.107 A 
ATOM      6  C   UNL     1      -6.640   3.272  15.833  1.00  0.00     0.134 A 
ATOM      7  C   UNL     1      -7.334   2.981  14.650  1.00  0.00     0.093 A 
ATOM      8  C   UNL     1      -7.720   3.997  13.772  1.00  0.00     0.123 A 
ATOM      9  C   UNL     1      -7.420   5.324  14.075  1.00  0.00     0.094 A 
ATOM     10  C   UNL     1      -6.760   5.648  15.262  1.00  0.00     0.146 A 
ATOM     11  O   UNL     1      -6.506   6.928  15.519  1.00  0.00    -0.456 OA
ENDROOT
BRANCH   1  12
ATOM     12  C   UNL     1      -5.663   8.800  16.804  1.00  0.00     0.021 A 
ATOM     13  C   UNL     1      -4.406   9.379  16.543  1.00  0.00     0.016 A 
ATOM     14  C   UNL     1      -4.210  10.753  16.708  1.00  0.00     0.051 A 
ATOM     15  C   UNL     1      -5.265  11.572  17.126  1.00  0.00     0.157 A 
ATOM     16  C   UNL     1      -6.721   9.634  17.212  1.00  0.00     0.062 A 
ATOM     17  C   UNL     1      -6.523  11.012  17.377  1.00  0.00     0.158 A 
BRANCH  15  18
ATOM     18  O   UNL     1      -5.072  12.942  17.292  1.00  0.00    -0.504 OA
ATOM     19  H   UNL     1      -4.799  13.537  16.518  1.00  0.00     0.293 HD
ENDBRANCH  15  18
BRANCH  17  20
ATOM     20  O   UNL     1      -7.572  11.832  17.790  1.00  0.00    -0.504 OA
ATOM     21  H   UNL     1      -7.447  12.526  18.518  1.00  0.00     0.293 HD
ENDBRANCH  17  20
ENDBRANCH   1  12
BRANCH   6  22
ATOM     22  O   UNL     1      -6.223   2.177  16.596  1.00  0.00    -0.507 OA
ATOM     23  H   UNL     1      -5.277   1.832  16.639  1.00  0.00     0.293 HD
ENDBRANCH   6  22
BRANCH   8  24
ATOM     24  O   UNL     1      -8.395   3.697  12.592  1.00  0.00    -0.508 OA
ATOM     25  H   UNL     1      -9.406   3.643  12.558  1.00  0.00     0.293 HD
ENDBRANCH   8  24
TORSDOF 5
ENDMDL
MODEL 4
REMARK VINA RESULT:    27.799     12.816     14.854
REMARK INTER + INTRA:          32.389
REMARK INTER:                  32.677
REMARK INTRA:                  -0.288
REMARK UNBOUND:                -0.286
REMARK SMILES O=c1cc(-c2ccc(O)c(O)c2)oc2cc(O)cc(O)c12
REMARK SMILES IDX 4 1 3 2 2 3 1 4 21 5 19 6 18 7 16 8 15 9 14 10 13 11 5 12
REMARK SMILES IDX 6 13 7 14 8 15 12 16 10 17 9 18 11 20 20 22 17 24
REMARK H PARENT 9 19 11 21 20 23 17 25
REMARK Flexibility Score: inf
ROOT
ATOM      1  C   UNL     1      -5.326  -2.442  12.953  1.00  0.00     0.138 A 
ATOM      2  C   UNL     1      -6.052  -1.912  11.877  1.00  0.00     0.100 A 
ATOM      3  C   UNL     1      -7.447  -1.887  11.931  1.00  0.00     0.197 A 
ATOM      4  O   UNL     1      -8.073  -1.463  10.927  1.00  0.00    -0.289 OA
ATOM      5  C   UNL     1      -8.115  -2.369  13.083  1.00  0.00     0.107 A 
ATOM      6  C   UNL     1      -9.529  -2.356  13.266  1.00  0.00     0.134 A 
ATOM      7  C   UNL     1     -10.084  -2.966  14.399  1.00  0.00     0.093 A 
ATOM      8  C   UNL     1      -9.271  -3.534  15.383  1.00  0.00     0.123 A 
ATOM      9  C   UNL     1      -7.885  -3.503  15.238  1.00  0.00     0.094 A 
ATOM     10  C   UNL     1      -7.304  -2.933  14.104  1.00  0.00     0.146 A 
ATOM     11  O   UNL     1      -5.979  -2.938  13.999  1.00  0.00    -0.456 OA
ENDROOT
BRANCH   1  12
ATOM     12  C   UNL     1      -3.842  -2.492  12.947  1.00  0.00     0.021 A 
ATOM     13  C   UNL     1      -3.131  -3.462  13.680  1.00  0.00     0.016 A 
ATOM     14  C   UNL     1      -1.735  -3.493  13.647  1.00  0.00     0.051 A 
ATOM     15  C   UNL     1      -1.025  -2.563  12.877  1.00  0.00     0.157 A 
ATOM     16  C   UNL     1      -3.121  -1.571  12.166  1.00  0.00     0.062 A 
ATOM     17  C   UNL     1      -1.720  -1.602  12.134  1.00  0.00     0.158 A 
BRANCH  15  18
ATOM     18  O   UNL     1       0.368  -2.591  12.844  1.00  0.00    -0.504 OA
ATOM     19  H   UNL     1       0.884  -3.451  12.981  1.00  0.00     0.293 HD
ENDBRANCH  15  18
BRANCH  17  20
ATOM     20  O   UNL     1      -1.010  -0.680  11.365  1.00  0.00    -0.504 OA
ATOM     21  H   UNL     1      -0.862  -0.820  10.372  1.00  0.00     0.293 HD
ENDBRANCH  17  20
ENDBRANCH   1  12
BRANCH   6  22
ATOM     22  O   UNL     1     -10.426  -1.740  12.387  1.00  0.00    -0.507 OA
ATOM     23  H   UNL     1     -10.877  -0.855  12.552  1.00  0.00     0.293 HD
ENDBRANCH   6  22
BRANCH   8  24
ATOM     24  O   UNL     1      -9.831  -4.125  16.513  1.00  0.00    -0.508 OA
ATOM     25  H   UNL     1     -10.552  -4.833  16.439  1.00  0.00     0.293 HD
ENDBRANCH   8  24
TORSDOF 5
ENDMDL
MODEL 5
REMARK VINA RESULT:    27.913     12.970     14.342
REMARK INTER + INTRA:          32.522
REMARK INTER:                  32.815
REMARK INTRA:                  -0.292
REMARK UNBOUND:                -0.286
REMARK SMILES O=c1cc(-c2ccc(O)c(O)c2)oc2cc(O)cc(O)c12
REMARK SMILES IDX 4 1 3 2 2 3 1 4 21 5 19 6 18 7 16 8 15 9 14 10 13 11 5 12
REMARK SMILES IDX 6 13 7 14 8 15 12 16 10 17 9 18 11 20 20 22 17 24
REMARK H PARENT 9 19 11 21 20 23 17 25
REMARK Flexibility Score: inf
ROOT
ATOM      1  C   UNL     1      -6.889  -2.614  13.288  1.00  0.00     0.138 A 
ATOM      2  C   UNL     1      -7.161  -3.272  14.496  1.00  0.00     0.100 A 
ATOM      3  C   UNL     1      -8.484  -3.506  14.872  1.00  0.00     0.197 A 
ATOM      4  O   UNL     1      -8.698  -4.043  15.989  1.00  0.00    -0.289 OA
ATOM      5  C   UNL     1      -9.540  -3.104  14.018  1.00  0.00     0.107 A 
ATOM      6  C   UNL     1     -10.924  -3.327  14.280  1.00  0.00     0.134 A 
ATOM      7  C   UNL     1     -11.885  -2.782  13.418  1.00  0.00     0.093 A 
ATOM      8  C   UNL     1     -11.509  -2.076  12.272  1.00  0.00     0.123 A 
ATOM      9  C   UNL     1     -10.158  -1.900  11.981  1.00  0.00     0.094 A 
ATOM     10  C   UNL     1      -9.177  -2.401  12.839  1.00  0.00     0.146 A 
ATOM     11  O   UNL     1      -7.899  -2.199  12.531  1.00  0.00    -0.456 OA
ENDROOT
BRANCH   1  12
ATOM     12  C   UNL     1      -5.501  -2.340  12.840  1.00  0.00     0.021 A 
ATOM     13  C   UNL     1      -5.222  -1.415  11.816  1.00  0.00     0.016 A 
ATOM     14  C   UNL     1      -3.904  -1.170  11.421  1.00  0.00     0.051 A 
ATOM     15  C   UNL     1      -2.844  -1.834  12.048  1.00  0.00     0.157 A 
ATOM     16  C   UNL     1      -4.428  -2.994  13.472  1.00  0.00     0.062 A 
ATOM     17  C   UNL     1      -3.105  -2.746  13.076  1.00  0.00     0.158 A 
BRANCH  15  18
ATOM     18  O   UNL     1      -1.528  -1.592  11.656  1.00  0.00    -0.504 OA
ATOM     19  H   UNL     1      -1.271  -1.520  10.678  1.00  0.00     0.293 HD
ENDBRANCH  15  18
BRANCH  17  20
ATOM     20  O   UNL     1      -2.046  -3.405  13.700  1.00  0.00    -0.504 OA
ATOM     21  H   UNL     1      -1.102  -3.354  13.335  1.00  0.00     0.293 HD
ENDBRANCH  17  20
ENDBRANCH   1  12
BRANCH   6  22
ATOM     22  O   UNL     1     -11.406  -4.090  15.348  1.00  0.00    -0.507 OA
ATOM     23  H   UNL     1     -11.154  -3.953  16.313  1.00  0.00     0.293 HD
ENDBRANCH   6  22
BRANCH   8  24
ATOM     24  O   UNL     1     -12.471  -1.551  11.414  1.00  0.00    -0.508 OA
ATOM     25  H   UNL     1     -13.386  -1.976  11.318  1.00  0.00     0.293 HD
ENDBRANCH   8  24
TORSDOF 5
ENDMDL
MODEL 6
REMARK VINA RESULT:    28.650      5.132      7.822
REMARK INTER + INTRA:          33.389
REMARK INTER:                  33.661
REMARK INTRA:                  -0.273
REMARK UNBOUND:                -0.286
REMARK SMILES O=c1cc(-c2ccc(O)c(O)c2)oc2cc(O)cc(O)c12
REMARK SMILES IDX 4 1 3 2 2 3 1 4 21 5 19 6 18 7 16 8 15 9 14 10 13 11 5 12
REMARK SMILES IDX 6 13 7 14 8 15 12 16 10 17 9 18 11 20 20 22 17 24
REMARK H PARENT 9 19 11 21 20 23 17 25
REMARK Flexibility Score: inf
ROOT
ATOM      1  C   UNL     1      -6.624   7.025  17.146  1.00  0.00     0.138 A 
ATOM      2  C   UNL     1      -6.055   6.153  18.084  1.00  0.00     0.100 A 
ATOM      3  C   UNL     1      -5.724   4.851  17.706  1.00  0.00     0.197 A 
ATOM      4  O   UNL     1      -5.273   4.074  18.585  1.00  0.00    -0.289 OA
ATOM      5  C   UNL     1      -5.938   4.431  16.370  1.00  0.00     0.107 A 
ATOM      6  C   UNL     1      -5.601   3.142  15.862  1.00  0.00     0.134 A 
ATOM      7  C   UNL     1      -5.966   2.800  14.553  1.00  0.00     0.093 A 
ATOM      8  C   UNL     1      -6.599   3.723  13.716  1.00  0.00     0.123 A 
ATOM      9  C   UNL     1      -6.883   5.003  14.188  1.00  0.00     0.094 A 
ATOM     10  C   UNL     1      -6.563   5.362  15.499  1.00  0.00     0.146 A 
ATOM     11  O   UNL     1      -6.864   6.589  15.913  1.00  0.00    -0.456 OA
ENDROOT
BRANCH   1  12
ATOM     12  C   UNL     1      -6.994   8.420  17.495  1.00  0.00     0.021 A 
ATOM     13  C   UNL     1      -6.642   9.507  16.672  1.00  0.00     0.016 A 
ATOM     14  C   UNL     1      -7.013  10.809  17.020  1.00  0.00     0.051 A 
ATOM     15  C   UNL     1      -7.747  11.046  18.188  1.00  0.00     0.157 A 
ATOM     16  C   UNL     1      -7.743   8.667  18.660  1.00  0.00     0.062 A 
ATOM     17  C   UNL     1      -8.115   9.973  19.008  1.00  0.00     0.158 A 
BRANCH  15  18
ATOM     18  O   UNL     1      -8.118  12.343  18.539  1.00  0.00    -0.504 OA
ATOM     19  H   UNL     1      -8.573  12.544  19.421  1.00  0.00     0.293 HD
ENDBRANCH  15  18
BRANCH  17  20
ATOM     20  O   UNL     1      -8.849  10.212  20.169  1.00  0.00    -0.504 OA
ATOM     21  H   UNL     1      -9.211  11.134  20.387  1.00  0.00     0.293 HD
ENDBRANCH  17  20
ENDBRANCH   1  12
BRANCH   6  22
ATOM     22  O   UNL     1      -4.894   2.176  16.584  1.00  0.00    -0.507 OA
ATOM     23  H   UNL     1      -4.266   2.373  17.347  1.00  0.00     0.293 HD
ENDBRANCH   6  22
BRANCH   8  24
ATOM     24  O   UNL     1      -6.944   3.379  12.412  1.00  0.00    -0.508 OA
ATOM     25  H   UNL     1      -6.378   2.743  11.863  1.00  0.00     0.293 HD
ENDBRANCH   8  24
TORSDOF 5
ENDMDL
MODEL 7
REMARK VINA RESULT:    28.777      5.425      8.936
REMARK INTER + INTRA:          33.537
REMARK INTER:                  33.801
REMARK INTRA:                  -0.264
REMARK UNBOUND:                -0.286
REMARK SMILES O=c1cc(-c2ccc(O)c(O)c2)oc2cc(O)cc(O)c12
REMARK SMILES IDX 4 1 3 2 2 3 1 4 21 5 19 6 18 7 16 8 15 9 14 10 13 11 5 12
REMARK SMILES IDX 6 13 7 14 8 15 12 16 10 17 9 18 11 20 20 22 17 24
REMARK H PARENT 9 19 11 21 20 23 17 25
REMARK Flexibility Score: inf
ROOT
ATOM      1  C   UNL     1      -6.167   7.368  16.021  1.00  0.00     0.138 A 
ATOM      2  C   UNL     1      -6.959   7.113  14.893  1.00  0.00     0.100 A 
ATOM      3  C   UNL     1      -7.249   5.796  14.536  1.00  0.00     0.197 A 
ATOM      4  O   UNL     1      -7.911   5.597  13.485  1.00  0.00    -0.289 OA
ATOM      5  C   UNL     1      -6.768   4.729  15.332  1.00  0.00     0.107 A 
ATOM      6  C   UNL     1      -7.034   3.349  15.087  1.00  0.00     0.134 A 
ATOM      7  C   UNL     1      -6.408   2.375  15.876  1.00  0.00     0.093 A 
ATOM      8  C   UNL     1      -5.573   2.734  16.938  1.00  0.00     0.123 A 
ATOM      9  C   UNL     1      -5.350   4.081  17.217  1.00  0.00     0.094 A 
ATOM     10  C   UNL     1      -5.933   5.074  16.428  1.00  0.00     0.146 A 
ATOM     11  O   UNL     1      -5.682   6.347  16.720  1.00  0.00    -0.456 OA
ENDROOT
BRANCH   1  12
ATOM     12  C   UNL     1      -5.829   8.750  16.446  1.00  0.00     0.021 A 
ATOM     13  C   UNL     1      -4.525   9.265  16.319  1.00  0.00     0.016 A 
ATOM     14  C   UNL     1      -4.237  10.573  16.717  1.00  0.00     0.051 A 
ATOM     15  C   UNL     1      -5.246  11.391  17.238  1.00  0.00     0.157 A 
ATOM     16  C   UNL     1      -6.839   9.583  16.959  1.00  0.00     0.062 A 
ATOM     17  C   UNL     1      -6.550  10.896  17.357  1.00  0.00     0.158 A 
BRANCH  15  18
ATOM     18  O   UNL     1      -4.962  12.696  17.637  1.00  0.00    -0.504 OA
ATOM     19  H   UNL     1      -5.638  13.443  17.525  1.00  0.00     0.293 HD
ENDBRANCH  15  18
BRANCH  17  20
ATOM     20  O   UNL     1      -7.553  11.715  17.874  1.00  0.00    -0.504 OA
ATOM     21  H   UNL     1      -8.241  11.361  18.529  1.00  0.00     0.293 HD
ENDBRANCH  17  20
ENDBRANCH   1  12
BRANCH   6  22
ATOM     22  O   UNL     1      -7.918   2.884  14.109  1.00  0.00    -0.507 OA
ATOM     23  H   UNL     1      -8.597   2.153  14.247  1.00  0.00     0.293 HD
ENDBRANCH   6  22
BRANCH   8  24
ATOM     24  O   UNL     1      -4.967   1.759  17.726  1.00  0.00    -0.508 OA
ATOM     25  H   UNL     1      -4.760   0.836  17.363  1.00  0.00     0.293 HD
ENDBRANCH   8  24
TORSDOF 5
ENDMDL
