MODEL 1
REMARK VINA RESULT:    -4.330      0.000      0.000
REMARK INTER + INTRA:         -16.057
REMARK INTER:                 -11.419
REMARK INTRA:                  -4.638
REMARK UNBOUND:                -4.638
REMARK SMILES CCCCCCCCCCCCCCCCCCCCCCCCCCCCCC(=O)[O-]
REMARK SMILES IDX 16 1 17 2 18 3 19 4 20 5 21 6 22 7 23 8 24 9 25 10 26 11
REMARK SMILES IDX 27 12 28 13 29 14 30 15 31 16 32 17 15 18 14 19 13 20 12 21
REMARK SMILES IDX 11 22 10 23 9 24 8 25 7 26 6 27 5 28 4 29 3 30 2 31 1 32
REMARK H PARENT
REMARK Flexibility Score: inf
ROOT
ATOM      1  C   UNL     1      -4.681  -3.292   0.604  1.00  0.00     0.000 C 
ENDROOT
BRANCH   1   2
ATOM      2  C   UNL     1      -4.900  -4.816   0.686  1.00  0.00     0.000 C 
BRANCH   2   3
ATOM      3  C   UNL     1      -5.607  -5.443  -0.529  1.00  0.00     0.000 C 
BRANCH   3   4
ATOM      4  C   UNL     1      -7.130  -5.554  -0.344  1.00  0.00     0.000 C 
BRANCH   4   5
ATOM      5  C   UNL     1      -7.913  -4.544  -1.203  1.00  0.00     0.000 C 
BRANCH   5   6
ATOM      6  C   UNL     1      -8.383  -3.279  -0.461  1.00  0.00     0.000 C 
BRANCH   6   7
ATOM      7  C   UNL     1      -7.801  -1.985  -1.053  1.00  0.00     0.000 C 
BRANCH   7   8
ATOM      8  C   UNL     1      -6.956  -2.280  -2.301  1.00  0.00     0.000 C 
BRANCH   8   9
ATOM      9  C   UNL     1      -5.657  -1.456  -2.350  1.00  0.00     0.000 C 
BRANCH   9  10
ATOM     10  C   UNL     1      -5.655  -0.194  -1.465  1.00  0.00     0.000 C 
BRANCH  10  11
ATOM     11  C   UNL     1      -5.244   1.107  -2.183  1.00  0.00     0.000 C 
BRANCH  11  12
ATOM     12  C   UNL     1      -4.801   0.930  -3.647  1.00  0.00     0.000 C 
BRANCH  12  13
ATOM     13  C   UNL     1      -5.774   1.582  -4.645  1.00  0.00     0.006 C 
BRANCH  13  14
ATOM     14  C   UNL     1      -6.499   2.793  -4.043  1.00  0.00     0.053 C 
BRANCH  14  15
ATOM     15  C   UNL     1      -5.902   4.090  -4.498  1.00  0.00     0.041 C 
ATOM     16  O   UNL     1      -6.643   5.080  -4.741  1.00  0.00    -0.550 OA
ATOM     17  O   UNL     1      -4.525   4.208  -4.650  1.00  0.00    -0.550 OA
ENDBRANCH  14  15
ENDBRANCH  13  14
ENDBRANCH  12  13
ENDBRANCH  11  12
ENDBRANCH  10  11
ENDBRANCH   9  10
ENDBRANCH   8   9
ENDBRANCH   7   8
ENDBRANCH   6   7
ENDBRANCH   5   6
ENDBRANCH   4   5
ENDBRANCH   3   4
ENDBRANCH   2   3
ENDBRANCH   1   2
BRANCH   1  18
ATOM     18  C   UNL     1      -4.870  -2.528   1.929  1.00  0.00     0.000 C 
BRANCH  18  19
ATOM     19  C   UNL     1      -6.024  -1.508   1.940  1.00  0.00     0.000 C 
BRANCH  19  20
ATOM     20  C   UNL     1      -6.871  -1.573   3.221  1.00  0.00     0.000 C 
BRANCH  20  21
ATOM     21  C   UNL     1      -7.976  -2.642   3.152  1.00  0.00     0.000 C 
BRANCH  21  22
ATOM     22  C   UNL     1      -7.829  -3.809   4.151  1.00  0.00     0.000 C 
BRANCH  22  23
ATOM     23  C   UNL     1      -6.867  -4.931   3.717  1.00  0.00     0.000 C 
BRANCH  23  24
ATOM     24  C   UNL     1      -5.809  -5.256   4.787  1.00  0.00    -0.000 C 
BRANCH  24  25
ATOM     25  C   UNL     1      -4.841  -4.088   5.041  1.00  0.00    -0.000 C 
BRANCH  25  26
ATOM     26  C   UNL     1      -4.855  -3.612   6.504  1.00  0.00    -0.000 C 
BRANCH  26  27
ATOM     27  C   UNL     1      -4.058  -2.309   6.711  1.00  0.00    -0.000 C 
BRANCH  27  28
ATOM     28  C   UNL     1      -3.781  -1.508   5.423  1.00  0.00    -0.000 C 
BRANCH  28  29
ATOM     29  C   UNL     1      -3.371  -0.040   5.644  1.00  0.00    -0.000 C 
BRANCH  29  30
ATOM     30  C   UNL     1      -1.953   0.294   5.129  1.00  0.00    -0.000 C 
BRANCH  30  31
ATOM     31  C   UNL     1      -0.927   0.520   6.254  1.00  0.00    -0.003 C 
ATOM     32  C   UNL     1       0.132  -0.581   6.309  1.00  0.00     0.004 C 
ENDBRANCH  30  31
ENDBRANCH  29  30
ENDBRANCH  28  29
ENDBRANCH  27  28
ENDBRANCH  26  27
ENDBRANCH  25  26
ENDBRANCH  24  25
ENDBRANCH  23  24
ENDBRANCH  22  23
ENDBRANCH  21  22
ENDBRANCH  20  21
ENDBRANCH  19  20
ENDBRANCH  18  19
ENDBRANCH   1  18
TORSDOF 28
ENDMDL
MODEL 2
REMARK VINA RESULT:    -4.305      1.204      3.011
REMARK INTER + INTRA:         -15.989
REMARK INTER:                 -11.395
REMARK INTRA:                  -4.594
REMARK UNBOUND:                -4.638
REMARK SMILES CCCCCCCCCCCCCCCCCCCCCCCCCCCCCC(=O)[O-]
REMARK SMILES IDX 16 1 17 2 18 3 19 4 20 5 21 6 22 7 23 8 24 9 25 10 26 11
REMARK SMILES IDX 27 12 28 13 29 14 30 15 31 16 32 17 15 18 14 19 13 20 12 21
REMARK SMILES IDX 11 22 10 23 9 24 8 25 7 26 6 27 5 28 4 29 3 30 2 31 1 32
REMARK H PARENT
REMARK Flexibility Score: inf
ROOT
ATOM      1  C   UNL     1      -7.064  -1.673   2.759  1.00  0.00     0.000 C 
ENDROOT
BRANCH   1   2
ATOM      2  C   UNL     1      -5.920  -1.514   1.738  1.00  0.00     0.000 C 
BRANCH   2   3
ATOM      3  C   UNL     1      -4.783  -2.545   1.861  1.00  0.00     0.000 C 
BRANCH   3   4
ATOM      4  C   UNL     1      -4.600  -3.388   0.588  1.00  0.00     0.000 C 
BRANCH   4   5
ATOM      5  C   UNL     1      -4.902  -4.882   0.809  1.00  0.00     0.000 C 
BRANCH   5   6
ATOM      6  C   UNL     1      -6.114  -5.427   0.031  1.00  0.00     0.000 C 
BRANCH   6   7
ATOM      7  C   UNL     1      -5.855  -5.542  -1.480  1.00  0.00     0.000 C 
BRANCH   7   8
ATOM      8  C   UNL     1      -6.966  -4.852  -2.284  1.00  0.00     0.000 C 
BRANCH   8   9
ATOM      9  C   UNL     1      -7.851  -3.939  -1.418  1.00  0.00     0.000 C 
BRANCH   9  10
ATOM     10  C   UNL     1      -7.495  -2.440  -1.481  1.00  0.00     0.000 C 
BRANCH  10  11
ATOM     11  C   UNL     1      -6.394  -2.073  -2.495  1.00  0.00     0.000 C 
BRANCH  11  12
ATOM     12  C   UNL     1      -5.478  -0.910  -2.071  1.00  0.00     0.000 C 
BRANCH  12  13
ATOM     13  C   UNL     1      -6.065   0.467  -2.424  1.00  0.00     0.006 C 
BRANCH  13  14
ATOM     14  C   UNL     1      -5.054   1.602  -2.209  1.00  0.00     0.053 C 
BRANCH  14  15
ATOM     15  C   UNL     1      -5.729   2.914  -1.941  1.00  0.00     0.041 C 
ATOM     16  O   UNL     1      -5.884   3.750  -2.871  1.00  0.00    -0.550 OA
ATOM     17  O   UNL     1      -6.191   3.210  -0.664  1.00  0.00    -0.550 OA
ENDBRANCH  14  15
ENDBRANCH  13  14
ENDBRANCH  12  13
ENDBRANCH  11  12
ENDBRANCH  10  11
ENDBRANCH   9  10
ENDBRANCH   8   9
ENDBRANCH   7   8
ENDBRANCH   6   7
ENDBRANCH   5   6
ENDBRANCH   4   5
ENDBRANCH   3   4
ENDBRANCH   2   3
ENDBRANCH   1   2
BRANCH   1  18
ATOM     18  C   UNL     1      -8.331  -2.369   2.225  1.00  0.00     0.000 C 
BRANCH  18  19
ATOM     19  C   UNL     1      -8.425  -3.877   2.524  1.00  0.00     0.000 C 
BRANCH  19  20
ATOM     20  C   UNL     1      -7.771  -4.267   3.859  1.00  0.00     0.000 C 
BRANCH  20  21
ATOM     21  C   UNL     1      -6.879  -5.516   3.742  1.00  0.00     0.000 C 
BRANCH  21  22
ATOM     22  C   UNL     1      -5.603  -5.499   4.610  1.00  0.00     0.000 C 
BRANCH  22  23
ATOM     23  C   UNL     1      -5.006  -4.105   4.878  1.00  0.00     0.000 C 
BRANCH  23  24
ATOM     24  C   UNL     1      -4.672  -3.875   6.363  1.00  0.00    -0.000 C 
BRANCH  24  25
ATOM     25  C   UNL     1      -4.411  -2.395   6.692  1.00  0.00    -0.000 C 
BRANCH  25  26
ATOM     26  C   UNL     1      -4.069  -1.560   5.446  1.00  0.00    -0.000 C 
BRANCH  26  27
ATOM     27  C   UNL     1      -3.304  -0.267   5.791  1.00  0.00    -0.000 C 
BRANCH  27  28
ATOM     28  C   UNL     1      -2.095   0.031   4.882  1.00  0.00    -0.000 C 
BRANCH  28  29
ATOM     29  C   UNL     1      -0.756   0.223   5.619  1.00  0.00    -0.000 C 
BRANCH  29  30
ATOM     30  C   UNL     1      -0.623  -0.633   6.899  1.00  0.00    -0.000 C 
BRANCH  30  31
ATOM     31  C   UNL     1       0.835  -0.915   7.303  1.00  0.00    -0.003 C 
ATOM     32  C   UNL     1       1.682  -1.408   6.130  1.00  0.00     0.004 C 
ENDBRANCH  30  31
ENDBRANCH  29  30
ENDBRANCH  28  29
ENDBRANCH  27  28
ENDBRANCH  26  27
ENDBRANCH  25  26
ENDBRANCH  24  25
ENDBRANCH  23  24
ENDBRANCH  22  23
ENDBRANCH  21  22
ENDBRANCH  20  21
ENDBRANCH  19  20
ENDBRANCH  18  19
ENDBRANCH   1  18
TORSDOF 28
ENDMDL
MODEL 3
REMARK VINA RESULT:    -4.274      3.548      8.333
REMARK INTER + INTRA:         -15.908
REMARK INTER:                 -12.051
REMARK INTRA:                  -3.857
REMARK UNBOUND:                -4.638
REMARK SMILES CCCCCCCCCCCCCCCCCCCCCCCCCCCCCC(=O)[O-]
REMARK SMILES IDX 16 1 17 2 18 3 19 4 20 5 21 6 22 7 23 8 24 9 25 10 26 11
REMARK SMILES IDX 27 12 28 13 29 14 30 15 31 16 32 17 15 18 14 19 13 20 12 21
REMARK SMILES IDX 11 22 10 23 9 24 8 25 7 26 6 27 5 28 4 29 3 30 2 31 1 32
REMARK H PARENT
REMARK Flexibility Score: inf
ROOT
ATOM      1  C   UNL     1      -4.720  -4.766   0.945  1.00  0.00     0.000 C 
ENDROOT
BRANCH   1   2
ATOM      2  C   UNL     1      -4.861  -3.250   1.191  1.00  0.00     0.000 C 
BRANCH   2   3
ATOM      3  C   UNL     1      -5.003  -2.835   2.666  1.00  0.00     0.000 C 
BRANCH   3   4
ATOM      4  C   UNL     1      -5.216  -4.033   3.607  1.00  0.00     0.000 C 
BRANCH   4   5
ATOM      5  C   UNL     1      -4.808  -3.734   5.061  1.00  0.00     0.000 C 
BRANCH   5   6
ATOM      6  C   UNL     1      -4.702  -2.239   5.417  1.00  0.00     0.000 C 
BRANCH   6   7
ATOM      7  C   UNL     1      -3.694  -1.960   6.543  1.00  0.00     0.000 C 
BRANCH   7   8
ATOM      8  C   UNL     1      -3.274  -0.483   6.554  1.00  0.00     0.000 C 
BRANCH   8   9
ATOM      9  C   UNL     1      -2.587  -0.048   5.247  1.00  0.00     0.000 C 
BRANCH   9  10
ATOM     10  C   UNL     1      -1.231   0.661   5.431  1.00  0.00     0.000 C 
BRANCH  10  11
ATOM     11  C   UNL     1      -0.451   0.259   6.699  1.00  0.00     0.000 C 
BRANCH  11  12
ATOM     12  C   UNL     1       0.518  -0.925   6.521  1.00  0.00     0.000 C 
BRANCH  12  13
ATOM     13  C   UNL     1       1.049  -1.045   5.082  1.00  0.00     0.006 C 
BRANCH  13  14
ATOM     14  C   UNL     1       2.552  -1.355   5.041  1.00  0.00     0.053 C 
BRANCH  14  15
ATOM     15  C   UNL     1       3.059  -1.501   3.638  1.00  0.00     0.041 C 
ATOM     16  O   UNL     1       4.200  -1.065   3.327  1.00  0.00    -0.550 OA
ATOM     17  O   UNL     1       2.273  -2.123   2.675  1.00  0.00    -0.550 OA
ENDBRANCH  14  15
ENDBRANCH  13  14
ENDBRANCH  12  13
ENDBRANCH  11  12
ENDBRANCH  10  11
ENDBRANCH   9  10
ENDBRANCH   8   9
ENDBRANCH   7   8
ENDBRANCH   6   7
ENDBRANCH   5   6
ENDBRANCH   4   5
ENDBRANCH   3   4
ENDBRANCH   2   3
ENDBRANCH   1   2
BRANCH   1  18
ATOM     18  C   UNL     1      -5.257  -5.265  -0.410  1.00  0.00     0.000 C 
BRANCH  18  19
ATOM     19  C   UNL     1      -6.608  -4.665  -0.842  1.00  0.00     0.000 C 
BRANCH  19  20
ATOM     20  C   UNL     1      -7.777  -5.653  -0.698  1.00  0.00     0.000 C 
BRANCH  20  21
ATOM     21  C   UNL     1      -8.804  -5.209   0.359  1.00  0.00     0.000 C 
BRANCH  21  22
ATOM     22  C   UNL     1      -8.419  -5.512   1.822  1.00  0.00     0.000 C 
BRANCH  22  23
ATOM     23  C   UNL     1      -8.575  -4.335   2.803  1.00  0.00     0.000 C 
BRANCH  23  24
ATOM     24  C   UNL     1      -9.270  -3.118   2.167  1.00  0.00    -0.000 C 
BRANCH  24  25
ATOM     25  C   UNL     1      -8.487  -1.810   2.374  1.00  0.00    -0.000 C 
BRANCH  25  26
ATOM     26  C   UNL     1      -8.573  -0.866   1.162  1.00  0.00    -0.000 C 
BRANCH  26  27
ATOM     27  C   UNL     1      -7.371  -1.015   0.209  1.00  0.00    -0.000 C 
BRANCH  27  28
ATOM     28  C   UNL     1      -6.747   0.315  -0.258  1.00  0.00    -0.000 C 
BRANCH  28  29
ATOM     29  C   UNL     1      -5.680   0.183  -1.361  1.00  0.00    -0.000 C 
BRANCH  29  30
ATOM     30  C   UNL     1      -5.623  -1.221  -2.005  1.00  0.00    -0.000 C 
BRANCH  30  31
ATOM     31  C   UNL     1      -5.711  -1.197  -3.542  1.00  0.00    -0.003 C 
ATOM     32  C   UNL     1      -4.771  -0.164  -4.165  1.00  0.00     0.004 C 
ENDBRANCH  30  31
ENDBRANCH  29  30
ENDBRANCH  28  29
ENDBRANCH  27  28
ENDBRANCH  26  27
ENDBRANCH  25  26
ENDBRANCH  24  25
ENDBRANCH  23  24
ENDBRANCH  22  23
ENDBRANCH  21  22
ENDBRANCH  20  21
ENDBRANCH  19  20
ENDBRANCH  18  19
ENDBRANCH   1  18
TORSDOF 28
ENDMDL
MODEL 4
REMARK VINA RESULT:    -4.238      2.752      5.670
REMARK INTER + INTRA:         -15.814
REMARK INTER:                 -12.881
REMARK INTRA:                  -2.932
REMARK UNBOUND:                -4.638
REMARK SMILES CCCCCCCCCCCCCCCCCCCCCCCCCCCCCC(=O)[O-]
REMARK SMILES IDX 16 1 17 2 18 3 19 4 20 5 21 6 22 7 23 8 24 9 25 10 26 11
REMARK SMILES IDX 27 12 28 13 29 14 30 15 31 16 32 17 15 18 14 19 13 20 12 21
REMARK SMILES IDX 11 22 10 23 9 24 8 25 7 26 6 27 5 28 4 29 3 30 2 31 1 32
REMARK H PARENT
REMARK Flexibility Score: inf
ROOT
ATOM      1  C   UNL     1      -4.802  -3.444   4.718  1.00  0.00     0.000 C 
ENDROOT
BRANCH   1   2
ATOM      2  C   UNL     1      -5.254  -3.957   3.335  1.00  0.00     0.000 C 
BRANCH   2   3
ATOM      3  C   UNL     1      -5.194  -2.919   2.199  1.00  0.00     0.000 C 
BRANCH   3   4
ATOM      4  C   UNL     1      -4.638  -3.499   0.888  1.00  0.00     0.000 C 
BRANCH   4   5
ATOM      5  C   UNL     1      -4.938  -5.000   0.721  1.00  0.00     0.000 C 
BRANCH   5   6
ATOM      6  C   UNL     1      -5.421  -5.420  -0.680  1.00  0.00     0.000 C 
BRANCH   6   7
ATOM      7  C   UNL     1      -6.930  -5.702  -0.735  1.00  0.00     0.000 C 
BRANCH   7   8
ATOM      8  C   UNL     1      -7.636  -5.181   0.525  1.00  0.00     0.000 C 
BRANCH   8   9
ATOM      9  C   UNL     1      -8.560  -3.983   0.240  1.00  0.00     0.000 C 
BRANCH   9  10
ATOM     10  C   UNL     1      -8.749  -3.013   1.422  1.00  0.00     0.000 C 
BRANCH  10  11
ATOM     11  C   UNL     1      -8.355  -1.550   1.135  1.00  0.00     0.000 C 
BRANCH  11  12
ATOM     12  C   UNL     1      -7.581  -1.329  -0.178  1.00  0.00     0.000 C 
BRANCH  12  13
ATOM     13  C   UNL     1      -6.597  -0.149  -0.095  1.00  0.00     0.006 C 
BRANCH  13  14
ATOM     14  C   UNL     1      -6.702   0.780  -1.312  1.00  0.00     0.053 C 
BRANCH  14  15
ATOM     15  C   UNL     1      -5.387   0.936  -2.016  1.00  0.00     0.041 C 
ATOM     16  O   UNL     1      -4.968   0.031  -2.786  1.00  0.00    -0.550 OA
ATOM     17  O   UNL     1      -4.628   2.084  -1.826  1.00  0.00    -0.550 OA
ENDBRANCH  14  15
ENDBRANCH  13  14
ENDBRANCH  12  13
ENDBRANCH  11  12
ENDBRANCH  10  11
ENDBRANCH   9  10
ENDBRANCH   8   9
ENDBRANCH   7   8
ENDBRANCH   6   7
ENDBRANCH   5   6
ENDBRANCH   4   5
ENDBRANCH   3   4
ENDBRANCH   2   3
ENDBRANCH   1   2
BRANCH   1  18
ATOM     18  C   UNL     1      -4.912  -1.921   4.922  1.00  0.00     0.000 C 
BRANCH  18  19
ATOM     19  C   UNL     1      -3.691  -1.107   4.456  1.00  0.00     0.000 C 
BRANCH  19  20
ATOM     20  C   UNL     1      -2.897  -0.494   5.622  1.00  0.00     0.000 C 
BRANCH  20  21
ATOM     21  C   UNL     1      -1.745   0.410   5.147  1.00  0.00     0.000 C 
BRANCH  21  22
ATOM     22  C   UNL     1      -0.701   0.769   6.225  1.00  0.00     0.000 C 
BRANCH  22  23
ATOM     23  C   UNL     1      -0.603  -0.217   7.403  1.00  0.00     0.000 C 
BRANCH  23  24
ATOM     24  C   UNL     1       0.394  -1.361   7.143  1.00  0.00    -0.000 C 
BRANCH  24  25
ATOM     25  C   UNL     1       1.852  -0.875   7.070  1.00  0.00    -0.000 C 
BRANCH  25  26
ATOM     26  C   UNL     1       2.633  -1.509   5.906  1.00  0.00    -0.000 C 
BRANCH  26  27
ATOM     27  C   UNL     1       1.816  -1.560   4.601  1.00  0.00    -0.000 C 
BRANCH  27  28
ATOM     28  C   UNL     1       2.591  -1.144   3.335  1.00  0.00    -0.000 C 
BRANCH  28  29
ATOM     29  C   UNL     1       3.368  -2.281   2.644  1.00  0.00    -0.000 C 
BRANCH  29  30
ATOM     30  C   UNL     1       4.853  -1.947   2.380  1.00  0.00    -0.000 C 
BRANCH  30  31
ATOM     31  C   UNL     1       5.268  -0.550   2.874  1.00  0.00    -0.003 C 
ATOM     32  C   UNL     1       6.273  -0.612   4.025  1.00  0.00     0.004 C 
ENDBRANCH  30  31
ENDBRANCH  29  30
ENDBRANCH  28  29
ENDBRANCH  27  28
ENDBRANCH  26  27
ENDBRANCH  25  26
ENDBRANCH  24  25
ENDBRANCH  23  24
ENDBRANCH  22  23
ENDBRANCH  21  22
ENDBRANCH  20  21
ENDBRANCH  19  20
ENDBRANCH  18  19
ENDBRANCH   1  18
TORSDOF 28
ENDMDL
MODEL 5
REMARK VINA RESULT:    -4.236      1.308      2.448
REMARK INTER + INTRA:         -15.807
REMARK INTER:                 -11.172
REMARK INTRA:                  -4.635
REMARK UNBOUND:                -4.638
REMARK SMILES CCCCCCCCCCCCCCCCCCCCCCCCCCCCCC(=O)[O-]
REMARK SMILES IDX 16 1 17 2 18 3 19 4 20 5 21 6 22 7 23 8 24 9 25 10 26 11
REMARK SMILES IDX 27 12 28 13 29 14 30 15 31 16 32 17 15 18 14 19 13 20 12 21
REMARK SMILES IDX 11 22 10 23 9 24 8 25 7 26 6 27 5 28 4 29 3 30 2 31 1 32
REMARK H PARENT
REMARK Flexibility Score: inf
ROOT
ATOM      1  C   UNL     1      -6.817  -1.157   1.865  1.00  0.00     0.000 C 
ENDROOT
BRANCH   1   2
ATOM      2  C   UNL     1      -5.367  -1.553   1.520  1.00  0.00     0.000 C 
BRANCH   2   3
ATOM      3  C   UNL     1      -5.004  -3.023   1.799  1.00  0.00     0.000 C 
BRANCH   3   4
ATOM      4  C   UNL     1      -4.575  -3.784   0.534  1.00  0.00     0.000 C 
BRANCH   4   5
ATOM      5  C   UNL     1      -5.283  -5.144   0.384  1.00  0.00     0.000 C 
BRANCH   5   6
ATOM      6  C   UNL     1      -5.764  -5.477  -1.041  1.00  0.00     0.000 C 
BRANCH   6   7
ATOM      7  C   UNL     1      -6.904  -4.564  -1.519  1.00  0.00     0.000 C 
BRANCH   7   8
ATOM      8  C   UNL     1      -6.800  -4.294  -3.026  1.00  0.00     0.000 C 
BRANCH   8   9
ATOM      9  C   UNL     1      -6.681  -2.796  -3.358  1.00  0.00     0.000 C 
BRANCH   9  10
ATOM     10  C   UNL     1      -6.505  -1.873  -2.135  1.00  0.00     0.000 C 
BRANCH  10  11
ATOM     11  C   UNL     1      -5.383  -0.823  -2.266  1.00  0.00     0.000 C 
BRANCH  11  12
ATOM     12  C   UNL     1      -5.620   0.484  -1.488  1.00  0.00     0.000 C 
BRANCH  12  13
ATOM     13  C   UNL     1      -5.096   1.723  -2.234  1.00  0.00     0.006 C 
BRANCH  13  14
ATOM     14  C   UNL     1      -4.814   1.433  -3.715  1.00  0.00     0.053 C 
BRANCH  14  15
ATOM     15  C   UNL     1      -5.616   2.315  -4.624  1.00  0.00     0.041 C 
ATOM     16  O   UNL     1      -6.729   1.924  -5.068  1.00  0.00    -0.550 OA
ATOM     17  O   UNL     1      -5.137   3.571  -4.976  1.00  0.00    -0.550 OA
ENDBRANCH  14  15
ENDBRANCH  13  14
ENDBRANCH  12  13
ENDBRANCH  11  12
ENDBRANCH  10  11
ENDBRANCH   9  10
ENDBRANCH   8   9
ENDBRANCH   7   8
ENDBRANCH   6   7
ENDBRANCH   5   6
ENDBRANCH   4   5
ENDBRANCH   3   4
ENDBRANCH   2   3
ENDBRANCH   1   2
BRANCH   1  18
ATOM     18  C   UNL     1      -7.908  -2.057   1.253  1.00  0.00     0.000 C 
BRANCH  18  19
ATOM     19  C   UNL     1      -8.531  -3.081   2.219  1.00  0.00     0.000 C 
BRANCH  19  20
ATOM     20  C   UNL     1      -9.014  -4.358   1.513  1.00  0.00     0.000 C 
BRANCH  20  21
ATOM     21  C   UNL     1      -8.424  -5.639   2.130  1.00  0.00     0.000 C 
BRANCH  21  22
ATOM     22  C   UNL     1      -8.739  -5.858   3.625  1.00  0.00     0.000 C 
BRANCH  22  23
ATOM     23  C   UNL     1      -7.533  -6.235   4.504  1.00  0.00     0.000 C 
BRANCH  23  24
ATOM     24  C   UNL     1      -6.185  -5.867   3.858  1.00  0.00    -0.000 C 
BRANCH  24  25
ATOM     25  C   UNL     1      -5.242  -5.131   4.825  1.00  0.00    -0.000 C 
BRANCH  25  26
ATOM     26  C   UNL     1      -5.712  -3.700   5.142  1.00  0.00    -0.000 C 
BRANCH  26  27
ATOM     27  C   UNL     1      -4.630  -2.863   5.850  1.00  0.00    -0.000 C 
BRANCH  27  28
ATOM     28  C   UNL     1      -4.215  -1.578   5.106  1.00  0.00    -0.000 C 
BRANCH  28  29
ATOM     29  C   UNL     1      -3.703  -0.440   6.008  1.00  0.00    -0.000 C 
BRANCH  29  30
ATOM     30  C   UNL     1      -2.377  -0.769   6.732  1.00  0.00    -0.000 C 
BRANCH  30  31
ATOM     31  C   UNL     1      -1.202   0.128   6.303  1.00  0.00    -0.003 C 
ATOM     32  C   UNL     1      -1.608   1.158   5.248  1.00  0.00     0.004 C 
ENDBRANCH  30  31
ENDBRANCH  29  30
ENDBRANCH  28  29
ENDBRANCH  27  28
ENDBRANCH  26  27
ENDBRANCH  25  26
ENDBRANCH  24  25
ENDBRANCH  23  24
ENDBRANCH  22  23
ENDBRANCH  21  22
ENDBRANCH  20  21
ENDBRANCH  19  20
ENDBRANCH  18  19
ENDBRANCH   1  18
TORSDOF 28
ENDMDL
MODEL 6
REMARK VINA RESULT:    -4.224      2.334      4.321
REMARK INTER + INTRA:         -15.775
REMARK INTER:                 -12.183
REMARK INTRA:                  -3.592
REMARK UNBOUND:                -4.638
REMARK SMILES CCCCCCCCCCCCCCCCCCCCCCCCCCCCCC(=O)[O-]
REMARK SMILES IDX 16 1 17 2 18 3 19 4 20 5 21 6 22 7 23 8 24 9 25 10 26 11
REMARK SMILES IDX 27 12 28 13 29 14 30 15 31 16 32 17 15 18 14 19 13 20 12 21
REMARK SMILES IDX 11 22 10 23 9 24 8 25 7 26 6 27 5 28 4 29 3 30 2 31 1 32
REMARK H PARENT
REMARK Flexibility Score: inf
ROOT
ATOM      1  C   UNL     1      -4.857  -2.919   2.122  1.00  0.00     0.000 C 
ENDROOT
BRANCH   1   2
ATOM      2  C   UNL     1      -4.633  -3.463   0.697  1.00  0.00     0.000 C 
BRANCH   2   3
ATOM      3  C   UNL     1      -4.828  -4.981   0.536  1.00  0.00     0.000 C 
BRANCH   3   4
ATOM      4  C   UNL     1      -5.580  -5.355  -0.752  1.00  0.00     0.000 C 
BRANCH   4   5
ATOM      5  C   UNL     1      -7.108  -5.219  -0.615  1.00  0.00     0.000 C 
BRANCH   5   6
ATOM      6  C   UNL     1      -7.655  -5.389   0.815  1.00  0.00     0.000 C 
BRANCH   6   7
ATOM      7  C   UNL     1      -8.445  -4.166   1.305  1.00  0.00     0.000 C 
BRANCH   7   8
ATOM      8  C   UNL     1      -8.234  -2.963   0.373  1.00  0.00     0.000 C 
BRANCH   8   9
ATOM      9  C   UNL     1      -8.215  -1.621   1.127  1.00  0.00     0.000 C 
BRANCH   9  10
ATOM     10  C   UNL     1      -7.138  -0.625   0.651  1.00  0.00     0.000 C 
BRANCH  10  11
ATOM     11  C   UNL     1      -7.022  -0.472  -0.879  1.00  0.00     0.000 C 
BRANCH  11  12
ATOM     12  C   UNL     1      -5.613  -0.709  -1.452  1.00  0.00     0.000 C 
BRANCH  12  13
ATOM     13  C   UNL     1      -5.220   0.334  -2.513  1.00  0.00     0.006 C 
BRANCH  13  14
ATOM     14  C   UNL     1      -4.753  -0.317  -3.823  1.00  0.00     0.053 C 
BRANCH  14  15
ATOM     15  C   UNL     1      -5.847  -1.103  -4.482  1.00  0.00     0.041 C 
ATOM     16  O   UNL     1      -5.686  -2.328  -4.732  1.00  0.00    -0.550 OA
ATOM     17  O   UNL     1      -7.045  -0.484  -4.815  1.00  0.00    -0.550 OA
ENDBRANCH  14  15
ENDBRANCH  13  14
ENDBRANCH  12  13
ENDBRANCH  11  12
ENDBRANCH  10  11
ENDBRANCH   9  10
ENDBRANCH   8   9
ENDBRANCH   7   8
ENDBRANCH   6   7
ENDBRANCH   5   6
ENDBRANCH   4   5
ENDBRANCH   3   4
ENDBRANCH   2   3
ENDBRANCH   1   2
BRANCH   1  18
ATOM     18  C   UNL     1      -5.235  -3.976   3.178  1.00  0.00     0.000 C 
BRANCH  18  19
ATOM     19  C   UNL     1      -5.844  -3.417   4.477  1.00  0.00     0.000 C 
BRANCH  19  20
ATOM     20  C   UNL     1      -5.055  -3.822   5.733  1.00  0.00     0.000 C 
BRANCH  20  21
ATOM     21  C   UNL     1      -4.098  -2.717   6.217  1.00  0.00     0.000 C 
BRANCH  21  22
ATOM     22  C   UNL     1      -4.304  -1.333   5.564  1.00  0.00     0.000 C 
BRANCH  22  23
ATOM     23  C   UNL     1      -3.086  -0.775   4.805  1.00  0.00     0.000 C 
BRANCH  23  24
ATOM     24  C   UNL     1      -2.345   0.321   5.590  1.00  0.00    -0.000 C 
BRANCH  24  25
ATOM     25  C   UNL     1      -0.831   0.063   5.689  1.00  0.00    -0.000 C 
BRANCH  25  26
ATOM     26  C   UNL     1      -0.256   0.416   7.071  1.00  0.00    -0.000 C 
BRANCH  26  27
ATOM     27  C   UNL     1       0.921  -0.494   7.474  1.00  0.00    -0.000 C 
BRANCH  27  28
ATOM     28  C   UNL     1       1.208  -1.651   6.497  1.00  0.00    -0.000 C 
BRANCH  28  29
ATOM     29  C   UNL     1       2.432  -1.445   5.584  1.00  0.00    -0.000 C 
BRANCH  29  30
ATOM     30  C   UNL     1       2.115  -1.593   4.078  1.00  0.00    -0.000 C 
BRANCH  30  31
ATOM     31  C   UNL     1       3.305  -1.254   3.163  1.00  0.00    -0.003 C 
ATOM     32  C   UNL     1       4.571  -0.916   3.951  1.00  0.00     0.004 C 
ENDBRANCH  30  31
ENDBRANCH  29  30
ENDBRANCH  28  29
ENDBRANCH  27  28
ENDBRANCH  26  27
ENDBRANCH  25  26
ENDBRANCH  24  25
ENDBRANCH  23  24
ENDBRANCH  22  23
ENDBRANCH  21  22
ENDBRANCH  20  21
ENDBRANCH  19  20
ENDBRANCH  18  19
ENDBRANCH   1  18
TORSDOF 28
ENDMDL
MODEL 7
REMARK VINA RESULT:    -4.221      1.665      3.732
REMARK INTER + INTRA:         -15.769
REMARK INTER:                 -11.013
REMARK INTRA:                  -4.756
REMARK UNBOUND:                -4.638
REMARK SMILES CCCCCCCCCCCCCCCCCCCCCCCCCCCCCC(=O)[O-]
REMARK SMILES IDX 16 1 17 2 18 3 19 4 20 5 21 6 22 7 23 8 24 9 25 10 26 11
REMARK SMILES IDX 27 12 28 13 29 14 30 15 31 16 32 17 15 18 14 19 13 20 12 21
REMARK SMILES IDX 11 22 10 23 9 24 8 25 7 26 6 27 5 28 4 29 3 30 2 31 1 32
REMARK H PARENT
REMARK Flexibility Score: inf
ROOT
ATOM      1  C   UNL     1      -4.697  -3.836   0.840  1.00  0.00     0.000 C 
ENDROOT
BRANCH   1   2
ATOM      2  C   UNL     1      -4.864  -5.235   0.213  1.00  0.00     0.000 C 
BRANCH   2   3
ATOM      3  C   UNL     1      -5.831  -5.307  -0.983  1.00  0.00     0.000 C 
BRANCH   3   4
ATOM      4  C   UNL     1      -6.596  -3.993  -1.213  1.00  0.00     0.000 C 
BRANCH   4   5
ATOM      5  C   UNL     1      -8.107  -4.124  -0.943  1.00  0.00     0.000 C 
BRANCH   5   6
ATOM      6  C   UNL     1      -8.494  -5.172   0.117  1.00  0.00     0.000 C 
BRANCH   6   7
ATOM      7  C   UNL     1      -8.545  -4.594   1.540  1.00  0.00     0.000 C 
BRANCH   7   8
ATOM      8  C   UNL     1      -9.115  -3.169   1.538  1.00  0.00     0.000 C 
BRANCH   8   9
ATOM      9  C   UNL     1      -8.461  -2.263   2.597  1.00  0.00     0.000 C 
BRANCH   9  10
ATOM     10  C   UNL     1      -7.290  -1.404   2.083  1.00  0.00     0.000 C 
BRANCH  10  11
ATOM     11  C   UNL     1      -7.533  -0.714   0.725  1.00  0.00     0.000 C 
BRANCH  11  12
ATOM     12  C   UNL     1      -6.260  -0.255  -0.009  1.00  0.00     0.000 C 
BRANCH  12  13
ATOM     13  C   UNL     1      -6.307  -0.549  -1.519  1.00  0.00     0.006 C 
BRANCH  13  14
ATOM     14  C   UNL     1      -5.189   0.172  -2.286  1.00  0.00     0.053 C 
BRANCH  14  15
ATOM     15  C   UNL     1      -5.368   1.660  -2.275  1.00  0.00     0.041 C 
ATOM     16  O   UNL     1      -4.440   2.408  -1.865  1.00  0.00    -0.550 OA
ATOM     17  O   UNL     1      -6.558   2.221  -2.722  1.00  0.00    -0.550 OA
ENDBRANCH  14  15
ENDBRANCH  13  14
ENDBRANCH  12  13
ENDBRANCH  11  12
ENDBRANCH  10  11
ENDBRANCH   9  10
ENDBRANCH   8   9
ENDBRANCH   7   8
ENDBRANCH   6   7
ENDBRANCH   5   6
ENDBRANCH   4   5
ENDBRANCH   3   4
ENDBRANCH   2   3
ENDBRANCH   1   2
BRANCH   1  18
ATOM     18  C   UNL     1      -4.987  -3.752   2.351  1.00  0.00     0.000 C 
BRANCH  18  19
ATOM     19  C   UNL     1      -5.450  -5.068   3.003  1.00  0.00     0.000 C 
BRANCH  19  20
ATOM     20  C   UNL     1      -5.569  -4.971   4.533  1.00  0.00     0.000 C 
BRANCH  20  21
ATOM     21  C   UNL     1      -4.824  -3.755   5.112  1.00  0.00     0.000 C 
BRANCH  21  22
ATOM     22  C   UNL     1      -5.725  -2.611   5.623  1.00  0.00     0.000 C 
BRANCH  22  23
ATOM     23  C   UNL     1      -5.266  -1.191   5.244  1.00  0.00     0.000 C 
BRANCH  23  24
ATOM     24  C   UNL     1      -3.745  -1.093   5.028  1.00  0.00    -0.000 C 
BRANCH  24  25
ATOM     25  C   UNL     1      -3.154   0.229   5.547  1.00  0.00    -0.000 C 
BRANCH  25  26
ATOM     26  C   UNL     1      -1.689   0.432   5.125  1.00  0.00    -0.000 C 
BRANCH  26  27
ATOM     27  C   UNL     1      -0.741   0.589   6.330  1.00  0.00    -0.000 C 
BRANCH  27  28
ATOM     28  C   UNL     1      -0.035  -0.709   6.771  1.00  0.00    -0.000 C 
BRANCH  28  29
ATOM     29  C   UNL     1      -0.437  -1.229   8.165  1.00  0.00    -0.000 C 
BRANCH  29  30
ATOM     30  C   UNL     1      -1.808  -1.942   8.190  1.00  0.00    -0.000 C 
BRANCH  30  31
ATOM     31  C   UNL     1      -2.716  -1.489   9.348  1.00  0.00    -0.003 C 
ATOM     32  C   UNL     1      -3.755  -0.457   8.906  1.00  0.00     0.004 C 
ENDBRANCH  30  31
ENDBRANCH  29  30
ENDBRANCH  28  29
ENDBRANCH  27  28
ENDBRANCH  26  27
ENDBRANCH  25  26
ENDBRANCH  24  25
ENDBRANCH  23  24
ENDBRANCH  22  23
ENDBRANCH  21  22
ENDBRANCH  20  21
ENDBRANCH  19  20
ENDBRANCH  18  19
ENDBRANCH   1  18
TORSDOF 28
ENDMDL
MODEL 8
REMARK VINA RESULT:    -4.167      1.498      2.185
REMARK INTER + INTRA:         -15.625
REMARK INTER:                 -10.233
REMARK INTRA:                  -5.392
REMARK UNBOUND:                -4.638
REMARK SMILES CCCCCCCCCCCCCCCCCCCCCCCCCCCCCC(=O)[O-]
REMARK SMILES IDX 16 1 17 2 18 3 19 4 20 5 21 6 22 7 23 8 24 9 25 10 26 11
REMARK SMILES IDX 27 12 28 13 29 14 30 15 31 16 32 17 15 18 14 19 13 20 12 21
REMARK SMILES IDX 11 22 10 23 9 24 8 25 7 26 6 27 5 28 4 29 3 30 2 31 1 32
REMARK H PARENT
REMARK Flexibility Score: inf
ROOT
ATOM      1  C   UNL     1      -5.018  -4.633   0.694  1.00  0.00     0.000 C 
ENDROOT
BRANCH   1   2
ATOM      2  C   UNL     1      -5.447  -5.321  -0.618  1.00  0.00     0.000 C 
BRANCH   2   3
ATOM      3  C   UNL     1      -6.931  -5.723  -0.693  1.00  0.00     0.000 C 
BRANCH   3   4
ATOM      4  C   UNL     1      -7.705  -5.395   0.595  1.00  0.00     0.000 C 
BRANCH   4   5
ATOM      5  C   UNL     1      -9.217  -5.222   0.358  1.00  0.00     0.000 C 
BRANCH   5   6
ATOM      6  C   UNL     1      -9.598  -4.176  -0.706  1.00  0.00     0.000 C 
BRANCH   6   7
ATOM      7  C   UNL     1      -9.231  -2.741  -0.295  1.00  0.00     0.000 C 
BRANCH   7   8
ATOM      8  C   UNL     1      -8.942  -1.871  -1.526  1.00  0.00     0.000 C 
BRANCH   8   9
ATOM      9  C   UNL     1      -8.043  -2.575  -2.557  1.00  0.00     0.000 C 
BRANCH   9  10
ATOM     10  C   UNL     1      -6.529  -2.385  -2.336  1.00  0.00     0.000 C 
BRANCH  10  11
ATOM     11  C   UNL     1      -5.851  -1.382  -3.290  1.00  0.00     0.000 C 
BRANCH  11  12
ATOM     12  C   UNL     1      -6.223   0.094  -3.055  1.00  0.00     0.000 C 
BRANCH  12  13
ATOM     13  C   UNL     1      -5.565   0.678  -1.793  1.00  0.00     0.006 C 
BRANCH  13  14
ATOM     14  C   UNL     1      -6.597   1.260  -0.817  1.00  0.00     0.053 C 
BRANCH  14  15
ATOM     15  C   UNL     1      -6.754   2.742  -0.981  1.00  0.00     0.041 C 
ATOM     16  O   UNL     1      -6.420   3.300  -2.060  1.00  0.00    -0.550 OA
ATOM     17  O   UNL     1      -7.273   3.506   0.057  1.00  0.00    -0.550 OA
ENDBRANCH  14  15
ENDBRANCH  13  14
ENDBRANCH  12  13
ENDBRANCH  11  12
ENDBRANCH  10  11
ENDBRANCH   9  10
ENDBRANCH   8   9
ENDBRANCH   7   8
ENDBRANCH   6   7
ENDBRANCH   5   6
ENDBRANCH   4   5
ENDBRANCH   3   4
ENDBRANCH   2   3
ENDBRANCH   1   2
BRANCH   1  18
ATOM     18  C   UNL     1      -4.729  -3.124   0.581  1.00  0.00     0.000 C 
BRANCH  18  19
ATOM     19  C   UNL     1      -5.062  -2.297   1.837  1.00  0.00     0.000 C 
BRANCH  19  20
ATOM     20  C   UNL     1      -6.384  -1.522   1.713  1.00  0.00     0.000 C 
BRANCH  20  21
ATOM     21  C   UNL     1      -7.249  -1.614   2.984  1.00  0.00     0.000 C 
BRANCH  21  22
ATOM     22  C   UNL     1      -8.063  -2.916   3.135  1.00  0.00     0.000 C 
BRANCH  22  23
ATOM     23  C   UNL     1      -7.707  -3.777   4.361  1.00  0.00     0.000 C 
BRANCH  23  24
ATOM     24  C   UNL     1      -6.734  -4.921   4.025  1.00  0.00    -0.000 C 
BRANCH  24  25
ATOM     25  C   UNL     1      -5.295  -4.635   4.488  1.00  0.00    -0.000 C 
BRANCH  25  26
ATOM     26  C   UNL     1      -5.237  -3.668   5.683  1.00  0.00    -0.000 C 
BRANCH  26  27
ATOM     27  C   UNL     1      -4.305  -2.467   5.429  1.00  0.00    -0.000 C 
BRANCH  27  28
ATOM     28  C   UNL     1      -4.921  -1.090   5.750  1.00  0.00    -0.000 C 
BRANCH  28  29
ATOM     29  C   UNL     1      -3.911  -0.008   6.178  1.00  0.00    -0.000 C 
BRANCH  29  30
ATOM     30  C   UNL     1      -2.708  -0.561   6.974  1.00  0.00    -0.000 C 
BRANCH  30  31
ATOM     31  C   UNL     1      -1.362   0.070   6.573  1.00  0.00    -0.003 C 
ATOM     32  C   UNL     1      -1.317   0.460   5.095  1.00  0.00     0.004 C 
ENDBRANCH  30  31
ENDBRANCH  29  30
ENDBRANCH  28  29
ENDBRANCH  27  28
ENDBRANCH  26  27
ENDBRANCH  25  26
ENDBRANCH  24  25
ENDBRANCH  23  24
ENDBRANCH  22  23
ENDBRANCH  21  22
ENDBRANCH  20  21
ENDBRANCH  19  20
ENDBRANCH  18  19
ENDBRANCH   1  18
TORSDOF 28
ENDMDL
MODEL 9
REMARK VINA RESULT:    -4.097      2.380      5.745
REMARK INTER + INTRA:         -15.441
REMARK INTER:                 -11.521
REMARK INTRA:                  -3.920
REMARK UNBOUND:                -4.638
REMARK SMILES CCCCCCCCCCCCCCCCCCCCCCCCCCCCCC(=O)[O-]
REMARK SMILES IDX 16 1 17 2 18 3 19 4 20 5 21 6 22 7 23 8 24 9 25 10 26 11
REMARK SMILES IDX 27 12 28 13 29 14 30 15 31 16 32 17 15 18 14 19 13 20 12 21
REMARK SMILES IDX 11 22 10 23 9 24 8 25 7 26 6 27 5 28 4 29 3 30 2 31 1 32
REMARK H PARENT
REMARK Flexibility Score: inf
ROOT
ATOM      1  C   UNL     1      -4.486  -2.605   4.871  1.00  0.00     0.000 C 
ENDROOT
BRANCH   1   2
ATOM      2  C   UNL     1      -5.252  -3.934   4.717  1.00  0.00     0.000 C 
BRANCH   2   3
ATOM      3  C   UNL     1      -5.525  -4.369   3.265  1.00  0.00     0.000 C 
BRANCH   3   4
ATOM      4  C   UNL     1      -5.189  -3.273   2.239  1.00  0.00     0.000 C 
BRANCH   4   5
ATOM      5  C   UNL     1      -4.516  -3.827   0.970  1.00  0.00     0.000 C 
BRANCH   5   6
ATOM      6  C   UNL     1      -5.058  -5.183   0.479  1.00  0.00     0.000 C 
BRANCH   6   7
ATOM      7  C   UNL     1      -5.606  -5.126  -0.955  1.00  0.00     0.000 C 
BRANCH   7   8
ATOM      8  C   UNL     1      -7.094  -5.504  -0.993  1.00  0.00     0.000 C 
BRANCH   8   9
ATOM      9  C   UNL     1      -7.821  -5.200   0.330  1.00  0.00     0.000 C 
BRANCH   9  10
ATOM     10  C   UNL     1      -8.828  -4.035   0.264  1.00  0.00     0.000 C 
BRANCH  10  11
ATOM     11  C   UNL     1      -8.236  -2.643   0.566  1.00  0.00     0.000 C 
BRANCH  11  12
ATOM     12  C   UNL     1      -7.873  -1.807  -0.675  1.00  0.00     0.000 C 
BRANCH  12  13
ATOM     13  C   UNL     1      -6.497  -1.129  -0.551  1.00  0.00     0.006 C 
BRANCH  13  14
ATOM     14  C   UNL     1      -5.562  -1.497  -1.711  1.00  0.00     0.053 C 
BRANCH  14  15
ATOM     15  C   UNL     1      -5.136  -0.293  -2.496  1.00  0.00     0.041 C 
ATOM     16  O   UNL     1      -4.975   0.816  -1.919  1.00  0.00    -0.550 OA
ATOM     17  O   UNL     1      -4.913  -0.397  -3.863  1.00  0.00    -0.550 OA
ENDBRANCH  14  15
ENDBRANCH  13  14
ENDBRANCH  12  13
ENDBRANCH  11  12
ENDBRANCH  10  11
ENDBRANCH   9  10
ENDBRANCH   8   9
ENDBRANCH   7   8
ENDBRANCH   6   7
ENDBRANCH   5   6
ENDBRANCH   4   5
ENDBRANCH   3   4
ENDBRANCH   2   3
ENDBRANCH   1   2
BRANCH   1  18
ATOM     18  C   UNL     1      -4.126  -2.217   6.319  1.00  0.00     0.000 C 
BRANCH  18  19
ATOM     19  C   UNL     1      -3.272  -0.944   6.464  1.00  0.00     0.000 C 
BRANCH  19  20
ATOM     20  C   UNL     1      -2.792  -0.386   5.114  1.00  0.00     0.000 C 
BRANCH  20  21
ATOM     21  C   UNL     1      -1.550   0.514   5.250  1.00  0.00     0.000 C 
BRANCH  21  22
ATOM     22  C   UNL     1      -0.691   0.268   6.508  1.00  0.00     0.000 C 
BRANCH  22  23
ATOM     23  C   UNL     1       0.493  -0.699   6.319  1.00  0.00     0.000 C 
BRANCH  23  24
ATOM     24  C   UNL     1       0.803  -0.979   4.837  1.00  0.00    -0.000 C 
BRANCH  24  25
ATOM     25  C   UNL     1       2.212  -1.558   4.623  1.00  0.00    -0.000 C 
BRANCH  25  26
ATOM     26  C   UNL     1       3.007  -1.689   5.934  1.00  0.00    -0.000 C 
BRANCH  26  27
ATOM     27  C   UNL     1       3.513  -3.124   6.178  1.00  0.00    -0.000 C 
BRANCH  27  28
ATOM     28  C   UNL     1       2.419  -4.140   6.561  1.00  0.00    -0.000 C 
BRANCH  28  29
ATOM     29  C   UNL     1       2.188  -4.311   8.074  1.00  0.00    -0.000 C 
BRANCH  29  30
ATOM     30  C   UNL     1       0.697  -4.303   8.481  1.00  0.00    -0.000 C 
BRANCH  30  31
ATOM     31  C   UNL     1       0.213  -2.945   9.019  1.00  0.00    -0.003 C 
ATOM     32  C   UNL     1      -1.305  -2.787   8.928  1.00  0.00     0.004 C 
ENDBRANCH  30  31
ENDBRANCH  29  30
ENDBRANCH  28  29
ENDBRANCH  27  28
ENDBRANCH  26  27
ENDBRANCH  25  26
ENDBRANCH  24  25
ENDBRANCH  23  24
ENDBRANCH  22  23
ENDBRANCH  21  22
ENDBRANCH  20  21
ENDBRANCH  19  20
ENDBRANCH  18  19
ENDBRANCH   1  18
TORSDOF 28
ENDMDL
