MODEL 1
REMARK VINA RESULT:    -3.964      0.000      0.000
REMARK INTER + INTRA:         -11.202
REMARK INTER:                  -9.062
REMARK INTRA:                  -2.141
REMARK UNBOUND:                -2.141
REMARK SMILES CCCCCCCCCCCCCCCCCCCCCCCC(=O)[O-]
REMARK SMILES IDX 13 1 14 2 15 3 16 4 17 5 18 6 19 7 20 8 21 9 22 10 23 11
REMARK SMILES IDX 24 12 25 13 26 14 12 15 11 16 10 17 9 18 8 19 7 20 6 21 5 22
REMARK SMILES IDX 4 23 3 24 2 25 1 26
REMARK H PARENT
REMARK Flexibility Score: inf
ROOT
ATOM      1  C   UNL     1      72.538  47.062  57.762  1.00  0.00     0.000 C 
ENDROOT
BRANCH   1   2
ATOM      2  C   UNL     1      73.403  47.537  58.940  1.00  0.00     0.000 C 
BRANCH   2   3
ATOM      3  C   UNL     1      74.597  48.395  58.489  1.00  0.00     0.000 C 
BRANCH   3   4
ATOM      4  C   UNL     1      74.213  49.863  58.237  1.00  0.00     0.000 C 
BRANCH   4   5
ATOM      5  C   UNL     1      74.054  50.210  56.741  1.00  0.00     0.000 C 
BRANCH   5   6
ATOM      6  C   UNL     1      72.733  50.947  56.452  1.00  0.00     0.000 C 
BRANCH   6   7
ATOM      7  C   UNL     1      71.976  50.355  55.244  1.00  0.00     0.000 C 
BRANCH   7   8
ATOM      8  C   UNL     1      71.205  51.402  54.414  1.00  0.00     0.000 C 
BRANCH   8   9
ATOM      9  C   UNL     1      71.444  51.332  52.897  1.00  0.00     0.000 C 
BRANCH   9  10
ATOM     10  C   UNL     1      70.515  52.267  52.103  1.00  0.00     0.006 C 
BRANCH  10  11
ATOM     11  C   UNL     1      70.330  51.804  50.652  1.00  0.00     0.053 C 
BRANCH  11  12
ATOM     12  C   UNL     1      68.933  51.327  50.393  1.00  0.00     0.041 C 
ATOM     13  O   UNL     1      68.187  51.955  49.598  1.00  0.00    -0.550 OA
ATOM     14  O   UNL     1      68.460  50.183  51.023  1.00  0.00    -0.550 OA
ENDBRANCH  11  12
ENDBRANCH  10  11
ENDBRANCH   9  10
ENDBRANCH   8   9
ENDBRANCH   7   8
ENDBRANCH   6   7
ENDBRANCH   5   6
ENDBRANCH   4   5
ENDBRANCH   3   4
ENDBRANCH   2   3
ENDBRANCH   1   2
BRANCH   1  15
ATOM     15  C   UNL     1      71.242  47.877  57.615  1.00  0.00     0.000 C 
BRANCH  15  16
ATOM     16  C   UNL     1      70.855  48.608  58.910  1.00  0.00     0.000 C 
BRANCH  16  17
ATOM     17  C   UNL     1      69.487  49.308  58.807  1.00  0.00     0.000 C 
BRANCH  17  18
ATOM     18  C   UNL     1      69.083  49.595  57.353  1.00  0.00    -0.000 C 
BRANCH  18  19
ATOM     19  C   UNL     1      67.792  48.865  56.944  1.00  0.00    -0.000 C 
BRANCH  19  20
ATOM     20  C   UNL     1      67.219  47.988  58.072  1.00  0.00    -0.000 C 
BRANCH  20  21
ATOM     21  C   UNL     1      65.683  48.028  58.225  1.00  0.00    -0.000 C 
BRANCH  21  22
ATOM     22  C   UNL     1      65.020  46.673  58.539  1.00  0.00    -0.000 C 
BRANCH  22  23
ATOM     23  C   UNL     1      65.945  45.456  58.305  1.00  0.00    -0.000 C 
BRANCH  23  24
ATOM     24  C   UNL     1      65.632  44.685  57.009  1.00  0.00    -0.000 C 
BRANCH  24  25
ATOM     25  C   UNL     1      65.387  43.179  57.209  1.00  0.00    -0.003 C 
ATOM     26  C   UNL     1      66.678  42.361  57.197  1.00  0.00     0.004 C 
ENDBRANCH  24  25
ENDBRANCH  23  24
ENDBRANCH  22  23
ENDBRANCH  21  22
ENDBRANCH  20  21
ENDBRANCH  19  20
ENDBRANCH  18  19
ENDBRANCH  17  18
ENDBRANCH  16  17
ENDBRANCH  15  16
ENDBRANCH   1  15
TORSDOF 22
ENDMDL
MODEL 2
REMARK VINA RESULT:    -3.931      3.304      7.693
REMARK INTER + INTRA:         -11.127
REMARK INTER:                  -7.968
REMARK INTRA:                  -3.159
REMARK UNBOUND:                -2.141
REMARK SMILES CCCCCCCCCCCCCCCCCCCCCCCC(=O)[O-]
REMARK SMILES IDX 13 1 14 2 15 3 16 4 17 5 18 6 19 7 20 8 21 9 22 10 23 11
REMARK SMILES IDX 24 12 25 13 26 14 12 15 11 16 10 17 9 18 8 19 7 20 6 21 5 22
REMARK SMILES IDX 4 23 3 24 2 25 1 26
REMARK H PARENT
REMARK Flexibility Score: inf
ROOT
ATOM      1  C   UNL     1      72.779  50.352  56.538  1.00  0.00     0.000 C 
ENDROOT
BRANCH   1   2
ATOM      2  C   UNL     1      73.039  49.155  57.466  1.00  0.00     0.000 C 
BRANCH   2   3
ATOM      3  C   UNL     1      71.837  48.200  57.549  1.00  0.00     0.000 C 
BRANCH   3   4
ATOM      4  C   UNL     1      70.561  48.794  56.929  1.00  0.00     0.000 C 
BRANCH   4   5
ATOM      5  C   UNL     1      69.354  48.801  57.892  1.00  0.00     0.000 C 
BRANCH   5   6
ATOM      6  C   UNL     1      68.012  48.701  57.142  1.00  0.00     0.000 C 
BRANCH   6   7
ATOM      7  C   UNL     1      66.815  49.152  58.007  1.00  0.00     0.000 C 
BRANCH   7   8
ATOM      8  C   UNL     1      65.742  48.063  58.207  1.00  0.00     0.000 C 
BRANCH   8   9
ATOM      9  C   UNL     1      66.275  46.622  58.234  1.00  0.00     0.000 C 
BRANCH   9  10
ATOM     10  C   UNL     1      65.214  45.584  57.827  1.00  0.00     0.006 C 
BRANCH  10  11
ATOM     11  C   UNL     1      65.753  44.577  56.804  1.00  0.00     0.053 C 
BRANCH  11  12
ATOM     12  C   UNL     1      65.841  43.194  57.376  1.00  0.00     0.041 C 
ATOM     13  O   UNL     1      66.785  42.431  57.044  1.00  0.00    -0.550 OA
ATOM     14  O   UNL     1      64.885  42.753  58.283  1.00  0.00    -0.550 OA
ENDBRANCH  11  12
ENDBRANCH  10  11
ENDBRANCH   9  10
ENDBRANCH   8   9
ENDBRANCH   7   8
ENDBRANCH   6   7
ENDBRANCH   5   6
ENDBRANCH   4   5
ENDBRANCH   3   4
ENDBRANCH   2   3
ENDBRANCH   1   2
BRANCH   1  15
ATOM     15  C   UNL     1      72.903  51.701  57.267  1.00  0.00     0.000 C 
BRANCH  15  16
ATOM     16  C   UNL     1      72.500  51.611  58.746  1.00  0.00     0.000 C 
BRANCH  16  17
ATOM     17  C   UNL     1      71.017  51.958  58.976  1.00  0.00     0.000 C 
BRANCH  17  18
ATOM     18  C   UNL     1      70.395  52.698  57.781  1.00  0.00    -0.000 C 
BRANCH  18  19
ATOM     19  C   UNL     1      68.897  52.392  57.614  1.00  0.00    -0.000 C 
BRANCH  19  20
ATOM     20  C   UNL     1      68.442  52.417  56.144  1.00  0.00    -0.000 C 
BRANCH  20  21
ATOM     21  C   UNL     1      69.289  51.561  55.176  1.00  0.00    -0.000 C 
BRANCH  21  22
ATOM     22  C   UNL     1      70.159  52.359  54.185  1.00  0.00    -0.000 C 
BRANCH  22  23
ATOM     23  C   UNL     1      71.149  51.485  53.381  1.00  0.00    -0.000 C 
BRANCH  23  24
ATOM     24  C   UNL     1      70.964  51.591  51.855  1.00  0.00    -0.000 C 
BRANCH  24  25
ATOM     25  C   UNL     1      69.502  51.737  51.400  1.00  0.00    -0.003 C 
ATOM     26  C   UNL     1      69.353  51.771  49.880  1.00  0.00     0.004 C 
ENDBRANCH  24  25
ENDBRANCH  23  24
ENDBRANCH  22  23
ENDBRANCH  21  22
ENDBRANCH  20  21
ENDBRANCH  19  20
ENDBRANCH  18  19
ENDBRANCH  17  18
ENDBRANCH  16  17
ENDBRANCH  15  16
ENDBRANCH   1  15
TORSDOF 22
ENDMDL
MODEL 3
REMARK VINA RESULT:    -3.705      1.299      2.107
REMARK INTER + INTRA:         -10.611
REMARK INTER:                  -8.064
REMARK INTRA:                  -2.547
REMARK UNBOUND:                -2.141
REMARK SMILES CCCCCCCCCCCCCCCCCCCCCCCC(=O)[O-]
REMARK SMILES IDX 13 1 14 2 15 3 16 4 17 5 18 6 19 7 20 8 21 9 22 10 23 11
REMARK SMILES IDX 24 12 25 13 26 14 12 15 11 16 10 17 9 18 8 19 7 20 6 21 5 22
REMARK SMILES IDX 4 23 3 24 2 25 1 26
REMARK H PARENT
REMARK Flexibility Score: inf
ROOT
ATOM      1  C   UNL     1      72.135  47.680  57.358  1.00  0.00     0.000 C 
ENDROOT
BRANCH   1   2
ATOM      2  C   UNL     1      72.782  47.491  58.738  1.00  0.00     0.000 C 
BRANCH   2   3
ATOM      3  C   UNL     1      74.289  47.796  58.731  1.00  0.00     0.000 C 
BRANCH   3   4
ATOM      4  C   UNL     1      74.592  49.302  58.817  1.00  0.00     0.000 C 
BRANCH   4   5
ATOM      5  C   UNL     1      75.015  49.922  57.469  1.00  0.00     0.000 C 
BRANCH   5   6
ATOM      6  C   UNL     1      73.965  50.911  56.929  1.00  0.00     0.000 C 
BRANCH   6   7
ATOM      7  C   UNL     1      73.089  51.515  58.048  1.00  0.00     0.000 C 
BRANCH   7   8
ATOM      8  C   UNL     1      71.640  51.815  57.617  1.00  0.00     0.000 C 
BRANCH   8   9
ATOM      9  C   UNL     1      71.445  52.048  56.110  1.00  0.00     0.000 C 
BRANCH   9  10
ATOM     10  C   UNL     1      70.563  50.973  55.450  1.00  0.00     0.006 C 
BRANCH  10  11
ATOM     11  C   UNL     1      69.648  51.561  54.368  1.00  0.00     0.053 C 
BRANCH  11  12
ATOM     12  C   UNL     1      70.117  51.210  52.989  1.00  0.00     0.041 C 
ATOM     13  O   UNL     1      69.284  51.030  52.063  1.00  0.00    -0.550 OA
ATOM     14  O   UNL     1      71.476  51.092  52.725  1.00  0.00    -0.550 OA
ENDBRANCH  11  12
ENDBRANCH  10  11
ENDBRANCH   9  10
ENDBRANCH   8   9
ENDBRANCH   7   8
ENDBRANCH   6   7
ENDBRANCH   5   6
ENDBRANCH   4   5
ENDBRANCH   3   4
ENDBRANCH   2   3
ENDBRANCH   1   2
BRANCH   1  15
ATOM     15  C   UNL     1      70.755  48.355  57.441  1.00  0.00     0.000 C 
BRANCH  15  16
ATOM     16  C   UNL     1      70.312  48.615  58.889  1.00  0.00     0.000 C 
BRANCH  16  17
ATOM     17  C   UNL     1      68.782  48.555  59.058  1.00  0.00     0.000 C 
BRANCH  17  18
ATOM     18  C   UNL     1      68.034  49.061  57.815  1.00  0.00    -0.000 C 
BRANCH  18  19
ATOM     19  C   UNL     1      66.969  48.066  57.322  1.00  0.00    -0.000 C 
BRANCH  19  20
ATOM     20  C   UNL     1      65.689  48.090  58.176  1.00  0.00    -0.000 C 
BRANCH  20  21
ATOM     21  C   UNL     1      65.216  46.716  58.697  1.00  0.00    -0.000 C 
BRANCH  21  22
ATOM     22  C   UNL     1      65.935  45.499  58.081  1.00  0.00    -0.000 C 
BRANCH  22  23
ATOM     23  C   UNL     1      65.002  44.297  57.806  1.00  0.00    -0.000 C 
BRANCH  23  24
ATOM     24  C   UNL     1      65.622  43.238  56.875  1.00  0.00    -0.000 C 
BRANCH  24  25
ATOM     25  C   UNL     1      66.778  42.439  57.501  1.00  0.00    -0.003 C 
ATOM     26  C   UNL     1      66.357  41.042  57.955  1.00  0.00     0.004 C 
ENDBRANCH  24  25
ENDBRANCH  23  24
ENDBRANCH  22  23
ENDBRANCH  21  22
ENDBRANCH  20  21
ENDBRANCH  19  20
ENDBRANCH  18  19
ENDBRANCH  17  18
ENDBRANCH  16  17
ENDBRANCH  15  16
ENDBRANCH   1  15
TORSDOF 22
ENDMDL
MODEL 4
REMARK VINA RESULT:    -3.694      3.374      8.545
REMARK INTER + INTRA:         -10.585
REMARK INTER:                  -7.553
REMARK INTRA:                  -3.032
REMARK UNBOUND:                -2.141
REMARK SMILES CCCCCCCCCCCCCCCCCCCCCCCC(=O)[O-]
REMARK SMILES IDX 13 1 14 2 15 3 16 4 17 5 18 6 19 7 20 8 21 9 22 10 23 11
REMARK SMILES IDX 24 12 25 13 26 14 12 15 11 16 10 17 9 18 8 19 7 20 6 21 5 22
REMARK SMILES IDX 4 23 3 24 2 25 1 26
REMARK H PARENT
REMARK Flexibility Score: inf
ROOT
ATOM      1  C   UNL     1      71.017  49.536  57.165  1.00  0.00     0.000 C 
ENDROOT
BRANCH   1   2
ATOM      2  C   UNL     1      69.511  49.234  57.132  1.00  0.00     0.000 C 
BRANCH   2   3
ATOM      3  C   UNL     1      68.854  49.649  55.805  1.00  0.00     0.000 C 
BRANCH   3   4
ATOM      4  C   UNL     1      67.919  50.860  55.958  1.00  0.00     0.000 C 
BRANCH   4   5
ATOM      5  C   UNL     1      67.894  51.442  57.388  1.00  0.00     0.000 C 
BRANCH   5   6
ATOM      6  C   UNL     1      66.534  51.228  58.078  1.00  0.00     0.000 C 
BRANCH   6   7
ATOM      7  C   UNL     1      66.462  49.888  58.842  1.00  0.00     0.000 C 
BRANCH   7   8
ATOM      8  C   UNL     1      65.753  48.761  58.065  1.00  0.00     0.000 C 
BRANCH   8   9
ATOM      9  C   UNL     1      66.405  47.374  58.193  1.00  0.00     0.000 C 
BRANCH   9  10
ATOM     10  C   UNL     1      65.754  46.322  57.278  1.00  0.00     0.006 C 
BRANCH  10  11
ATOM     11  C   UNL     1      64.900  45.320  58.065  1.00  0.00     0.053 C 
BRANCH  11  12
ATOM     12  C   UNL     1      65.292  43.904  57.775  1.00  0.00     0.041 C 
ATOM     13  O   UNL     1      65.240  43.033  58.682  1.00  0.00    -0.550 OA
ATOM     14  O   UNL     1      65.707  43.543  56.498  1.00  0.00    -0.550 OA
ENDBRANCH  11  12
ENDBRANCH  10  11
ENDBRANCH   9  10
ENDBRANCH   8   9
ENDBRANCH   7   8
ENDBRANCH   6   7
ENDBRANCH   5   6
ENDBRANCH   4   5
ENDBRANCH   3   4
ENDBRANCH   2   3
ENDBRANCH   1   2
BRANCH   1  15
ATOM     15  C   UNL     1      71.396  50.521  58.285  1.00  0.00     0.000 C 
BRANCH  15  16
ATOM     16  C   UNL     1      71.918  51.860  57.742  1.00  0.00     0.000 C 
BRANCH  16  17
ATOM     17  C   UNL     1      71.772  51.974  56.213  1.00  0.00     0.000 C 
BRANCH  17  18
ATOM     18  C   UNL     1      70.856  53.134  55.796  1.00  0.00    -0.000 C 
BRANCH  18  19
ATOM     19  C   UNL     1      70.322  52.978  54.361  1.00  0.00    -0.000 C 
BRANCH  19  20
ATOM     20  C   UNL     1      70.950  51.785  53.617  1.00  0.00    -0.000 C 
BRANCH  20  21
ATOM     21  C   UNL     1      70.019  51.067  52.616  1.00  0.00    -0.000 C 
BRANCH  21  22
ATOM     22  C   UNL     1      70.265  51.406  51.133  1.00  0.00    -0.000 C 
BRANCH  22  23
ATOM     23  C   UNL     1      70.892  52.802  50.908  1.00  0.00    -0.000 C 
BRANCH  23  24
ATOM     24  C   UNL     1      69.936  53.802  50.229  1.00  0.00    -0.000 C 
BRANCH  24  25
ATOM     25  C   UNL     1      69.030  53.185  49.151  1.00  0.00    -0.003 C 
ATOM     26  C   UNL     1      67.578  53.650  49.256  1.00  0.00     0.004 C 
ENDBRANCH  24  25
ENDBRANCH  23  24
ENDBRANCH  22  23
ENDBRANCH  21  22
ENDBRANCH  20  21
ENDBRANCH  19  20
ENDBRANCH  18  19
ENDBRANCH  17  18
ENDBRANCH  16  17
ENDBRANCH  15  16
ENDBRANCH   1  15
TORSDOF 22
ENDMDL
MODEL 5
REMARK VINA RESULT:    -3.692      5.225     11.506
REMARK INTER + INTRA:         -10.581
REMARK INTER:                  -8.189
REMARK INTRA:                  -2.393
REMARK UNBOUND:                -2.141
REMARK SMILES CCCCCCCCCCCCCCCCCCCCCCCC(=O)[O-]
REMARK SMILES IDX 13 1 14 2 15 3 16 4 17 5 18 6 19 7 20 8 21 9 22 10 23 11
REMARK SMILES IDX 24 12 25 13 26 14 12 15 11 16 10 17 9 18 8 19 7 20 6 21 5 22
REMARK SMILES IDX 4 23 3 24 2 25 1 26
REMARK H PARENT
REMARK Flexibility Score: inf
ROOT
ATOM      1  C   UNL     1      68.932  51.959  49.347  1.00  0.00     0.000 C 
ENDROOT
BRANCH   1   2
ATOM      2  C   UNL     1      68.723  50.887  50.428  1.00  0.00     0.000 C 
BRANCH   2   3
ATOM      3  C   UNL     1      69.504  51.189  51.717  1.00  0.00     0.000 C 
BRANCH   3   4
ATOM      4  C   UNL     1      70.908  51.755  51.444  1.00  0.00     0.000 C 
BRANCH   4   5
ATOM      5  C   UNL     1      71.110  53.186  51.985  1.00  0.00     0.000 C 
BRANCH   5   6
ATOM      6  C   UNL     1      69.882  53.691  52.766  1.00  0.00     0.000 C 
BRANCH   6   7
ATOM      7  C   UNL     1      70.266  54.392  54.087  1.00  0.00     0.000 C 
BRANCH   7   8
ATOM      8  C   UNL     1      70.495  53.426  55.266  1.00  0.00     0.000 C 
BRANCH   8   9
ATOM      9  C   UNL     1      69.613  52.167  55.255  1.00  0.00     0.000 C 
BRANCH   9  10
ATOM     10  C   UNL     1      70.430  50.867  55.157  1.00  0.00     0.006 C 
BRANCH  10  11
ATOM     11  C   UNL     1      70.221  49.958  56.376  1.00  0.00     0.053 C 
BRANCH  11  12
ATOM     12  C   UNL     1      71.499  49.309  56.813  1.00  0.00     0.041 C 
ATOM     13  O   UNL     1      71.481  48.162  57.330  1.00  0.00    -0.550 OA
ATOM     14  O   UNL     1      72.709  49.968  56.641  1.00  0.00    -0.550 OA
ENDBRANCH  11  12
ENDBRANCH  10  11
ENDBRANCH   9  10
ENDBRANCH   8   9
ENDBRANCH   7   8
ENDBRANCH   6   7
ENDBRANCH   5   6
ENDBRANCH   4   5
ENDBRANCH   3   4
ENDBRANCH   2   3
ENDBRANCH   1   2
BRANCH   1  15
ATOM     15  C   UNL     1      68.005  53.172  49.532  1.00  0.00     0.000 C 
BRANCH  15  16
ATOM     16  C   UNL     1      68.601  54.464  48.952  1.00  0.00     0.000 C 
BRANCH  16  17
ATOM     17  C   UNL     1      69.980  54.239  48.305  1.00  0.00     0.000 C 
BRANCH  17  18
ATOM     18  C   UNL     1      70.033  54.732  46.851  1.00  0.00    -0.000 C 
BRANCH  18  19
ATOM     19  C   UNL     1      69.429  53.720  45.863  1.00  0.00    -0.000 C 
BRANCH  19  20
ATOM     20  C   UNL     1      68.299  54.321  45.008  1.00  0.00    -0.000 C 
BRANCH  20  21
ATOM     21  C   UNL     1      68.257  53.845  43.539  1.00  0.00    -0.000 C 
BRANCH  21  22
ATOM     22  C   UNL     1      68.159  52.319  43.347  1.00  0.00    -0.000 C 
BRANCH  22  23
ATOM     23  C   UNL     1      68.630  51.835  41.956  1.00  0.00    -0.000 C 
BRANCH  23  24
ATOM     24  C   UNL     1      70.150  51.964  41.742  1.00  0.00    -0.000 C 
BRANCH  24  25
ATOM     25  C   UNL     1      70.830  50.688  41.217  1.00  0.00    -0.003 C 
ATOM     26  C   UNL     1      70.454  50.366  39.772  1.00  0.00     0.004 C 
ENDBRANCH  24  25
ENDBRANCH  23  24
ENDBRANCH  22  23
ENDBRANCH  21  22
ENDBRANCH  20  21
ENDBRANCH  19  20
ENDBRANCH  18  19
ENDBRANCH  17  18
ENDBRANCH  16  17
ENDBRANCH  15  16
ENDBRANCH   1  15
TORSDOF 22
ENDMDL
MODEL 6
REMARK VINA RESULT:    -3.675      4.515      9.899
REMARK INTER + INTRA:         -10.542
REMARK INTER:                  -8.716
REMARK INTRA:                  -1.826
REMARK UNBOUND:                -2.141
REMARK SMILES CCCCCCCCCCCCCCCCCCCCCCCC(=O)[O-]
REMARK SMILES IDX 13 1 14 2 15 3 16 4 17 5 18 6 19 7 20 8 21 9 22 10 23 11
REMARK SMILES IDX 24 12 25 13 26 14 12 15 11 16 10 17 9 18 8 19 7 20 6 21 5 22
REMARK SMILES IDX 4 23 3 24 2 25 1 26
REMARK H PARENT
REMARK Flexibility Score: inf
ROOT
ATOM      1  C   UNL     1      68.859  50.134  56.010  1.00  0.00     0.000 C 
ENDROOT
BRANCH   1   2
ATOM      2  C   UNL     1      68.371  48.762  56.503  1.00  0.00     0.000 C 
BRANCH   2   3
ATOM      3  C   UNL     1      67.966  48.778  57.987  1.00  0.00     0.000 C 
BRANCH   3   4
ATOM      4  C   UNL     1      66.454  48.975  58.188  1.00  0.00     0.000 C 
BRANCH   4   5
ATOM      5  C   UNL     1      65.638  47.672  58.041  1.00  0.00     0.000 C 
BRANCH   5   6
ATOM      6  C   UNL     1      66.341  46.470  58.700  1.00  0.00     0.000 C 
BRANCH   6   7
ATOM      7  C   UNL     1      65.623  45.134  58.412  1.00  0.00     0.000 C 
BRANCH   7   8
ATOM      8  C   UNL     1      65.799  44.626  56.967  1.00  0.00     0.000 C 
BRANCH   8   9
ATOM      9  C   UNL     1      65.971  43.105  56.830  1.00  0.00     0.000 C 
BRANCH   9  10
ATOM     10  C   UNL     1      65.119  42.314  57.838  1.00  0.00     0.006 C 
BRANCH  10  11
ATOM     11  C   UNL     1      65.947  41.276  58.607  1.00  0.00     0.053 C 
BRANCH  11  12
ATOM     12  C   UNL     1      65.804  39.904  58.023  1.00  0.00     0.041 C 
ATOM     13  O   UNL     1      66.793  39.336  57.490  1.00  0.00    -0.550 OA
ATOM     14  O   UNL     1      64.580  39.249  58.076  1.00  0.00    -0.550 OA
ENDBRANCH  11  12
ENDBRANCH  10  11
ENDBRANCH   9  10
ENDBRANCH   8   9
ENDBRANCH   7   8
ENDBRANCH   6   7
ENDBRANCH   5   6
ENDBRANCH   4   5
ENDBRANCH   3   4
ENDBRANCH   2   3
ENDBRANCH   1   2
BRANCH   1  15
ATOM     15  C   UNL     1      70.387  50.286  56.107  1.00  0.00     0.000 C 
BRANCH  15  16
ATOM     16  C   UNL     1      70.947  51.278  55.077  1.00  0.00     0.000 C 
BRANCH  16  17
ATOM     17  C   UNL     1      69.908  52.330  54.644  1.00  0.00     0.000 C 
BRANCH  17  18
ATOM     18  C   UNL     1      70.464  53.761  54.699  1.00  0.00    -0.000 C 
BRANCH  18  19
ATOM     19  C   UNL     1      69.591  54.763  53.924  1.00  0.00    -0.000 C 
BRANCH  19  20
ATOM     20  C   UNL     1      69.753  54.640  52.398  1.00  0.00    -0.000 C 
BRANCH  20  21
ATOM     21  C   UNL     1      71.190  54.360  51.907  1.00  0.00    -0.000 C 
BRANCH  21  22
ATOM     22  C   UNL     1      71.308  53.295  50.798  1.00  0.00    -0.000 C 
BRANCH  22  23
ATOM     23  C   UNL     1      70.938  51.867  51.263  1.00  0.00    -0.000 C 
BRANCH  23  24
ATOM     24  C   UNL     1      69.521  51.432  50.844  1.00  0.00    -0.000 C 
BRANCH  24  25
ATOM     25  C   UNL     1      69.071  51.965  49.472  1.00  0.00    -0.003 C 
ATOM     26  C   UNL     1      67.975  53.024  49.576  1.00  0.00     0.004 C 
ENDBRANCH  24  25
ENDBRANCH  23  24
ENDBRANCH  22  23
ENDBRANCH  21  22
ENDBRANCH  20  21
ENDBRANCH  19  20
ENDBRANCH  18  19
ENDBRANCH  17  18
ENDBRANCH  16  17
ENDBRANCH  15  16
ENDBRANCH   1  15
TORSDOF 22
ENDMDL
MODEL 7
REMARK VINA RESULT:    -3.660      1.414      2.905
REMARK INTER + INTRA:         -10.508
REMARK INTER:                  -8.714
REMARK INTRA:                  -1.794
REMARK UNBOUND:                -2.141
REMARK SMILES CCCCCCCCCCCCCCCCCCCCCCCC(=O)[O-]
REMARK SMILES IDX 13 1 14 2 15 3 16 4 17 5 18 6 19 7 20 8 21 9 22 10 23 11
REMARK SMILES IDX 24 12 25 13 26 14 12 15 11 16 10 17 9 18 8 19 7 20 6 21 5 22
REMARK SMILES IDX 4 23 3 24 2 25 1 26
REMARK H PARENT
REMARK Flexibility Score: inf
ROOT
ATOM      1  C   UNL     1      72.557  49.277  57.140  1.00  0.00     0.000 C 
ENDROOT
BRANCH   1   2
ATOM      2  C   UNL     1      72.581  50.124  55.858  1.00  0.00     0.000 C 
BRANCH   2   3
ATOM      3  C   UNL     1      71.685  51.370  55.957  1.00  0.00     0.000 C 
BRANCH   3   4
ATOM      4  C   UNL     1      70.530  51.354  54.940  1.00  0.00     0.000 C 
BRANCH   4   5
ATOM      5  C   UNL     1      70.933  51.873  53.543  1.00  0.00     0.000 C 
BRANCH   5   6
ATOM      6  C   UNL     1      70.341  53.264  53.248  1.00  0.00     0.000 C 
BRANCH   6   7
ATOM      7  C   UNL     1      71.053  53.975  52.076  1.00  0.00     0.000 C 
BRANCH   7   8
ATOM      8  C   UNL     1      70.381  53.751  50.706  1.00  0.00     0.000 C 
BRANCH   8   9
ATOM      9  C   UNL     1      68.859  53.542  50.756  1.00  0.00     0.000 C 
BRANCH   9  10
ATOM     10  C   UNL     1      68.378  52.428  49.809  1.00  0.00     0.006 C 
BRANCH  10  11
ATOM     11  C   UNL     1      69.132  51.111  50.035  1.00  0.00     0.053 C 
BRANCH  11  12
ATOM     12  C   UNL     1      68.419  50.221  51.007  1.00  0.00     0.041 C 
ATOM     13  O   UNL     1      68.384  50.518  52.230  1.00  0.00    -0.550 OA
ATOM     14  O   UNL     1      67.785  49.068  50.561  1.00  0.00    -0.550 OA
ENDBRANCH  11  12
ENDBRANCH  10  11
ENDBRANCH   9  10
ENDBRANCH   8   9
ENDBRANCH   7   8
ENDBRANCH   6   7
ENDBRANCH   5   6
ENDBRANCH   4   5
ENDBRANCH   3   4
ENDBRANCH   2   3
ENDBRANCH   1   2
BRANCH   1  15
ATOM     15  C   UNL     1      71.303  48.391  57.238  1.00  0.00     0.000 C 
BRANCH  15  16
ATOM     16  C   UNL     1      70.508  48.636  58.529  1.00  0.00     0.000 C 
BRANCH  16  17
ATOM     17  C   UNL     1      69.333  49.610  58.322  1.00  0.00     0.000 C 
BRANCH  17  18
ATOM     18  C   UNL     1      68.164  48.967  57.559  1.00  0.00    -0.000 C 
BRANCH  18  19
ATOM     19  C   UNL     1      66.797  49.324  58.167  1.00  0.00    -0.000 C 
BRANCH  19  20
ATOM     20  C   UNL     1      65.791  48.161  58.098  1.00  0.00    -0.000 C 
BRANCH  20  21
ATOM     21  C   UNL     1      66.358  46.774  58.470  1.00  0.00    -0.000 C 
BRANCH  21  22
ATOM     22  C   UNL     1      65.464  45.576  58.090  1.00  0.00    -0.000 C 
BRANCH  22  23
ATOM     23  C   UNL     1      65.739  45.017  56.675  1.00  0.00    -0.000 C 
BRANCH  23  24
ATOM     24  C   UNL     1      65.740  43.478  56.611  1.00  0.00    -0.000 C 
BRANCH  24  25
ATOM     25  C   UNL     1      66.030  42.786  57.954  1.00  0.00    -0.003 C 
ATOM     26  C   UNL     1      66.574  41.368  57.786  1.00  0.00     0.004 C 
ENDBRANCH  24  25
ENDBRANCH  23  24
ENDBRANCH  22  23
ENDBRANCH  21  22
ENDBRANCH  20  21
ENDBRANCH  19  20
ENDBRANCH  18  19
ENDBRANCH  17  18
ENDBRANCH  16  17
ENDBRANCH  15  16
ENDBRANCH   1  15
TORSDOF 22
ENDMDL
MODEL 8
REMARK VINA RESULT:    -3.598      3.233      8.142
REMARK INTER + INTRA:         -10.365
REMARK INTER:                  -8.138
REMARK INTRA:                  -2.227
REMARK UNBOUND:                -2.141
REMARK SMILES CCCCCCCCCCCCCCCCCCCCCCCC(=O)[O-]
REMARK SMILES IDX 13 1 14 2 15 3 16 4 17 5 18 6 19 7 20 8 21 9 22 10 23 11
REMARK SMILES IDX 24 12 25 13 26 14 12 15 11 16 10 17 9 18 8 19 7 20 6 21 5 22
REMARK SMILES IDX 4 23 3 24 2 25 1 26
REMARK H PARENT
REMARK Flexibility Score: inf
ROOT
ATOM      1  C   UNL     1      69.977  49.015  58.693  1.00  0.00     0.000 C 
ENDROOT
BRANCH   1   2
ATOM      2  C   UNL     1      70.081  50.506  59.048  1.00  0.00     0.000 C 
BRANCH   2   3
ATOM      3  C   UNL     1      69.337  51.406  58.048  1.00  0.00     0.000 C 
BRANCH   3   4
ATOM      4  C   UNL     1      68.445  50.608  57.080  1.00  0.00     0.000 C 
BRANCH   4   5
ATOM      5  C   UNL     1      66.937  50.877  57.271  1.00  0.00     0.000 C 
BRANCH   5   6
ATOM      6  C   UNL     1      66.359  50.111  58.476  1.00  0.00     0.000 C 
BRANCH   6   7
ATOM      7  C   UNL     1      66.598  48.589  58.382  1.00  0.00     0.000 C 
BRANCH   7   8
ATOM      8  C   UNL     1      65.323  47.770  58.098  1.00  0.00     0.000 C 
BRANCH   8   9
ATOM      9  C   UNL     1      65.298  46.368  58.727  1.00  0.00     0.000 C 
BRANCH   9  10
ATOM     10  C   UNL     1      66.286  45.396  58.058  1.00  0.00     0.006 C 
BRANCH  10  11
ATOM     11  C   UNL     1      65.602  44.500  57.017  1.00  0.00     0.053 C 
BRANCH  11  12
ATOM     12  C   UNL     1      65.792  43.046  57.322  1.00  0.00     0.041 C 
ATOM     13  O   UNL     1      66.895  42.488  57.086  1.00  0.00    -0.550 OA
ATOM     14  O   UNL     1      64.753  42.309  57.876  1.00  0.00    -0.550 OA
ENDBRANCH  11  12
ENDBRANCH  10  11
ENDBRANCH   9  10
ENDBRANCH   8   9
ENDBRANCH   7   8
ENDBRANCH   6   7
ENDBRANCH   5   6
ENDBRANCH   4   5
ENDBRANCH   3   4
ENDBRANCH   2   3
ENDBRANCH   1   2
BRANCH   1  15
ATOM     15  C   UNL     1      71.324  48.283  58.819  1.00  0.00     0.000 C 
BRANCH  15  16
ATOM     16  C   UNL     1      72.127  48.297  57.510  1.00  0.00     0.000 C 
BRANCH  16  17
ATOM     17  C   UNL     1      73.248  49.353  57.516  1.00  0.00     0.000 C 
BRANCH  17  18
ATOM     18  C   UNL     1      73.079  50.394  56.399  1.00  0.00    -0.000 C 
BRANCH  18  19
ATOM     19  C   UNL     1      71.770  50.208  55.613  1.00  0.00    -0.000 C 
BRANCH  19  20
ATOM     20  C   UNL     1      71.733  51.030  54.311  1.00  0.00    -0.000 C 
BRANCH  20  21
ATOM     21  C   UNL     1      70.618  52.096  54.234  1.00  0.00    -0.000 C 
BRANCH  21  22
ATOM     22  C   UNL     1      70.239  52.546  52.810  1.00  0.00    -0.000 C 
BRANCH  22  23
ATOM     23  C   UNL     1      70.836  51.656  51.695  1.00  0.00    -0.000 C 
BRANCH  23  24
ATOM     24  C   UNL     1      70.225  51.918  50.305  1.00  0.00    -0.000 C 
BRANCH  24  25
ATOM     25  C   UNL     1      68.763  51.463  50.157  1.00  0.00    -0.003 C 
ATOM     26  C   UNL     1      68.452  50.196  50.953  1.00  0.00     0.004 C 
ENDBRANCH  24  25
ENDBRANCH  23  24
ENDBRANCH  22  23
ENDBRANCH  21  22
ENDBRANCH  20  21
ENDBRANCH  19  20
ENDBRANCH  18  19
ENDBRANCH  17  18
ENDBRANCH  16  17
ENDBRANCH  15  16
ENDBRANCH   1  15
TORSDOF 22
ENDMDL
MODEL 9
REMARK VINA RESULT:    -3.557      4.993      8.987
REMARK INTER + INTRA:         -10.272
REMARK INTER:                  -8.259
REMARK INTRA:                  -2.013
REMARK UNBOUND:                -2.141
REMARK SMILES CCCCCCCCCCCCCCCCCCCCCCCC(=O)[O-]
REMARK SMILES IDX 13 1 14 2 15 3 16 4 17 5 18 6 19 7 20 8 21 9 22 10 23 11
REMARK SMILES IDX 24 12 25 13 26 14 12 15 11 16 10 17 9 18 8 19 7 20 6 21 5 22
REMARK SMILES IDX 4 23 3 24 2 25 1 26
REMARK H PARENT
REMARK Flexibility Score: inf
ROOT
ATOM      1  C   UNL     1      68.748  50.733  50.663  1.00  0.00     0.000 C 
ENDROOT
BRANCH   1   2
ATOM      2  C   UNL     1      69.043  51.822  49.619  1.00  0.00     0.000 C 
BRANCH   2   3
ATOM      3  C   UNL     1      68.068  53.008  49.710  1.00  0.00     0.000 C 
BRANCH   3   4
ATOM      4  C   UNL     1      68.507  54.206  48.852  1.00  0.00     0.000 C 
BRANCH   4   5
ATOM      5  C   UNL     1      69.546  53.841  47.770  1.00  0.00     0.000 C 
BRANCH   5   6
ATOM      6  C   UNL     1      69.309  54.607  46.455  1.00  0.00     0.000 C 
BRANCH   6   7
ATOM      7  C   UNL     1      69.521  53.722  45.207  1.00  0.00     0.000 C 
BRANCH   7   8
ATOM      8  C   UNL     1      68.276  53.602  44.306  1.00  0.00     0.000 C 
BRANCH   8   9
ATOM      9  C   UNL     1      68.487  52.802  43.010  1.00  0.00     0.000 C 
BRANCH   9  10
ATOM     10  C   UNL     1      69.851  53.078  42.354  1.00  0.00     0.006 C 
BRANCH  10  11
ATOM     11  C   UNL     1      69.872  52.677  40.873  1.00  0.00     0.053 C 
BRANCH  11  12
ATOM     12  C   UNL     1      70.071  51.202  40.697  1.00  0.00     0.041 C 
ATOM     13  O   UNL     1      69.353  50.559  39.888  1.00  0.00    -0.550 OA
ATOM     14  O   UNL     1      71.056  50.541  41.420  1.00  0.00    -0.550 OA
ENDBRANCH  11  12
ENDBRANCH  10  11
ENDBRANCH   9  10
ENDBRANCH   8   9
ENDBRANCH   7   8
ENDBRANCH   6   7
ENDBRANCH   5   6
ENDBRANCH   4   5
ENDBRANCH   3   4
ENDBRANCH   2   3
ENDBRANCH   1   2
BRANCH   1  15
ATOM     15  C   UNL     1      69.463  50.989  52.000  1.00  0.00     0.000 C 
BRANCH  15  16
ATOM     16  C   UNL     1      70.821  51.685  51.819  1.00  0.00     0.000 C 
BRANCH  16  17
ATOM     17  C   UNL     1      70.877  53.060  52.510  1.00  0.00     0.000 C 
BRANCH  17  18
ATOM     18  C   UNL     1      69.959  53.137  53.739  1.00  0.00    -0.000 C 
BRANCH  18  19
ATOM     19  C   UNL     1      70.651  52.645  55.023  1.00  0.00    -0.000 C 
BRANCH  19  20
ATOM     20  C   UNL     1      69.666  52.030  56.033  1.00  0.00    -0.000 C 
BRANCH  20  21
ATOM     21  C   UNL     1      68.732  50.939  55.466  1.00  0.00    -0.000 C 
BRANCH  21  22
ATOM     22  C   UNL     1      68.600  49.672  56.334  1.00  0.00    -0.000 C 
BRANCH  22  23
ATOM     23  C   UNL     1      69.639  49.588  57.477  1.00  0.00    -0.000 C 
BRANCH  23  24
ATOM     24  C   UNL     1      70.893  48.773  57.109  1.00  0.00    -0.000 C 
BRANCH  24  25
ATOM     25  C   UNL     1      72.221  49.519  57.322  1.00  0.00    -0.003 C 
ATOM     26  C   UNL     1      72.880  49.944  56.011  1.00  0.00     0.004 C 
ENDBRANCH  24  25
ENDBRANCH  23  24
ENDBRANCH  22  23
ENDBRANCH  21  22
ENDBRANCH  20  21
ENDBRANCH  19  20
ENDBRANCH  18  19
ENDBRANCH  17  18
ENDBRANCH  16  17
ENDBRANCH  15  16
ENDBRANCH   1  15
TORSDOF 22
ENDMDL
