MODEL 1
REMARK VINA RESULT:    -5.383      0.000      0.000
REMARK INTER + INTRA:         -12.398
REMARK INTER:                 -10.417
REMARK INTRA:                  -1.981
REMARK UNBOUND:                -1.981
REMARK SMILES CCCCCCCCCCCCCCCCCC(=O)[O-]
REMARK SMILES IDX 10 1 11 2 12 3 13 4 14 5 15 6 16 7 17 8 18 9 19 10 20 11
REMARK SMILES IDX 9 12 8 13 7 14 6 15 5 16 4 17 3 18 2 19 1 20
REMARK H PARENT
REMARK Flexibility Score: inf
ROOT
ATOM      1  C   UNL     1     160.773 161.345 148.474  1.00  0.00     0.000 C 
ENDROOT
BRANCH   1   2
ATOM      2  C   UNL     1     160.047 162.475 149.233  1.00  0.00     0.000 C 
BRANCH   2   3
ATOM      3  C   UNL     1     158.760 162.049 149.962  1.00  0.00     0.000 C 
BRANCH   3   4
ATOM      4  C   UNL     1     158.795 162.361 151.466  1.00  0.00     0.000 C 
BRANCH   4   5
ATOM      5  C   UNL     1     159.221 161.126 152.273  1.00  0.00     0.000 C 
BRANCH   5   6
ATOM      6  C   UNL     1     159.143 159.828 151.454  1.00  0.00     0.000 C 
BRANCH   6   7
ATOM      7  C   UNL     1     160.302 158.864 151.761  1.00  0.00     0.006 C 
BRANCH   7   8
ATOM      8  C   UNL     1     160.350 158.472 153.244  1.00  0.00     0.053 C 
BRANCH   8   9
ATOM      9  C   UNL     1     161.688 158.762 153.852  1.00  0.00     0.041 C 
ATOM     10  O   UNL     1     162.224 159.890 153.694  1.00  0.00    -0.550 OA
ATOM     11  O   UNL     1     162.358 157.774 154.565  1.00  0.00    -0.550 OA
ENDBRANCH   8   9
ENDBRANCH   7   8
ENDBRANCH   6   7
ENDBRANCH   5   6
ENDBRANCH   4   5
ENDBRANCH   3   4
ENDBRANCH   2   3
ENDBRANCH   1   2
BRANCH   1  12
ATOM     12  C   UNL     1     159.944 160.650 147.379  1.00  0.00     0.000 C 
BRANCH  12  13
ATOM     13  C   UNL     1     160.085 159.118 147.404  1.00  0.00    -0.000 C 
BRANCH  13  14
ATOM     14  C   UNL     1     158.897 158.429 148.091  1.00  0.00    -0.000 C 
BRANCH  14  15
ATOM     15  C   UNL     1     159.238 157.014 148.592  1.00  0.00    -0.000 C 
BRANCH  15  16
ATOM     16  C   UNL     1     158.042 156.315 149.260  1.00  0.00    -0.000 C 
BRANCH  16  17
ATOM     17  C   UNL     1     157.082 157.309 149.937  1.00  0.00    -0.000 C 
BRANCH  17  18
ATOM     18  C   UNL     1     155.722 156.680 150.291  1.00  0.00    -0.000 C 
BRANCH  18  19
ATOM     19  C   UNL     1     155.581 155.190 149.934  1.00  0.00    -0.003 C 
ATOM     20  C   UNL     1     154.184 154.824 149.433  1.00  0.00     0.004 C 
ENDBRANCH  18  19
ENDBRANCH  17  18
ENDBRANCH  16  17
ENDBRANCH  15  16
ENDBRANCH  14  15
ENDBRANCH  13  14
ENDBRANCH  12  13
ENDBRANCH   1  12
TORSDOF 16
ENDMDL
MODEL 2
REMARK VINA RESULT:    -5.295      3.043      6.075
REMARK INTER + INTRA:         -12.228
REMARK INTER:                 -10.308
REMARK INTRA:                  -1.920
REMARK UNBOUND:                -1.981
REMARK SMILES CCCCCCCCCCCCCCCCCC(=O)[O-]
REMARK SMILES IDX 10 1 11 2 12 3 13 4 14 5 15 6 16 7 17 8 18 9 19 10 20 11
REMARK SMILES IDX 9 12 8 13 7 14 6 15 5 16 4 17 3 18 2 19 1 20
REMARK H PARENT
REMARK Flexibility Score: inf
ROOT
ATOM      1  C   UNL     1     159.684 160.685 147.640  1.00  0.00     0.000 C 
ENDROOT
BRANCH   1   2
ATOM      2  C   UNL     1     160.243 159.247 147.609  1.00  0.00     0.000 C 
BRANCH   2   3
ATOM      3  C   UNL     1     159.180 158.134 147.642  1.00  0.00     0.000 C 
BRANCH   3   4
ATOM      4  C   UNL     1     159.502 157.031 148.662  1.00  0.00     0.000 C 
BRANCH   4   5
ATOM      5  C   UNL     1     158.216 156.375 149.184  1.00  0.00     0.000 C 
BRANCH   5   6
ATOM      6  C   UNL     1     157.236 157.392 149.790  1.00  0.00     0.000 C 
BRANCH   6   7
ATOM      7  C   UNL     1     155.916 156.744 150.243  1.00  0.00     0.006 C 
BRANCH   7   8
ATOM      8  C   UNL     1     155.921 155.223 150.045  1.00  0.00     0.053 C 
BRANCH   8   9
ATOM      9  C   UNL     1     154.841 154.555 150.840  1.00  0.00     0.041 C 
ATOM     10  O   UNL     1     153.670 154.484 150.383  1.00  0.00    -0.550 OA
ATOM     11  O   UNL     1     155.120 154.043 152.101  1.00  0.00    -0.550 OA
ENDBRANCH   8   9
ENDBRANCH   7   8
ENDBRANCH   6   7
ENDBRANCH   5   6
ENDBRANCH   4   5
ENDBRANCH   3   4
ENDBRANCH   2   3
ENDBRANCH   1   2
BRANCH   1  12
ATOM     12  C   UNL     1     160.605 161.734 148.289  1.00  0.00     0.000 C 
BRANCH  12  13
ATOM     13  C   UNL     1     159.928 162.490 149.446  1.00  0.00    -0.000 C 
BRANCH  13  14
ATOM     14  C   UNL     1     160.325 161.935 150.823  1.00  0.00    -0.000 C 
BRANCH  14  15
ATOM     15  C   UNL     1     159.113 161.452 151.640  1.00  0.00    -0.000 C 
BRANCH  15  16
ATOM     16  C   UNL     1     158.949 159.923 151.611  1.00  0.00    -0.000 C 
BRANCH  16  17
ATOM     17  C   UNL     1     160.270 159.194 151.309  1.00  0.00    -0.000 C 
BRANCH  17  18
ATOM     18  C   UNL     1     160.675 158.205 152.417  1.00  0.00    -0.000 C 
BRANCH  18  19
ATOM     19  C   UNL     1     161.108 158.855 153.744  1.00  0.00    -0.003 C 
ATOM     20  C   UNL     1     162.210 158.076 154.460  1.00  0.00     0.004 C 
ENDBRANCH  18  19
ENDBRANCH  17  18
ENDBRANCH  16  17
ENDBRANCH  15  16
ENDBRANCH  14  15
ENDBRANCH  13  14
ENDBRANCH  12  13
ENDBRANCH   1  12
TORSDOF 16
ENDMDL
MODEL 3
REMARK VINA RESULT:    -5.254      3.225      5.132
REMARK INTER + INTRA:         -12.150
REMARK INTER:                 -10.194
REMARK INTRA:                  -1.956
REMARK UNBOUND:                -1.981
REMARK SMILES CCCCCCCCCCCCCCCCCC(=O)[O-]
REMARK SMILES IDX 10 1 11 2 12 3 13 4 14 5 15 6 16 7 17 8 18 9 19 10 20 11
REMARK SMILES IDX 9 12 8 13 7 14 6 15 5 16 4 17 3 18 2 19 1 20
REMARK H PARENT
REMARK Flexibility Score: inf
ROOT
ATOM      1  C   UNL     1     159.471 160.341 147.385  1.00  0.00     0.000 C 
ENDROOT
BRANCH   1   2
ATOM      2  C   UNL     1     158.589 160.735 148.589  1.00  0.00     0.000 C 
BRANCH   2   3
ATOM      3  C   UNL     1     159.349 161.341 149.783  1.00  0.00     0.000 C 
BRANCH   3   4
ATOM      4  C   UNL     1     159.664 162.833 149.594  1.00  0.00     0.000 C 
BRANCH   4   5
ATOM      5  C   UNL     1     161.131 163.036 149.190  1.00  0.00     0.000 C 
BRANCH   5   6
ATOM      6  C   UNL     1     162.023 161.848 149.584  1.00  0.00     0.000 C 
BRANCH   6   7
ATOM      7  C   UNL     1     163.317 162.290 150.292  1.00  0.00     0.006 C 
BRANCH   7   8
ATOM      8  C   UNL     1     163.688 163.742 149.965  1.00  0.00     0.053 C 
BRANCH   8   9
ATOM      9  C   UNL     1     165.091 163.854 149.452  1.00  0.00     0.041 C 
ATOM     10  O   UNL     1     165.842 162.844 149.434  1.00  0.00    -0.550 OA
ATOM     11  O   UNL     1     165.581 165.084 149.027  1.00  0.00    -0.550 OA
ENDBRANCH   8   9
ENDBRANCH   7   8
ENDBRANCH   6   7
ENDBRANCH   5   6
ENDBRANCH   4   5
ENDBRANCH   3   4
ENDBRANCH   2   3
ENDBRANCH   1   2
BRANCH   1  12
ATOM     12  C   UNL     1     159.884 158.859 147.330  1.00  0.00     0.000 C 
BRANCH  12  13
ATOM     13  C   UNL     1     159.016 157.963 148.231  1.00  0.00    -0.000 C 
BRANCH  13  14
ATOM     14  C   UNL     1     159.857 157.086 149.172  1.00  0.00    -0.000 C 
BRANCH  14  15
ATOM     15  C   UNL     1     160.681 157.912 150.176  1.00  0.00    -0.000 C 
BRANCH  15  16
ATOM     16  C   UNL     1     159.891 158.260 151.449  1.00  0.00    -0.000 C 
BRANCH  16  17
ATOM     17  C   UNL     1     160.699 159.135 152.423  1.00  0.00    -0.000 C 
BRANCH  17  18
ATOM     18  C   UNL     1     159.853 159.663 153.595  1.00  0.00    -0.000 C 
BRANCH  18  19
ATOM     19  C   UNL     1     158.903 160.822 153.243  1.00  0.00    -0.003 C 
ATOM     20  C   UNL     1     157.781 161.008 154.264  1.00  0.00     0.004 C 
ENDBRANCH  18  19
ENDBRANCH  17  18
ENDBRANCH  16  17
ENDBRANCH  15  16
ENDBRANCH  14  15
ENDBRANCH  13  14
ENDBRANCH  12  13
ENDBRANCH   1  12
TORSDOF 16
ENDMDL
MODEL 4
REMARK VINA RESULT:    -5.231      2.728      4.658
REMARK INTER + INTRA:         -12.105
REMARK INTER:                  -9.666
REMARK INTRA:                  -2.439
REMARK UNBOUND:                -1.981
REMARK SMILES CCCCCCCCCCCCCCCCCC(=O)[O-]
REMARK SMILES IDX 10 1 11 2 12 3 13 4 14 5 15 6 16 7 17 8 18 9 19 10 20 11
REMARK SMILES IDX 9 12 8 13 7 14 6 15 5 16 4 17 3 18 2 19 1 20
REMARK H PARENT
REMARK Flexibility Score: inf
ROOT
ATOM      1  C   UNL     1     158.585 159.920 152.882  1.00  0.00     0.000 C 
ENDROOT
BRANCH   1   2
ATOM      2  C   UNL     1     158.370 161.446 152.952  1.00  0.00     0.000 C 
BRANCH   2   3
ATOM      3  C   UNL     1     159.019 162.250 151.811  1.00  0.00     0.000 C 
BRANCH   3   4
ATOM      4  C   UNL     1     158.861 161.573 150.440  1.00  0.00     0.000 C 
BRANCH   4   5
ATOM      5  C   UNL     1     160.012 161.963 149.501  1.00  0.00     0.000 C 
BRANCH   5   6
ATOM      6  C   UNL     1     161.386 161.880 150.182  1.00  0.00     0.000 C 
BRANCH   6   7
ATOM      7  C   UNL     1     162.385 162.910 149.626  1.00  0.00     0.006 C 
BRANCH   7   8
ATOM      8  C   UNL     1     163.831 162.587 150.024  1.00  0.00     0.053 C 
BRANCH   8   9
ATOM      9  C   UNL     1     164.635 163.830 150.256  1.00  0.00     0.041 C 
ATOM     10  O   UNL     1     164.529 164.459 151.341  1.00  0.00    -0.550 OA
ATOM     11  O   UNL     1     165.475 164.312 149.259  1.00  0.00    -0.550 OA
ENDBRANCH   8   9
ENDBRANCH   7   8
ENDBRANCH   6   7
ENDBRANCH   5   6
ENDBRANCH   4   5
ENDBRANCH   3   4
ENDBRANCH   2   3
ENDBRANCH   1   2
BRANCH   1  12
ATOM     12  C   UNL     1     159.971 159.430 153.337  1.00  0.00     0.000 C 
BRANCH  12  13
ATOM     13  C   UNL     1     160.852 158.959 152.167  1.00  0.00    -0.000 C 
BRANCH  13  14
ATOM     14  C   UNL     1     160.726 157.450 151.906  1.00  0.00    -0.000 C 
BRANCH  14  15
ATOM     15  C   UNL     1     161.036 157.070 150.447  1.00  0.00    -0.000 C 
BRANCH  15  16
ATOM     16  C   UNL     1     160.787 158.227 149.466  1.00  0.00    -0.000 C 
BRANCH  16  17
ATOM     17  C   UNL     1     159.672 157.912 148.454  1.00  0.00    -0.000 C 
BRANCH  17  18
ATOM     18  C   UNL     1     158.310 158.503 148.859  1.00  0.00    -0.000 C 
BRANCH  18  19
ATOM     19  C   UNL     1     157.533 157.689 149.910  1.00  0.00    -0.003 C 
ATOM     20  C   UNL     1     157.361 156.221 149.523  1.00  0.00     0.004 C 
ENDBRANCH  18  19
ENDBRANCH  17  18
ENDBRANCH  16  17
ENDBRANCH  15  16
ENDBRANCH  14  15
ENDBRANCH  13  14
ENDBRANCH  12  13
ENDBRANCH   1  12
TORSDOF 16
ENDMDL
MODEL 5
REMARK VINA RESULT:    -5.200      2.911      6.854
REMARK INTER + INTRA:         -12.044
REMARK INTER:                 -10.007
REMARK INTRA:                  -2.037
REMARK UNBOUND:                -1.981
REMARK SMILES CCCCCCCCCCCCCCCCCC(=O)[O-]
REMARK SMILES IDX 10 1 11 2 12 3 13 4 14 5 15 6 16 7 17 8 18 9 19 10 20 11
REMARK SMILES IDX 9 12 8 13 7 14 6 15 5 16 4 17 3 18 2 19 1 20
REMARK H PARENT
REMARK Flexibility Score: inf
ROOT
ATOM      1  C   UNL     1     159.789 158.821 147.484  1.00  0.00     0.000 C 
ENDROOT
BRANCH   1   2
ATOM      2  C   UNL     1     158.805 157.815 148.115  1.00  0.00     0.000 C 
BRANCH   2   3
ATOM      3  C   UNL     1     159.382 156.972 149.267  1.00  0.00     0.000 C 
BRANCH   3   4
ATOM      4  C   UNL     1     160.645 157.593 149.885  1.00  0.00     0.000 C 
BRANCH   4   5
ATOM      5  C   UNL     1     160.485 157.761 151.403  1.00  0.00     0.000 C 
BRANCH   5   6
ATOM      6  C   UNL     1     160.516 159.234 151.841  1.00  0.00     0.000 C 
BRANCH   6   7
ATOM      7  C   UNL     1     159.231 159.991 151.461  1.00  0.00     0.006 C 
BRANCH   7   8
ATOM      8  C   UNL     1     159.069 161.291 152.258  1.00  0.00     0.053 C 
BRANCH   8   9
ATOM      9  C   UNL     1     158.080 161.140 153.373  1.00  0.00     0.041 C 
ATOM     10  O   UNL     1     157.803 159.997 153.823  1.00  0.00    -0.550 OA
ATOM     11  O   UNL     1     157.439 162.258 153.892  1.00  0.00    -0.550 OA
ENDBRANCH   8   9
ENDBRANCH   7   8
ENDBRANCH   6   7
ENDBRANCH   5   6
ENDBRANCH   4   5
ENDBRANCH   3   4
ENDBRANCH   2   3
ENDBRANCH   1   2
BRANCH   1  12
ATOM     12  C   UNL     1     159.455 160.305 147.723  1.00  0.00     0.000 C 
BRANCH  12  13
ATOM     13  C   UNL     1     160.695 161.147 148.072  1.00  0.00    -0.000 C 
BRANCH  13  14
ATOM     14  C   UNL     1     160.332 162.463 148.779  1.00  0.00    -0.000 C 
BRANCH  14  15
ATOM     15  C   UNL     1     161.553 163.156 149.408  1.00  0.00    -0.000 C 
BRANCH  15  16
ATOM     16  C   UNL     1     162.540 162.162 150.041  1.00  0.00    -0.000 C 
BRANCH  16  17
ATOM     17  C   UNL     1     163.995 162.659 149.986  1.00  0.00    -0.000 C 
BRANCH  17  18
ATOM     18  C   UNL     1     164.230 163.919 150.837  1.00  0.00    -0.000 C 
BRANCH  18  19
ATOM     19  C   UNL     1     164.678 165.164 150.049  1.00  0.00    -0.003 C 
ATOM     20  C   UNL     1     165.660 164.839 148.924  1.00  0.00     0.004 C 
ENDBRANCH  18  19
ENDBRANCH  17  18
ENDBRANCH  16  17
ENDBRANCH  15  16
ENDBRANCH  14  15
ENDBRANCH  13  14
ENDBRANCH  12  13
ENDBRANCH   1  12
TORSDOF 16
ENDMDL
MODEL 6
REMARK VINA RESULT:    -5.151      3.083      6.582
REMARK INTER + INTRA:         -11.950
REMARK INTER:                  -9.708
REMARK INTRA:                  -2.242
REMARK UNBOUND:                -1.981
REMARK SMILES CCCCCCCCCCCCCCCCCC(=O)[O-]
REMARK SMILES IDX 10 1 11 2 12 3 13 4 14 5 15 6 16 7 17 8 18 9 19 10 20 11
REMARK SMILES IDX 9 12 8 13 7 14 6 15 5 16 4 17 3 18 2 19 1 20
REMARK H PARENT
REMARK Flexibility Score: inf
ROOT
ATOM      1  C   UNL     1     160.913 156.844 151.119  1.00  0.00     0.000 C 
ENDROOT
BRANCH   1   2
ATOM      2  C   UNL     1     160.755 157.700 149.845  1.00  0.00     0.000 C 
BRANCH   2   3
ATOM      3  C   UNL     1     159.646 157.238 148.882  1.00  0.00     0.000 C 
BRANCH   3   4
ATOM      4  C   UNL     1     158.433 158.180 148.872  1.00  0.00     0.000 C 
BRANCH   4   5
ATOM      5  C   UNL     1     157.410 157.767 149.940  1.00  0.00     0.000 C 
BRANCH   5   6
ATOM      6  C   UNL     1     156.898 156.331 149.744  1.00  0.00     0.000 C 
BRANCH   6   7
ATOM      7  C   UNL     1     155.457 156.143 150.251  1.00  0.00     0.006 C 
BRANCH   7   8
ATOM      8  C   UNL     1     154.853 154.808 149.796  1.00  0.00     0.053 C 
BRANCH   8   9
ATOM      9  C   UNL     1     155.405 153.655 150.576  1.00  0.00     0.041 C 
ATOM     10  O   UNL     1     156.099 152.776 150.001  1.00  0.00    -0.550 OA
ATOM     11  O   UNL     1     155.124 153.532 151.932  1.00  0.00    -0.550 OA
ENDBRANCH   8   9
ENDBRANCH   7   8
ENDBRANCH   6   7
ENDBRANCH   5   6
ENDBRANCH   4   5
ENDBRANCH   3   4
ENDBRANCH   2   3
ENDBRANCH   1   2
BRANCH   1  12
ATOM     12  C   UNL     1     160.874 157.625 152.445  1.00  0.00     0.000 C 
BRANCH  12  13
ATOM     13  C   UNL     1     160.719 159.142 152.240  1.00  0.00    -0.000 C 
BRANCH  13  14
ATOM     14  C   UNL     1     159.733 159.772 153.236  1.00  0.00    -0.000 C 
BRANCH  14  15
ATOM     15  C   UNL     1     158.986 160.983 152.649  1.00  0.00    -0.000 C 
BRANCH  15  16
ATOM     16  C   UNL     1     158.968 160.981 151.112  1.00  0.00    -0.000 C 
BRANCH  16  17
ATOM     17  C   UNL     1     159.116 162.393 150.519  1.00  0.00    -0.000 C 
BRANCH  17  18
ATOM     18  C   UNL     1     160.433 162.582 149.745  1.00  0.00    -0.000 C 
BRANCH  18  19
ATOM     19  C   UNL     1     160.950 161.325 149.021  1.00  0.00    -0.003 C 
ATOM     20  C   UNL     1     160.304 161.114 147.653  1.00  0.00     0.004 C 
ENDBRANCH  18  19
ENDBRANCH  17  18
ENDBRANCH  16  17
ENDBRANCH  15  16
ENDBRANCH  14  15
ENDBRANCH  13  14
ENDBRANCH  12  13
ENDBRANCH   1  12
TORSDOF 16
ENDMDL
MODEL 7
REMARK VINA RESULT:    -5.148      3.123      6.772
REMARK INTER + INTRA:         -11.944
REMARK INTER:                  -9.809
REMARK INTRA:                  -2.134
REMARK UNBOUND:                -1.981
REMARK SMILES CCCCCCCCCCCCCCCCCC(=O)[O-]
REMARK SMILES IDX 10 1 11 2 12 3 13 4 14 5 15 6 16 7 17 8 18 9 19 10 20 11
REMARK SMILES IDX 9 12 8 13 7 14 6 15 5 16 4 17 3 18 2 19 1 20
REMARK H PARENT
REMARK Flexibility Score: inf
ROOT
ATOM      1  C   UNL     1     160.664 159.262 153.282  1.00  0.00     0.000 C 
ENDROOT
BRANCH   1   2
ATOM      2  C   UNL     1     160.728 159.005 151.762  1.00  0.00     0.000 C 
BRANCH   2   3
ATOM      3  C   UNL     1     160.337 157.582 151.324  1.00  0.00     0.000 C 
BRANCH   3   4
ATOM      4  C   UNL     1     160.483 157.362 149.811  1.00  0.00     0.000 C 
BRANCH   4   5
ATOM      5  C   UNL     1     159.156 156.895 149.194  1.00  0.00     0.000 C 
BRANCH   5   6
ATOM      6  C   UNL     1     158.025 157.919 149.378  1.00  0.00     0.000 C 
BRANCH   6   7
ATOM      7  C   UNL     1     156.801 157.325 150.097  1.00  0.00     0.006 C 
BRANCH   7   8
ATOM      8  C   UNL     1     156.592 155.844 149.755  1.00  0.00     0.053 C 
BRANCH   8   9
ATOM      9  C   UNL     1     155.284 155.333 150.276  1.00  0.00     0.041 C 
ATOM     10  O   UNL     1     155.120 155.155 151.511  1.00  0.00    -0.550 OA
ATOM     11  O   UNL     1     154.257 155.020 149.393  1.00  0.00    -0.550 OA
ENDBRANCH   8   9
ENDBRANCH   7   8
ENDBRANCH   6   7
ENDBRANCH   5   6
ENDBRANCH   4   5
ENDBRANCH   3   4
ENDBRANCH   2   3
ENDBRANCH   1   2
BRANCH   1  12
ATOM     12  C   UNL     1     159.640 160.322 153.726  1.00  0.00     0.000 C 
BRANCH  12  13
ATOM     13  C   UNL     1     158.641 160.691 152.616  1.00  0.00    -0.000 C 
BRANCH  13  14
ATOM     14  C   UNL     1     158.494 162.210 152.436  1.00  0.00    -0.000 C 
BRANCH  14  15
ATOM     15  C   UNL     1     158.817 162.673 151.004  1.00  0.00    -0.000 C 
BRANCH  15  16
ATOM     16  C   UNL     1     158.741 161.531 149.979  1.00  0.00    -0.000 C 
BRANCH  16  17
ATOM     17  C   UNL     1     159.946 161.514 149.023  1.00  0.00    -0.000 C 
BRANCH  17  18
ATOM     18  C   UNL     1     160.560 162.909 148.811  1.00  0.00    -0.000 C 
BRANCH  18  19
ATOM     19  C   UNL     1     161.978 163.091 149.383  1.00  0.00    -0.003 C 
ATOM     20  C   UNL     1     162.494 161.851 150.112  1.00  0.00     0.004 C 
ENDBRANCH  18  19
ENDBRANCH  17  18
ENDBRANCH  16  17
ENDBRANCH  15  16
ENDBRANCH  14  15
ENDBRANCH  13  14
ENDBRANCH  12  13
ENDBRANCH   1  12
TORSDOF 16
ENDMDL
MODEL 8
REMARK VINA RESULT:    -5.148      2.210      2.817
REMARK INTER + INTRA:         -11.944
REMARK INTER:                  -9.936
REMARK INTRA:                  -2.008
REMARK UNBOUND:                -1.981
REMARK SMILES CCCCCCCCCCCCCCCCCC(=O)[O-]
REMARK SMILES IDX 10 1 11 2 12 3 13 4 14 5 15 6 16 7 17 8 18 9 19 10 20 11
REMARK SMILES IDX 9 12 8 13 7 14 6 15 5 16 4 17 3 18 2 19 1 20
REMARK H PARENT
REMARK Flexibility Score: inf
ROOT
ATOM      1  C   UNL     1     158.906 160.751 147.768  1.00  0.00     0.000 C 
ENDROOT
BRANCH   1   2
ATOM      2  C   UNL     1     160.376 161.193 147.923  1.00  0.00     0.000 C 
BRANCH   2   3
ATOM      3  C   UNL     1     160.605 162.377 148.880  1.00  0.00     0.000 C 
BRANCH   3   4
ATOM      4  C   UNL     1     160.394 162.001 150.355  1.00  0.00     0.000 C 
BRANCH   4   5
ATOM      5  C   UNL     1     161.192 160.740 150.718  1.00  0.00     0.000 C 
BRANCH   5   6
ATOM      6  C   UNL     1     160.538 159.931 151.849  1.00  0.00     0.000 C 
BRANCH   6   7
ATOM      7  C   UNL     1     159.045 160.261 152.024  1.00  0.00     0.006 C 
BRANCH   7   8
ATOM      8  C   UNL     1     158.626 160.278 153.500  1.00  0.00     0.053 C 
BRANCH   8   9
ATOM      9  C   UNL     1     157.797 161.482 153.828  1.00  0.00     0.041 C 
ATOM     10  O   UNL     1     157.100 161.505 154.876  1.00  0.00    -0.550 OA
ATOM     11  O   UNL     1     157.767 162.565 152.958  1.00  0.00    -0.550 OA
ENDBRANCH   8   9
ENDBRANCH   7   8
ENDBRANCH   6   7
ENDBRANCH   5   6
ENDBRANCH   4   5
ENDBRANCH   3   4
ENDBRANCH   2   3
ENDBRANCH   1   2
BRANCH   1  12
ATOM     12  C   UNL     1     158.567 159.372 148.362  1.00  0.00     0.000 C 
BRANCH  12  13
ATOM     13  C   UNL     1     159.566 158.279 147.942  1.00  0.00    -0.000 C 
BRANCH  13  14
ATOM     14  C   UNL     1     160.025 157.416 149.127  1.00  0.00    -0.000 C 
BRANCH  14  15
ATOM     15  C   UNL     1     158.879 157.079 150.097  1.00  0.00    -0.000 C 
BRANCH  15  16
ATOM     16  C   UNL     1     157.800 156.192 149.456  1.00  0.00    -0.000 C 
BRANCH  16  17
ATOM     17  C   UNL     1     156.405 156.432 150.058  1.00  0.00    -0.000 C 
BRANCH  17  18
ATOM     18  C   UNL     1     155.409 155.305 149.729  1.00  0.00    -0.000 C 
BRANCH  18  19
ATOM     19  C   UNL     1     154.504 154.874 150.898  1.00  0.00    -0.003 C 
ATOM     20  C   UNL     1     155.036 153.654 151.649  1.00  0.00     0.004 C 
ENDBRANCH  18  19
ENDBRANCH  17  18
ENDBRANCH  16  17
ENDBRANCH  15  16
ENDBRANCH  14  15
ENDBRANCH  13  14
ENDBRANCH  12  13
ENDBRANCH   1  12
TORSDOF 16
ENDMDL
MODEL 9
REMARK VINA RESULT:    -5.096      1.829      3.608
REMARK INTER + INTRA:         -11.843
REMARK INTER:                  -9.972
REMARK INTRA:                  -1.871
REMARK UNBOUND:                -1.981
REMARK SMILES CCCCCCCCCCCCCCCCCC(=O)[O-]
REMARK SMILES IDX 10 1 11 2 12 3 13 4 14 5 15 6 16 7 17 8 18 9 19 10 20 11
REMARK SMILES IDX 9 12 8 13 7 14 6 15 5 16 4 17 3 18 2 19 1 20
REMARK H PARENT
REMARK Flexibility Score: inf
ROOT
ATOM      1  C   UNL     1     160.771 158.503 152.113  1.00  0.00     0.000 C 
ENDROOT
BRANCH   1   2
ATOM      2  C   UNL     1     160.065 159.717 152.752  1.00  0.00     0.000 C 
BRANCH   2   3
ATOM      3  C   UNL     1     158.886 160.287 151.942  1.00  0.00     0.000 C 
BRANCH   3   4
ATOM      4  C   UNL     1     158.888 161.822 151.887  1.00  0.00     0.000 C 
BRANCH   4   5
ATOM      5  C   UNL     1     158.642 162.319 150.454  1.00  0.00     0.000 C 
BRANCH   5   6
ATOM      6  C   UNL     1     158.856 161.220 149.402  1.00  0.00     0.000 C 
BRANCH   6   7
ATOM      7  C   UNL     1     160.083 161.484 148.512  1.00  0.00     0.006 C 
BRANCH   7   8
ATOM      8  C   UNL     1     160.794 162.793 148.882  1.00  0.00     0.053 C 
BRANCH   8   9
ATOM      9  C   UNL     1     162.048 162.542 149.663  1.00  0.00     0.041 C 
ATOM     10  O   UNL     1     162.166 161.497 150.353  1.00  0.00    -0.550 OA
ATOM     11  O   UNL     1     163.072 163.482 149.656  1.00  0.00    -0.550 OA
ENDBRANCH   8   9
ENDBRANCH   7   8
ENDBRANCH   6   7
ENDBRANCH   5   6
ENDBRANCH   4   5
ENDBRANCH   3   4
ENDBRANCH   2   3
ENDBRANCH   1   2
BRANCH   1  12
ATOM     12  C   UNL     1     159.902 157.665 151.158  1.00  0.00     0.000 C 
BRANCH  12  13
ATOM     13  C   UNL     1     160.392 157.721 149.700  1.00  0.00    -0.000 C 
BRANCH  13  14
ATOM     14  C   UNL     1     159.269 157.435 148.691  1.00  0.00    -0.000 C 
BRANCH  14  15
ATOM     15  C   UNL     1     157.868 157.708 149.268  1.00  0.00    -0.000 C 
BRANCH  15  16
ATOM     16  C   UNL     1     157.105 156.417 149.610  1.00  0.00    -0.000 C 
BRANCH  16  17
ATOM     17  C   UNL     1     155.828 156.686 150.425  1.00  0.00    -0.000 C 
BRANCH  17  18
ATOM     18  C   UNL     1     155.202 155.402 150.998  1.00  0.00    -0.000 C 
BRANCH  18  19
ATOM     19  C   UNL     1     155.034 154.252 149.987  1.00  0.00    -0.003 C 
ATOM     20  C   UNL     1     153.907 154.495 148.985  1.00  0.00     0.004 C 
ENDBRANCH  18  19
ENDBRANCH  17  18
ENDBRANCH  16  17
ENDBRANCH  15  16
ENDBRANCH  14  15
ENDBRANCH  13  14
ENDBRANCH  12  13
ENDBRANCH   1  12
TORSDOF 16
ENDMDL
