MODEL 1
REMARK VINA RESULT:    -4.445      0.000      0.000
REMARK INTER + INTRA:          -9.387
REMARK INTER:                  -6.784
REMARK INTRA:                  -2.603
REMARK UNBOUND:                -2.603
REMARK SMILES CC(=O)CCC=C(C)CCC=C(C)CCC=C(C)C
REMARK SMILES IDX 10 1 11 2 12 3 13 4 14 5 15 6 16 7 18 8 17 9 19 10 9 11 7 12
REMARK SMILES IDX 6 13 8 14 5 15 4 16 2 17 3 18 1 19
REMARK H PARENT
REMARK Flexibility Score: inf
ROOT
ATOM      1  C   UNL     1       4.693  27.269  16.407  1.00  0.00     0.032 C 
ENDROOT
BRANCH   1   2
ATOM      2  C   UNL     1       4.058  28.630  16.247  1.00  0.00    -0.028 C 
ATOM      3  C   UNL     1       4.457  29.752  16.889  1.00  0.00    -0.077 C 
ATOM      4  C   UNL     1       3.732  31.039  16.593  1.00  0.00     0.039 C 
BRANCH   3   5
ATOM      5  C   UNL     1       5.547  29.759  17.941  1.00  0.00     0.034 C 
BRANCH   5   6
ATOM      6  C   UNL     1       6.543  30.894  17.679  1.00  0.00     0.032 C 
BRANCH   6   7
ATOM      7  C   UNL     1       7.904  30.343  17.336  1.00  0.00    -0.028 C 
ATOM      8  C   UNL     1       9.693  29.466  15.898  1.00  0.00     0.039 C 
ATOM      9  C   UNL     1       8.317  30.052  16.082  1.00  0.00    -0.080 C 
ATOM     10  C   UNL     1       7.450  30.312  14.873  1.00  0.00     0.039 C 
ENDBRANCH   6   7
ENDBRANCH   5   6
ENDBRANCH   3   5
ENDBRANCH   1   2
BRANCH   1  11
ATOM     11  C   UNL     1       5.697  26.975  15.283  1.00  0.00     0.034 C 
BRANCH  11  12
ATOM     12  C   UNL     1       7.052  26.572  15.828  1.00  0.00    -0.077 C 
ATOM     13  C   UNL     1       8.042  26.258  14.961  1.00  0.00    -0.028 C 
ATOM     14  C   UNL     1       7.265  26.554  17.324  1.00  0.00     0.039 C 
BRANCH  13  15
ATOM     15  C   UNL     1       9.423  25.801  15.365  1.00  0.00     0.035 C 
BRANCH  15  16
ATOM     16  C   UNL     1      10.444  26.010  14.239  1.00  0.00     0.079 C 
BRANCH  16  17
ATOM     17  C   UNL     1      11.859  25.892  14.738  1.00  0.00     0.130 C 
ATOM     18  O   UNL     1      12.463  24.837  14.612  1.00  0.00    -0.300 OA
ATOM     19  C   UNL     1      12.537  27.066  15.379  1.00  0.00     0.087 C 
ENDBRANCH  16  17
ENDBRANCH  15  16
ENDBRANCH  13  15
ENDBRANCH  11  12
ENDBRANCH   1  11
TORSDOF 9
ENDMDL
MODEL 2
REMARK VINA RESULT:    -4.295      3.238      5.657
REMARK INTER + INTRA:          -9.158
REMARK INTER:                  -6.763
REMARK INTRA:                  -2.395
REMARK UNBOUND:                -2.603
REMARK SMILES CC(=O)CCC=C(C)CCC=C(C)CCC=C(C)C
REMARK SMILES IDX 10 1 11 2 12 3 13 4 14 5 15 6 16 7 18 8 17 9 19 10 9 11 7 12
REMARK SMILES IDX 6 13 8 14 5 15 4 16 2 17 3 18 1 19
REMARK H PARENT
REMARK Flexibility Score: inf
ROOT
ATOM      1  C   UNL     1       8.398  27.257  15.191  1.00  0.00     0.032 C 
ENDROOT
BRANCH   1   2
ATOM      2  C   UNL     1       9.021  28.622  15.015  1.00  0.00    -0.028 C 
ATOM      3  C   UNL     1       9.059  29.584  15.964  1.00  0.00    -0.077 C 
ATOM      4  C   UNL     1       9.746  30.884  15.635  1.00  0.00     0.039 C 
BRANCH   3   5
ATOM      5  C   UNL     1       8.381  29.443  17.312  1.00  0.00     0.034 C 
BRANCH   5   6
ATOM      6  C   UNL     1       7.433  30.621  17.565  1.00  0.00     0.032 C 
BRANCH   6   7
ATOM      7  C   UNL     1       5.998  30.159  17.569  1.00  0.00    -0.028 C 
ATOM      8  C   UNL     1       3.730  29.813  16.689  1.00  0.00     0.039 C 
ATOM      9  C   UNL     1       5.151  30.283  16.522  1.00  0.00    -0.080 C 
ATOM     10  C   UNL     1       5.595  30.861  15.199  1.00  0.00     0.039 C 
ENDBRANCH   6   7
ENDBRANCH   5   6
ENDBRANCH   3   5
ENDBRANCH   1   2
BRANCH   1  11
ATOM     11  C   UNL     1       6.899  27.269  14.859  1.00  0.00     0.034 C 
BRANCH  11  12
ATOM     12  C   UNL     1       6.069  26.673  15.978  1.00  0.00    -0.077 C 
ATOM     13  C   UNL     1       4.767  26.385  15.749  1.00  0.00    -0.028 C 
ATOM     14  C   UNL     1       6.725  26.398  17.311  1.00  0.00     0.039 C 
BRANCH  13  15
ATOM     15  C   UNL     1       3.817  25.830  16.782  1.00  0.00     0.035 C 
BRANCH  15  16
ATOM     16  C   UNL     1       3.639  24.313  16.634  1.00  0.00     0.079 C 
BRANCH  16  17
ATOM     17  C   UNL     1       2.666  23.763  17.643  1.00  0.00     0.130 C 
ATOM     18  O   UNL     1       1.536  23.456  17.294  1.00  0.00    -0.300 OA
ATOM     19  C   UNL     1       3.080  23.578  19.072  1.00  0.00     0.087 C 
ENDBRANCH  16  17
ENDBRANCH  15  16
ENDBRANCH  13  15
ENDBRANCH  11  12
ENDBRANCH   1  11
TORSDOF 9
ENDMDL
MODEL 3
REMARK VINA RESULT:    -4.222      2.458      6.651
REMARK INTER + INTRA:          -9.047
REMARK INTER:                  -6.381
REMARK INTRA:                  -2.666
REMARK UNBOUND:                -2.603
REMARK SMILES CC(=O)CCC=C(C)CCC=C(C)CCC=C(C)C
REMARK SMILES IDX 10 1 11 2 12 3 13 4 14 5 15 6 16 7 18 8 17 9 19 10 9 11 7 12
REMARK SMILES IDX 6 13 8 14 5 15 4 16 2 17 3 18 1 19
REMARK H PARENT
REMARK Flexibility Score: inf
ROOT
ATOM      1  C   UNL     1      10.184  29.611  14.873  1.00  0.00     0.032 C 
ENDROOT
BRANCH   1   2
ATOM      2  C   UNL     1      11.135  28.439  14.842  1.00  0.00    -0.028 C 
ATOM      3  C   UNL     1      10.881  27.249  14.251  1.00  0.00    -0.077 C 
ATOM      4  C   UNL     1      11.953  26.191  14.285  1.00  0.00     0.039 C 
BRANCH   3   5
ATOM      5  C   UNL     1       9.545  26.908  13.622  1.00  0.00     0.034 C 
BRANCH   5   6
ATOM      6  C   UNL     1       8.944  25.660  14.279  1.00  0.00     0.032 C 
BRANCH   6   7
ATOM      7  C   UNL     1       8.504  25.959  15.690  1.00  0.00    -0.028 C 
ATOM      8  C   UNL     1       7.025  26.777  17.474  1.00  0.00     0.039 C 
ATOM      9  C   UNL     1       7.308  26.496  16.021  1.00  0.00    -0.080 C 
ATOM     10  C   UNL     1       6.254  26.803  14.982  1.00  0.00     0.039 C 
ENDBRANCH   6   7
ENDBRANCH   5   6
ENDBRANCH   3   5
ENDBRANCH   1   2
BRANCH   1  11
ATOM     11  C   UNL     1       9.563  29.802  16.264  1.00  0.00     0.034 C 
BRANCH  11  12
ATOM     12  C   UNL     1       8.109  30.222  16.181  1.00  0.00    -0.077 C 
ATOM     13  C   UNL     1       7.454  30.549  17.318  1.00  0.00    -0.028 C 
ATOM     14  C   UNL     1       7.440  30.283  14.827  1.00  0.00     0.039 C 
BRANCH  13  15
ATOM     15  C   UNL     1       5.997  30.944  17.385  1.00  0.00     0.035 C 
BRANCH  15  16
ATOM     16  C   UNL     1       5.105  29.760  17.780  1.00  0.00     0.079 C 
BRANCH  16  17
ATOM     17  C   UNL     1       4.126  29.409  16.691  1.00  0.00     0.130 C 
ATOM     18  O   UNL     1       4.048  30.112  15.694  1.00  0.00    -0.300 OA
ATOM     19  C   UNL     1       3.256  28.196  16.816  1.00  0.00     0.087 C 
ENDBRANCH  16  17
ENDBRANCH  15  16
ENDBRANCH  13  15
ENDBRANCH  11  12
ENDBRANCH   1  11
TORSDOF 9
ENDMDL
MODEL 4
REMARK VINA RESULT:    -4.178      1.578      3.774
REMARK INTER + INTRA:          -8.979
REMARK INTER:                  -6.830
REMARK INTRA:                  -2.150
REMARK UNBOUND:                -2.603
REMARK SMILES CC(=O)CCC=C(C)CCC=C(C)CCC=C(C)C
REMARK SMILES IDX 10 1 11 2 12 3 13 4 14 5 15 6 16 7 18 8 17 9 19 10 9 11 7 12
REMARK SMILES IDX 6 13 8 14 5 15 4 16 2 17 3 18 1 19
REMARK H PARENT
REMARK Flexibility Score: inf
ROOT
ATOM      1  C   UNL     1       8.546  29.894  17.030  1.00  0.00     0.032 C 
ENDROOT
BRANCH   1   2
ATOM      2  C   UNL     1       7.185  30.494  17.289  1.00  0.00    -0.028 C 
ATOM      3  C   UNL     1       6.162  30.508  16.405  1.00  0.00    -0.077 C 
ATOM      4  C   UNL     1       4.855  31.122  16.834  1.00  0.00     0.039 C 
BRANCH   3   5
ATOM      5  C   UNL     1       6.292  30.000  14.983  1.00  0.00     0.034 C 
BRANCH   5   6
ATOM      6  C   UNL     1       5.792  28.555  14.879  1.00  0.00     0.032 C 
BRANCH   6   7
ATOM      7  C   UNL     1       6.950  27.594  14.784  1.00  0.00    -0.028 C 
ATOM      8  C   UNL     1       8.543  25.888  15.554  1.00  0.00     0.039 C 
ATOM      9  C   UNL     1       7.338  26.765  15.779  1.00  0.00    -0.080 C 
ATOM     10  C   UNL     1       6.593  26.685  17.091  1.00  0.00     0.039 C 
ENDBRANCH   6   7
ENDBRANCH   5   6
ENDBRANCH   3   5
ENDBRANCH   1   2
BRANCH   1  11
ATOM     11  C   UNL     1       9.451  30.855  16.245  1.00  0.00     0.034 C 
BRANCH  11  12
ATOM     12  C   UNL     1      10.177  30.153  15.117  1.00  0.00    -0.077 C 
ATOM     13  C   UNL     1      10.707  28.928  15.337  1.00  0.00    -0.028 C 
ATOM     14  C   UNL     1      10.271  30.832  13.770  1.00  0.00     0.039 C 
BRANCH  13  15
ATOM     15  C   UNL     1      11.490  28.135  14.318  1.00  0.00     0.035 C 
BRANCH  15  16
ATOM     16  C   UNL     1      12.109  26.873  14.933  1.00  0.00     0.079 C 
BRANCH  16  17
ATOM     17  C   UNL     1      13.465  27.148  15.527  1.00  0.00     0.130 C 
ATOM     18  O   UNL     1      14.008  28.225  15.330  1.00  0.00    -0.300 OA
ATOM     19  C   UNL     1      14.148  26.112  16.368  1.00  0.00     0.087 C 
ENDBRANCH  16  17
ENDBRANCH  15  16
ENDBRANCH  13  15
ENDBRANCH  11  12
ENDBRANCH   1  11
TORSDOF 9
ENDMDL
MODEL 5
REMARK VINA RESULT:    -4.170      3.261      6.374
REMARK INTER + INTRA:          -8.967
REMARK INTER:                  -6.007
REMARK INTRA:                  -2.960
REMARK UNBOUND:                -2.603
REMARK SMILES CC(=O)CCC=C(C)CCC=C(C)CCC=C(C)C
REMARK SMILES IDX 10 1 11 2 12 3 13 4 14 5 15 6 16 7 18 8 17 9 19 10 9 11 7 12
REMARK SMILES IDX 6 13 8 14 5 15 4 16 2 17 3 18 1 19
REMARK H PARENT
REMARK Flexibility Score: inf
ROOT
ATOM      1  C   UNL     1       6.625  30.846  17.754  1.00  0.00     0.032 C 
ENDROOT
BRANCH   1   2
ATOM      2  C   UNL     1       7.994  30.371  17.330  1.00  0.00    -0.028 C 
ATOM      3  C   UNL     1       8.345  30.045  16.066  1.00  0.00    -0.077 C 
ATOM      4  C   UNL     1       9.766  29.615  15.807  1.00  0.00     0.039 C 
BRANCH   3   5
ATOM      5  C   UNL     1       7.360  30.023  14.914  1.00  0.00     0.034 C 
BRANCH   5   6
ATOM      6  C   UNL     1       7.339  28.643  14.249  1.00  0.00     0.032 C 
BRANCH   6   7
ATOM      7  C   UNL     1       6.282  27.765  14.871  1.00  0.00    -0.028 C 
ATOM      8  C   UNL     1       5.380  25.895  16.185  1.00  0.00     0.039 C 
ATOM      9  C   UNL     1       6.541  26.705  15.669  1.00  0.00    -0.080 C 
ATOM     10  C   UNL     1       7.949  26.327  16.065  1.00  0.00     0.039 C 
ENDBRANCH   6   7
ENDBRANCH   5   6
ENDBRANCH   3   5
ENDBRANCH   1   2
BRANCH   1  11
ATOM     11  C   UNL     1       5.664  29.673  17.991  1.00  0.00     0.034 C 
BRANCH  11  12
ATOM     12  C   UNL     1       4.387  29.816  17.187  1.00  0.00    -0.077 C 
ATOM     13  C   UNL     1       3.523  28.777  17.136  1.00  0.00    -0.028 C 
ATOM     14  C   UNL     1       4.108  31.124  16.483  1.00  0.00     0.039 C 
BRANCH  13  15
ATOM     15  C   UNL     1       2.239  28.769  16.341  1.00  0.00     0.035 C 
BRANCH  15  16
ATOM     16  C   UNL     1       2.435  28.151  14.950  1.00  0.00     0.079 C 
BRANCH  16  17
ATOM     17  C   UNL     1       2.375  29.191  13.863  1.00  0.00     0.130 C 
ATOM     18  O   UNL     1       1.329  29.784  13.646  1.00  0.00    -0.300 OA
ATOM     19  C   UNL     1       3.595  29.511  13.053  1.00  0.00     0.087 C 
ENDBRANCH  16  17
ENDBRANCH  15  16
ENDBRANCH  13  15
ENDBRANCH  11  12
ENDBRANCH   1  11
TORSDOF 9
ENDMDL
MODEL 6
REMARK VINA RESULT:    -4.101      3.504      5.880
REMARK INTER + INTRA:          -8.862
REMARK INTER:                  -6.228
REMARK INTRA:                  -2.634
REMARK UNBOUND:                -2.603
REMARK SMILES CC(=O)CCC=C(C)CCC=C(C)CCC=C(C)C
REMARK SMILES IDX 10 1 11 2 12 3 13 4 14 5 15 6 16 7 18 8 17 9 19 10 9 11 7 12
REMARK SMILES IDX 6 13 8 14 5 15 4 16 2 17 3 18 1 19
REMARK H PARENT
REMARK Flexibility Score: inf
ROOT
ATOM      1  C   UNL     1       7.046  27.061  17.276  1.00  0.00     0.032 C 
ENDROOT
BRANCH   1   2
ATOM      2  C   UNL     1       7.449  28.516  17.280  1.00  0.00    -0.028 C 
ATOM      3  C   UNL     1       6.614  29.551  17.527  1.00  0.00    -0.077 C 
ATOM      4  C   UNL     1       7.185  30.945  17.522  1.00  0.00     0.039 C 
BRANCH   3   5
ATOM      5  C   UNL     1       5.123  29.379  17.738  1.00  0.00     0.034 C 
BRANCH   5   6
ATOM      6  C   UNL     1       4.337  30.109  16.644  1.00  0.00     0.032 C 
BRANCH   6   7
ATOM      7  C   UNL     1       3.879  29.143  15.581  1.00  0.00    -0.028 C 
ATOM      8  C   UNL     1       3.857  28.036  13.386  1.00  0.00     0.039 C 
ATOM      9  C   UNL     1       4.452  29.018  14.362  1.00  0.00    -0.080 C 
ATOM     10  C   UNL     1       5.670  29.818  13.966  1.00  0.00     0.039 C 
ENDBRANCH   6   7
ENDBRANCH   5   6
ENDBRANCH   3   5
ENDBRANCH   1   2
BRANCH   1  11
ATOM     11  C   UNL     1       6.801  26.542  15.852  1.00  0.00     0.034 C 
BRANCH  11  12
ATOM     12  C   UNL     1       5.537  25.712  15.762  1.00  0.00    -0.077 C 
ATOM     13  C   UNL     1       4.599  25.836  16.729  1.00  0.00    -0.028 C 
ATOM     14  C   UNL     1       5.351  24.784  14.584  1.00  0.00     0.039 C 
BRANCH  13  15
ATOM     15  C   UNL     1       3.316  25.042  16.787  1.00  0.00     0.035 C 
BRANCH  15  16
ATOM     16  C   UNL     1       3.484  23.749  17.595  1.00  0.00     0.079 C 
BRANCH  16  17
ATOM     17  C   UNL     1       2.411  23.601  18.642  1.00  0.00     0.130 C 
ATOM     18  O   UNL     1       2.721  23.499  19.819  1.00  0.00    -0.300 OA
ATOM     19  C   UNL     1       0.965  23.591  18.248  1.00  0.00     0.087 C 
ENDBRANCH  16  17
ENDBRANCH  15  16
ENDBRANCH  13  15
ENDBRANCH  11  12
ENDBRANCH   1  11
TORSDOF 9
ENDMDL
MODEL 7
REMARK VINA RESULT:    -4.098     11.942     16.026
REMARK INTER + INTRA:          -8.857
REMARK INTER:                  -6.331
REMARK INTRA:                  -2.526
REMARK UNBOUND:                -2.603
REMARK SMILES CC(=O)CCC=C(C)CCC=C(C)CCC=C(C)C
REMARK SMILES IDX 10 1 11 2 12 3 13 4 14 5 15 6 16 7 18 8 17 9 19 10 9 11 7 12
REMARK SMILES IDX 6 13 8 14 5 15 4 16 2 17 3 18 1 19
REMARK H PARENT
REMARK Flexibility Score: inf
ROOT
ATOM      1  C   UNL     1      14.178  13.300  16.243  1.00  0.00     0.032 C 
ENDROOT
BRANCH   1   2
ATOM      2  C   UNL     1      15.224  12.239  15.995  1.00  0.00    -0.028 C 
ATOM      3  C   UNL     1      15.765  11.950  14.791  1.00  0.00    -0.077 C 
ATOM      4  C   UNL     1      16.823  10.879  14.721  1.00  0.00     0.039 C 
BRANCH   3   5
ATOM      5  C   UNL     1      15.308  12.602  13.501  1.00  0.00     0.034 C 
BRANCH   5   6
ATOM      6  C   UNL     1      16.257  13.738  13.104  1.00  0.00     0.032 C 
BRANCH   6   7
ATOM      7  C   UNL     1      15.616  15.080  13.354  1.00  0.00    -0.028 C 
ATOM      8  C   UNL     1      15.168  17.188  14.535  1.00  0.00     0.039 C 
ATOM      9  C   UNL     1      15.923  15.892  14.391  1.00  0.00    -0.080 C 
ATOM     10  C   UNL     1      17.002  15.543  15.388  1.00  0.00     0.039 C 
ENDBRANCH   6   7
ENDBRANCH   5   6
ENDBRANCH   3   5
ENDBRANCH   1   2
BRANCH   1  11
ATOM     11  C   UNL     1      12.756  12.736  16.117  1.00  0.00     0.034 C 
BRANCH  11  12
ATOM     12  C   UNL     1      11.972  13.422  15.016  1.00  0.00    -0.077 C 
ATOM     13  C   UNL     1      12.355  14.652  14.605  1.00  0.00    -0.028 C 
ATOM     14  C   UNL     1      10.798  12.701  14.395  1.00  0.00     0.039 C 
BRANCH  13  15
ATOM     15  C   UNL     1      11.642  15.464  13.550  1.00  0.00     0.035 C 
BRANCH  15  16
ATOM     16  C   UNL     1      11.331  16.885  14.040  1.00  0.00     0.079 C 
BRANCH  16  17
ATOM     17  C   UNL     1       9.857  17.084  14.276  1.00  0.00     0.130 C 
ATOM     18  O   UNL     1       9.443  18.172  14.648  1.00  0.00    -0.300 OA
ATOM     19  C   UNL     1       8.893  15.960  14.044  1.00  0.00     0.087 C 
ENDBRANCH  16  17
ENDBRANCH  15  16
ENDBRANCH  13  15
ENDBRANCH  11  12
ENDBRANCH   1  11
TORSDOF 9
ENDMDL
MODEL 8
REMARK VINA RESULT:    -4.032      1.524      3.676
REMARK INTER + INTRA:          -8.756
REMARK INTER:                  -5.938
REMARK INTRA:                  -2.819
REMARK UNBOUND:                -2.603
REMARK SMILES CC(=O)CCC=C(C)CCC=C(C)CCC=C(C)C
REMARK SMILES IDX 10 1 11 2 12 3 13 4 14 5 15 6 16 7 18 8 17 9 19 10 9 11 7 12
REMARK SMILES IDX 6 13 8 14 5 15 4 16 2 17 3 18 1 19
REMARK H PARENT
REMARK Flexibility Score: inf
ROOT
ATOM      1  C   UNL     1       8.896  30.349  16.499  1.00  0.00     0.032 C 
ENDROOT
BRANCH   1   2
ATOM      2  C   UNL     1       7.437  30.358  16.887  1.00  0.00    -0.028 C 
ATOM      3  C   UNL     1       6.750  29.288  17.346  1.00  0.00    -0.077 C 
ATOM      4  C   UNL     1       5.302  29.475  17.718  1.00  0.00     0.039 C 
BRANCH   3   5
ATOM      5  C   UNL     1       7.347  27.898  17.435  1.00  0.00     0.034 C 
BRANCH   5   6
ATOM      6  C   UNL     1       6.622  26.938  16.487  1.00  0.00     0.032 C 
BRANCH   6   7
ATOM      7  C   UNL     1       7.475  26.632  15.281  1.00  0.00    -0.028 C 
ATOM      8  C   UNL     1       8.211  26.758  12.940  1.00  0.00     0.039 C 
ATOM      9  C   UNL     1       7.306  27.194  14.063  1.00  0.00    -0.080 C 
ATOM     10  C   UNL     1       6.255  28.248  13.807  1.00  0.00     0.039 C 
ENDBRANCH   6   7
ENDBRANCH   5   6
ENDBRANCH   3   5
ENDBRANCH   1   2
BRANCH   1  11
ATOM     11  C   UNL     1       9.079  30.414  14.975  1.00  0.00     0.034 C 
BRANCH  11  12
ATOM     12  C   UNL     1      10.210  29.522  14.504  1.00  0.00    -0.077 C 
ATOM     13  C   UNL     1      10.697  28.579  15.342  1.00  0.00    -0.028 C 
ATOM     14  C   UNL     1      10.749  29.700  13.103  1.00  0.00     0.039 C 
BRANCH  13  15
ATOM     15  C   UNL     1      11.846  27.654  15.019  1.00  0.00     0.035 C 
BRANCH  15  16
ATOM     16  C   UNL     1      11.390  26.192  14.925  1.00  0.00     0.079 C 
BRANCH  16  17
ATOM     17  C   UNL     1      12.285  25.275  15.715  1.00  0.00     0.130 C 
ATOM     18  O   UNL     1      13.469  25.548  15.850  1.00  0.00    -0.300 OA
ATOM     19  C   UNL     1      11.730  24.034  16.348  1.00  0.00     0.087 C 
ENDBRANCH  16  17
ENDBRANCH  15  16
ENDBRANCH  13  15
ENDBRANCH  11  12
ENDBRANCH   1  11
TORSDOF 9
ENDMDL
MODEL 9
REMARK VINA RESULT:    -3.982      1.391      3.749
REMARK INTER + INTRA:          -8.681
REMARK INTER:                  -6.555
REMARK INTRA:                  -2.126
REMARK UNBOUND:                -2.603
REMARK SMILES CC(=O)CCC=C(C)CCC=C(C)CCC=C(C)C
REMARK SMILES IDX 10 1 11 2 12 3 13 4 14 5 15 6 16 7 18 8 17 9 19 10 9 11 7 12
REMARK SMILES IDX 6 13 8 14 5 15 4 16 2 17 3 18 1 19
REMARK H PARENT
REMARK Flexibility Score: inf
ROOT
ATOM      1  C   UNL     1       8.866  29.530  15.485  1.00  0.00     0.032 C 
ENDROOT
BRANCH   1   2
ATOM      2  C   UNL     1       8.269  30.265  16.661  1.00  0.00    -0.028 C 
ATOM      3  C   UNL     1       6.945  30.381  16.913  1.00  0.00    -0.077 C 
ATOM      4  C   UNL     1       6.516  31.125  18.151  1.00  0.00     0.039 C 
BRANCH   3   5
ATOM      5  C   UNL     1       5.876  29.862  15.972  1.00  0.00     0.034 C 
BRANCH   5   6
ATOM      6  C   UNL     1       5.247  28.580  16.526  1.00  0.00     0.032 C 
BRANCH   6   7
ATOM      7  C   UNL     1       5.663  27.384  15.708  1.00  0.00    -0.028 C 
ATOM      8  C   UNL     1       6.969  25.385  15.125  1.00  0.00     0.039 C 
ATOM      9  C   UNL     1       6.633  26.512  16.066  1.00  0.00    -0.080 C 
ATOM     10  C   UNL     1       7.370  26.630  17.380  1.00  0.00     0.039 C 
ENDBRANCH   6   7
ENDBRANCH   5   6
ENDBRANCH   3   5
ENDBRANCH   1   2
BRANCH   1  11
ATOM     11  C   UNL     1      10.391  29.694  15.427  1.00  0.00     0.034 C 
BRANCH  11  12
ATOM     12  C   UNL     1      11.074  28.445  14.908  1.00  0.00    -0.077 C 
ATOM     13  C   UNL     1      10.377  27.287  14.860  1.00  0.00    -0.028 C 
ATOM     14  C   UNL     1      12.508  28.534  14.440  1.00  0.00     0.039 C 
BRANCH  13  15
ATOM     15  C   UNL     1      10.944  25.962  14.407  1.00  0.00     0.035 C 
BRANCH  15  16
ATOM     16  C   UNL     1      10.682  24.851  15.432  1.00  0.00     0.079 C 
BRANCH  16  17
ATOM     17  C   UNL     1      11.956  24.379  16.082  1.00  0.00     0.130 C 
ATOM     18  O   UNL     1      11.967  23.329  16.706  1.00  0.00    -0.300 OA
ATOM     19  C   UNL     1      13.214  25.185  15.958  1.00  0.00     0.087 C 
ENDBRANCH  16  17
ENDBRANCH  15  16
ENDBRANCH  13  15
ENDBRANCH  11  12
ENDBRANCH   1  11
TORSDOF 9
ENDMDL
