MODEL 1
REMARK VINA RESULT:     2.007      0.000      0.000
REMARK INTER + INTRA:           3.094
REMARK INTER:                   2.945
REMARK INTRA:                   0.149
REMARK UNBOUND:                 0.149
REMARK SMILES CC(C)(O)CC[C@@H](O)[C@@](C)(O)[C@H]1CC[C@@]2(O)C3=CC(=O)[C@H]4C[C@@H](O)[C@@H](O)C[C@]4(C)[C@@H]3CC[C@@]12C
REMARK SMILES IDX 6 1 7 2 9 3 10 4 12 5 34 6 33 7 32 8 15 9 31 10 17 11 14 12
REMARK SMILES IDX 13 13 30 14 18 15 28 16 19 17 21 18 27 19 29 20 20 21 22 22
REMARK SMILES IDX 25 23 23 24 16 25 26 27 24 29 11 31 8 33 5 35 2 36 1 37 3 38
REMARK SMILES IDX 4 39
REMARK H PARENT 16 26 26 28 24 30 11 32 8 34 4 40
REMARK Flexibility Score: inf
ROOT
ATOM      1  C   UNL     1      41.844  18.489  13.008  1.00  0.00     0.038 C 
ENDROOT
BRANCH   1   2
ATOM      2  C   UNL     1      41.057  18.401  11.669  1.00  0.00     0.146 C 
BRANCH   2   3
ATOM      3  C   UNL     1      40.083  19.587  11.285  1.00  0.00     0.091 C 
ATOM      4  C   UNL     1      38.643  19.097  11.616  1.00  0.00     0.045 C 
BRANCH   3   5
ATOM      5  C   UNL     1      40.269  20.029   9.763  1.00  0.00     0.032 C 
ATOM      6  C   UNL     1      41.548  18.142   8.526  1.00  0.00     0.015 C 
ATOM      7  C   UNL     1      41.547  19.643   8.931  1.00  0.00     0.006 C 
ATOM      8  C   UNL     1      42.867  19.953   9.708  1.00  0.00     0.011 C 
ATOM      9  C   UNL     1      41.394  20.559   7.665  1.00  0.00     0.092 C 
ATOM     10  C   UNL     1      44.128  20.055   8.834  1.00  0.00     0.009 C 
ATOM     11  C   UNL     1      42.736  20.759   6.938  1.00  0.00    -0.031 C 
ATOM     12  C   UNL     1      40.823  21.885   8.214  1.00  0.00     0.041 C 
ATOM     13  C   UNL     1      40.024  21.528   9.471  1.00  0.00     0.010 C 
ATOM     14  C   UNL     1      43.953  21.158   7.777  1.00  0.00     0.025 C 
ATOM     15  C   UNL     1      42.883  20.374   5.647  1.00  0.00     0.050 C 
ATOM     16  C   UNL     1      45.225  21.521   6.905  1.00  0.00    -0.013 C 
ATOM     17  C   UNL     1      44.199  20.265   5.001  1.00  0.00     0.159 C 
ATOM     18  C   UNL     1      45.443  20.415   5.832  1.00  0.00     0.070 C 
ATOM     19  C   UNL     1      46.521  21.635   7.773  1.00  0.00     0.042 C 
ATOM     20  C   UNL     1      44.930  22.908   6.247  1.00  0.00     0.013 C 
ATOM     21  O   UNL     1      44.265  19.959   3.780  1.00  0.00    -0.295 OA
ATOM     22  C   UNL     1      46.714  20.642   4.980  1.00  0.00     0.047 C 
ATOM     23  C   UNL     1      47.821  21.843   6.960  1.00  0.00     0.143 C 
ATOM     24  C   UNL     1      47.966  20.756   5.874  1.00  0.00     0.143 C 
BRANCH   9  25
ATOM     25  O   UNL     1      40.457  19.984   6.765  1.00  0.00    -0.385 OA
ATOM     26  H   UNL     1      40.426  20.500   5.918  1.00  0.00     0.211 HD
ENDBRANCH   9  25
BRANCH  23  27
ATOM     27  O   UNL     1      47.876  23.125   6.392  1.00  0.00    -0.390 OA
ATOM     28  H   UNL     1      47.330  23.720   6.972  1.00  0.00     0.211 HD
ENDBRANCH  23  27
BRANCH  24  29
ATOM     29  O   UNL     1      49.124  20.968   5.104  1.00  0.00    -0.390 OA
ATOM     30  H   UNL     1      49.069  21.880   4.714  1.00  0.00     0.211 HD
ENDBRANCH  24  29
ENDBRANCH   3   5
BRANCH   3  31
ATOM     31  O   UNL     1      40.325  20.676  12.144  1.00  0.00    -0.387 OA
ATOM     32  H   UNL     1      39.945  20.472  13.034  1.00  0.00     0.211 HD
ENDBRANCH   3  31
ENDBRANCH   2   3
BRANCH   2  33
ATOM     33  O   UNL     1      40.350  17.183  11.643  1.00  0.00    -0.390 OA
ATOM     34  H   UNL     1      39.424  17.387  11.349  1.00  0.00     0.211 HD
ENDBRANCH   2  33
ENDBRANCH   1   2
BRANCH   1  35
ATOM     35  C   UNL     1      43.378  18.609  12.859  1.00  0.00     0.037 C 
BRANCH  35  36
ATOM     36  C   UNL     1      44.097  17.257  12.611  1.00  0.00     0.059 C 
ATOM     37  C   UNL     1      45.448  17.535  11.920  1.00  0.00     0.042 C 
ATOM     38  C   UNL     1      43.244  16.334  11.714  1.00  0.00     0.042 C 
BRANCH  36  39
ATOM     39  O   UNL     1      44.331  16.638  13.856  1.00  0.00    -0.390 OA
ATOM     40  H   UNL     1      44.624  15.705  13.685  1.00  0.00     0.211 HD
ENDBRANCH  36  39
ENDBRANCH  35  36
ENDBRANCH   1  35
TORSDOF 11
ENDMDL
MODEL 2
REMARK VINA RESULT:     2.767      2.320      8.552
REMARK INTER + INTRA:           4.211
REMARK INTER:                   4.745
REMARK INTRA:                  -0.534
REMARK UNBOUND:                 0.149
REMARK SMILES CC(C)(O)CC[C@@H](O)[C@@](C)(O)[C@H]1CC[C@@]2(O)C3=CC(=O)[C@H]4C[C@@H](O)[C@@H](O)C[C@]4(C)[C@@H]3CC[C@@]12C
REMARK SMILES IDX 6 1 7 2 9 3 10 4 12 5 34 6 33 7 32 8 15 9 31 10 17 11 14 12
REMARK SMILES IDX 13 13 30 14 18 15 28 16 19 17 21 18 27 19 29 20 20 21 22 22
REMARK SMILES IDX 25 23 23 24 16 25 26 27 24 29 11 31 8 33 5 35 2 36 1 37 3 38
REMARK SMILES IDX 4 39
REMARK H PARENT 16 26 26 28 24 30 11 32 8 34 4 40
REMARK Flexibility Score: inf
ROOT
ATOM      1  C   UNL     1      46.480  23.125   5.756  1.00  0.00     0.038 C 
ENDROOT
BRANCH   1   2
ATOM      2  C   UNL     1      44.970  22.885   6.040  1.00  0.00     0.146 C 
BRANCH   2   3
ATOM      3  C   UNL     1      44.543  21.558   6.789  1.00  0.00     0.091 C 
ATOM      4  C   UNL     1      43.560  20.815   5.839  1.00  0.00     0.045 C 
BRANCH   3   5
ATOM      5  C   UNL     1      43.925  21.870   8.227  1.00  0.00     0.032 C 
ATOM      6  C   UNL     1      44.218  19.759   9.704  1.00  0.00     0.015 C 
ATOM      7  C   UNL     1      43.207  20.764   9.085  1.00  0.00     0.006 C 
ATOM      8  C   UNL     1      42.155  19.965   8.249  1.00  0.00     0.011 C 
ATOM      9  C   UNL     1      42.522  21.623  10.206  1.00  0.00     0.092 C 
ATOM     10  C   UNL     1      41.100  19.215   9.078  1.00  0.00     0.009 C 
ATOM     11  C   UNL     1      41.358  20.868  10.874  1.00  0.00    -0.031 C 
ATOM     12  C   UNL     1      42.049  22.902   9.479  1.00  0.00     0.041 C 
ATOM     13  C   UNL     1      43.006  23.112   8.300  1.00  0.00     0.010 C 
ATOM     14  C   UNL     1      40.322  20.200   9.965  1.00  0.00     0.025 C 
ATOM     15  C   UNL     1      41.377  20.613  12.204  1.00  0.00     0.050 C 
ATOM     16  C   UNL     1      39.076  19.623  10.754  1.00  0.00    -0.013 C 
ATOM     17  C   UNL     1      40.458  19.656  12.838  1.00  0.00     0.159 C 
ATOM     18  C   UNL     1      39.579  18.796  11.972  1.00  0.00     0.070 C 
ATOM     19  C   UNL     1      38.189  18.697   9.856  1.00  0.00     0.042 C 
ATOM     20  C   UNL     1      38.227  20.855  11.207  1.00  0.00     0.013 C 
ATOM     21  O   UNL     1      40.487  19.506  14.089  1.00  0.00    -0.295 OA
ATOM     22  C   UNL     1      38.431  18.122  12.761  1.00  0.00     0.047 C 
ATOM     23  C   UNL     1      37.039  17.986  10.609  1.00  0.00     0.143 C 
ATOM     24  C   UNL     1      37.579  17.226  11.840  1.00  0.00     0.143 C 
BRANCH   9  25
ATOM     25  O   UNL     1      43.478  21.975  11.195  1.00  0.00    -0.385 OA
ATOM     26  H   UNL     1      44.396  21.757  10.887  1.00  0.00     0.211 HD
ENDBRANCH   9  25
BRANCH  23  27
ATOM     27  O   UNL     1      36.031  18.887  10.983  1.00  0.00    -0.390 OA
ATOM     28  H   UNL     1      36.139  19.053  11.958  1.00  0.00     0.211 HD
ENDBRANCH  23  27
BRANCH  24  29
ATOM     29  O   UNL     1      36.530  16.615  12.551  1.00  0.00    -0.390 OA
ATOM     30  H   UNL     1      36.274  15.787  12.067  1.00  0.00     0.211 HD
ENDBRANCH  24  29
ENDBRANCH   3   5
BRANCH   3  31
ATOM     31  O   UNL     1      45.667  20.718   6.911  1.00  0.00    -0.387 OA
ATOM     32  H   UNL     1      45.752  20.176   6.088  1.00  0.00     0.211 HD
ENDBRANCH   3  31
ENDBRANCH   2   3
BRANCH   2  33
ATOM     33  O   UNL     1      44.263  22.989   4.826  1.00  0.00    -0.390 OA
ATOM     34  H   UNL     1      43.418  22.479   4.934  1.00  0.00     0.211 HD
ENDBRANCH   2  33
ENDBRANCH   1   2
BRANCH   1  35
ATOM     35  C   UNL     1      46.876  23.106   4.261  1.00  0.00     0.037 C 
BRANCH  35  36
ATOM     36  C   UNL     1      47.506  21.769   3.791  1.00  0.00     0.059 C 
ATOM     37  C   UNL     1      48.707  22.083   2.875  1.00  0.00     0.042 C 
ATOM     38  C   UNL     1      46.479  20.918   3.013  1.00  0.00     0.042 C 
BRANCH  36  39
ATOM     39  O   UNL     1      47.958  21.063   4.924  1.00  0.00    -0.390 OA
ATOM     40  H   UNL     1      47.169  20.841   5.483  1.00  0.00     0.211 HD
ENDBRANCH  36  39
ENDBRANCH  35  36
ENDBRANCH   1  35
TORSDOF 11
ENDMDL
MODEL 3
REMARK VINA RESULT:     3.379      1.777      8.040
REMARK INTER + INTRA:           5.109
REMARK INTER:                   3.405
REMARK INTRA:                   1.703
REMARK UNBOUND:                 0.149
REMARK SMILES CC(C)(O)CC[C@@H](O)[C@@](C)(O)[C@H]1CC[C@@]2(O)C3=CC(=O)[C@H]4C[C@@H](O)[C@@H](O)C[C@]4(C)[C@@H]3CC[C@@]12C
REMARK SMILES IDX 6 1 7 2 9 3 10 4 12 5 34 6 33 7 32 8 15 9 31 10 17 11 14 12
REMARK SMILES IDX 13 13 30 14 18 15 28 16 19 17 21 18 27 19 29 20 20 21 22 22
REMARK SMILES IDX 25 23 23 24 16 25 26 27 24 29 11 31 8 33 5 35 2 36 1 37 3 38
REMARK SMILES IDX 4 39
REMARK H PARENT 16 26 26 28 24 30 11 32 8 34 4 40
REMARK Flexibility Score: inf
ROOT
ATOM      1  C   UNL     1      46.113  22.007   3.246  1.00  0.00     0.038 C 
ENDROOT
BRANCH   1   2
ATOM      2  C   UNL     1      45.019  21.203   4.007  1.00  0.00     0.146 C 
BRANCH   2   3
ATOM      3  C   UNL     1      44.451  21.795   5.360  1.00  0.00     0.091 C 
ATOM      4  C   UNL     1      45.663  21.916   6.330  1.00  0.00     0.045 C 
BRANCH   3   5
ATOM      5  C   UNL     1      43.262  20.901   5.938  1.00  0.00     0.032 C 
ATOM      6  C   UNL     1      41.687  22.441   7.305  1.00  0.00     0.015 C 
ATOM      7  C   UNL     1      42.606  21.187   7.337  1.00  0.00     0.006 C 
ATOM      8  C   UNL     1      43.677  21.381   8.458  1.00  0.00     0.011 C 
ATOM      9  C   UNL     1      41.759  19.885   7.567  1.00  0.00     0.092 C 
ATOM     10  C   UNL     1      43.158  21.197   9.894  1.00  0.00     0.009 C 
ATOM     11  C   UNL     1      41.424  19.675   9.055  1.00  0.00    -0.031 C 
ATOM     12  C   UNL     1      42.637  18.748   6.999  1.00  0.00     0.041 C 
ATOM     13  C   UNL     1      43.500  19.373   5.897  1.00  0.00     0.010 C 
ATOM     14  C   UNL     1      42.566  19.789  10.069  1.00  0.00     0.025 C 
ATOM     15  C   UNL     1      40.135  19.619   9.469  1.00  0.00     0.050 C 
ATOM     16  C   UNL     1      42.146  19.367  11.537  1.00  0.00    -0.013 C 
ATOM     17  C   UNL     1      39.756  19.717  10.886  1.00  0.00     0.159 C 
ATOM     18  C   UNL     1      40.805  20.065  11.906  1.00  0.00     0.070 C 
ATOM     19  C   UNL     1      43.224  19.769  12.596  1.00  0.00     0.042 C 
ATOM     20  C   UNL     1      41.999  17.811  11.526  1.00  0.00     0.013 C 
ATOM     21  O   UNL     1      38.545  19.598  11.212  1.00  0.00    -0.295 OA
ATOM     22  C   UNL     1      40.353  19.775  13.357  1.00  0.00     0.047 C 
ATOM     23  C   UNL     1      42.806  19.515  14.064  1.00  0.00     0.143 C 
ATOM     24  C   UNL     1      41.446  20.178  14.368  1.00  0.00     0.143 C 
BRANCH   9  25
ATOM     25  O   UNL     1      40.551  19.959   6.823  1.00  0.00    -0.385 OA
ATOM     26  H   UNL     1      40.225  19.049   6.597  1.00  0.00     0.211 HD
ENDBRANCH   9  25
BRANCH  23  27
ATOM     27  O   UNL     1      42.769  18.144  14.362  1.00  0.00    -0.390 OA
ATOM     28  H   UNL     1      41.825  17.923  14.584  1.00  0.00     0.211 HD
ENDBRANCH  23  27
BRANCH  24  29
ATOM     29  O   UNL     1      41.042  19.912  15.689  1.00  0.00    -0.390 OA
ATOM     30  H   UNL     1      41.750  20.249  16.299  1.00  0.00     0.211 HD
ENDBRANCH  24  29
ENDBRANCH   3   5
BRANCH   3  31
ATOM     31  O   UNL     1      44.007  23.112   5.135  1.00  0.00    -0.387 OA
ATOM     32  H   UNL     1      43.102  23.081   4.736  1.00  0.00     0.211 HD
ENDBRANCH   3  31
ENDBRANCH   2   3
BRANCH   2  33
ATOM     33  O   UNL     1      45.495  19.896   4.228  1.00  0.00    -0.390 OA
ATOM     34  H   UNL     1      45.689  19.500   3.338  1.00  0.00     0.211 HD
ENDBRANCH   2  33
ENDBRANCH   1   2
BRANCH   1  35
ATOM     35  C   UNL     1      46.971  22.942   4.129  1.00  0.00     0.037 C 
BRANCH  35  36
ATOM     36  C   UNL     1      48.473  22.557   4.184  1.00  0.00     0.059 C 
ATOM     37  C   UNL     1      48.593  21.021   4.114  1.00  0.00     0.042 C 
ATOM     38  C   UNL     1      49.124  23.061   5.490  1.00  0.00     0.042 C 
BRANCH  36  39
ATOM     39  O   UNL     1      49.123  23.125   3.070  1.00  0.00    -0.390 OA
ATOM     40  H   UNL     1      48.433  23.540   2.490  1.00  0.00     0.211 HD
ENDBRANCH  36  39
ENDBRANCH  35  36
ENDBRANCH   1  35
TORSDOF 11
ENDMDL
MODEL 4
REMARK VINA RESULT:     3.627      1.833      2.089
REMARK INTER + INTRA:           5.473
REMARK INTER:                   5.056
REMARK INTRA:                   0.417
REMARK UNBOUND:                 0.149
REMARK SMILES CC(C)(O)CC[C@@H](O)[C@@](C)(O)[C@H]1CC[C@@]2(O)C3=CC(=O)[C@H]4C[C@@H](O)[C@@H](O)C[C@]4(C)[C@@H]3CC[C@@]12C
REMARK SMILES IDX 6 1 7 2 9 3 10 4 12 5 34 6 33 7 32 8 15 9 31 10 17 11 14 12
REMARK SMILES IDX 13 13 30 14 18 15 28 16 19 17 21 18 27 19 29 20 20 21 22 22
REMARK SMILES IDX 25 23 23 24 16 25 26 27 24 29 11 31 8 33 5 35 2 36 1 37 3 38
REMARK SMILES IDX 4 39
REMARK H PARENT 16 26 26 28 24 30 11 32 8 34 4 40
REMARK Flexibility Score: inf
ROOT
ATOM      1  C   UNL     1      42.769  18.915  13.743  1.00  0.00     0.038 C 
ENDROOT
BRANCH   1   2
ATOM      2  C   UNL     1      41.898  20.147  13.366  1.00  0.00     0.146 C 
BRANCH   2   3
ATOM      3  C   UNL     1      42.575  21.337  12.572  1.00  0.00     0.091 C 
ATOM      4  C   UNL     1      42.269  22.633  13.378  1.00  0.00     0.045 C 
BRANCH   3   5
ATOM      5  C   UNL     1      42.070  21.395  11.059  1.00  0.00     0.032 C 
ATOM      6  C   UNL     1      42.779  19.193   9.888  1.00  0.00     0.015 C 
ATOM      7  C   UNL     1      42.883  20.744   9.882  1.00  0.00     0.006 C 
ATOM      8  C   UNL     1      44.393  21.145   9.921  1.00  0.00     0.011 C 
ATOM      9  C   UNL     1      42.160  21.343   8.623  1.00  0.00     0.092 C 
ATOM     10  C   UNL     1      45.151  20.959   8.596  1.00  0.00     0.009 C 
ATOM     11  C   UNL     1      43.050  21.281   7.368  1.00  0.00    -0.031 C 
ATOM     12  C   UNL     1      41.819  22.795   9.028  1.00  0.00     0.041 C 
ATOM     13  C   UNL     1      41.654  22.795  10.551  1.00  0.00     0.010 C 
ATOM     14  C   UNL     1      44.489  21.790   7.484  1.00  0.00     0.025 C 
ATOM     15  C   UNL     1      42.646  20.594   6.272  1.00  0.00     0.050 C 
ATOM     16  C   UNL     1      45.245  21.857   6.094  1.00  0.00    -0.013 C 
ATOM     17  C   UNL     1      43.561  20.254   5.173  1.00  0.00     0.159 C 
ATOM     18  C   UNL     1      45.032  20.517   5.331  1.00  0.00     0.070 C 
ATOM     19  C   UNL     1      46.782  22.091   6.271  1.00  0.00     0.042 C 
ATOM     20  C   UNL     1      44.633  23.065   5.314  1.00  0.00     0.013 C 
ATOM     21  O   UNL     1      43.110  19.665   4.154  1.00  0.00    -0.295 OA
ATOM     22  C   UNL     1      45.803  20.457   3.991  1.00  0.00     0.047 C 
ATOM     23  C   UNL     1      47.596  22.019   4.957  1.00  0.00     0.143 C 
ATOM     24  C   UNL     1      47.311  20.700   4.208  1.00  0.00     0.143 C 
BRANCH   9  25
ATOM     25  O   UNL     1      40.955  20.633   8.377  1.00  0.00    -0.385 OA
ATOM     26  H   UNL     1      40.210  21.262   8.196  1.00  0.00     0.211 HD
ENDBRANCH   9  25
BRANCH  23  27
ATOM     27  O   UNL     1      47.343  23.125   4.131  1.00  0.00    -0.390 OA
ATOM     28  H   UNL     1      47.477  23.937   4.689  1.00  0.00     0.211 HD
ENDBRANCH  23  27
BRANCH  24  29
ATOM     29  O   UNL     1      48.015  20.651   2.992  1.00  0.00    -0.390 OA
ATOM     30  H   UNL     1      48.770  21.295   3.050  1.00  0.00     0.211 HD
ENDBRANCH  24  29
ENDBRANCH   3   5
BRANCH   3  31
ATOM     31  O   UNL     1      43.974  21.180  12.615  1.00  0.00    -0.387 OA
ATOM     32  H   UNL     1      44.271  20.736  11.782  1.00  0.00     0.211 HD
ENDBRANCH   3  31
ENDBRANCH   2   3
BRANCH   2  33
ATOM     33  O   UNL     1      41.295  20.645  14.537  1.00  0.00    -0.390 OA
ATOM     34  H   UNL     1      40.324  20.452  14.472  1.00  0.00     0.211 HD
ENDBRANCH   2  33
ENDBRANCH   1   2
BRANCH   1  35
ATOM     35  C   UNL     1      43.619  18.336  12.588  1.00  0.00     0.037 C 
BRANCH  35  36
ATOM     36  C   UNL     1      43.933  16.824  12.730  1.00  0.00     0.059 C 
ATOM     37  C   UNL     1      45.171  16.493  11.871  1.00  0.00     0.042 C 
ATOM     38  C   UNL     1      42.740  15.965  12.258  1.00  0.00     0.042 C 
BRANCH  36  39
ATOM     39  O   UNL     1      44.219  16.550  14.083  1.00  0.00    -0.390 OA
ATOM     40  H   UNL     1      44.229  15.564  14.201  1.00  0.00     0.211 HD
ENDBRANCH  36  39
ENDBRANCH  35  36
ENDBRANCH   1  35
TORSDOF 11
ENDMDL
MODEL 5
REMARK VINA RESULT:     3.734      1.662      3.052
REMARK INTER + INTRA:           5.629
REMARK INTER:                   6.157
REMARK INTRA:                  -0.528
REMARK UNBOUND:                 0.149
REMARK SMILES CC(C)(O)CC[C@@H](O)[C@@](C)(O)[C@H]1CC[C@@]2(O)C3=CC(=O)[C@H]4C[C@@H](O)[C@@H](O)C[C@]4(C)[C@@H]3CC[C@@]12C
REMARK SMILES IDX 6 1 7 2 9 3 10 4 12 5 34 6 33 7 32 8 15 9 31 10 17 11 14 12
REMARK SMILES IDX 13 13 30 14 18 15 28 16 19 17 21 18 27 19 29 20 20 21 22 22
REMARK SMILES IDX 25 23 23 24 16 25 26 27 24 29 11 31 8 33 5 35 2 36 1 37 3 38
REMARK SMILES IDX 4 39
REMARK H PARENT 16 26 26 28 24 30 11 32 8 34 4 40
REMARK Flexibility Score: inf
ROOT
ATOM      1  C   UNL     1      40.212  18.424  11.746  1.00  0.00     0.038 C 
ENDROOT
BRANCH   1   2
ATOM      2  C   UNL     1      41.362  18.979  12.634  1.00  0.00     0.146 C 
BRANCH   2   3
ATOM      3  C   UNL     1      41.986  20.387  12.269  1.00  0.00     0.091 C 
ATOM      4  C   UNL     1      41.353  21.416  13.251  1.00  0.00     0.045 C 
BRANCH   3   5
ATOM      5  C   UNL     1      41.753  20.751  10.732  1.00  0.00     0.032 C 
ATOM      6  C   UNL     1      42.507  18.724   9.302  1.00  0.00     0.015 C 
ATOM      7  C   UNL     1      42.712  20.236   9.598  1.00  0.00     0.006 C 
ATOM      8  C   UNL     1      44.216  20.478   9.948  1.00  0.00     0.011 C 
ATOM      9  C   UNL     1      42.257  21.107   8.374  1.00  0.00     0.092 C 
ATOM     10  C   UNL     1      45.177  20.449   8.747  1.00  0.00     0.009 C 
ATOM     11  C   UNL     1      43.344  21.175   7.285  1.00  0.00    -0.031 C 
ATOM     12  C   UNL     1      41.949  22.494   8.980  1.00  0.00     0.041 C 
ATOM     13  C   UNL     1      41.524  22.251  10.432  1.00  0.00     0.010 C 
ATOM     14  C   UNL     1      44.772  21.517   7.718  1.00  0.00     0.025 C 
ATOM     15  C   UNL     1      43.090  20.728   6.031  1.00  0.00     0.050 C 
ATOM     16  C   UNL     1      45.759  21.747   6.501  1.00  0.00    -0.013 C 
ATOM     17  C   UNL     1      44.156  20.494   5.046  1.00  0.00     0.159 C 
ATOM     18  C   UNL     1      45.593  20.584   5.480  1.00  0.00     0.070 C 
ATOM     19  C   UNL     1      47.255  21.799   6.957  1.00  0.00     0.042 C 
ATOM     20  C   UNL     1      45.372  23.124   5.870  1.00  0.00     0.013 C 
ATOM     21  O   UNL     1      43.850  20.134   3.878  1.00  0.00    -0.295 OA
ATOM     22  C   UNL     1      46.577  20.680   4.290  1.00  0.00     0.047 C 
ATOM     23  C   UNL     1      48.276  21.875   5.797  1.00  0.00     0.143 C 
ATOM     24  C   UNL     1      48.038  20.736   4.783  1.00  0.00     0.143 C 
BRANCH   9  25
ATOM     25  O   UNL     1      41.069  20.568   7.814  1.00  0.00    -0.385 OA
ATOM     26  H   UNL     1      40.707  21.172   7.115  1.00  0.00     0.211 HD
ENDBRANCH   9  25
BRANCH  23  27
ATOM     27  O   UNL     1      48.243  23.125   5.160  1.00  0.00    -0.390 OA
ATOM     28  H   UNL     1      48.120  23.808   5.872  1.00  0.00     0.211 HD
ENDBRANCH  23  27
BRANCH  24  29
ATOM     29  O   UNL     1      48.936  20.829   3.705  1.00  0.00    -0.390 OA
ATOM     30  H   UNL     1      49.565  21.574   3.895  1.00  0.00     0.211 HD
ENDBRANCH  24  29
ENDBRANCH   3   5
BRANCH   3  31
ATOM     31  O   UNL     1      43.362  20.370  12.565  1.00  0.00    -0.387 OA
ATOM     32  H   UNL     1      43.702  19.448  12.451  1.00  0.00     0.211 HD
ENDBRANCH   3  31
ENDBRANCH   2   3
BRANCH   2  33
ATOM     33  O   UNL     1      42.386  18.014  12.699  1.00  0.00    -0.390 OA
ATOM     34  H   UNL     1      42.645  17.797  11.766  1.00  0.00     0.211 HD
ENDBRANCH   2  33
ENDBRANCH   1   2
BRANCH   1  35
ATOM     35  C   UNL     1      38.785  18.760  12.238  1.00  0.00     0.037 C 
BRANCH  35  36
ATOM     36  C   UNL     1      37.770  19.027  11.096  1.00  0.00     0.059 C 
ATOM     37  C   UNL     1      38.165  20.332  10.377  1.00  0.00     0.042 C 
ATOM     38  C   UNL     1      36.336  19.164  11.653  1.00  0.00     0.042 C 
BRANCH  36  39
ATOM     39  O   UNL     1      37.831  17.955  10.182  1.00  0.00    -0.390 OA
ATOM     40  H   UNL     1      36.903  17.657   9.995  1.00  0.00     0.211 HD
ENDBRANCH  36  39
ENDBRANCH  35  36
ENDBRANCH   1  35
TORSDOF 11
ENDMDL
MODEL 6
REMARK VINA RESULT:     3.760      1.649      7.557
REMARK INTER + INTRA:           5.668
REMARK INTER:                   5.919
REMARK INTRA:                  -0.250
REMARK UNBOUND:                 0.149
REMARK SMILES CC(C)(O)CC[C@@H](O)[C@@](C)(O)[C@H]1CC[C@@]2(O)C3=CC(=O)[C@H]4C[C@@H](O)[C@@H](O)C[C@]4(C)[C@@H]3CC[C@@]12C
REMARK SMILES IDX 6 1 7 2 9 3 10 4 12 5 34 6 33 7 32 8 15 9 31 10 17 11 14 12
REMARK SMILES IDX 13 13 30 14 18 15 28 16 19 17 21 18 27 19 29 20 20 21 22 22
REMARK SMILES IDX 25 23 23 24 16 25 26 27 24 29 11 31 8 33 5 35 2 36 1 37 3 38
REMARK SMILES IDX 4 39
REMARK H PARENT 16 26 26 28 24 30 11 32 8 34 4 40
REMARK Flexibility Score: inf
ROOT
ATOM      1  C   UNL     1      46.177  22.981   5.275  1.00  0.00     0.038 C 
ENDROOT
BRANCH   1   2
ATOM      2  C   UNL     1      44.789  22.300   5.444  1.00  0.00     0.146 C 
BRANCH   2   3
ATOM      3  C   UNL     1      44.624  20.795   4.983  1.00  0.00     0.091 C 
ATOM      4  C   UNL     1      44.520  20.820   3.430  1.00  0.00     0.045 C 
BRANCH   3   5
ATOM      5  C   UNL     1      43.376  20.098   5.692  1.00  0.00     0.032 C 
ATOM      6  C   UNL     1      42.001  21.939   6.895  1.00  0.00     0.015 C 
ATOM      7  C   UNL     1      42.797  20.615   7.060  1.00  0.00     0.006 C 
ATOM      8  C   UNL     1      43.920  20.835   8.125  1.00  0.00     0.011 C 
ATOM      9  C   UNL     1      41.839  19.439   7.467  1.00  0.00     0.092 C 
ATOM     10  C   UNL     1      43.434  20.877   9.584  1.00  0.00     0.009 C 
ATOM     11  C   UNL     1      41.537  19.443   8.977  1.00  0.00    -0.031 C 
ATOM     12  C   UNL     1      42.585  18.161   7.023  1.00  0.00     0.041 C 
ATOM     13  C   UNL     1      43.466  18.561   5.835  1.00  0.00     0.010 C 
ATOM     14  C   UNL     1      42.717  19.565   9.943  1.00  0.00     0.025 C 
ATOM     15  C   UNL     1      40.263  19.564   9.422  1.00  0.00     0.050 C 
ATOM     16  C   UNL     1      42.309  19.366  11.461  1.00  0.00    -0.013 C 
ATOM     17  C   UNL     1      39.943  19.869  10.825  1.00  0.00     0.159 C 
ATOM     18  C   UNL     1      41.054  20.232  11.771  1.00  0.00     0.070 C 
ATOM     19  C   UNL     1      43.457  19.785  12.439  1.00  0.00     0.042 C 
ATOM     20  C   UNL     1      42.016  17.842  11.645  1.00  0.00     0.013 C 
ATOM     21  O   UNL     1      38.738  19.910  11.189  1.00  0.00    -0.295 OA
ATOM     22  C   UNL     1      40.626  20.165  13.256  1.00  0.00     0.047 C 
ATOM     23  C   UNL     1      43.066  19.752  13.936  1.00  0.00     0.143 C 
ATOM     24  C   UNL     1      41.786  20.577  14.185  1.00  0.00     0.143 C 
BRANCH   9  25
ATOM     25  O   UNL     1      40.619  19.541   6.747  1.00  0.00    -0.385 OA
ATOM     26  H   UNL     1      39.977  18.846   7.047  1.00  0.00     0.211 HD
ENDBRANCH   9  25
BRANCH  23  27
ATOM     27  O   UNL     1      42.910  18.437  14.400  1.00  0.00    -0.390 OA
ATOM     28  H   UNL     1      43.251  18.419  15.335  1.00  0.00     0.211 HD
ENDBRANCH  23  27
BRANCH  24  29
ATOM     29  O   UNL     1      41.404  20.512  15.538  1.00  0.00    -0.390 OA
ATOM     30  H   UNL     1      41.982  21.138  16.049  1.00  0.00     0.211 HD
ENDBRANCH  24  29
ENDBRANCH   3   5
BRANCH   3  31
ATOM     31  O   UNL     1      45.809  20.093   5.277  1.00  0.00    -0.387 OA
ATOM     32  H   UNL     1      45.607  19.125   5.309  1.00  0.00     0.211 HD
ENDBRANCH   3  31
ENDBRANCH   2   3
BRANCH   2  33
ATOM     33  O   UNL     1      43.818  23.097   4.806  1.00  0.00    -0.390 OA
ATOM     34  H   UNL     1      43.750  22.781   3.867  1.00  0.00     0.211 HD
ENDBRANCH   2  33
ENDBRANCH   1   2
BRANCH   1  35
ATOM     35  C   UNL     1      46.998  23.124   6.577  1.00  0.00     0.037 C 
BRANCH  35  36
ATOM     36  C   UNL     1      48.256  22.219   6.635  1.00  0.00     0.059 C 
ATOM     37  C   UNL     1      49.125  22.653   7.833  1.00  0.00     0.042 C 
ATOM     38  C   UNL     1      49.082  22.337   5.336  1.00  0.00     0.042 C 
BRANCH  36  39
ATOM     39  O   UNL     1      47.841  20.885   6.822  1.00  0.00    -0.390 OA
ATOM     40  H   UNL     1      47.996  20.392   5.974  1.00  0.00     0.211 HD
ENDBRANCH  36  39
ENDBRANCH  35  36
ENDBRANCH   1  35
TORSDOF 11
ENDMDL
MODEL 7
REMARK VINA RESULT:     4.031      2.747      3.667
REMARK INTER + INTRA:           6.066
REMARK INTER:                   6.393
REMARK INTRA:                  -0.327
REMARK UNBOUND:                 0.149
REMARK SMILES CC(C)(O)CC[C@@H](O)[C@@](C)(O)[C@H]1CC[C@@]2(O)C3=CC(=O)[C@H]4C[C@@H](O)[C@@H](O)C[C@]4(C)[C@@H]3CC[C@@]12C
REMARK SMILES IDX 6 1 7 2 9 3 10 4 12 5 34 6 33 7 32 8 15 9 31 10 17 11 14 12
REMARK SMILES IDX 13 13 30 14 18 15 28 16 19 17 21 18 27 19 29 20 20 21 22 22
REMARK SMILES IDX 25 23 23 24 16 25 26 27 24 29 11 31 8 33 5 35 2 36 1 37 3 38
REMARK SMILES IDX 4 39
REMARK H PARENT 16 26 26 28 24 30 11 32 8 34 4 40
REMARK Flexibility Score: inf
ROOT
ATOM      1  C   UNL     1      40.833  21.029  15.370  1.00  0.00     0.038 C 
ENDROOT
BRANCH   1   2
ATOM      2  C   UNL     1      41.737  20.231  14.386  1.00  0.00     0.146 C 
BRANCH   2   3
ATOM      3  C   UNL     1      42.615  21.036  13.345  1.00  0.00     0.091 C 
ATOM      4  C   UNL     1      42.802  22.463  13.938  1.00  0.00     0.045 C 
BRANCH   3   5
ATOM      5  C   UNL     1      41.953  21.034  11.893  1.00  0.00     0.032 C 
ATOM      6  C   UNL     1      42.719  18.885  10.662  1.00  0.00     0.015 C 
ATOM      7  C   UNL     1      42.692  20.439  10.639  1.00  0.00     0.006 C 
ATOM      8  C   UNL     1      44.159  20.964  10.520  1.00  0.00     0.011 C 
ATOM      9  C   UNL     1      41.794  20.960   9.461  1.00  0.00     0.092 C 
ATOM     10  C   UNL     1      44.788  20.826   9.123  1.00  0.00     0.009 C 
ATOM     11  C   UNL     1      42.551  20.957   8.120  1.00  0.00    -0.031 C 
ATOM     12  C   UNL     1      41.376  22.383   9.894  1.00  0.00     0.041 C 
ATOM     13  C   UNL     1      41.371  22.389  11.426  1.00  0.00     0.010 C 
ATOM     14  C   UNL     1      43.946  21.585   8.084  1.00  0.00     0.025 C 
ATOM     15  C   UNL     1      42.095  20.226   7.075  1.00  0.00     0.050 C 
ATOM     16  C   UNL     1      44.546  21.698   6.622  1.00  0.00    -0.013 C 
ATOM     17  C   UNL     1      42.916  19.949   5.887  1.00  0.00     0.159 C 
ATOM     18  C   UNL     1      44.369  20.336   5.890  1.00  0.00     0.070 C 
ATOM     19  C   UNL     1      46.068  22.061   6.637  1.00  0.00     0.042 C 
ATOM     20  C   UNL     1      43.758  22.842   5.906  1.00  0.00     0.013 C 
ATOM     21  O   UNL     1      42.413  19.313   4.923  1.00  0.00    -0.295 OA
ATOM     22  C   UNL     1      44.999  20.323   4.477  1.00  0.00     0.047 C 
ATOM     23  C   UNL     1      46.745  22.041   5.245  1.00  0.00     0.143 C 
ATOM     24  C   UNL     1      46.495  20.693   4.535  1.00  0.00     0.143 C 
BRANCH   9  25
ATOM     25  O   UNL     1      40.634  20.149   9.344  1.00  0.00    -0.385 OA
ATOM     26  H   UNL     1      40.807  19.378   8.743  1.00  0.00     0.211 HD
ENDBRANCH   9  25
BRANCH  23  27
ATOM     27  O   UNL     1      46.315  23.112   4.446  1.00  0.00    -0.390 OA
ATOM     28  H   UNL     1      45.811  23.730   5.040  1.00  0.00     0.211 HD
ENDBRANCH  23  27
BRANCH  24  29
ATOM     29  O   UNL     1      47.071  20.689   3.252  1.00  0.00    -0.390 OA
ATOM     30  H   UNL     1      47.206  19.743   2.981  1.00  0.00     0.211 HD
ENDBRANCH  24  29
ENDBRANCH   3   5
BRANCH   3  31
ATOM     31  O   UNL     1      43.904  20.470  13.296  1.00  0.00    -0.387 OA
ATOM     32  H   UNL     1      44.462  20.884  14.000  1.00  0.00     0.211 HD
ENDBRANCH   3  31
ENDBRANCH   2   3
BRANCH   2  33
ATOM     33  O   UNL     1      40.939  19.293  13.703  1.00  0.00    -0.390 OA
ATOM     34  H   UNL     1      41.403  19.077  12.853  1.00  0.00     0.211 HD
ENDBRANCH   2  33
ENDBRANCH   1   2
BRANCH   1  35
ATOM     35  C   UNL     1      39.367  20.545  15.449  1.00  0.00     0.037 C 
BRANCH  35  36
ATOM     36  C   UNL     1      38.982  19.913  16.813  1.00  0.00     0.059 C 
ATOM     37  C   UNL     1      37.911  18.830  16.571  1.00  0.00     0.042 C 
ATOM     38  C   UNL     1      38.422  20.981  17.777  1.00  0.00     0.042 C 
BRANCH  36  39
ATOM     39  O   UNL     1      40.131  19.315  17.370  1.00  0.00    -0.390 OA
ATOM     40  H   UNL     1      39.914  18.369  17.579  1.00  0.00     0.211 HD
ENDBRANCH  36  39
ENDBRANCH  35  36
ENDBRANCH   1  35
TORSDOF 11
ENDMDL
MODEL 8
REMARK VINA RESULT:     4.260      1.656      2.227
REMARK INTER + INTRA:           6.401
REMARK INTER:                   4.041
REMARK INTRA:                   2.361
REMARK UNBOUND:                 0.149
REMARK SMILES CC(C)(O)CC[C@@H](O)[C@@](C)(O)[C@H]1CC[C@@]2(O)C3=CC(=O)[C@H]4C[C@@H](O)[C@@H](O)C[C@]4(C)[C@@H]3CC[C@@]12C
REMARK SMILES IDX 6 1 7 2 9 3 10 4 12 5 34 6 33 7 32 8 15 9 31 10 17 11 14 12
REMARK SMILES IDX 13 13 30 14 18 15 28 16 19 17 21 18 27 19 29 20 20 21 22 22
REMARK SMILES IDX 25 23 23 24 16 25 26 27 24 29 11 31 8 33 5 35 2 36 1 37 3 38
REMARK SMILES IDX 4 39
REMARK H PARENT 16 26 26 28 24 30 11 32 8 34 4 40
REMARK Flexibility Score: inf
ROOT
ATOM      1  C   UNL     1      41.238  19.964  13.435  1.00  0.00     0.038 C 
ENDROOT
BRANCH   1   2
ATOM      2  C   UNL     1      40.673  20.507  12.092  1.00  0.00     0.146 C 
BRANCH   2   3
ATOM      3  C   UNL     1      40.028  19.482  11.073  1.00  0.00     0.091 C 
ATOM      4  C   UNL     1      40.669  18.097  11.378  1.00  0.00     0.045 C 
BRANCH   3   5
ATOM      5  C   UNL     1      40.226  19.955   9.562  1.00  0.00     0.032 C 
ATOM      6  C   UNL     1      41.517  18.094   8.299  1.00  0.00     0.015 C 
ATOM      7  C   UNL     1      41.511  19.586   8.733  1.00  0.00     0.006 C 
ATOM      8  C   UNL     1      42.824  19.882   9.527  1.00  0.00     0.011 C 
ATOM      9  C   UNL     1      41.367  20.527   7.484  1.00  0.00     0.092 C 
ATOM     10  C   UNL     1      44.093  20.004   8.665  1.00  0.00     0.009 C 
ATOM     11  C   UNL     1      42.715  20.742   6.772  1.00  0.00    -0.031 C 
ATOM     12  C   UNL     1      40.790  21.841   8.054  1.00  0.00     0.041 C 
ATOM     13  C   UNL     1      39.981  21.459   9.298  1.00  0.00     0.010 C 
ATOM     14  C   UNL     1      43.924  21.127   7.628  1.00  0.00     0.025 C 
ATOM     15  C   UNL     1      42.873  20.383   5.475  1.00  0.00     0.050 C 
ATOM     16  C   UNL     1      45.203  21.508   6.774  1.00  0.00    -0.013 C 
ATOM     17  C   UNL     1      44.194  20.289   4.837  1.00  0.00     0.159 C 
ATOM     18  C   UNL     1      45.431  20.424   5.682  1.00  0.00     0.070 C 
ATOM     19  C   UNL     1      46.492  21.606   7.656  1.00  0.00     0.042 C 
ATOM     20  C   UNL     1      44.912  22.908   6.142  1.00  0.00     0.013 C 
ATOM     21  O   UNL     1      44.271  20.007   3.611  1.00  0.00    -0.295 OA
ATOM     22  C   UNL     1      46.709  20.669   4.845  1.00  0.00     0.047 C 
ATOM     23  C   UNL     1      47.798  21.832   6.857  1.00  0.00     0.143 C 
ATOM     24  C   UNL     1      47.953  20.766   5.751  1.00  0.00     0.143 C 
BRANCH   9  25
ATOM     25  O   UNL     1      40.438  19.969   6.566  1.00  0.00    -0.385 OA
ATOM     26  H   UNL     1      39.582  19.757   7.020  1.00  0.00     0.211 HD
ENDBRANCH   9  25
BRANCH  23  27
ATOM     27  O   UNL     1      47.856  23.125   6.315  1.00  0.00    -0.390 OA
ATOM     28  H   UNL     1      48.629  23.582   6.743  1.00  0.00     0.211 HD
ENDBRANCH  23  27
BRANCH  24  29
ATOM     29  O   UNL     1      49.117  20.995   4.995  1.00  0.00    -0.390 OA
ATOM     30  H   UNL     1      49.818  21.337   5.609  1.00  0.00     0.211 HD
ENDBRANCH  24  29
ENDBRANCH   3   5
BRANCH   3  31
ATOM     31  O   UNL     1      38.657  19.344  11.367  1.00  0.00    -0.387 OA
ATOM     32  H   UNL     1      38.437  19.917  12.143  1.00  0.00     0.211 HD
ENDBRANCH   3  31
ENDBRANCH   2   3
BRANCH   2  33
ATOM     33  O   UNL     1      41.685  21.242  11.443  1.00  0.00    -0.390 OA
ATOM     34  H   UNL     1      42.554  20.849  11.718  1.00  0.00     0.211 HD
ENDBRANCH   2  33
ENDBRANCH   1   2
BRANCH   1  35
ATOM     35  C   UNL     1      41.624  21.047  14.468  1.00  0.00     0.037 C 
BRANCH  35  36
ATOM     36  C   UNL     1      42.969  21.758  14.167  1.00  0.00     0.059 C 
ATOM     37  C   UNL     1      42.680  23.047  13.371  1.00  0.00     0.042 C 
ATOM     38  C   UNL     1      43.903  20.846  13.342  1.00  0.00     0.042 C 
BRANCH  36  39
ATOM     39  O   UNL     1      43.583  22.095  15.391  1.00  0.00    -0.390 OA
ATOM     40  H   UNL     1      44.551  21.888  15.317  1.00  0.00     0.211 HD
ENDBRANCH  36  39
ENDBRANCH  35  36
ENDBRANCH   1  35
TORSDOF 11
ENDMDL
