MODEL 1
REMARK VINA RESULT:    -4.114      0.000      0.000
REMARK INTER + INTRA:          -4.907
REMARK INTER:                  -4.956
REMARK INTRA:                   0.048
REMARK UNBOUND:                 0.048
REMARK SMILES CC[C@H](C)[C@H]([NH3+])C(=O)[O-]
REMARK SMILES IDX 3 1 4 2 5 3 6 4 7 8 8 9 9 10 2 11 1 12
REMARK H PARENT 6 5 6 6 6 7
REMARK Flexibility Score: inf
ROOT
ATOM      1  C   UNL     1     -20.880  -5.659   0.310  1.00  0.00     0.050 C 
ATOM      2  C   UNL     1     -20.759  -5.103  -1.125  1.00  0.00     0.014 C 
ENDROOT
BRANCH   1   3
ATOM      3  C   UNL     1     -19.461  -5.886   0.927  1.00  0.00     0.230 C 
BRANCH   3   4
ATOM      4  N   UNL     1     -19.445  -6.996   1.893  1.00  0.00    -0.350 N 
ATOM      5  H   UNL     1     -18.623  -6.907   2.534  1.00  0.00     0.345 HD
ATOM      6  H   UNL     1     -20.320  -7.004   2.465  1.00  0.00     0.345 HD
ATOM      7  H   UNL     1     -19.339  -7.909   1.394  1.00  0.00     0.345 HD
ENDBRANCH   3   4
BRANCH   3   8
ATOM      8  C   UNL     1     -18.966  -4.634   1.609  1.00  0.00     0.099 C 
ATOM      9  O   UNL     1     -17.731  -4.405   1.694  1.00  0.00    -0.544 OA
ATOM     10  O   UNL     1     -19.871  -3.729   2.152  1.00  0.00    -0.544 OA
ENDBRANCH   3   8
ENDBRANCH   1   3
BRANCH   1  11
ATOM     11  C   UNL     1     -21.721  -6.963   0.321  1.00  0.00     0.006 C 
ATOM     12  C   UNL     1     -21.233  -8.015  -0.678  1.00  0.00     0.004 C 
ENDBRANCH   1  11
TORSDOF 4
ENDMDL
MODEL 2
REMARK VINA RESULT:    -3.863      2.387      3.734
REMARK INTER + INTRA:          -4.605
REMARK INTER:                  -4.531
REMARK INTRA:                  -0.073
REMARK UNBOUND:                 0.048
REMARK SMILES CC[C@H](C)[C@H]([NH3+])C(=O)[O-]
REMARK SMILES IDX 3 1 4 2 5 3 6 4 7 8 8 9 9 10 2 11 1 12
REMARK H PARENT 6 5 6 6 6 7
REMARK Flexibility Score: inf
ROOT
ATOM      1  C   UNL     1     -19.434  -5.009   1.166  1.00  0.00     0.050 C 
ATOM      2  C   UNL     1     -20.130  -3.830   1.880  1.00  0.00     0.014 C 
ENDROOT
BRANCH   1   3
ATOM      3  C   UNL     1     -20.391  -6.243   1.096  1.00  0.00     0.230 C 
BRANCH   3   4
ATOM      4  N   UNL     1     -19.723  -7.489   1.506  1.00  0.00    -0.350 N 
ATOM      5  H   UNL     1     -18.764  -7.540   1.091  1.00  0.00     0.345 HD
ATOM      6  H   UNL     1     -19.643  -7.543   2.548  1.00  0.00     0.345 HD
ATOM      7  H   UNL     1     -20.251  -8.317   1.148  1.00  0.00     0.345 HD
ENDBRANCH   3   4
BRANCH   3   8
ATOM      8  C   UNL     1     -20.941  -6.417  -0.299  1.00  0.00     0.099 C 
ATOM      9  O   UNL     1     -20.884  -5.468  -1.124  1.00  0.00    -0.544 OA
ATOM     10  O   UNL     1     -21.518  -7.623  -0.679  1.00  0.00    -0.544 OA
ENDBRANCH   3   8
ENDBRANCH   1   3
BRANCH   1  11
ATOM     11  C   UNL     1     -18.098  -5.362   1.872  1.00  0.00     0.006 C 
ATOM     12  C   UNL     1     -16.940  -4.435   1.491  1.00  0.00     0.004 C 
ENDBRANCH   1  11
TORSDOF 4
ENDMDL
MODEL 3
REMARK VINA RESULT:    -3.859      1.674      2.263
REMARK INTER + INTRA:          -4.600
REMARK INTER:                  -4.630
REMARK INTRA:                   0.030
REMARK UNBOUND:                 0.048
REMARK SMILES CC[C@H](C)[C@H]([NH3+])C(=O)[O-]
REMARK SMILES IDX 3 1 4 2 5 3 6 4 7 8 8 9 9 10 2 11 1 12
REMARK H PARENT 6 5 6 6 6 7
REMARK Flexibility Score: inf
ROOT
ATOM      1  C   UNL     1     -20.178  -6.324   0.203  1.00  0.00     0.050 C 
ATOM      2  C   UNL     1     -20.209  -7.028   1.577  1.00  0.00     0.014 C 
ENDROOT
BRANCH   1   3
ATOM      3  C   UNL     1     -20.568  -4.817   0.355  1.00  0.00     0.230 C 
BRANCH   3   4
ATOM      4  N   UNL     1     -20.402  -4.070  -0.902  1.00  0.00    -0.350 N 
ATOM      5  H   UNL     1     -21.264  -4.152  -1.489  1.00  0.00     0.345 HD
ATOM      6  H   UNL     1     -20.219  -3.058  -0.711  1.00  0.00     0.345 HD
ATOM      7  H   UNL     1     -19.617  -4.473  -1.462  1.00  0.00     0.345 HD
ENDBRANCH   3   4
BRANCH   3   8
ATOM      8  C   UNL     1     -19.743  -4.156   1.432  1.00  0.00     0.099 C 
ATOM      9  O   UNL     1     -20.295  -3.412   2.285  1.00  0.00    -0.544 OA
ATOM     10  O   UNL     1     -18.369  -4.360   1.486  1.00  0.00    -0.544 OA
ENDBRANCH   3   8
ENDBRANCH   1   3
BRANCH   1  11
ATOM     11  C   UNL     1     -21.105  -7.054  -0.806  1.00  0.00     0.006 C 
ATOM     12  C   UNL     1     -21.179  -8.567  -0.584  1.00  0.00     0.004 C 
ENDBRANCH   1  11
TORSDOF 4
ENDMDL
MODEL 4
REMARK VINA RESULT:    -3.786      2.949      3.796
REMARK INTER + INTRA:          -4.512
REMARK INTER:                  -4.585
REMARK INTRA:                   0.073
REMARK UNBOUND:                 0.048
REMARK SMILES CC[C@H](C)[C@H]([NH3+])C(=O)[O-]
REMARK SMILES IDX 3 1 4 2 5 3 6 4 7 8 8 9 9 10 2 11 1 12
REMARK H PARENT 6 5 6 6 6 7
REMARK Flexibility Score: inf
ROOT
ATOM      1  C   UNL     1     -20.031  -5.594   0.004  1.00  0.00     0.050 C 
ATOM      2  C   UNL     1     -20.136  -4.298  -0.830  1.00  0.00     0.014 C 
ENDROOT
BRANCH   1   3
ATOM      3  C   UNL     1     -21.162  -6.594  -0.401  1.00  0.00     0.230 C 
BRANCH   3   4
ATOM      4  N   UNL     1     -22.399  -6.375   0.365  1.00  0.00    -0.350 N 
ATOM      5  H   UNL     1     -22.222  -6.515   1.386  1.00  0.00     0.345 HD
ATOM      6  H   UNL     1     -22.763  -5.406   0.215  1.00  0.00     0.345 HD
ATOM      7  H   UNL     1     -23.126  -7.074   0.086  1.00  0.00     0.345 HD
ENDBRANCH   3   4
BRANCH   3   8
ATOM      8  C   UNL     1     -20.710  -8.021  -0.207  1.00  0.00     0.099 C 
ATOM      9  O   UNL     1     -20.873  -8.867  -1.125  1.00  0.00    -0.544 OA
ATOM     10  O   UNL     1     -20.116  -8.411   0.988  1.00  0.00    -0.544 OA
ENDBRANCH   3   8
ENDBRANCH   1   3
BRANCH   1  11
ATOM     11  C   UNL     1     -20.072  -5.270   1.521  1.00  0.00     0.006 C 
ATOM     12  C   UNL     1     -20.217  -3.777   1.826  1.00  0.00     0.004 C 
ENDBRANCH   1  11
TORSDOF 4
ENDMDL
MODEL 5
REMARK VINA RESULT:    -3.230     16.168     16.734
REMARK INTER + INTRA:          -3.842
REMARK INTER:                  -3.749
REMARK INTRA:                  -0.094
REMARK UNBOUND:                 0.048
REMARK SMILES CC[C@H](C)[C@H]([NH3+])C(=O)[O-]
REMARK SMILES IDX 3 1 4 2 5 3 6 4 7 8 8 9 9 10 2 11 1 12
REMARK H PARENT 6 5 6 6 6 7
REMARK Flexibility Score: inf
ROOT
ATOM      1  C   UNL     1     -20.276  -5.869  17.896  1.00  0.00     0.050 C 
ATOM      2  C   UNL     1     -21.410  -4.938  18.378  1.00  0.00     0.014 C 
ENDROOT
BRANCH   1   3
ATOM      3  C   UNL     1     -19.245  -5.070  17.034  1.00  0.00     0.230 C 
BRANCH   3   4
ATOM      4  N   UNL     1     -19.161  -5.578  15.656  1.00  0.00    -0.350 N 
ATOM      5  H   UNL     1     -20.119  -5.690  15.251  1.00  0.00     0.345 HD
ATOM      6  H   UNL     1     -18.613  -4.923  15.051  1.00  0.00     0.345 HD
ATOM      7  H   UNL     1     -18.717  -6.525  15.645  1.00  0.00     0.345 HD
ENDBRANCH   3   4
BRANCH   3   8
ATOM      8  C   UNL     1     -17.873  -5.118  17.660  1.00  0.00     0.099 C 
ATOM      9  O   UNL     1     -17.676  -4.608  18.794  1.00  0.00    -0.544 OA
ATOM     10  O   UNL     1     -16.816  -5.720  16.987  1.00  0.00    -0.544 OA
ENDBRANCH   3   8
ENDBRANCH   1   3
BRANCH   1  11
ATOM     11  C   UNL     1     -20.859  -7.077  17.114  1.00  0.00     0.006 C 
ATOM     12  C   UNL     1     -22.367  -6.980  16.872  1.00  0.00     0.004 C 
ENDBRANCH   1  11
TORSDOF 4
ENDMDL
MODEL 6
REMARK VINA RESULT:    -3.136     16.206     17.108
REMARK INTER + INTRA:          -3.729
REMARK INTER:                  -3.638
REMARK INTRA:                  -0.092
REMARK UNBOUND:                 0.048
REMARK SMILES CC[C@H](C)[C@H]([NH3+])C(=O)[O-]
REMARK SMILES IDX 3 1 4 2 5 3 6 4 7 8 8 9 9 10 2 11 1 12
REMARK H PARENT 6 5 6 6 6 7
REMARK Flexibility Score: inf
ROOT
ATOM      1  C   UNL     1     -17.102  -6.032  17.634  1.00  0.00     0.050 C 
ATOM      2  C   UNL     1     -15.970  -6.764  16.881  1.00  0.00     0.014 C 
ENDROOT
BRANCH   1   3
ATOM      3  C   UNL     1     -18.221  -5.589  16.636  1.00  0.00     0.230 C 
BRANCH   3   4
ATOM      4  N   UNL     1     -18.325  -4.125  16.531  1.00  0.00    -0.350 N 
ATOM      5  H   UNL     1     -18.826  -3.859  15.652  1.00  0.00     0.345 HD
ATOM      6  H   UNL     1     -18.844  -3.729  17.348  1.00  0.00     0.345 HD
ATOM      7  H   UNL     1     -17.372  -3.698  16.475  1.00  0.00     0.345 HD
ENDBRANCH   3   4
BRANCH   3   8
ATOM      8  C   UNL     1     -19.560  -6.148  17.051  1.00  0.00     0.099 C 
ATOM      9  O   UNL     1     -19.820  -7.367  16.872  1.00  0.00    -0.544 OA
ATOM     10  O   UNL     1     -20.517  -5.320  17.627  1.00  0.00    -0.544 OA
ENDBRANCH   3   8
ENDBRANCH   1   3
BRANCH   1  11
ATOM     11  C   UNL     1     -16.537  -4.825  18.429  1.00  0.00     0.006 C 
ATOM     12  C   UNL     1     -15.015  -4.689  18.336  1.00  0.00     0.004 C 
ENDBRANCH   1  11
TORSDOF 4
ENDMDL
MODEL 7
REMARK VINA RESULT:    -3.097     16.299     16.711
REMARK INTER + INTRA:          -3.683
REMARK INTER:                  -3.554
REMARK INTRA:                  -0.129
REMARK UNBOUND:                 0.048
REMARK SMILES CC[C@H](C)[C@H]([NH3+])C(=O)[O-]
REMARK SMILES IDX 3 1 4 2 5 3 6 4 7 8 8 9 9 10 2 11 1 12
REMARK H PARENT 6 5 6 6 6 7
REMARK Flexibility Score: inf
ROOT
ATOM      1  C   UNL     1     -19.675  -5.908  17.942  1.00  0.00     0.050 C 
ATOM      2  C   UNL     1     -20.227  -4.890  18.963  1.00  0.00     0.014 C 
ENDROOT
BRANCH   1   3
ATOM      3  C   UNL     1     -18.632  -5.221  17.000  1.00  0.00     0.230 C 
BRANCH   3   4
ATOM      4  N   UNL     1     -18.999  -5.344  15.580  1.00  0.00    -0.350 N 
ATOM      5  H   UNL     1     -19.152  -4.398  15.162  1.00  0.00     0.345 HD
ATOM      6  H   UNL     1     -18.247  -5.833  15.042  1.00  0.00     0.345 HD
ATOM      7  H   UNL     1     -19.900  -5.866  15.483  1.00  0.00     0.345 HD
ENDBRANCH   3   4
BRANCH   3   8
ATOM      8  C   UNL     1     -17.257  -5.809  17.204  1.00  0.00     0.099 C 
ATOM      9  O   UNL     1     -17.067  -7.044  17.046  1.00  0.00    -0.544 OA
ATOM     10  O   UNL     1     -16.194  -4.994  17.574  1.00  0.00    -0.544 OA
ENDBRANCH   3   8
ENDBRANCH   1   3
BRANCH   1  11
ATOM     11  C   UNL     1     -20.832  -6.555  17.135  1.00  0.00     0.006 C 
ATOM     12  C   UNL     1     -20.848  -8.084  17.206  1.00  0.00     0.004 C 
ENDBRANCH   1  11
TORSDOF 4
ENDMDL
MODEL 8
REMARK VINA RESULT:    -3.070     16.259     16.675
REMARK INTER + INTRA:          -3.649
REMARK INTER:                  -3.569
REMARK INTRA:                  -0.081
REMARK UNBOUND:                 0.048
REMARK SMILES CC[C@H](C)[C@H]([NH3+])C(=O)[O-]
REMARK SMILES IDX 3 1 4 2 5 3 6 4 7 8 8 9 9 10 2 11 1 12
REMARK H PARENT 6 5 6 6 6 7
REMARK Flexibility Score: inf
ROOT
ATOM      1  C   UNL     1     -20.980  -6.553  17.140  1.00  0.00     0.050 C 
ATOM      2  C   UNL     1     -20.593  -8.046  17.217  1.00  0.00     0.014 C 
ENDROOT
BRANCH   1   3
ATOM      3  C   UNL     1     -19.955  -5.684  17.939  1.00  0.00     0.230 C 
BRANCH   3   4
ATOM      4  N   UNL     1     -20.585  -4.505  18.554  1.00  0.00    -0.350 N 
ATOM      5  H   UNL     1     -20.168  -4.321  19.496  1.00  0.00     0.345 HD
ATOM      6  H   UNL     1     -20.453  -3.658  17.955  1.00  0.00     0.345 HD
ATOM      7  H   UNL     1     -21.605  -4.677  18.705  1.00  0.00     0.345 HD
ENDBRANCH   3   4
BRANCH   3   8
ATOM      8  C   UNL     1     -18.828  -5.229  17.045  1.00  0.00     0.099 C 
ATOM      9  O   UNL     1     -18.991  -5.177  15.797  1.00  0.00    -0.544 OA
ATOM     10  O   UNL     1     -17.601  -4.870  17.591  1.00  0.00    -0.544 OA
ENDBRANCH   3   8
ENDBRANCH   1   3
BRANCH   1  11
ATOM     11  C   UNL     1     -22.430  -6.339  17.652  1.00  0.00     0.006 C 
ATOM     12  C   UNL     1     -23.484  -7.094  16.839  1.00  0.00     0.004 C 
ENDBRANCH   1  11
TORSDOF 4
ENDMDL
MODEL 9
REMARK VINA RESULT:    -3.033     15.982     17.311
REMARK INTER + INTRA:          -3.605
REMARK INTER:                  -3.524
REMARK INTRA:                  -0.081
REMARK UNBOUND:                 0.048
REMARK SMILES CC[C@H](C)[C@H]([NH3+])C(=O)[O-]
REMARK SMILES IDX 3 1 4 2 5 3 6 4 7 8 8 9 9 10 2 11 1 12
REMARK H PARENT 6 5 6 6 6 7
REMARK Flexibility Score: inf
ROOT
ATOM      1  C   UNL     1     -16.484  -5.372  17.810  1.00  0.00     0.050 C 
ATOM      2  C   UNL     1     -16.924  -4.694  19.125  1.00  0.00     0.014 C 
ENDROOT
BRANCH   1   3
ATOM      3  C   UNL     1     -17.424  -6.576  17.478  1.00  0.00     0.230 C 
BRANCH   3   4
ATOM      4  N   UNL     1     -16.747  -7.605  16.672  1.00  0.00    -0.350 N 
ATOM      5  H   UNL     1     -15.975  -8.047  17.222  1.00  0.00     0.345 HD
ATOM      6  H   UNL     1     -17.421  -8.349  16.377  1.00  0.00     0.345 HD
ATOM      7  H   UNL     1     -16.306  -7.172  15.829  1.00  0.00     0.345 HD
ENDBRANCH   3   4
BRANCH   3   8
ATOM      8  C   UNL     1     -18.655  -6.107  16.742  1.00  0.00     0.099 C 
ATOM      9  O   UNL     1     -19.737  -6.743  16.848  1.00  0.00    -0.544 OA
ATOM     10  O   UNL     1     -18.602  -4.975  15.938  1.00  0.00    -0.544 OA
ENDBRANCH   3   8
ENDBRANCH   1   3
BRANCH   1  11
ATOM     11  C   UNL     1     -14.999  -5.815  17.896  1.00  0.00     0.006 C 
ATOM     12  C   UNL     1     -14.045  -4.686  18.296  1.00  0.00     0.004 C 
ENDBRANCH   1  11
TORSDOF 4
ENDMDL
