MODEL 1
REMARK VINA RESULT:     6.711      0.000      0.000
REMARK INTER + INTRA:          13.122
REMARK INTER:                  10.439
REMARK INTRA:                   2.683
REMARK UNBOUND:                 2.683
REMARK SMILES C[C@]12C[C@]3(O)O[C@H](O1)[C@@]1(COC(=O)c4ccccc4)[C@@H]3C[C@]12O[C@H]1O[C@H](CO)[C@@H](O)[C@H](O)[C@@H]1O
REMARK SMILES IDX 1 1 2 2 3 3 4 4 20 5 21 6 22 7 9 8 7 9 8 10 6 11 23 12 24 13
REMARK SMILES IDX 33 14 25 15 31 16 26 17 29 18 34 19 32 21 27 23 28 24 30 26
REMARK SMILES IDX 5 28 10 30 11 31 12 32 13 33 14 34 15 35 19 36 16 37 18 38
REMARK SMILES IDX 17 39
REMARK H PARENT 34 20 32 22 28 25 30 27 5 29
REMARK Flexibility Score: inf
ROOT
ATOM      1  C   UNL     1     168.223 164.019 147.753  1.00  0.00     0.046 C 
ATOM      2  C   UNL     1     168.377 163.359 149.124  1.00  0.00     0.104 C 
ATOM      3  C   UNL     1     169.855 162.874 149.357  1.00  0.00     0.104 C 
ATOM      4  C   UNL     1     169.826 162.319 150.823  1.00  0.00     0.175 C 
ATOM      5  C   UNL     1     169.155 163.353 151.781  1.00  0.00     0.070 C 
ATOM      6  C   UNL     1     169.089 164.774 151.189  1.00  0.00     0.050 C 
ATOM      7  C   UNL     1     167.904 164.252 150.334  1.00  0.00     0.115 C 
ATOM      8  C   UNL     1     167.706 163.131 151.357  1.00  0.00     0.096 C 
ATOM      9  C   UNL     1     167.677 161.828 150.577  1.00  0.00     0.267 C 
ATOM     10  O   UNL     1     167.578 162.196 149.210  1.00  0.00    -0.342 OA
ATOM     11  O   UNL     1     168.937 161.218 150.808  1.00  0.00    -0.320 OA
ENDROOT
BRANCH   7  12
ATOM     12  O   UNL     1     166.728 165.018 150.057  1.00  0.00    -0.339 OA
BRANCH  12  13
ATOM     13  C   UNL     1     165.860 164.460 149.082  1.00  0.00     0.282 C 
ATOM     14  C   UNL     1     166.097 165.137 147.716  1.00  0.00     0.202 C 
ATOM     15  O   UNL     1     164.495 164.547 149.468  1.00  0.00    -0.341 OA
ATOM     16  C   UNL     1     165.595 166.587 147.739  1.00  0.00     0.179 C 
ATOM     17  C   UNL     1     164.065 165.892 149.605  1.00  0.00     0.178 C 
ATOM     18  C   UNL     1     164.147 166.639 148.257  1.00  0.00     0.177 C 
BRANCH  14  19
ATOM     19  O   UNL     1     165.425 164.424 146.708  1.00  0.00    -0.385 OA
ATOM     20  H   UNL     1     165.743 164.785 145.839  1.00  0.00     0.211 HD
ENDBRANCH  14  19
BRANCH  16  21
ATOM     21  O   UNL     1     165.672 167.128 146.445  1.00  0.00    -0.387 OA
ATOM     22  H   UNL     1     166.003 168.059 146.539  1.00  0.00     0.211 HD
ENDBRANCH  16  21
BRANCH  17  23
ATOM     23  C   UNL     1     162.627 165.889 150.145  1.00  0.00     0.191 C 
BRANCH  23  24
ATOM     24  O   UNL     1     161.742 166.383 149.176  1.00  0.00    -0.394 OA
ATOM     25  H   UNL     1     161.938 167.350 149.075  1.00  0.00     0.210 HD
ENDBRANCH  23  24
ENDBRANCH  17  23
BRANCH  18  26
ATOM     26  O   UNL     1     163.758 167.978 148.434  1.00  0.00    -0.387 OA
ATOM     27  H   UNL     1     163.038 167.981 149.117  1.00  0.00     0.211 HD
ENDBRANCH  18  26
ENDBRANCH  12  13
ENDBRANCH   7  12
BRANCH   4  28
ATOM     28  O   UNL     1     171.099 161.947 151.280  1.00  0.00    -0.365 OA
ATOM     29  H   UNL     1     170.965 161.196 151.915  1.00  0.00     0.214 HD
ENDBRANCH   4  28
BRANCH   8  30
ATOM     30  C   UNL     1     166.630 163.312 152.451  1.00  0.00     0.249 C 
BRANCH  30  31
ATOM     31  O   UNL     1     167.036 162.679 153.665  1.00  0.00    -0.461 OA
BRANCH  31  32
ATOM     32  C   UNL     1     167.087 163.323 154.906  1.00  0.00     0.338 C 
ATOM     33  O   UNL     1     167.123 164.583 154.969  1.00  0.00    -0.246 OA
BRANCH  32  34
ATOM     34  C   UNL     1     167.078 162.519 156.148  1.00  0.00     0.060 A 
ATOM     35  C   UNL     1     166.694 161.165 156.124  1.00  0.00     0.015 A 
ATOM     36  C   UNL     1     167.445 163.103 157.374  1.00  0.00     0.015 A 
ATOM     37  C   UNL     1     166.684 160.413 157.304  1.00  0.00     0.001 A 
ATOM     38  C   UNL     1     167.432 162.347 158.550  1.00  0.00     0.001 A 
ATOM     39  C   UNL     1     167.052 161.003 158.515  1.00  0.00     0.000 A 
ENDBRANCH  32  34
ENDBRANCH  31  32
ENDBRANCH  30  31
ENDBRANCH   8  30
TORSDOF 12
ENDMDL
MODEL 2
REMARK VINA RESULT:     6.918      1.911      2.685
REMARK INTER + INTRA:          13.444
REMARK INTER:                  10.460
REMARK INTRA:                   2.984
REMARK UNBOUND:                 2.683
REMARK SMILES C[C@]12C[C@]3(O)O[C@H](O1)[C@@]1(COC(=O)c4ccccc4)[C@@H]3C[C@]12O[C@H]1O[C@H](CO)[C@@H](O)[C@H](O)[C@@H]1O
REMARK SMILES IDX 1 1 2 2 3 3 4 4 20 5 21 6 22 7 9 8 7 9 8 10 6 11 23 12 24 13
REMARK SMILES IDX 33 14 25 15 31 16 26 17 29 18 34 19 32 21 27 23 28 24 30 26
REMARK SMILES IDX 5 28 10 30 11 31 12 32 13 33 14 34 15 35 19 36 16 37 18 38
REMARK SMILES IDX 17 39
REMARK H PARENT 34 20 32 22 28 25 30 27 5 29
REMARK Flexibility Score: inf
ROOT
ATOM      1  C   UNL     1     168.142 163.935 147.658  1.00  0.00     0.046 C 
ATOM      2  C   UNL     1     168.339 163.332 149.050  1.00  0.00     0.104 C 
ATOM      3  C   UNL     1     169.814 162.822 149.243  1.00  0.00     0.104 C 
ATOM      4  C   UNL     1     169.835 162.335 150.733  1.00  0.00     0.175 C 
ATOM      5  C   UNL     1     169.230 163.425 151.670  1.00  0.00     0.070 C 
ATOM      6  C   UNL     1     169.171 164.820 151.017  1.00  0.00     0.050 C 
ATOM      7  C   UNL     1     167.938 164.289 150.237  1.00  0.00     0.115 C 
ATOM      8  C   UNL     1     167.759 163.221 151.317  1.00  0.00     0.096 C 
ATOM      9  C   UNL     1     167.667 161.885 150.599  1.00  0.00     0.267 C 
ATOM     10  O   UNL     1     167.518 162.194 149.222  1.00  0.00    -0.342 OA
ATOM     11  O   UNL     1     168.922 161.256 150.805  1.00  0.00    -0.320 OA
ENDROOT
BRANCH   7  12
ATOM     12  O   UNL     1     166.769 165.072 149.975  1.00  0.00    -0.339 OA
BRANCH  12  13
ATOM     13  C   UNL     1     165.900 164.544 148.983  1.00  0.00     0.282 C 
ATOM     14  C   UNL     1     166.097 165.300 147.653  1.00  0.00     0.202 C 
ATOM     15  O   UNL     1     164.540 164.573 149.395  1.00  0.00    -0.341 OA
ATOM     16  C   UNL     1     165.557 166.732 147.763  1.00  0.00     0.179 C 
ATOM     17  C   UNL     1     164.077 165.896 149.611  1.00  0.00     0.178 C 
ATOM     18  C   UNL     1     164.117 166.717 148.305  1.00  0.00     0.177 C 
BRANCH  14  19
ATOM     19  O   UNL     1     165.427 164.624 146.618  1.00  0.00    -0.385 OA
ATOM     20  H   UNL     1     164.566 165.099 146.474  1.00  0.00     0.211 HD
ENDBRANCH  14  19
BRANCH  16  21
ATOM     21  O   UNL     1     165.598 167.345 146.499  1.00  0.00    -0.387 OA
ATOM     22  H   UNL     1     166.311 168.035 146.534  1.00  0.00     0.211 HD
ENDBRANCH  16  21
BRANCH  17  23
ATOM     23  C   UNL     1     162.649 165.824 150.172  1.00  0.00     0.191 C 
BRANCH  23  24
ATOM     24  O   UNL     1     161.740 166.390 149.265  1.00  0.00    -0.394 OA
ATOM     25  H   UNL     1     161.997 167.342 149.157  1.00  0.00     0.210 HD
ENDBRANCH  23  24
ENDBRANCH  17  23
BRANCH  18  26
ATOM     26  O   UNL     1     163.696 168.033 148.560  1.00  0.00    -0.387 OA
ATOM     27  H   UNL     1     162.870 168.180 148.031  1.00  0.00     0.211 HD
ENDBRANCH  18  26
ENDBRANCH  12  13
ENDBRANCH   7  12
BRANCH   4  28
ATOM     28  O   UNL     1     171.118 161.952 151.153  1.00  0.00    -0.365 OA
ATOM     29  H   UNL     1     171.469 162.696 151.708  1.00  0.00     0.214 HD
ENDBRANCH   4  28
BRANCH   8  30
ATOM     30  C   UNL     1     166.735 163.477 152.445  1.00  0.00     0.249 C 
BRANCH  30  31
ATOM     31  O   UNL     1     167.025 164.703 153.118  1.00  0.00    -0.461 OA
BRANCH  31  32
ATOM     32  C   UNL     1     167.079 164.839 154.510  1.00  0.00     0.338 C 
ATOM     33  O   UNL     1     167.216 163.823 155.245  1.00  0.00    -0.246 OA
BRANCH  32  34
ATOM     34  C   UNL     1     166.994 166.186 155.116  1.00  0.00     0.060 A 
ATOM     35  C   UNL     1     167.436 167.321 154.411  1.00  0.00     0.015 A 
ATOM     36  C   UNL     1     166.476 166.348 156.414  1.00  0.00     0.015 A 
ATOM     37  C   UNL     1     167.357 168.590 154.994  1.00  0.00     0.001 A 
ATOM     38  C   UNL     1     166.399 167.619 156.992  1.00  0.00     0.001 A 
ATOM     39  C   UNL     1     166.839 168.739 156.282  1.00  0.00     0.000 A 
ENDBRANCH  32  34
ENDBRANCH  31  32
ENDBRANCH  30  31
ENDBRANCH   8  30
TORSDOF 12
ENDMDL
MODEL 3
REMARK VINA RESULT:     9.687      1.938      7.398
REMARK INTER + INTRA:          17.751
REMARK INTER:                  16.363
REMARK INTRA:                   1.388
REMARK UNBOUND:                 2.683
REMARK SMILES C[C@]12C[C@]3(O)O[C@H](O1)[C@@]1(COC(=O)c4ccccc4)[C@@H]3C[C@]12O[C@H]1O[C@H](CO)[C@@H](O)[C@H](O)[C@@H]1O
REMARK SMILES IDX 1 1 2 2 3 3 4 4 20 5 21 6 22 7 9 8 7 9 8 10 6 11 23 12 24 13
REMARK SMILES IDX 33 14 25 15 31 16 26 17 29 18 34 19 32 21 27 23 28 24 30 26
REMARK SMILES IDX 5 28 10 30 11 31 12 32 13 33 14 34 15 35 19 36 16 37 18 38
REMARK SMILES IDX 17 39
REMARK H PARENT 34 20 32 22 28 25 30 27 5 29
REMARK Flexibility Score: inf
ROOT
ATOM      1  C   UNL     1     170.529 162.884 152.104  1.00  0.00     0.046 C 
ATOM      2  C   UNL     1     169.437 163.013 151.042  1.00  0.00     0.104 C 
ATOM      3  C   UNL     1     169.347 161.714 150.159  1.00  0.00     0.104 C 
ATOM      4  C   UNL     1     168.133 162.005 149.211  1.00  0.00     0.175 C 
ATOM      5  C   UNL     1     166.907 162.505 150.037  1.00  0.00     0.070 C 
ATOM      6  C   UNL     1     167.020 162.186 151.541  1.00  0.00     0.050 C 
ATOM      7  C   UNL     1     168.013 163.377 151.613  1.00  0.00     0.115 C 
ATOM      8  C   UNL     1     167.401 163.921 150.321  1.00  0.00     0.096 C 
ATOM      9  C   UNL     1     168.554 164.178 149.366  1.00  0.00     0.267 C 
ATOM     10  O   UNL     1     169.735 164.063 150.144  1.00  0.00    -0.342 OA
ATOM     11  O   UNL     1     168.510 163.119 148.423  1.00  0.00    -0.320 OA
ENDROOT
BRANCH   7  12
ATOM     12  O   UNL     1     168.049 164.313 152.694  1.00  0.00    -0.339 OA
BRANCH  12  13
ATOM     13  C   UNL     1     166.788 164.615 153.274  1.00  0.00     0.282 C 
ATOM     14  C   UNL     1     166.925 165.805 154.245  1.00  0.00     0.202 C 
ATOM     15  O   UNL     1     166.214 163.487 153.921  1.00  0.00    -0.341 OA
ATOM     16  C   UNL     1     167.715 165.392 155.495  1.00  0.00     0.179 C 
ATOM     17  C   UNL     1     167.008 163.033 155.005  1.00  0.00     0.178 C 
ATOM     18  C   UNL     1     167.115 164.112 156.103  1.00  0.00     0.177 C 
BRANCH  14  19
ATOM     19  O   UNL     1     165.650 166.260 154.625  1.00  0.00    -0.385 OA
ATOM     20  H   UNL     1     165.123 166.369 153.790  1.00  0.00     0.211 HD
ENDBRANCH  14  19
BRANCH  16  21
ATOM     21  O   UNL     1     167.686 166.439 156.432  1.00  0.00    -0.387 OA
ATOM     22  H   UNL     1     168.359 166.222 157.129  1.00  0.00     0.211 HD
ENDBRANCH  16  21
BRANCH  17  23
ATOM     23  C   UNL     1     166.381 161.745 155.559  1.00  0.00     0.191 C 
BRANCH  23  24
ATOM     24  O   UNL     1     166.390 161.763 156.961  1.00  0.00    -0.394 OA
ATOM     25  H   UNL     1     166.250 160.827 157.261  1.00  0.00     0.210 HD
ENDBRANCH  23  24
ENDBRANCH  17  23
BRANCH  18  26
ATOM     26  O   UNL     1     167.942 163.650 157.140  1.00  0.00    -0.387 OA
ATOM     27  H   UNL     1     167.365 163.528 157.938  1.00  0.00     0.211 HD
ENDBRANCH  18  26
ENDBRANCH  12  13
ENDBRANCH   7  12
BRANCH   4  28
ATOM     28  O   UNL     1     167.799 160.900 148.415  1.00  0.00    -0.365 OA
ATOM     29  H   UNL     1     166.912 160.583 148.726  1.00  0.00     0.214 HD
ENDBRANCH   4  28
BRANCH   8  30
ATOM     30  C   UNL     1     166.321 165.022 150.422  1.00  0.00     0.249 C 
BRANCH  30  31
ATOM     31  O   UNL     1     165.410 164.935 149.326  1.00  0.00    -0.461 OA
BRANCH  31  32
ATOM     32  C   UNL     1     165.672 165.439 148.047  1.00  0.00     0.338 C 
ATOM     33  O   UNL     1     166.039 164.665 147.120  1.00  0.00    -0.246 OA
BRANCH  32  34
ATOM     34  C   UNL     1     165.498 166.883 147.780  1.00  0.00     0.060 A 
ATOM     35  C   UNL     1     165.073 167.335 146.517  1.00  0.00     0.015 A 
ATOM     36  C   UNL     1     165.765 167.827 148.788  1.00  0.00     0.015 A 
ATOM     37  C   UNL     1     164.915 168.703 146.272  1.00  0.00     0.001 A 
ATOM     38  C   UNL     1     165.606 169.193 148.538  1.00  0.00     0.001 A 
ATOM     39  C   UNL     1     165.181 169.631 147.281  1.00  0.00     0.000 A 
ENDBRANCH  32  34
ENDBRANCH  31  32
ENDBRANCH  30  31
ENDBRANCH   8  30
TORSDOF 12
ENDMDL
