MODEL 1
REMARK VINA RESULT:    -4.146      0.000      0.000
REMARK INTER + INTRA:          -6.142
REMARK INTER:                  -6.327
REMARK INTRA:                   0.185
REMARK UNBOUND:                 0.185
REMARK SMILES CC1=CCC[C@@H](C)C(=O)C[C@H](C(C)C)C(=O)C1
REMARK SMILES IDX 8 1 9 2 6 3 7 4 5 5 4 6 3 7 2 8 1 9 10 11 11 12 15 13 16 14
REMARK SMILES IDX 17 15 12 17 13 18 14 19
REMARK H PARENT
REMARK Flexibility Score: 70.00
ROOT
ATOM      1  C   UNL     1     -25.226   2.690  -2.911  1.00  0.00     0.136 C 
ATOM      2  O   UNL     1     -25.914   3.657  -3.213  1.00  0.00    -0.299 OA
ENDROOT
BRANCH   1   3
ATOM      3  C   UNL     1     -25.457   1.360  -3.603  1.00  0.00     0.053 C 
ATOM      4  C   UNL     1     -26.648   0.624  -2.970  1.00  0.00     0.016 C 
BRANCH   3   5
ATOM      5  C   UNL     1     -24.177   0.498  -3.542  1.00  0.00     0.015 C 
BRANCH   5   6
ATOM      6  C   UNL     1     -24.339  -0.719  -2.608  1.00  0.00     0.028 C 
BRANCH   6   7
ATOM      7  C   UNL     1     -23.383  -0.649  -1.444  1.00  0.00    -0.028 C 
ATOM      8  C   UNL     1     -23.644  -0.053  -0.257  1.00  0.00    -0.070 CG0
ATOM      9  C   UNL     1     -22.590  -0.134   0.819  1.00  0.00     0.039 C 
ATOM     10  G   UNL     1     -24.942   0.676   0.045  1.00  0.00     0.000 G0
ENDBRANCH   6   7
ENDBRANCH   5   6
ENDBRANCH   3   5
ENDBRANCH   1   3
BRANCH   1  11
ATOM     11  C   UNL     1     -24.159   2.847  -1.853  1.00  0.00     0.087 C 
BRANCH  11  12
ATOM     12  C   UNL     1     -24.744   3.261  -0.478  1.00  0.00     0.066 C 
BRANCH  12  13
ATOM     13  C   UNL     1     -24.717   2.091   0.500  1.00  0.00     0.140 C 
ATOM     14  O   UNL     1     -24.447   2.312   1.672  1.00  0.00    -0.299 OA
BRANCH  13  15
ATOM     15  C   UNL     1     -24.941   0.665   0.051  1.00  0.00     0.106 CG0
ATOM     16  G   UNL     1     -23.639  -0.048  -0.275  1.00  0.00     0.000 G0
ENDBRANCH  13  15
ENDBRANCH  12  13
BRANCH  12  17
ATOM     17  C   UNL     1     -24.054   4.528   0.124  1.00  0.00    -0.006 C 
ATOM     18  C   UNL     1     -22.566   4.623  -0.260  1.00  0.00     0.008 C 
ATOM     19  C   UNL     1     -24.765   5.816  -0.333  1.00  0.00     0.008 C 
ENDBRANCH  12  17
ENDBRANCH  11  12
ENDBRANCH   1  11
TORSDOF 1
ENDMDL
MODEL 2
REMARK VINA RESULT:    -4.128      1.754      5.050
REMARK INTER + INTRA:          -6.115
REMARK INTER:                  -6.114
REMARK INTRA:                  -0.001
REMARK UNBOUND:                 0.185
REMARK SMILES CC1=CCC[C@@H](C)C(=O)C[C@H](C(C)C)C(=O)C1
REMARK SMILES IDX 8 1 9 2 6 3 7 4 5 5 4 6 3 7 2 8 1 9 10 11 11 12 15 13 16 14
REMARK SMILES IDX 17 15 12 17 13 18 14 19
REMARK H PARENT
REMARK Flexibility Score: 70.00
ROOT
ATOM      1  C   UNL     1     -24.884   0.374  -0.206  1.00  0.00     0.136 C 
ATOM      2  O   UNL     1     -25.927   0.049   0.347  1.00  0.00    -0.299 OA
ENDROOT
BRANCH   1   3
ATOM      3  C   UNL     1     -23.692   0.795   0.631  1.00  0.00     0.053 C 
ATOM      4  C   UNL     1     -23.205  -0.374   1.501  1.00  0.00     0.016 C 
BRANCH   3   5
ATOM      5  C   UNL     1     -24.055   2.018   1.501  1.00  0.00     0.015 C 
BRANCH   5   6
ATOM      6  C   UNL     1     -23.379   3.310   1.001  1.00  0.00     0.028 C 
BRANCH   6   7
ATOM      7  C   UNL     1     -24.380   4.247   0.374  1.00  0.00    -0.028 C 
ATOM      8  C   UNL     1     -24.755   4.230  -0.926  1.00  0.00    -0.070 CG0
ATOM      9  C   UNL     1     -25.818   5.205  -1.366  1.00  0.00     0.039 C 
ATOM     10  G   UNL     1     -24.170   3.274  -1.952  1.00  0.00     0.000 G0
ENDBRANCH   6   7
ENDBRANCH   5   6
ENDBRANCH   3   5
ENDBRANCH   1   3
BRANCH   1  11
ATOM     11  C   UNL     1     -24.810   0.346  -1.714  1.00  0.00     0.087 C 
BRANCH  11  12
ATOM     12  C   UNL     1     -25.856   1.279  -2.376  1.00  0.00     0.066 C 
BRANCH  12  13
ATOM     13  C   UNL     1     -25.219   2.599  -2.798  1.00  0.00     0.140 C 
ATOM     14  O   UNL     1     -25.543   3.092  -3.869  1.00  0.00    -0.299 OA
BRANCH  13  15
ATOM     15  C   UNL     1     -24.152   3.275  -1.967  1.00  0.00     0.106 CG0
ATOM     16  G   UNL     1     -24.740   4.226  -0.937  1.00  0.00     0.000 G0
ENDBRANCH  13  15
ENDBRANCH  12  13
BRANCH  12  17
ATOM     17  C   UNL     1     -26.613   0.603  -3.566  1.00  0.00    -0.006 C 
ATOM     18  C   UNL     1     -25.745  -0.435  -4.299  1.00  0.00     0.008 C 
ATOM     19  C   UNL     1     -27.903  -0.087  -3.080  1.00  0.00     0.008 C 
ENDBRANCH  12  17
ENDBRANCH  11  12
ENDBRANCH   1  11
TORSDOF 1
ENDMDL
MODEL 3
REMARK VINA RESULT:    -3.961      1.476      3.740
REMARK INTER + INTRA:          -5.860
REMARK INTER:                  -5.665
REMARK INTRA:                  -0.195
REMARK UNBOUND:                 0.185
REMARK SMILES CC1=CCC[C@@H](C)C(=O)C[C@H](C(C)C)C(=O)C1
REMARK SMILES IDX 8 1 9 2 6 3 7 4 5 5 4 6 3 7 2 8 1 9 10 11 11 12 15 13 16 14
REMARK SMILES IDX 17 15 12 17 13 18 14 19
REMARK H PARENT
REMARK Flexibility Score: 70.00
ROOT
ATOM      1  C   UNL     1     -23.709   2.570   1.248  1.00  0.00     0.136 C 
ATOM      2  O   UNL     1     -23.623   3.247   2.263  1.00  0.00    -0.299 OA
ENDROOT
BRANCH   1   3
ATOM      3  C   UNL     1     -22.774   1.392   1.052  1.00  0.00     0.053 C 
ATOM      4  C   UNL     1     -21.612   1.776   0.123  1.00  0.00     0.016 C 
BRANCH   3   5
ATOM      5  C   UNL     1     -23.552   0.180   0.493  1.00  0.00     0.015 C 
BRANCH   5   6
ATOM      6  C   UNL     1     -23.250  -0.069  -0.998  1.00  0.00     0.028 C 
BRANCH   6   7
ATOM      7  C   UNL     1     -24.517  -0.269  -1.790  1.00  0.00    -0.028 C 
ATOM      8  C   UNL     1     -24.983   0.575  -2.741  1.00  0.00    -0.070 CG0
ATOM      9  C   UNL     1     -26.240   0.183  -3.477  1.00  0.00     0.039 C 
ATOM     10  G   UNL     1     -24.298   1.881  -3.108  1.00  0.00     0.000 G0
ENDBRANCH   6   7
ENDBRANCH   5   6
ENDBRANCH   3   5
ENDBRANCH   1   3
BRANCH   1  11
ATOM     11  C   UNL     1     -24.750   2.923   0.212  1.00  0.00     0.087 C 
BRANCH  11  12
ATOM     12  C   UNL     1     -24.130   3.568  -1.055  1.00  0.00     0.066 C 
BRANCH  12  13
ATOM     13  C   UNL     1     -24.828   3.071  -2.316  1.00  0.00     0.140 C 
ATOM     14  O   UNL     1     -25.874   3.604  -2.657  1.00  0.00    -0.299 OA
BRANCH  13  15
ATOM     15  C   UNL     1     -24.303   1.897  -3.113  1.00  0.00     0.106 CG0
ATOM     16  G   UNL     1     -24.995   0.595  -2.742  1.00  0.00     0.000 G0
ENDBRANCH  13  15
ENDBRANCH  12  13
BRANCH  12  17
ATOM     17  C   UNL     1     -24.102   5.130  -0.993  1.00  0.00    -0.006 C 
ATOM     18  C   UNL     1     -25.231   5.703  -0.118  1.00  0.00     0.008 C 
ATOM     19  C   UNL     1     -22.752   5.639  -0.452  1.00  0.00     0.008 C 
ENDBRANCH  12  17
ENDBRANCH  11  12
ENDBRANCH   1  11
TORSDOF 1
ENDMDL
MODEL 4
REMARK VINA RESULT:    -3.922      2.769      4.572
REMARK INTER + INTRA:          -5.800
REMARK INTER:                  -5.690
REMARK INTRA:                  -0.110
REMARK UNBOUND:                 0.185
REMARK SMILES CC1=CCC[C@@H](C)C(=O)C[C@H](C(C)C)C(=O)C1
REMARK SMILES IDX 8 1 9 2 6 3 7 4 5 5 4 6 3 7 2 8 1 9 10 11 11 12 15 13 16 14
REMARK SMILES IDX 17 15 12 17 13 18 14 19
REMARK H PARENT
REMARK Flexibility Score: 70.00
ROOT
ATOM      1  C   UNL     1     -25.209  -1.562  -2.845  1.00  0.00     0.136 C 
ATOM      2  O   UNL     1     -24.064  -1.911  -3.102  1.00  0.00    -0.299 OA
ENDROOT
BRANCH   1   3
ATOM      3  C   UNL     1     -26.376  -2.309  -3.461  1.00  0.00     0.053 C 
ATOM      4  C   UNL     1     -26.231  -3.820  -3.229  1.00  0.00     0.016 C 
BRANCH   3   5
ATOM      5  C   UNL     1     -26.479  -1.988  -4.969  1.00  0.00     0.015 C 
BRANCH   5   6
ATOM      6  C   UNL     1     -26.900  -0.527  -5.226  1.00  0.00     0.028 C 
BRANCH   6   7
ATOM      7  C   UNL     1     -25.749   0.291  -5.754  1.00  0.00    -0.028 C 
ATOM      8  C   UNL     1     -25.176   1.335  -5.111  1.00  0.00    -0.070 CG0
ATOM      9  C   UNL     1     -23.991   2.001  -5.764  1.00  0.00     0.039 C 
ATOM     10  G   UNL     1     -25.659   1.856  -3.767  1.00  0.00     0.000 G0
ENDBRANCH   6   7
ENDBRANCH   5   6
ENDBRANCH   3   5
ENDBRANCH   1   3
BRANCH   1  11
ATOM     11  C   UNL     1     -25.432  -0.392  -1.917  1.00  0.00     0.087 C 
BRANCH  11  12
ATOM     12  C   UNL     1     -24.241   0.601  -1.917  1.00  0.00     0.066 C 
BRANCH  12  13
ATOM     13  C   UNL     1     -24.581   1.859  -2.710  1.00  0.00     0.140 C 
ATOM     14  O   UNL     1     -24.003   2.901  -2.435  1.00  0.00    -0.299 OA
BRANCH  13  15
ATOM     15  C   UNL     1     -25.657   1.871  -3.773  1.00  0.00     0.106 CG0
ATOM     16  G   UNL     1     -25.155   1.342  -5.106  1.00  0.00     0.000 G0
ENDBRANCH  13  15
ENDBRANCH  12  13
BRANCH  12  17
ATOM     17  C   UNL     1     -23.734   0.950  -0.480  1.00  0.00    -0.006 C 
ATOM     18  C   UNL     1     -24.890   1.191   0.507  1.00  0.00     0.008 C 
ATOM     19  C   UNL     1     -22.836  -0.172   0.077  1.00  0.00     0.008 C 
ENDBRANCH  12  17
ENDBRANCH  11  12
ENDBRANCH   1  11
TORSDOF 1
ENDMDL
MODEL 5
REMARK VINA RESULT:    -3.912      2.014      3.909
REMARK INTER + INTRA:          -5.785
REMARK INTER:                  -6.250
REMARK INTRA:                   0.465
REMARK UNBOUND:                 0.185
REMARK SMILES CC1=CCC[C@@H](C)C(=O)C[C@H](C(C)C)C(=O)C1
REMARK SMILES IDX 8 1 9 2 6 3 7 4 5 5 4 6 3 7 2 8 1 9 10 11 11 12 15 13 16 14
REMARK SMILES IDX 17 15 12 17 13 18 14 19
REMARK H PARENT
REMARK Flexibility Score: 70.00
ROOT
ATOM      1  C   UNL     1     -25.122   0.124  -1.721  1.00  0.00     0.136 C 
ATOM      2  O   UNL     1     -24.266  -0.644  -2.141  1.00  0.00    -0.299 OA
ENDROOT
BRANCH   1   3
ATOM      3  C   UNL     1     -26.290   0.504  -2.610  1.00  0.00     0.053 C 
ATOM      4  C   UNL     1     -26.868  -0.740  -3.301  1.00  0.00     0.016 C 
BRANCH   3   5
ATOM      5  C   UNL     1     -25.848   1.559  -3.649  1.00  0.00     0.015 C 
BRANCH   5   6
ATOM      6  C   UNL     1     -24.834   2.562  -3.065  1.00  0.00     0.028 C 
BRANCH   6   7
ATOM      7  C   UNL     1     -25.521   3.800  -2.548  1.00  0.00    -0.028 C 
ATOM      8  C   UNL     1     -25.107   4.537  -1.492  1.00  0.00    -0.070 CG0
ATOM      9  C   UNL     1     -25.885   5.785  -1.153  1.00  0.00     0.039 C 
ATOM     10  G   UNL     1     -23.897   4.179  -0.644  1.00  0.00     0.000 G0
ENDBRANCH   6   7
ENDBRANCH   5   6
ENDBRANCH   3   5
ENDBRANCH   1   3
BRANCH   1  11
ATOM     11  C   UNL     1     -24.995   0.674  -0.319  1.00  0.00     0.087 C 
BRANCH  11  12
ATOM     12  C   UNL     1     -23.741   1.569  -0.146  1.00  0.00     0.066 C 
BRANCH  12  13
ATOM     13  C   UNL     1     -24.134   2.984   0.264  1.00  0.00     0.140 C 
ATOM     14  O   UNL     1     -24.721   3.146   1.324  1.00  0.00    -0.299 OA
BRANCH  13  15
ATOM     15  C   UNL     1     -23.886   4.177  -0.631  1.00  0.00     0.106 CG0
ATOM     16  G   UNL     1     -25.099   4.523  -1.479  1.00  0.00     0.000 G0
ENDBRANCH  13  15
ENDBRANCH  12  13
BRANCH  12  17
ATOM     17  C   UNL     1     -22.686   0.961   0.834  1.00  0.00    -0.006 C 
ATOM     18  C   UNL     1     -22.609  -0.573   0.736  1.00  0.00     0.008 C 
ATOM     19  C   UNL     1     -21.284   1.543   0.569  1.00  0.00     0.008 C 
ENDBRANCH  12  17
ENDBRANCH  11  12
ENDBRANCH   1  11
TORSDOF 1
ENDMDL
MODEL 6
REMARK VINA RESULT:    -3.897      3.353      5.910
REMARK INTER + INTRA:          -5.762
REMARK INTER:                  -5.467
REMARK INTRA:                  -0.294
REMARK UNBOUND:                 0.185
REMARK SMILES CC1=CCC[C@@H](C)C(=O)C[C@H](C(C)C)C(=O)C1
REMARK SMILES IDX 8 1 9 2 6 3 7 4 5 5 4 6 3 7 2 8 1 9 10 11 11 12 15 13 16 14
REMARK SMILES IDX 17 15 12 17 13 18 14 19
REMARK H PARENT
REMARK Flexibility Score: 70.00
ROOT
ATOM      1  C   UNL     1     -20.725   2.607   0.411  1.00  0.00     0.136 C 
ATOM      2  O   UNL     1     -20.599   1.393   0.503  1.00  0.00    -0.299 OA
ENDROOT
BRANCH   1   3
ATOM      3  C   UNL     1     -19.635   3.516   0.947  1.00  0.00     0.053 C 
ATOM      4  C   UNL     1     -18.345   3.346   0.132  1.00  0.00     0.016 C 
BRANCH   3   5
ATOM      5  C   UNL     1     -19.387   3.227   2.444  1.00  0.00     0.015 C 
BRANCH   5   6
ATOM      6  C   UNL     1     -20.596   3.612   3.320  1.00  0.00     0.028 C 
BRANCH   6   7
ATOM      7  C   UNL     1     -21.037   5.029   3.056  1.00  0.00    -0.028 C 
ATOM      8  C   UNL     1     -22.307   5.413   2.792  1.00  0.00    -0.070 CG0
ATOM      9  C   UNL     1     -22.576   6.887   2.614  1.00  0.00     0.039 C 
ATOM     10  G   UNL     1     -23.470   4.440   2.681  1.00  0.00     0.000 G0
ENDBRANCH   6   7
ENDBRANCH   5   6
ENDBRANCH   3   5
ENDBRANCH   1   3
BRANCH   1  11
ATOM     11  C   UNL     1     -21.967   3.172  -0.237  1.00  0.00     0.087 C 
BRANCH  11  12
ATOM     12  C   UNL     1     -23.255   2.839   0.560  1.00  0.00     0.066 C 
BRANCH  12  13
ATOM     13  C   UNL     1     -23.818   4.087   1.231  1.00  0.00     0.140 C 
ATOM     14  O   UNL     1     -24.501   4.854   0.567  1.00  0.00    -0.299 OA
BRANCH  13  15
ATOM     15  C   UNL     1     -23.497   4.440   2.666  1.00  0.00     0.106 CG0
ATOM     16  G   UNL     1     -22.321   5.396   2.775  1.00  0.00     0.000 G0
ENDBRANCH  13  15
ENDBRANCH  12  13
BRANCH  12  17
ATOM     17  C   UNL     1     -24.338   2.115  -0.304  1.00  0.00    -0.006 C 
ATOM     18  C   UNL     1     -23.771   1.587  -1.634  1.00  0.00     0.008 C 
ATOM     19  C   UNL     1     -24.965   0.938   0.467  1.00  0.00     0.008 C 
ENDBRANCH  12  17
ENDBRANCH  11  12
ENDBRANCH   1  11
TORSDOF 1
ENDMDL
MODEL 7
REMARK VINA RESULT:    -3.888      2.068      2.786
REMARK INTER + INTRA:          -5.748
REMARK INTER:                  -5.755
REMARK INTRA:                   0.007
REMARK UNBOUND:                 0.185
REMARK SMILES CC1=CCC[C@@H](C)C(=O)C[C@H](C(C)C)C(=O)C1
REMARK SMILES IDX 8 1 9 2 6 3 7 4 5 5 4 6 3 7 2 8 1 9 10 11 11 12 15 13 16 14
REMARK SMILES IDX 17 15 12 17 13 18 14 19
REMARK H PARENT
REMARK Flexibility Score: 70.00
ROOT
ATOM      1  C   UNL     1     -24.999   1.445  -2.284  1.00  0.00     0.136 C 
ATOM      2  O   UNL     1     -25.975   1.514  -3.020  1.00  0.00    -0.299 OA
ENDROOT
BRANCH   1   3
ATOM      3  C   UNL     1     -24.795   0.213  -1.424  1.00  0.00     0.053 C 
ATOM      4  C   UNL     1     -25.680   0.278  -0.171  1.00  0.00     0.016 C 
BRANCH   3   5
ATOM      5  C   UNL     1     -23.304   0.070  -1.042  1.00  0.00     0.015 C 
BRANCH   5   6
ATOM      6  C   UNL     1     -23.098   0.013   0.484  1.00  0.00     0.028 C 
BRANCH   6   7
ATOM      7  C   UNL     1     -21.817   0.695   0.892  1.00  0.00    -0.028 C 
ATOM      8  C   UNL     1     -21.700   2.004   1.214  1.00  0.00    -0.070 CG0
ATOM      9  C   UNL     1     -20.348   2.503   1.659  1.00  0.00     0.039 C 
ATOM     10  G   UNL     1     -22.860   2.985   1.161  1.00  0.00     0.000 G0
ENDBRANCH   6   7
ENDBRANCH   5   6
ENDBRANCH   3   5
ENDBRANCH   1   3
BRANCH   1  11
ATOM     11  C   UNL     1     -24.017   2.592  -2.253  1.00  0.00     0.087 C 
BRANCH  11  12
ATOM     12  C   UNL     1     -24.250   3.538  -1.046  1.00  0.00     0.066 C 
BRANCH  12  13
ATOM     13  C   UNL     1     -22.986   3.664  -0.202  1.00  0.00     0.140 C 
ATOM     14  O   UNL     1     -22.028   4.266  -0.665  1.00  0.00    -0.299 OA
BRANCH  13  15
ATOM     15  C   UNL     1     -22.859   3.006   1.154  1.00  0.00     0.106 CG0
ATOM     16  G   UNL     1     -21.705   2.019   1.210  1.00  0.00     0.000 G0
ENDBRANCH  13  15
ENDBRANCH  12  13
BRANCH  12  17
ATOM     17  C   UNL     1     -24.801   4.940  -1.465  1.00  0.00    -0.006 C 
ATOM     18  C   UNL     1     -26.233   4.864  -2.024  1.00  0.00     0.008 C 
ATOM     19  C   UNL     1     -24.787   5.918  -0.274  1.00  0.00     0.008 C 
ENDBRANCH  12  17
ENDBRANCH  11  12
ENDBRANCH   1  11
TORSDOF 1
ENDMDL
MODEL 8
REMARK VINA RESULT:    -3.635      3.689      5.981
REMARK INTER + INTRA:          -5.363
REMARK INTER:                  -5.067
REMARK INTRA:                  -0.296
REMARK UNBOUND:                 0.185
REMARK SMILES CC1=CCC[C@@H](C)C(=O)C[C@H](C(C)C)C(=O)C1
REMARK SMILES IDX 8 1 9 2 6 3 7 4 5 5 4 6 3 7 2 8 1 9 10 11 11 12 15 13 16 14
REMARK SMILES IDX 17 15 12 17 13 18 14 19
REMARK H PARENT
REMARK Flexibility Score: 70.00
ROOT
ATOM      1  C   UNL     1     -23.063   3.130   1.739  1.00  0.00     0.136 C 
ATOM      2  O   UNL     1     -22.108   2.459   1.368  1.00  0.00    -0.299 OA
ENDROOT
BRANCH   1   3
ATOM      3  C   UNL     1     -24.402   2.976   1.043  1.00  0.00     0.053 C 
ATOM      4  C   UNL     1     -24.752   1.490   0.872  1.00  0.00     0.016 C 
BRANCH   3   5
ATOM      5  C   UNL     1     -24.381   3.700  -0.321  1.00  0.00     0.015 C 
BRANCH   5   6
ATOM      6  C   UNL     1     -24.993   5.113  -0.240  1.00  0.00     0.028 C 
BRANCH   6   7
ATOM      7  C   UNL     1     -23.979   6.172  -0.588  1.00  0.00    -0.028 C 
ATOM      8  C   UNL     1     -23.317   6.942   0.308  1.00  0.00    -0.070 CG0
ATOM      9  C   UNL     1     -22.289   7.911  -0.219  1.00  0.00     0.039 C 
ATOM     10  G   UNL     1     -23.549   6.866   1.808  1.00  0.00     0.000 G0
ENDBRANCH   6   7
ENDBRANCH   5   6
ENDBRANCH   3   5
ENDBRANCH   1   3
BRANCH   1  11
ATOM     11  C   UNL     1     -22.884   4.096   2.886  1.00  0.00     0.087 C 
BRANCH  11  12
ATOM     12  C   UNL     1     -21.736   5.108   2.635  1.00  0.00     0.066 C 
BRANCH  12  13
ATOM     13  C   UNL     1     -22.273   6.533   2.565  1.00  0.00     0.140 C 
ATOM     14  O   UNL     1     -21.693   7.410   3.190  1.00  0.00    -0.299 OA
BRANCH  13  15
ATOM     15  C   UNL     1     -23.536   6.879   1.809  1.00  0.00     0.106 CG0
ATOM     16  G   UNL     1     -23.309   6.943   0.308  1.00  0.00     0.000 G0
ENDBRANCH  13  15
ENDBRANCH  12  13
BRANCH  12  17
ATOM     17  C   UNL     1     -20.573   4.983   3.672  1.00  0.00    -0.006 C 
ATOM     18  C   UNL     1     -21.043   4.390   5.012  1.00  0.00     0.008 C 
ATOM     19  C   UNL     1     -19.431   4.109   3.119  1.00  0.00     0.008 C 
ENDBRANCH  12  17
ENDBRANCH  11  12
ENDBRANCH   1  11
TORSDOF 1
ENDMDL
MODEL 9
REMARK VINA RESULT:    -3.617      2.873      5.832
REMARK INTER + INTRA:          -5.335
REMARK INTER:                  -5.158
REMARK INTRA:                  -0.177
REMARK UNBOUND:                 0.185
REMARK SMILES CC1=CCC[C@@H](C)C(=O)C[C@H](C(C)C)C(=O)C1
REMARK SMILES IDX 8 1 9 2 6 3 7 4 5 5 4 6 3 7 2 8 1 9 10 11 11 12 15 13 16 14
REMARK SMILES IDX 17 15 12 17 13 18 14 19
REMARK H PARENT
REMARK Flexibility Score: 70.00
ROOT
ATOM      1  C   UNL     1     -21.241   2.503   0.378  1.00  0.00     0.136 C 
ATOM      2  O   UNL     1     -20.845   1.349   0.475  1.00  0.00    -0.299 OA
ENDROOT
BRANCH   1   3
ATOM      3  C   UNL     1     -20.554   3.601   1.167  1.00  0.00     0.053 C 
ATOM      4  C   UNL     1     -19.045   3.331   1.263  1.00  0.00     0.016 C 
BRANCH   3   5
ATOM      5  C   UNL     1     -21.184   3.722   2.572  1.00  0.00     0.015 C 
BRANCH   5   6
ATOM      6  C   UNL     1     -21.825   5.105   2.806  1.00  0.00     0.028 C 
BRANCH   6   7
ATOM      7  C   UNL     1     -21.794   5.943   1.554  1.00  0.00    -0.028 C 
ATOM      8  C   UNL     1     -22.840   6.128   0.715  1.00  0.00    -0.070 CG0
ATOM      9  C   UNL     1     -22.646   7.053  -0.461  1.00  0.00     0.039 C 
ATOM     10  G   UNL     1     -24.194   5.465   0.907  1.00  0.00     0.000 G0
ENDBRANCH   6   7
ENDBRANCH   5   6
ENDBRANCH   3   5
ENDBRANCH   1   3
BRANCH   1  11
ATOM     11  C   UNL     1     -22.408   2.808  -0.532  1.00  0.00     0.087 C 
BRANCH  11  12
ATOM     12  C   UNL     1     -23.746   2.931   0.242  1.00  0.00     0.066 C 
BRANCH  12  13
ATOM     13  C   UNL     1     -24.401   4.284  -0.015  1.00  0.00     0.140 C 
ATOM     14  O   UNL     1     -25.064   4.432  -1.032  1.00  0.00    -0.299 OA
BRANCH  13  15
ATOM     15  C   UNL     1     -24.196   5.463   0.910  1.00  0.00     0.106 CG0
ATOM     16  G   UNL     1     -22.843   6.125   0.707  1.00  0.00     0.000 G0
ENDBRANCH  13  15
ENDBRANCH  12  13
BRANCH  12  17
ATOM     17  C   UNL     1     -24.731   1.753  -0.050  1.00  0.00    -0.006 C 
ATOM     18  C   UNL     1     -24.391   1.013  -1.356  1.00  0.00     0.008 C 
ATOM     19  C   UNL     1     -24.734   0.735   1.107  1.00  0.00     0.008 C 
ENDBRANCH  12  17
ENDBRANCH  11  12
ENDBRANCH   1  11
TORSDOF 1
ENDMDL
