MODEL 1
REMARK VINA RESULT:    -0.322      0.000      0.000
REMARK INTER + INTRA:          -1.683
REMARK INTER:                  -0.567
REMARK INTRA:                  -1.115
REMARK UNBOUND:                -1.115
REMARK SMILES CCCCCCCCCCCCCCC(=O)[O-]
REMARK SMILES IDX 9 1 10 2 11 3 12 4 13 5 14 6 15 7 16 8 17 9 8 10 7 11 6 12
REMARK SMILES IDX 5 13 4 14 3 15 2 16 1 17
REMARK H PARENT
REMARK Flexibility Score: inf
ROOT
ATOM      1  C   UNL     1      -4.283  35.144  21.058  1.00  0.00     0.000 C 
ENDROOT
BRANCH   1   2
ATOM      2  C   UNL     1      -5.390  35.722  20.159  1.00  0.00     0.000 C 
BRANCH   2   3
ATOM      3  C   UNL     1      -5.801  34.762  19.031  1.00  0.00     0.000 C 
BRANCH   3   4
ATOM      4  C   UNL     1      -4.617  34.351  18.143  1.00  0.00     0.000 C 
BRANCH   4   5
ATOM      5  C   UNL     1      -4.191  35.510  17.229  1.00  0.00     0.006 C 
BRANCH   5   6
ATOM      6  C   UNL     1      -3.220  35.056  16.130  1.00  0.00     0.053 C 
BRANCH   6   7
ATOM      7  C   UNL     1      -3.148  36.045  15.007  1.00  0.00     0.041 C 
ATOM      8  O   UNL     1      -2.122  36.102  14.279  1.00  0.00    -0.550 OA
ATOM      9  O   UNL     1      -4.226  36.880  14.745  1.00  0.00    -0.550 OA
ENDBRANCH   6   7
ENDBRANCH   5   6
ENDBRANCH   4   5
ENDBRANCH   3   4
ENDBRANCH   2   3
ENDBRANCH   1   2
BRANCH   1  10
ATOM     10  C   UNL     1      -4.856  34.299  22.215  1.00  0.00     0.000 C 
BRANCH  10  11
ATOM     11  C   UNL     1      -6.125  34.897  22.846  1.00  0.00    -0.000 C 
BRANCH  11  12
ATOM     12  C   UNL     1      -5.977  35.157  24.354  1.00  0.00    -0.000 C 
BRANCH  12  13
ATOM     13  C   UNL     1      -5.689  36.633  24.674  1.00  0.00    -0.000 C 
BRANCH  13  14
ATOM     14  C   UNL     1      -5.833  37.544  23.445  1.00  0.00    -0.000 C 
BRANCH  14  15
ATOM     15  C   UNL     1      -5.403  38.978  23.774  1.00  0.00    -0.000 C 
BRANCH  15  16
ATOM     16  C   UNL     1      -5.019  39.743  22.502  1.00  0.00    -0.003 C 
ATOM     17  C   UNL     1      -5.657  39.115  21.266  1.00  0.00     0.004 C 
ENDBRANCH  15  16
ENDBRANCH  14  15
ENDBRANCH  13  14
ENDBRANCH  12  13
ENDBRANCH  11  12
ENDBRANCH  10  11
ENDBRANCH   1  10
TORSDOF 13
ENDMDL
MODEL 2
REMARK VINA RESULT:    -0.210      1.111      1.873
REMARK INTER + INTRA:          -1.486
REMARK INTER:                  -1.116
REMARK INTRA:                  -0.369
REMARK UNBOUND:                -1.115
REMARK SMILES CCCCCCCCCCCCCCC(=O)[O-]
REMARK SMILES IDX 9 1 10 2 11 3 12 4 13 5 14 6 15 7 16 8 17 9 8 10 7 11 6 12
REMARK SMILES IDX 5 13 4 14 3 15 2 16 1 17
REMARK H PARENT
REMARK Flexibility Score: inf
ROOT
ATOM      1  C   UNL     1      -5.125  36.996  20.717  1.00  0.00     0.000 C 
ENDROOT
BRANCH   1   2
ATOM      2  C   UNL     1      -5.127  36.491  19.263  1.00  0.00     0.000 C 
BRANCH   2   3
ATOM      3  C   UNL     1      -5.114  34.957  19.168  1.00  0.00     0.000 C 
BRANCH   3   4
ATOM      4  C   UNL     1      -4.394  34.449  17.909  1.00  0.00     0.000 C 
BRANCH   4   5
ATOM      5  C   UNL     1      -4.237  35.575  16.877  1.00  0.00     0.006 C 
BRANCH   5   6
ATOM      6  C   UNL     1      -2.989  35.390  16.002  1.00  0.00     0.053 C 
BRANCH   6   7
ATOM      7  C   UNL     1      -3.052  36.223  14.759  1.00  0.00     0.041 C 
ATOM      8  O   UNL     1      -2.134  36.149  13.900  1.00  0.00    -0.550 OA
ATOM      9  O   UNL     1      -4.140  37.056  14.534  1.00  0.00    -0.550 OA
ENDBRANCH   6   7
ENDBRANCH   5   6
ENDBRANCH   4   5
ENDBRANCH   3   4
ENDBRANCH   2   3
ENDBRANCH   1   2
BRANCH   1  10
ATOM     10  C   UNL     1      -5.978  36.104  21.644  1.00  0.00     0.000 C 
BRANCH  10  11
ATOM     11  C   UNL     1      -5.180  34.974  22.318  1.00  0.00    -0.000 C 
BRANCH  11  12
ATOM     12  C   UNL     1      -6.059  34.060  23.187  1.00  0.00    -0.000 C 
BRANCH  12  13
ATOM     13  C   UNL     1      -6.125  34.524  24.652  1.00  0.00    -0.000 C 
BRANCH  13  14
ATOM     14  C   UNL     1      -6.034  36.051  24.795  1.00  0.00    -0.000 C 
BRANCH  14  15
ATOM     15  C   UNL     1      -5.004  36.441  25.861  1.00  0.00    -0.000 C 
BRANCH  15  16
ATOM     16  C   UNL     1      -4.614  37.918  25.735  1.00  0.00    -0.003 C 
ATOM     17  C   UNL     1      -4.913  38.450  24.337  1.00  0.00     0.004 C 
ENDBRANCH  15  16
ENDBRANCH  14  15
ENDBRANCH  13  14
ENDBRANCH  12  13
ENDBRANCH  11  12
ENDBRANCH  10  11
ENDBRANCH   1  10
TORSDOF 13
ENDMDL
MODEL 3
REMARK VINA RESULT:    -0.011      2.793      7.018
REMARK INTER + INTRA:          -1.134
REMARK INTER:                  -0.549
REMARK INTRA:                  -0.586
REMARK UNBOUND:                -1.115
REMARK SMILES CCCCCCCCCCCCCCC(=O)[O-]
REMARK SMILES IDX 9 1 10 2 11 3 12 4 13 5 14 6 15 7 16 8 17 9 8 10 7 11 6 12
REMARK SMILES IDX 5 13 4 14 3 15 2 16 1 17
REMARK H PARENT
REMARK Flexibility Score: inf
ROOT
ATOM      1  C   UNL     1      -5.252  34.975  21.965  1.00  0.00     0.000 C 
ENDROOT
BRANCH   1   2
ATOM      2  C   UNL     1      -6.102  34.585  23.187  1.00  0.00     0.000 C 
BRANCH   2   3
ATOM      3  C   UNL     1      -5.657  35.299  24.472  1.00  0.00     0.000 C 
BRANCH   3   4
ATOM      4  C   UNL     1      -6.125  36.760  24.531  1.00  0.00     0.000 C 
BRANCH   4   5
ATOM      5  C   UNL     1      -4.950  37.721  24.295  1.00  0.00     0.006 C 
BRANCH   5   6
ATOM      6  C   UNL     1      -5.421  39.150  23.991  1.00  0.00     0.053 C 
BRANCH   6   7
ATOM      7  C   UNL     1      -5.434  39.430  22.520  1.00  0.00     0.041 C 
ATOM      8  O   UNL     1      -5.426  40.618  22.102  1.00  0.00    -0.550 OA
ATOM      9  O   UNL     1      -5.422  38.380  21.611  1.00  0.00    -0.550 OA
ENDBRANCH   6   7
ENDBRANCH   5   6
ENDBRANCH   4   5
ENDBRANCH   3   4
ENDBRANCH   2   3
ENDBRANCH   1   2
BRANCH   1  10
ATOM     10  C   UNL     1      -6.111  35.173  20.698  1.00  0.00     0.000 C 
BRANCH  10  11
ATOM     11  C   UNL     1      -5.300  35.602  19.463  1.00  0.00    -0.000 C 
BRANCH  11  12
ATOM     12  C   UNL     1      -5.156  34.479  18.424  1.00  0.00    -0.000 C 
BRANCH  12  13
ATOM     13  C   UNL     1      -3.910  34.650  17.539  1.00  0.00    -0.000 C 
BRANCH  13  14
ATOM     14  C   UNL     1      -4.036  35.826  16.558  1.00  0.00    -0.000 C 
BRANCH  14  15
ATOM     15  C   UNL     1      -3.123  35.626  15.343  1.00  0.00    -0.000 C 
BRANCH  15  16
ATOM     16  C   UNL     1      -3.726  36.270  14.089  1.00  0.00    -0.003 C 
ATOM     17  C   UNL     1      -3.947  37.766  14.290  1.00  0.00     0.004 C 
ENDBRANCH  15  16
ENDBRANCH  14  15
ENDBRANCH  13  14
ENDBRANCH  12  13
ENDBRANCH  11  12
ENDBRANCH  10  11
ENDBRANCH   1  10
TORSDOF 13
ENDMDL
MODEL 4
REMARK VINA RESULT:     0.186      4.300      7.857
REMARK INTER + INTRA:          -0.787
REMARK INTER:                   0.003
REMARK INTRA:                  -0.790
REMARK UNBOUND:                -1.115
REMARK SMILES CCCCCCCCCCCCCCC(=O)[O-]
REMARK SMILES IDX 9 1 10 2 11 3 12 4 13 5 14 6 15 7 16 8 17 9 8 10 7 11 6 12
REMARK SMILES IDX 5 13 4 14 3 15 2 16 1 17
REMARK H PARENT
REMARK Flexibility Score: inf
ROOT
ATOM      1  C   UNL     1      -5.206  35.975  20.916  1.00  0.00     0.000 C 
ENDROOT
BRANCH   1   2
ATOM      2  C   UNL     1      -4.188  34.983  21.509  1.00  0.00     0.000 C 
BRANCH   2   3
ATOM      3  C   UNL     1      -4.709  34.284  22.774  1.00  0.00     0.000 C 
BRANCH   3   4
ATOM      4  C   UNL     1      -6.125  34.735  23.160  1.00  0.00     0.000 C 
BRANCH   4   5
ATOM      5  C   UNL     1      -6.125  35.420  24.535  1.00  0.00     0.006 C 
BRANCH   5   6
ATOM      6  C   UNL     1      -5.480  36.812  24.489  1.00  0.00     0.053 C 
BRANCH   6   7
ATOM      7  C   UNL     1      -4.677  37.094  25.722  1.00  0.00     0.041 C 
ATOM      8  O   UNL     1      -3.971  36.187  26.238  1.00  0.00    -0.550 OA
ATOM      9  O   UNL     1      -4.681  38.365  26.281  1.00  0.00    -0.550 OA
ENDBRANCH   6   7
ENDBRANCH   5   6
ENDBRANCH   4   5
ENDBRANCH   3   4
ENDBRANCH   2   3
ENDBRANCH   1   2
BRANCH   1  10
ATOM     10  C   UNL     1      -5.015  36.164  19.396  1.00  0.00     0.000 C 
BRANCH  10  11
ATOM     11  C   UNL     1      -5.103  34.854  18.595  1.00  0.00    -0.000 C 
BRANCH  11  12
ATOM     12  C   UNL     1      -3.891  34.633  17.676  1.00  0.00    -0.000 C 
BRANCH  12  13
ATOM     13  C   UNL     1      -3.999  35.419  16.358  1.00  0.00    -0.000 C 
BRANCH  13  14
ATOM     14  C   UNL     1      -2.631  35.669  15.704  1.00  0.00    -0.000 C 
BRANCH  14  15
ATOM     15  C   UNL     1      -2.796  36.169  14.265  1.00  0.00    -0.000 C 
BRANCH  15  16
ATOM     16  C   UNL     1      -4.196  36.751  14.041  1.00  0.00    -0.003 C 
ATOM     17  C   UNL     1      -4.201  38.265  14.230  1.00  0.00     0.004 C 
ENDBRANCH  15  16
ENDBRANCH  14  15
ENDBRANCH  13  14
ENDBRANCH  12  13
ENDBRANCH  11  12
ENDBRANCH  10  11
ENDBRANCH   1  10
TORSDOF 13
ENDMDL
MODEL 5
REMARK VINA RESULT:     0.446      3.853      7.500
REMARK INTER + INTRA:          -0.330
REMARK INTER:                  -0.820
REMARK INTRA:                   0.489
REMARK UNBOUND:                -1.115
REMARK SMILES CCCCCCCCCCCCCCC(=O)[O-]
REMARK SMILES IDX 9 1 10 2 11 3 12 4 13 5 14 6 15 7 16 8 17 9 8 10 7 11 6 12
REMARK SMILES IDX 5 13 4 14 3 15 2 16 1 17
REMARK H PARENT
REMARK Flexibility Score: inf
ROOT
ATOM      1  C   UNL     1      -5.159  37.048  21.464  1.00  0.00     0.000 C 
ENDROOT
BRANCH   1   2
ATOM      2  C   UNL     1      -4.920  35.540  21.661  1.00  0.00     0.000 C 
BRANCH   2   3
ATOM      3  C   UNL     1      -6.124  34.825  22.293  1.00  0.00     0.000 C 
BRANCH   3   4
ATOM      4  C   UNL     1      -5.758  34.074  23.581  1.00  0.00     0.000 C 
BRANCH   4   5
ATOM      5  C   UNL     1      -5.449  35.058  24.719  1.00  0.00     0.006 C 
BRANCH   5   6
ATOM      6  C   UNL     1      -6.076  36.439  24.478  1.00  0.00     0.053 C 
BRANCH   6   7
ATOM      7  C   UNL     1      -5.248  37.537  25.073  1.00  0.00     0.041 C 
ATOM      8  O   UNL     1      -5.285  38.695  24.579  1.00  0.00    -0.550 OA
ATOM      9  O   UNL     1      -4.462  37.289  26.190  1.00  0.00    -0.550 OA
ENDBRANCH   6   7
ENDBRANCH   5   6
ENDBRANCH   4   5
ENDBRANCH   3   4
ENDBRANCH   2   3
ENDBRANCH   1   2
BRANCH   1  10
ATOM     10  C   UNL     1      -5.618  37.381  20.029  1.00  0.00     0.000 C 
BRANCH  10  11
ATOM     11  C   UNL     1      -4.727  36.763  18.937  1.00  0.00    -0.000 C 
BRANCH  11  12
ATOM     12  C   UNL     1      -4.855  35.233  18.859  1.00  0.00    -0.000 C 
BRANCH  12  13
ATOM     13  C   UNL     1      -4.161  34.646  17.618  1.00  0.00    -0.000 C 
BRANCH  13  14
ATOM     14  C   UNL     1      -4.114  35.634  16.442  1.00  0.00    -0.000 C 
BRANCH  14  15
ATOM     15  C   UNL     1      -3.074  35.199  15.403  1.00  0.00    -0.000 C 
BRANCH  15  16
ATOM     16  C   UNL     1      -2.735  36.350  14.449  1.00  0.00    -0.003 C 
ATOM     17  C   UNL     1      -3.977  37.168  14.108  1.00  0.00     0.004 C 
ENDBRANCH  15  16
ENDBRANCH  14  15
ENDBRANCH  13  14
ENDBRANCH  12  13
ENDBRANCH  11  12
ENDBRANCH  10  11
ENDBRANCH   1  10
TORSDOF 13
ENDMDL
MODEL 6
REMARK VINA RESULT:     1.090      1.842      3.533
REMARK INTER + INTRA:           0.803
REMARK INTER:                   1.619
REMARK INTRA:                  -0.815
REMARK UNBOUND:                -1.115
REMARK SMILES CCCCCCCCCCCCCCC(=O)[O-]
REMARK SMILES IDX 9 1 10 2 11 3 12 4 13 5 14 6 15 7 16 8 17 9 8 10 7 11 6 12
REMARK SMILES IDX 5 13 4 14 3 15 2 16 1 17
REMARK H PARENT
REMARK Flexibility Score: inf
ROOT
ATOM      1  C   UNL     1      -5.591  34.876  25.071  1.00  0.00     0.000 C 
ENDROOT
BRANCH   1   2
ATOM      2  C   UNL     1      -6.125  34.183  23.805  1.00  0.00     0.000 C 
BRANCH   2   3
ATOM      3  C   UNL     1      -6.016  35.068  22.553  1.00  0.00     0.000 C 
BRANCH   3   4
ATOM      4  C   UNL     1      -4.563  35.275  22.099  1.00  0.00     0.000 C 
BRANCH   4   5
ATOM      5  C   UNL     1      -4.320  34.623  20.729  1.00  0.00     0.006 C 
BRANCH   5   6
ATOM      6  C   UNL     1      -5.079  35.338  19.603  1.00  0.00     0.053 C 
BRANCH   6   7
ATOM      7  C   UNL     1      -4.803  34.721  18.266  1.00  0.00     0.041 C 
ATOM      8  O   UNL     1      -4.034  35.295  17.451  1.00  0.00    -0.550 OA
ATOM      9  O   UNL     1      -5.367  33.496  17.935  1.00  0.00    -0.550 OA
ENDBRANCH   6   7
ENDBRANCH   5   6
ENDBRANCH   4   5
ENDBRANCH   3   4
ENDBRANCH   2   3
ENDBRANCH   1   2
BRANCH   1  10
ATOM     10  C   UNL     1      -6.024  36.355  25.151  1.00  0.00     0.000 C 
BRANCH  10  11
ATOM     11  C   UNL     1      -5.056  37.239  25.956  1.00  0.00    -0.000 C 
BRANCH  11  12
ATOM     12  C   UNL     1      -4.409  38.344  25.106  1.00  0.00    -0.000 C 
BRANCH  12  13
ATOM     13  C   UNL     1      -5.432  39.100  24.242  1.00  0.00    -0.000 C 
BRANCH  13  14
ATOM     14  C   UNL     1      -4.775  39.895  23.104  1.00  0.00    -0.000 C 
BRANCH  14  15
ATOM     15  C   UNL     1      -5.614  39.815  21.824  1.00  0.00    -0.000 C 
BRANCH  15  16
ATOM     16  C   UNL     1      -5.620  38.390  21.258  1.00  0.00    -0.003 C 
ATOM     17  C   UNL     1      -5.516  38.401  19.736  1.00  0.00     0.004 C 
ENDBRANCH  15  16
ENDBRANCH  14  15
ENDBRANCH  13  14
ENDBRANCH  12  13
ENDBRANCH  11  12
ENDBRANCH  10  11
ENDBRANCH   1  10
TORSDOF 13
ENDMDL
MODEL 7
REMARK VINA RESULT:     1.496      3.888      7.725
REMARK INTER + INTRA:           1.517
REMARK INTER:                   1.972
REMARK INTRA:                  -0.455
REMARK UNBOUND:                -1.115
REMARK SMILES CCCCCCCCCCCCCCC(=O)[O-]
REMARK SMILES IDX 9 1 10 2 11 3 12 4 13 5 14 6 15 7 16 8 17 9 8 10 7 11 6 12
REMARK SMILES IDX 5 13 4 14 3 15 2 16 1 17
REMARK H PARENT
REMARK Flexibility Score: inf
ROOT
ATOM      1  C   UNL     1      -4.975  35.692  21.150  1.00  0.00     0.000 C 
ENDROOT
BRANCH   1   2
ATOM      2  C   UNL     1      -6.012  36.784  21.466  1.00  0.00     0.000 C 
BRANCH   2   3
ATOM      3  C   UNL     1      -5.698  38.119  20.774  1.00  0.00     0.000 C 
BRANCH   3   4
ATOM      4  C   UNL     1      -5.303  39.222  21.767  1.00  0.00     0.000 C 
BRANCH   4   5
ATOM      5  C   UNL     1      -5.824  38.902  23.176  1.00  0.00     0.006 C 
BRANCH   5   6
ATOM      6  C   UNL     1      -4.709  38.408  24.108  1.00  0.00     0.053 C 
BRANCH   6   7
ATOM      7  C   UNL     1      -5.204  37.364  25.063  1.00  0.00     0.041 C 
ATOM      8  O   UNL     1      -4.809  37.363  26.259  1.00  0.00    -0.550 OA
ATOM      9  O   UNL     1      -6.125  36.415  24.641  1.00  0.00    -0.550 OA
ENDBRANCH   6   7
ENDBRANCH   5   6
ENDBRANCH   4   5
ENDBRANCH   3   4
ENDBRANCH   2   3
ENDBRANCH   1   2
BRANCH   1  10
ATOM     10  C   UNL     1      -5.251  35.001  19.799  1.00  0.00     0.000 C 
BRANCH  10  11
ATOM     11  C   UNL     1      -4.427  35.574  18.633  1.00  0.00    -0.000 C 
BRANCH  11  12
ATOM     12  C   UNL     1      -4.135  34.533  17.540  1.00  0.00    -0.000 C 
BRANCH  12  13
ATOM     13  C   UNL     1      -4.097  35.150  16.132  1.00  0.00    -0.000 C 
BRANCH  13  14
ATOM     14  C   UNL     1      -2.699  35.652  15.742  1.00  0.00    -0.000 C 
BRANCH  14  15
ATOM     15  C   UNL     1      -2.676  36.135  14.288  1.00  0.00    -0.000 C 
BRANCH  15  16
ATOM     16  C   UNL     1      -4.032  36.725  13.882  1.00  0.00    -0.003 C 
ATOM     17  C   UNL     1      -4.109  38.212  14.216  1.00  0.00     0.004 C 
ENDBRANCH  15  16
ENDBRANCH  14  15
ENDBRANCH  13  14
ENDBRANCH  12  13
ENDBRANCH  11  12
ENDBRANCH  10  11
ENDBRANCH   1  10
TORSDOF 13
ENDMDL
MODEL 8
REMARK VINA RESULT:     1.736      3.514      4.708
REMARK INTER + INTRA:           1.939
REMARK INTER:                   2.126
REMARK INTRA:                  -0.187
REMARK UNBOUND:                -1.115
REMARK SMILES CCCCCCCCCCCCCCC(=O)[O-]
REMARK SMILES IDX 9 1 10 2 11 3 12 4 13 5 14 6 15 7 16 8 17 9 8 10 7 11 6 12
REMARK SMILES IDX 5 13 4 14 3 15 2 16 1 17
REMARK H PARENT
REMARK Flexibility Score: inf
ROOT
ATOM      1  C   UNL     1      -4.457  34.987  21.647  1.00  0.00     0.000 C 
ENDROOT
BRANCH   1   2
ATOM      2  C   UNL     1      -5.293  34.757  20.376  1.00  0.00     0.000 C 
BRANCH   2   3
ATOM      3  C   UNL     1      -4.619  35.313  19.112  1.00  0.00     0.000 C 
BRANCH   3   4
ATOM      4  C   UNL     1      -4.986  36.780  18.843  1.00  0.00     0.000 C 
BRANCH   4   5
ATOM      5  C   UNL     1      -5.655  37.412  20.073  1.00  0.00     0.006 C 
BRANCH   5   6
ATOM      6  C   UNL     1      -4.938  38.690  20.531  1.00  0.00     0.053 C 
BRANCH   6   7
ATOM      7  C   UNL     1      -5.452  39.173  21.853  1.00  0.00     0.041 C 
ATOM      8  O   UNL     1      -5.514  40.408  22.094  1.00  0.00    -0.550 OA
ATOM      9  O   UNL     1      -5.893  38.262  22.803  1.00  0.00    -0.550 OA
ENDBRANCH   6   7
ENDBRANCH   5   6
ENDBRANCH   4   5
ENDBRANCH   3   4
ENDBRANCH   2   3
ENDBRANCH   1   2
BRANCH   1  10
ATOM     10  C   UNL     1      -4.675  33.876  22.695  1.00  0.00     0.000 C 
BRANCH  10  11
ATOM     11  C   UNL     1      -5.915  34.097  23.580  1.00  0.00    -0.000 C 
BRANCH  11  12
ATOM     12  C   UNL     1      -6.087  35.562  24.010  1.00  0.00    -0.000 C 
BRANCH  12  13
ATOM     13  C   UNL     1      -5.364  35.878  25.330  1.00  0.00    -0.000 C 
BRANCH  13  14
ATOM     14  C   UNL     1      -5.554  37.336  25.775  1.00  0.00    -0.000 C 
BRANCH  14  15
ATOM     15  C   UNL     1      -4.209  37.980  26.130  1.00  0.00    -0.000 C 
BRANCH  15  16
ATOM     16  C   UNL     1      -3.203  36.927  26.608  1.00  0.00    -0.003 C 
ATOM     17  C   UNL     1      -1.914  37.579  27.100  1.00  0.00     0.004 C 
ENDBRANCH  15  16
ENDBRANCH  14  15
ENDBRANCH  13  14
ENDBRANCH  12  13
ENDBRANCH  11  12
ENDBRANCH  10  11
ENDBRANCH   1  10
TORSDOF 13
ENDMDL
MODEL 9
REMARK VINA RESULT:     2.259      4.640      8.097
REMARK INTER + INTRA:           2.860
REMARK INTER:                   3.605
REMARK INTRA:                  -0.745
REMARK UNBOUND:                -1.115
REMARK SMILES CCCCCCCCCCCCCCC(=O)[O-]
REMARK SMILES IDX 9 1 10 2 11 3 12 4 13 5 14 6 15 7 16 8 17 9 8 10 7 11 6 12
REMARK SMILES IDX 5 13 4 14 3 15 2 16 1 17
REMARK H PARENT
REMARK Flexibility Score: inf
ROOT
ATOM      1  C   UNL     1      -4.831  35.282  21.805  1.00  0.00     0.000 C 
ENDROOT
BRANCH   1   2
ATOM      2  C   UNL     1      -5.768  35.207  23.024  1.00  0.00     0.000 C 
BRANCH   2   3
ATOM      3  C   UNL     1      -6.125  36.593  23.584  1.00  0.00     0.000 C 
BRANCH   3   4
ATOM      4  C   UNL     1      -5.979  36.671  25.111  1.00  0.00     0.000 C 
BRANCH   4   5
ATOM      5  C   UNL     1      -4.532  36.376  25.537  1.00  0.00     0.006 C 
BRANCH   5   6
ATOM      6  C   UNL     1      -3.877  37.578  26.233  1.00  0.00     0.053 C 
BRANCH   6   7
ATOM      7  C   UNL     1      -2.629  37.185  26.963  1.00  0.00     0.041 C 
ATOM      8  O   UNL     1      -2.487  36.006  27.384  1.00  0.00    -0.550 OA
ATOM      9  O   UNL     1      -1.611  38.110  27.150  1.00  0.00    -0.550 OA
ENDBRANCH   6   7
ENDBRANCH   5   6
ENDBRANCH   4   5
ENDBRANCH   3   4
ENDBRANCH   2   3
ENDBRANCH   1   2
BRANCH   1  10
ATOM     10  C   UNL     1      -5.105  36.528  20.937  1.00  0.00     0.000 C 
BRANCH  10  11
ATOM     11  C   UNL     1      -5.013  36.259  19.425  1.00  0.00    -0.000 C 
BRANCH  11  12
ATOM     12  C   UNL     1      -4.884  34.764  19.091  1.00  0.00    -0.000 C 
BRANCH  12  13
ATOM     13  C   UNL     1      -4.647  34.512  17.593  1.00  0.00    -0.000 C 
BRANCH  13  14
ATOM     14  C   UNL     1      -3.960  35.695  16.894  1.00  0.00    -0.000 C 
BRANCH  14  15
ATOM     15  C   UNL     1      -3.011  35.206  15.794  1.00  0.00    -0.000 C 
BRANCH  15  16
ATOM     16  C   UNL     1      -3.121  36.083  14.542  1.00  0.00    -0.003 C 
ATOM     17  C   UNL     1      -3.882  37.372  14.836  1.00  0.00     0.004 C 
ENDBRANCH  15  16
ENDBRANCH  14  15
ENDBRANCH  13  14
ENDBRANCH  12  13
ENDBRANCH  11  12
ENDBRANCH  10  11
ENDBRANCH   1  10
TORSDOF 13
ENDMDL
