MODEL 1
REMARK VINA RESULT:    -3.737      0.000      0.000
REMARK INTER + INTRA:          -4.400
REMARK INTER:                  -4.392
REMARK INTRA:                  -0.008
REMARK UNBOUND:                -0.008
REMARK SMILES [NH3+][C@H](CO)C(=O)[O-]
REMARK SMILES IDX 3 1 2 2 1 3 5 7 6 8 7 9 4 10
REMARK H PARENT 1 4 1 5 1 6 4 11
REMARK Flexibility Score: inf
ROOT
ATOM      1  C   UNL     1     -22.044  84.502 -19.984  1.00  0.00     0.227 C 
ENDROOT
BRANCH   1   2
ATOM      2  C   UNL     1     -21.591  83.034 -20.092  1.00  0.00     0.253 C 
BRANCH   2   3
ATOM      3  N   UNL     1     -21.339  82.456 -18.765  1.00  0.00    -0.348 N 
ATOM      4  H   UNL     1     -20.946  83.189 -18.131  1.00  0.00     0.345 HD
ATOM      5  H   UNL     1     -20.664  81.658 -18.824  1.00  0.00     0.345 HD
ATOM      6  H   UNL     1     -22.237  82.113 -18.353  1.00  0.00     0.345 HD
ENDBRANCH   2   3
BRANCH   2   7
ATOM      7  C   UNL     1     -22.603  82.215 -20.852  1.00  0.00     0.102 C 
ATOM      8  O   UNL     1     -23.830  82.339 -20.598  1.00  0.00    -0.544 OA
ATOM      9  O   UNL     1     -22.192  81.285 -21.799  1.00  0.00    -0.544 OA
ENDBRANCH   2   7
ENDBRANCH   1   2
BRANCH   1  10
ATOM     10  O   UNL     1     -21.291  85.201 -19.028  1.00  0.00    -0.390 OA
ATOM     11  H   UNL     1     -20.588  84.580 -18.703  1.00  0.00     0.210 HD
ENDBRANCH   1  10
TORSDOF 4
ENDMDL
MODEL 2
REMARK VINA RESULT:    -3.733      2.188      2.793
REMARK INTER + INTRA:          -4.396
REMARK INTER:                  -4.360
REMARK INTRA:                  -0.037
REMARK UNBOUND:                -0.008
REMARK SMILES [NH3+][C@H](CO)C(=O)[O-]
REMARK SMILES IDX 3 1 2 2 1 3 5 7 6 8 7 9 4 10
REMARK H PARENT 1 4 1 5 1 6 4 11
REMARK Flexibility Score: inf
ROOT
ATOM      1  C   UNL     1     -22.378  82.878 -19.621  1.00  0.00     0.227 C 
ENDROOT
BRANCH   1   2
ATOM      2  C   UNL     1     -22.252  84.351 -20.051  1.00  0.00     0.253 C 
BRANCH   2   3
ATOM      3  N   UNL     1     -21.346  85.089 -19.160  1.00  0.00    -0.348 N 
ATOM      4  H   UNL     1     -21.585  86.108 -19.180  1.00  0.00     0.345 HD
ATOM      5  H   UNL     1     -20.349  84.966 -19.452  1.00  0.00     0.345 HD
ATOM      6  H   UNL     1     -21.459  84.746 -18.179  1.00  0.00     0.345 HD
ENDBRANCH   2   3
BRANCH   2   7
ATOM      7  C   UNL     1     -21.800  84.455 -21.485  1.00  0.00     0.102 C 
ATOM      8  O   UNL     1     -21.302  83.452 -22.060  1.00  0.00    -0.544 OA
ATOM      9  O   UNL     1     -21.879  85.664 -22.166  1.00  0.00    -0.544 OA
ENDBRANCH   2   7
ENDBRANCH   1   2
BRANCH   1  10
ATOM     10  O   UNL     1     -21.420  82.543 -18.651  1.00  0.00    -0.390 OA
ATOM     11  H   UNL     1     -20.551  82.453 -19.123  1.00  0.00     0.210 HD
ENDBRANCH   1  10
TORSDOF 4
ENDMDL
MODEL 3
REMARK VINA RESULT:    -3.670      1.516      2.594
REMARK INTER + INTRA:          -4.323
REMARK INTER:                  -3.995
REMARK INTRA:                  -0.328
REMARK UNBOUND:                -0.008
REMARK SMILES [NH3+][C@H](CO)C(=O)[O-]
REMARK SMILES IDX 3 1 2 2 1 3 5 7 6 8 7 9 4 10
REMARK H PARENT 1 4 1 5 1 6 4 11
REMARK Flexibility Score: inf
ROOT
ATOM      1  C   UNL     1     -23.655  82.440 -20.079  1.00  0.00     0.227 C 
ENDROOT
BRANCH   1   2
ATOM      2  C   UNL     1     -22.468  83.394 -19.849  1.00  0.00     0.253 C 
BRANCH   2   3
ATOM      3  N   UNL     1     -21.428  82.760 -19.028  1.00  0.00    -0.348 N 
ATOM      4  H   UNL     1     -20.711  83.473 -18.756  1.00  0.00     0.345 HD
ATOM      5  H   UNL     1     -20.958  81.984 -19.549  1.00  0.00     0.345 HD
ATOM      6  H   UNL     1     -21.855  82.375 -18.154  1.00  0.00     0.345 HD
ENDBRANCH   2   3
BRANCH   2   7
ATOM      7  C   UNL     1     -21.901  83.871 -21.162  1.00  0.00     0.102 C 
ATOM      8  O   UNL     1     -22.048  85.072 -21.510  1.00  0.00    -0.544 OA
ATOM      9  O   UNL     1     -21.260  82.985 -22.019  1.00  0.00    -0.544 OA
ENDBRANCH   2   7
ENDBRANCH   1   2
BRANCH   1  10
ATOM     10  O   UNL     1     -24.271  82.679 -21.318  1.00  0.00    -0.390 OA
ATOM     11  H   UNL     1     -24.641  81.812 -21.628  1.00  0.00     0.210 HD
ENDBRANCH   1  10
TORSDOF 4
ENDMDL
MODEL 4
REMARK VINA RESULT:    -3.634      1.755      1.755
REMARK INTER + INTRA:          -4.280
REMARK INTER:                  -3.900
REMARK INTRA:                  -0.379
REMARK UNBOUND:                -0.008
REMARK SMILES [NH3+][C@H](CO)C(=O)[O-]
REMARK SMILES IDX 3 1 2 2 1 3 5 7 6 8 7 9 4 10
REMARK H PARENT 1 4 1 5 1 6 4 11
REMARK Flexibility Score: inf
ROOT
ATOM      1  C   UNL     1     -21.698  83.835 -19.496  1.00  0.00     0.227 C 
ENDROOT
BRANCH   1   2
ATOM      2  C   UNL     1     -22.112  83.544 -20.950  1.00  0.00     0.253 C 
BRANCH   2   3
ATOM      3  N   UNL     1     -21.034  83.881 -21.888  1.00  0.00    -0.348 N 
ATOM      4  H   UNL     1     -20.805  84.899 -21.811  1.00  0.00     0.345 HD
ATOM      5  H   UNL     1     -21.312  83.667 -22.874  1.00  0.00     0.345 HD
ATOM      6  H   UNL     1     -20.175  83.334 -21.650  1.00  0.00     0.345 HD
ENDBRANCH   2   3
BRANCH   2   7
ATOM      7  C   UNL     1     -22.535  82.106 -21.110  1.00  0.00     0.102 C 
ATOM      8  O   UNL     1     -23.726  81.771 -20.874  1.00  0.00    -0.544 OA
ATOM      9  O   UNL     1     -21.610  81.132 -21.466  1.00  0.00    -0.544 OA
ENDBRANCH   2   7
ENDBRANCH   1   2
BRANCH   1  10
ATOM     10  O   UNL     1     -21.527  82.649 -18.764  1.00  0.00    -0.390 OA
ATOM     11  H   UNL     1     -21.885  81.911 -19.323  1.00  0.00     0.210 HD
ENDBRANCH   1  10
TORSDOF 4
ENDMDL
MODEL 5
REMARK VINA RESULT:    -3.610      2.138      2.278
REMARK INTER + INTRA:          -4.252
REMARK INTER:                  -4.036
REMARK INTRA:                  -0.216
REMARK UNBOUND:                -0.008
REMARK SMILES [NH3+][C@H](CO)C(=O)[O-]
REMARK SMILES IDX 3 1 2 2 1 3 5 7 6 8 7 9 4 10
REMARK H PARENT 1 4 1 5 1 6 4 11
REMARK Flexibility Score: inf
ROOT
ATOM      1  C   UNL     1     -21.770  83.539 -19.618  1.00  0.00     0.227 C 
ENDROOT
BRANCH   1   2
ATOM      2  C   UNL     1     -22.633  82.967 -20.758  1.00  0.00     0.253 C 
BRANCH   2   3
ATOM      3  N   UNL     1     -23.271  84.040 -21.532  1.00  0.00    -0.348 N 
ATOM      4  H   UNL     1     -23.839  84.644 -20.894  1.00  0.00     0.345 HD
ATOM      5  H   UNL     1     -23.895  83.647 -22.276  1.00  0.00     0.345 HD
ATOM      6  H   UNL     1     -22.538  84.635 -21.981  1.00  0.00     0.345 HD
ENDBRANCH   2   3
BRANCH   2   7
ATOM      7  C   UNL     1     -21.815  82.071 -21.652  1.00  0.00     0.102 C 
ATOM      8  O   UNL     1     -21.526  80.904 -21.277  1.00  0.00    -0.544 OA
ATOM      9  O   UNL     1     -21.332  82.536 -22.869  1.00  0.00    -0.544 OA
ENDBRANCH   2   7
ENDBRANCH   1   2
BRANCH   1  10
ATOM     10  O   UNL     1     -21.412  82.541 -18.697  1.00  0.00    -0.390 OA
ATOM     11  H   UNL     1     -21.823  82.789 -17.829  1.00  0.00     0.210 HD
ENDBRANCH   1  10
TORSDOF 4
ENDMDL
MODEL 6
REMARK VINA RESULT:    -3.577      2.304      2.557
REMARK INTER + INTRA:          -4.213
REMARK INTER:                  -4.198
REMARK INTRA:                  -0.015
REMARK UNBOUND:                -0.008
REMARK SMILES [NH3+][C@H](CO)C(=O)[O-]
REMARK SMILES IDX 3 1 2 2 1 3 5 7 6 8 7 9 4 10
REMARK H PARENT 1 4 1 5 1 6 4 11
REMARK Flexibility Score: inf
ROOT
ATOM      1  C   UNL     1     -21.908  83.487 -19.549  1.00  0.00     0.227 C 
ENDROOT
BRANCH   1   2
ATOM      2  C   UNL     1     -22.540  82.772 -20.757  1.00  0.00     0.253 C 
BRANCH   2   3
ATOM      3  N   UNL     1     -23.986  82.593 -20.573  1.00  0.00    -0.348 N 
ATOM      4  H   UNL     1     -24.437  83.520 -20.396  1.00  0.00     0.345 HD
ATOM      5  H   UNL     1     -24.186  81.957 -19.766  1.00  0.00     0.345 HD
ATOM      6  H   UNL     1     -24.404  82.185 -21.440  1.00  0.00     0.345 HD
ENDBRANCH   2   3
BRANCH   2   7
ATOM      7  C   UNL     1     -22.248  83.518 -22.034  1.00  0.00     0.102 C 
ATOM      8  O   UNL     1     -21.056  83.731 -22.379  1.00  0.00    -0.544 OA
ATOM      9  O   UNL     1     -23.284  84.020 -22.812  1.00  0.00    -0.544 OA
ENDBRANCH   2   7
ENDBRANCH   1   2
BRANCH   1  10
ATOM     10  O   UNL     1     -21.370  82.568 -18.634  1.00  0.00    -0.390 OA
ATOM     11  H   UNL     1     -22.056  82.425 -17.931  1.00  0.00     0.210 HD
ENDBRANCH   1  10
TORSDOF 4
ENDMDL
MODEL 7
REMARK VINA RESULT:    -3.352     11.195     11.969
REMARK INTER + INTRA:          -3.949
REMARK INTER:                  -3.604
REMARK INTRA:                  -0.344
REMARK UNBOUND:                -0.008
REMARK SMILES [NH3+][C@H](CO)C(=O)[O-]
REMARK SMILES IDX 3 1 2 2 1 3 5 7 6 8 7 9 4 10
REMARK H PARENT 1 4 1 5 1 6 4 11
REMARK Flexibility Score: inf
ROOT
ATOM      1  C   UNL     1     -32.221  83.162 -19.160  1.00  0.00     0.227 C 
ENDROOT
BRANCH   1   2
ATOM      2  C   UNL     1     -33.604  82.529 -19.400  1.00  0.00     0.253 C 
BRANCH   2   3
ATOM      3  N   UNL     1     -33.884  81.475 -18.416  1.00  0.00    -0.348 N 
ATOM      4  H   UNL     1     -33.301  81.627 -17.560  1.00  0.00     0.345 HD
ATOM      5  H   UNL     1     -33.673  80.528 -18.809  1.00  0.00     0.345 HD
ATOM      6  H   UNL     1     -34.891  81.512 -18.137  1.00  0.00     0.345 HD
ENDBRANCH   2   3
BRANCH   2   7
ATOM      7  C   UNL     1     -34.684  83.579 -19.386  1.00  0.00     0.102 C 
ATOM      8  O   UNL     1     -34.851  84.322 -20.389  1.00  0.00    -0.544 OA
ATOM      9  O   UNL     1     -35.469  83.773 -18.256  1.00  0.00    -0.544 OA
ENDBRANCH   2   7
ENDBRANCH   1   2
BRANCH   1  10
ATOM     10  O   UNL     1     -32.330  84.395 -18.495  1.00  0.00    -0.390 OA
ATOM     11  H   UNL     1     -32.101  85.100 -19.155  1.00  0.00     0.210 HD
ENDBRANCH   1  10
TORSDOF 4
ENDMDL
MODEL 8
REMARK VINA RESULT:    -3.305      2.517      2.720
REMARK INTER + INTRA:          -3.892
REMARK INTER:                  -3.503
REMARK INTRA:                  -0.390
REMARK UNBOUND:                -0.008
REMARK SMILES [NH3+][C@H](CO)C(=O)[O-]
REMARK SMILES IDX 3 1 2 2 1 3 5 7 6 8 7 9 4 10
REMARK H PARENT 1 4 1 5 1 6 4 11
REMARK Flexibility Score: inf
ROOT
ATOM      1  C   UNL     1     -21.758  84.623 -22.532  1.00  0.00     0.227 C 
ENDROOT
BRANCH   1   2
ATOM      2  C   UNL     1     -22.646  83.991 -21.444  1.00  0.00     0.253 C 
BRANCH   2   3
ATOM      3  N   UNL     1     -23.874  83.428 -22.020  1.00  0.00    -0.348 N 
ATOM      4  H   UNL     1     -23.934  83.677 -23.034  1.00  0.00     0.345 HD
ATOM      5  H   UNL     1     -24.722  83.795 -21.528  1.00  0.00     0.345 HD
ATOM      6  H   UNL     1     -23.856  82.386 -21.938  1.00  0.00     0.345 HD
ENDBRANCH   2   3
BRANCH   2   7
ATOM      7  C   UNL     1     -21.884  82.945 -20.671  1.00  0.00     0.102 C 
ATOM      8  O   UNL     1     -21.358  83.239 -19.566  1.00  0.00    -0.544 OA
ATOM      9  O   UNL     1     -21.713  81.667 -21.191  1.00  0.00    -0.544 OA
ENDBRANCH   2   7
ENDBRANCH   1   2
BRANCH   1  10
ATOM     10  O   UNL     1     -20.437  84.154 -22.452  1.00  0.00    -0.390 OA
ATOM     11  H   UNL     1     -20.198  83.806 -23.350  1.00  0.00     0.210 HD
ENDBRANCH   1  10
TORSDOF 4
ENDMDL
MODEL 9
REMARK VINA RESULT:    -3.298     12.662     13.416
REMARK INTER + INTRA:          -3.885
REMARK INTER:                  -3.636
REMARK INTRA:                  -0.249
REMARK UNBOUND:                -0.008
REMARK SMILES [NH3+][C@H](CO)C(=O)[O-]
REMARK SMILES IDX 3 1 2 2 1 3 5 7 6 8 7 9 4 10
REMARK H PARENT 1 4 1 5 1 6 4 11
REMARK Flexibility Score: inf
ROOT
ATOM      1  C   UNL     1     -36.032  84.619 -17.305  1.00  0.00     0.227 C 
ENDROOT
BRANCH   1   2
ATOM      2  C   UNL     1     -35.009  85.192 -18.304  1.00  0.00     0.253 C 
BRANCH   2   3
ATOM      3  N   UNL     1     -33.722  85.463 -17.651  1.00  0.00    -0.348 N 
ATOM      4  H   UNL     1     -33.243  86.258 -18.133  1.00  0.00     0.345 HD
ATOM      5  H   UNL     1     -33.101  84.622 -17.680  1.00  0.00     0.345 HD
ATOM      6  H   UNL     1     -33.883  85.734 -16.653  1.00  0.00     0.345 HD
ENDBRANCH   2   3
BRANCH   2   7
ATOM      7  C   UNL     1     -34.832  84.267 -19.480  1.00  0.00     0.102 C 
ATOM      8  O   UNL     1     -33.866  83.459 -19.504  1.00  0.00    -0.544 OA
ATOM      9  O   UNL     1     -35.696  84.330 -20.567  1.00  0.00    -0.544 OA
ENDBRANCH   2   7
ENDBRANCH   1   2
BRANCH   1  10
ATOM     10  O   UNL     1     -37.140  84.066 -17.967  1.00  0.00    -0.390 OA
ATOM     11  H   UNL     1     -37.855  83.953 -17.288  1.00  0.00     0.210 HD
ENDBRANCH   1  10
TORSDOF 4
ENDMDL
