MODEL 1
REMARK VINA RESULT:     1.016      0.000      0.000
REMARK INTER + INTRA:           2.305
REMARK INTER:                   1.550
REMARK INTRA:                   0.755
REMARK UNBOUND:                 0.755
REMARK SMILES OC[C@@H]1O[C@H](O[C@@]2(CO)O[C@@H](CO)[C@@H](O)[C@H]2O)[C@@H](O)[C@H](O)[C@H]1O
REMARK SMILES IDX 6 1 5 2 3 3 22 4 4 5 20 6 18 7 2 8 1 9 23 11 21 13 19 15
REMARK SMILES IDX 7 17 16 18 10 19 14 20 11 21 8 22 9 23 17 25 15 27 12 29
REMARK SMILES IDX 13 30
REMARK H PARENT 1 10 23 12 21 14 19 16 9 24 17 26 15 28 13 31
REMARK Flexibility Score: inf
ROOT
ATOM      1  O   UNL     1      24.288   4.760  14.467  1.00  0.00    -0.313 OA
ENDROOT
BRANCH   1   2
ATOM      2  C   UNL     1      24.072   6.108  14.863  1.00  0.00     0.285 C 
ATOM      3  C   UNL     1      26.363   6.817  15.048  1.00  0.00     0.178 C 
ATOM      4  C   UNL     1      26.254   7.684  13.766  1.00  0.00     0.177 C 
ATOM      5  O   UNL     1      25.119   6.584  15.698  1.00  0.00    -0.341 OA
ATOM      6  C   UNL     1      25.140   7.197  12.835  1.00  0.00     0.179 C 
ATOM      7  C   UNL     1      23.839   6.991  13.624  1.00  0.00     0.202 C 
BRANCH   3   8
ATOM      8  C   UNL     1      27.192   5.528  14.863  1.00  0.00     0.191 C 
BRANCH   8   9
ATOM      9  O   UNL     1      28.517   5.732  15.270  1.00  0.00    -0.394 OA
ATOM     10  H   UNL     1      28.726   6.692  15.114  1.00  0.00     0.210 HD
ENDBRANCH   8   9
ENDBRANCH   3   8
BRANCH   4  11
ATOM     11  O   UNL     1      26.003   9.024  14.121  1.00  0.00    -0.387 OA
ATOM     12  H   UNL     1      26.885   9.470  14.216  1.00  0.00     0.211 HD
ENDBRANCH   4  11
BRANCH   6  13
ATOM     13  O   UNL     1      25.525   6.000  12.211  1.00  0.00    -0.387 OA
ATOM     14  H   UNL     1      24.848   5.316  12.448  1.00  0.00     0.211 HD
ENDBRANCH   6  13
BRANCH   7  15
ATOM     15  O   UNL     1      23.323   8.237  14.029  1.00  0.00    -0.385 OA
ATOM     16  H   UNL     1      23.020   8.139  14.966  1.00  0.00     0.211 HD
ENDBRANCH   7  15
ENDBRANCH   1   2
BRANCH   1  17
ATOM     17  C   UNL     1      24.144   3.815  15.525  1.00  0.00     0.224 C 
ATOM     18  C   UNL     1      22.868   4.084  16.362  1.00  0.00     0.208 C 
ATOM     19  O   UNL     1      25.279   3.826  16.374  1.00  0.00    -0.337 OA
ATOM     20  C   UNL     1      23.356   4.042  17.808  1.00  0.00     0.180 C 
ATOM     21  C   UNL     1      24.851   3.690  17.710  1.00  0.00     0.179 C 
BRANCH  17  22
ATOM     22  C   UNL     1      24.057   2.416  14.876  1.00  0.00     0.225 C 
BRANCH  22  23
ATOM     23  O   UNL     1      22.809   1.829  15.136  1.00  0.00    -0.391 OA
ATOM     24  H   UNL     1      22.857   1.462  16.061  1.00  0.00     0.210 HD
ENDBRANCH  22  23
ENDBRANCH  17  22
BRANCH  18  25
ATOM     25  O   UNL     1      22.277   5.319  16.041  1.00  0.00    -0.385 OA
ATOM     26  H   UNL     1      21.822   5.197  15.166  1.00  0.00     0.211 HD
ENDBRANCH  18  25
BRANCH  20  27
ATOM     27  O   UNL     1      23.099   5.241  18.516  1.00  0.00    -0.387 OA
ATOM     28  H   UNL     1      23.521   5.177  19.405  1.00  0.00     0.211 HD
ENDBRANCH  20  27
BRANCH  21  29
ATOM     29  C   UNL     1      25.777   4.528  18.613  1.00  0.00     0.191 C 
BRANCH  29  30
ATOM     30  O   UNL     1      25.621   4.210  19.974  1.00  0.00    -0.394 OA
ATOM     31  H   UNL     1      26.484   4.416  20.419  1.00  0.00     0.210 HD
ENDBRANCH  29  30
ENDBRANCH  21  29
ENDBRANCH   1  17
TORSDOF 13
ENDMDL
MODEL 2
REMARK VINA RESULT:     1.334      1.484      5.403
REMARK INTER + INTRA:           2.791
REMARK INTER:                   2.438
REMARK INTRA:                   0.353
REMARK UNBOUND:                 0.755
REMARK SMILES OC[C@@H]1O[C@H](O[C@@]2(CO)O[C@@H](CO)[C@@H](O)[C@H]2O)[C@@H](O)[C@H](O)[C@H]1O
REMARK SMILES IDX 6 1 5 2 3 3 22 4 4 5 20 6 18 7 2 8 1 9 23 11 21 13 19 15
REMARK SMILES IDX 7 17 16 18 10 19 14 20 11 21 8 22 9 23 17 25 15 27 12 29
REMARK SMILES IDX 13 30
REMARK H PARENT 1 10 23 12 21 14 19 16 9 24 17 26 15 28 13 31
REMARK Flexibility Score: inf
ROOT
ATOM      1  O   UNL     1      24.658   5.253  14.093  1.00  0.00    -0.313 OA
ENDROOT
BRANCH   1   2
ATOM      2  C   UNL     1      24.954   5.270  15.484  1.00  0.00     0.285 C 
ATOM      3  C   UNL     1      22.709   5.368  16.344  1.00  0.00     0.178 C 
ATOM      4  C   UNL     1      22.778   3.900  16.839  1.00  0.00     0.177 C 
ATOM      5  O   UNL     1      23.979   5.999  16.218  1.00  0.00    -0.341 OA
ATOM      6  C   UNL     1      23.813   3.079  16.066  1.00  0.00     0.179 C 
ATOM      7  C   UNL     1      25.149   3.833  16.000  1.00  0.00     0.202 C 
BRANCH   3   8
ATOM      8  C   UNL     1      21.818   5.567  15.099  1.00  0.00     0.191 C 
BRANCH   8   9
ATOM      9  O   UNL     1      21.640   6.932  14.834  1.00  0.00    -0.394 OA
ATOM     10  H   UNL     1      22.440   7.405  15.189  1.00  0.00     0.210 HD
ENDBRANCH   8   9
ENDBRANCH   3   8
BRANCH   4  11
ATOM     11  O   UNL     1      23.105   3.879  18.209  1.00  0.00    -0.387 OA
ATOM     12  H   UNL     1      23.498   2.987  18.401  1.00  0.00     0.211 HD
ENDBRANCH   4  11
BRANCH   6  13
ATOM     13  O   UNL     1      23.342   2.810  14.771  1.00  0.00    -0.387 OA
ATOM     14  H   UNL     1      24.135   2.655  14.198  1.00  0.00     0.211 HD
ENDBRANCH   6  13
BRANCH   7  15
ATOM     15  O   UNL     1      25.740   3.872  17.277  1.00  0.00    -0.385 OA
ATOM     16  H   UNL     1      26.420   4.591  17.265  1.00  0.00     0.211 HD
ENDBRANCH   7  15
ENDBRANCH   1   2
BRANCH   1  17
ATOM     17  C   UNL     1      24.959   6.474  13.422  1.00  0.00     0.224 C 
ATOM     18  C   UNL     1      26.405   6.946  13.717  1.00  0.00     0.208 C 
ATOM     19  O   UNL     1      24.044   7.493  13.785  1.00  0.00    -0.337 OA
ATOM     20  C   UNL     1      26.246   8.419  14.089  1.00  0.00     0.180 C 
ATOM     21  C   UNL     1      24.744   8.708  13.921  1.00  0.00     0.179 C 
BRANCH  17  22
ATOM     22  C   UNL     1      24.794   6.212  11.908  1.00  0.00     0.225 C 
BRANCH  22  23
ATOM     23  O   UNL     1      26.048   6.077  11.292  1.00  0.00    -0.391 OA
ATOM     24  H   UNL     1      25.878   6.037  10.312  1.00  0.00     0.210 HD
ENDBRANCH  22  23
ENDBRANCH  17  22
BRANCH  18  25
ATOM     25  O   UNL     1      27.003   6.204  14.750  1.00  0.00    -0.385 OA
ATOM     26  H   UNL     1      26.346   5.505  15.013  1.00  0.00     0.211 HD
ENDBRANCH  18  25
BRANCH  20  27
ATOM     27  O   UNL     1      26.744   8.722  15.379  1.00  0.00    -0.387 OA
ATOM     28  H   UNL     1      27.000   9.674  15.402  1.00  0.00     0.211 HD
ENDBRANCH  20  27
BRANCH  21  29
ATOM     29  C   UNL     1      24.107   9.520  15.066  1.00  0.00     0.191 C 
BRANCH  29  30
ATOM     30  O   UNL     1      22.955  10.211  14.650  1.00  0.00    -0.394 OA
ATOM     31  H   UNL     1      22.250  10.031  15.326  1.00  0.00     0.210 HD
ENDBRANCH  29  30
ENDBRANCH  21  29
ENDBRANCH   1  17
TORSDOF 13
ENDMDL
MODEL 3
REMARK VINA RESULT:     2.031      1.917      6.063
REMARK INTER + INTRA:           3.855
REMARK INTER:                   4.758
REMARK INTRA:                  -0.903
REMARK UNBOUND:                 0.755
REMARK SMILES OC[C@@H]1O[C@H](O[C@@]2(CO)O[C@@H](CO)[C@@H](O)[C@H]2O)[C@@H](O)[C@H](O)[C@H]1O
REMARK SMILES IDX 6 1 5 2 3 3 22 4 4 5 20 6 18 7 2 8 1 9 23 11 21 13 19 15
REMARK SMILES IDX 7 17 16 18 10 19 14 20 11 21 8 22 9 23 17 25 15 27 12 29
REMARK SMILES IDX 13 30
REMARK H PARENT 1 10 23 12 21 14 19 16 9 24 17 26 15 28 13 31
REMARK Flexibility Score: inf
ROOT
ATOM      1  O   UNL     1      24.725   5.275  13.757  1.00  0.00    -0.313 OA
ENDROOT
BRANCH   1   2
ATOM      2  C   UNL     1      25.111   5.390  15.121  1.00  0.00     0.285 C 
ATOM      3  C   UNL     1      22.930   5.625  16.109  1.00  0.00     0.178 C 
ATOM      4  C   UNL     1      22.992   4.197  16.713  1.00  0.00     0.177 C 
ATOM      5  O   UNL     1      24.206   6.203  15.855  1.00  0.00    -0.341 OA
ATOM      6  C   UNL     1      23.953   3.287  15.943  1.00  0.00     0.179 C 
ATOM      7  C   UNL     1      25.302   3.992  15.734  1.00  0.00     0.202 C 
BRANCH   3   8
ATOM      8  C   UNL     1      21.966   5.756  14.911  1.00  0.00     0.191 C 
BRANCH   8   9
ATOM      9  O   UNL     1      21.752   7.105  14.596  1.00  0.00    -0.394 OA
ATOM     10  H   UNL     1      21.591   7.582  15.454  1.00  0.00     0.210 HD
ENDBRANCH   8   9
ENDBRANCH   3   8
BRANCH   4  11
ATOM     11  O   UNL     1      23.407   4.271  18.057  1.00  0.00    -0.387 OA
ATOM     12  H   UNL     1      24.338   4.620  18.056  1.00  0.00     0.211 HD
ENDBRANCH   4  11
BRANCH   6  13
ATOM     13  O   UNL     1      23.392   2.935  14.705  1.00  0.00    -0.387 OA
ATOM     14  H   UNL     1      23.237   3.776  14.205  1.00  0.00     0.211 HD
ENDBRANCH   6  13
BRANCH   7  15
ATOM     15  O   UNL     1      25.975   4.109  16.965  1.00  0.00    -0.385 OA
ATOM     16  H   UNL     1      25.859   3.251  17.446  1.00  0.00     0.211 HD
ENDBRANCH   7  15
ENDBRANCH   1   2
BRANCH   1  17
ATOM     17  C   UNL     1      25.491   6.086  12.868  1.00  0.00     0.224 C 
ATOM     18  C   UNL     1      24.600   7.101  12.110  1.00  0.00     0.208 C 
ATOM     19  O   UNL     1      26.200   5.289  11.935  1.00  0.00    -0.337 OA
ATOM     20  C   UNL     1      25.024   6.952  10.650  1.00  0.00     0.180 C 
ATOM     21  C   UNL     1      26.165   5.919  10.675  1.00  0.00     0.179 C 
BRANCH  17  22
ATOM     22  C   UNL     1      26.531   6.842  13.725  1.00  0.00     0.225 C 
BRANCH  22  23
ATOM     23  O   UNL     1      26.112   8.162  13.956  1.00  0.00    -0.391 OA
ATOM     24  H   UNL     1      25.147   8.198  13.712  1.00  0.00     0.210 HD
ENDBRANCH  22  23
ENDBRANCH  17  22
BRANCH  18  25
ATOM     25  O   UNL     1      23.230   6.839  12.289  1.00  0.00    -0.385 OA
ATOM     26  H   UNL     1      22.764   7.715  12.224  1.00  0.00     0.211 HD
ENDBRANCH  18  25
BRANCH  20  27
ATOM     27  O   UNL     1      23.954   6.597   9.795  1.00  0.00    -0.387 OA
ATOM     28  H   UNL     1      23.156   6.419  10.346  1.00  0.00     0.211 HD
ENDBRANCH  20  27
BRANCH  21  29
ATOM     29  C   UNL     1      26.084   4.835   9.583  1.00  0.00     0.191 C 
BRANCH  29  30
ATOM     30  O   UNL     1      26.137   5.381   8.288  1.00  0.00    -0.394 OA
ATOM     31  H   UNL     1      26.024   6.362   8.383  1.00  0.00     0.210 HD
ENDBRANCH  29  30
ENDBRANCH  21  29
ENDBRANCH   1  17
TORSDOF 13
ENDMDL
MODEL 4
REMARK VINA RESULT:     2.430      1.012      2.333
REMARK INTER + INTRA:           4.464
REMARK INTER:                   5.578
REMARK INTRA:                  -1.114
REMARK UNBOUND:                 0.755
REMARK SMILES OC[C@@H]1O[C@H](O[C@@]2(CO)O[C@@H](CO)[C@@H](O)[C@H]2O)[C@@H](O)[C@H](O)[C@H]1O
REMARK SMILES IDX 6 1 5 2 3 3 22 4 4 5 20 6 18 7 2 8 1 9 23 11 21 13 19 15
REMARK SMILES IDX 7 17 16 18 10 19 14 20 11 21 8 22 9 23 17 25 15 27 12 29
REMARK SMILES IDX 13 30
REMARK H PARENT 1 10 23 12 21 14 19 16 9 24 17 26 15 28 13 31
REMARK Flexibility Score: inf
ROOT
ATOM      1  O   UNL     1      24.436   4.955  14.459  1.00  0.00    -0.313 OA
ENDROOT
BRANCH   1   2
ATOM      2  C   UNL     1      25.750   5.499  14.435  1.00  0.00     0.285 C 
ATOM      3  C   UNL     1      25.601   6.747  12.383  1.00  0.00     0.178 C 
ATOM      4  C   UNL     1      25.576   8.098  13.145  1.00  0.00     0.177 C 
ATOM      5  O   UNL     1      26.216   5.685  13.105  1.00  0.00    -0.341 OA
ATOM      6  C   UNL     1      25.071   7.940  14.582  1.00  0.00     0.179 C 
ATOM      7  C   UNL     1      25.804   6.785  15.279  1.00  0.00     0.202 C 
BRANCH   3   8
ATOM      8  C   UNL     1      24.241   6.346  11.775  1.00  0.00     0.191 C 
BRANCH   8   9
ATOM      9  O   UNL     1      24.196   6.670  10.412  1.00  0.00    -0.394 OA
ATOM     10  H   UNL     1      23.515   6.077   9.994  1.00  0.00     0.210 HD
ENDBRANCH   8   9
ENDBRANCH   3   8
BRANCH   4  11
ATOM     11  O   UNL     1      26.872   8.649  13.171  1.00  0.00    -0.387 OA
ATOM     12  H   UNL     1      26.816   9.547  12.750  1.00  0.00     0.211 HD
ENDBRANCH   4  11
BRANCH   6  13
ATOM     13  O   UNL     1      23.687   7.708  14.580  1.00  0.00    -0.387 OA
ATOM     14  H   UNL     1      23.409   7.604  13.635  1.00  0.00     0.211 HD
ENDBRANCH   6  13
BRANCH   7  15
ATOM     15  O   UNL     1      27.147   7.139  15.507  1.00  0.00    -0.385 OA
ATOM     16  H   UNL     1      27.411   7.767  14.788  1.00  0.00     0.211 HD
ENDBRANCH   7  15
ENDBRANCH   1   2
BRANCH   1  17
ATOM     17  C   UNL     1      24.233   3.977  15.476  1.00  0.00     0.224 C 
ATOM     18  C   UNL     1      22.931   4.244  16.273  1.00  0.00     0.208 C 
ATOM     19  O   UNL     1      25.334   3.935  16.368  1.00  0.00    -0.337 OA
ATOM     20  C   UNL     1      23.361   4.141  17.734  1.00  0.00     0.180 C 
ATOM     21  C   UNL     1      24.852   3.761  17.681  1.00  0.00     0.179 C 
BRANCH  17  22
ATOM     22  C   UNL     1      24.144   2.604  14.775  1.00  0.00     0.225 C 
BRANCH  22  23
ATOM     23  O   UNL     1      22.927   1.973  15.079  1.00  0.00    -0.391 OA
ATOM     24  H   UNL     1      23.015   1.625  16.008  1.00  0.00     0.210 HD
ENDBRANCH  22  23
ENDBRANCH  17  22
BRANCH  18  25
ATOM     25  O   UNL     1      22.376   5.501  15.975  1.00  0.00    -0.385 OA
ATOM     26  H   UNL     1      21.546   5.579  16.516  1.00  0.00     0.211 HD
ENDBRANCH  18  25
BRANCH  20  27
ATOM     27  O   UNL     1      23.100   5.319  18.474  1.00  0.00    -0.387 OA
ATOM     28  H   UNL     1      22.162   5.585  18.322  1.00  0.00     0.211 HD
ENDBRANCH  20  27
BRANCH  21  29
ATOM     29  C   UNL     1      25.758   4.549  18.648  1.00  0.00     0.191 C 
BRANCH  29  30
ATOM     30  O   UNL     1      25.550   4.181  19.989  1.00  0.00    -0.394 OA
ATOM     31  H   UNL     1      25.982   3.297  20.117  1.00  0.00     0.210 HD
ENDBRANCH  29  30
ENDBRANCH  21  29
ENDBRANCH   1  17
TORSDOF 13
ENDMDL
MODEL 5
REMARK VINA RESULT:     3.283      1.418      2.608
REMARK INTER + INTRA:           5.765
REMARK INTER:                   5.284
REMARK INTRA:                   0.481
REMARK UNBOUND:                 0.755
REMARK SMILES OC[C@@H]1O[C@H](O[C@@]2(CO)O[C@@H](CO)[C@@H](O)[C@H]2O)[C@@H](O)[C@H](O)[C@H]1O
REMARK SMILES IDX 6 1 5 2 3 3 22 4 4 5 20 6 18 7 2 8 1 9 23 11 21 13 19 15
REMARK SMILES IDX 7 17 16 18 10 19 14 20 11 21 8 22 9 23 17 25 15 27 12 29
REMARK SMILES IDX 13 30
REMARK H PARENT 1 10 23 12 21 14 19 16 9 24 17 26 15 28 13 31
REMARK Flexibility Score: inf
ROOT
ATOM      1  O   UNL     1      23.573   5.673  15.608  1.00  0.00    -0.313 OA
ENDROOT
BRANCH   1   2
ATOM      2  C   UNL     1      23.527   5.639  14.187  1.00  0.00     0.285 C 
ATOM      3  C   UNL     1      23.783   7.991  13.748  1.00  0.00     0.178 C 
ATOM      4  C   UNL     1      25.229   7.790  13.225  1.00  0.00     0.177 C 
ATOM      5  O   UNL     1      22.964   6.830  13.652  1.00  0.00    -0.341 OA
ATOM      6  C   UNL     1      25.873   6.519  13.786  1.00  0.00     0.179 C 
ATOM      7  C   UNL     1      24.923   5.324  13.621  1.00  0.00     0.202 C 
BRANCH   3   8
ATOM      8  C   UNL     1      23.707   8.662  15.136  1.00  0.00     0.191 C 
BRANCH   8   9
ATOM      9  O   UNL     1      23.534  10.047  15.005  1.00  0.00    -0.394 OA
ATOM     10  H   UNL     1      23.865  10.298  14.101  1.00  0.00     0.210 HD
ENDBRANCH   8   9
ENDBRANCH   3   8
BRANCH   4  11
ATOM     11  O   UNL     1      25.216   7.716  11.818  1.00  0.00    -0.387 OA
ATOM     12  H   UNL     1      26.156   7.582  11.525  1.00  0.00     0.211 HD
ENDBRANCH   4  11
BRANCH   6  13
ATOM     13  O   UNL     1      26.195   6.702  15.139  1.00  0.00    -0.387 OA
ATOM     14  H   UNL     1      25.523   6.204  15.670  1.00  0.00     0.211 HD
ENDBRANCH   6  13
BRANCH   7  15
ATOM     15  O   UNL     1      24.811   4.986  12.259  1.00  0.00    -0.385 OA
ATOM     16  H   UNL     1      24.941   4.008  12.187  1.00  0.00     0.211 HD
ENDBRANCH   7  15
ENDBRANCH   1   2
BRANCH   1  17
ATOM     17  C   UNL     1      24.002   4.450  16.202  1.00  0.00     0.224 C 
ATOM     18  C   UNL     1      23.316   4.207  17.570  1.00  0.00     0.208 C 
ATOM     19  O   UNL     1      25.410   4.431  16.368  1.00  0.00    -0.337 OA
ATOM     20  C   UNL     1      24.467   3.838  18.503  1.00  0.00     0.180 C 
ATOM     21  C   UNL     1      25.716   3.828  17.605  1.00  0.00     0.179 C 
BRANCH  17  22
ATOM     22  C   UNL     1      23.630   3.314  15.223  1.00  0.00     0.225 C 
BRANCH  22  23
ATOM     23  O   UNL     1      24.463   2.201  15.421  1.00  0.00    -0.391 OA
ATOM     24  H   UNL     1      25.390   2.502  15.216  1.00  0.00     0.210 HD
ENDBRANCH  22  23
ENDBRANCH  17  22
BRANCH  18  25
ATOM     25  O   UNL     1      22.618   5.342  18.019  1.00  0.00    -0.385 OA
ATOM     26  H   UNL     1      23.168   6.131  17.767  1.00  0.00     0.211 HD
ENDBRANCH  18  25
BRANCH  20  27
ATOM     27  O   UNL     1      24.576   4.702  19.620  1.00  0.00    -0.387 OA
ATOM     28  H   UNL     1      25.341   5.307  19.475  1.00  0.00     0.211 HD
ENDBRANCH  20  27
BRANCH  21  29
ATOM     29  C   UNL     1      26.953   4.528  18.202  1.00  0.00     0.191 C 
BRANCH  29  30
ATOM     30  O   UNL     1      28.089   3.699  18.193  1.00  0.00    -0.394 OA
ATOM     31  H   UNL     1      28.164   3.322  17.278  1.00  0.00     0.210 HD
ENDBRANCH  29  30
ENDBRANCH  21  29
ENDBRANCH   1  17
TORSDOF 13
ENDMDL
MODEL 6
REMARK VINA RESULT:     3.681      1.532      5.249
REMARK INTER + INTRA:           6.373
REMARK INTER:                   7.197
REMARK INTRA:                  -0.823
REMARK UNBOUND:                 0.755
REMARK SMILES OC[C@@H]1O[C@H](O[C@@]2(CO)O[C@@H](CO)[C@@H](O)[C@H]2O)[C@@H](O)[C@H](O)[C@H]1O
REMARK SMILES IDX 6 1 5 2 3 3 22 4 4 5 20 6 18 7 2 8 1 9 23 11 21 13 19 15
REMARK SMILES IDX 7 17 16 18 10 19 14 20 11 21 8 22 9 23 17 25 15 27 12 29
REMARK SMILES IDX 13 30
REMARK H PARENT 1 10 23 12 21 14 19 16 9 24 17 26 15 28 13 31
REMARK Flexibility Score: inf
ROOT
ATOM      1  O   UNL     1      24.525   5.034  14.146  1.00  0.00    -0.313 OA
ENDROOT
BRANCH   1   2
ATOM      2  C   UNL     1      23.264   5.045  14.804  1.00  0.00     0.285 C 
ATOM      3  C   UNL     1      23.273   2.800  15.669  1.00  0.00     0.178 C 
ATOM      4  C   UNL     1      23.491   3.303  17.120  1.00  0.00     0.177 C 
ATOM      5  O   UNL     1      22.664   3.756  14.808  1.00  0.00    -0.341 OA
ATOM      6  C   UNL     1      24.144   4.688  17.157  1.00  0.00     0.179 C 
ATOM      7  C   UNL     1      23.408   5.649  16.212  1.00  0.00     0.202 C 
BRANCH   3   8
ATOM      8  C   UNL     1      24.519   2.140  15.041  1.00  0.00     0.191 C 
BRANCH   8   9
ATOM      9  O   UNL     1      24.384   0.745  15.030  1.00  0.00    -0.394 OA
ATOM     10  H   UNL     1      23.437   0.545  14.804  1.00  0.00     0.210 HD
ENDBRANCH   8   9
ENDBRANCH   3   8
BRANCH   4  11
ATOM     11  O   UNL     1      22.254   3.361  17.791  1.00  0.00    -0.387 OA
ATOM     12  H   UNL     1      22.434   3.701  18.706  1.00  0.00     0.211 HD
ENDBRANCH   4  11
BRANCH   6  13
ATOM     13  O   UNL     1      25.496   4.590  16.795  1.00  0.00    -0.387 OA
ATOM     14  H   UNL     1      25.756   5.459  16.397  1.00  0.00     0.211 HD
ENDBRANCH   6  13
BRANCH   7  15
ATOM     15  O   UNL     1      22.131   5.943  16.727  1.00  0.00    -0.385 OA
ATOM     16  H   UNL     1      21.526   6.073  15.955  1.00  0.00     0.211 HD
ENDBRANCH   7  15
ENDBRANCH   1   2
BRANCH   1  17
ATOM     17  C   UNL     1      24.833   6.247  13.464  1.00  0.00     0.224 C 
ATOM     18  C   UNL     1      26.280   6.717  13.757  1.00  0.00     0.208 C 
ATOM     19  O   UNL     1      23.921   7.274  13.817  1.00  0.00    -0.337 OA
ATOM     20  C   UNL     1      26.127   8.193  14.115  1.00  0.00     0.180 C 
ATOM     21  C   UNL     1      24.626   8.488  13.942  1.00  0.00     0.179 C 
BRANCH  17  22
ATOM     22  C   UNL     1      24.668   5.973  11.953  1.00  0.00     0.225 C 
BRANCH  22  23
ATOM     23  O   UNL     1      25.921   5.939  11.320  1.00  0.00    -0.391 OA
ATOM     24  H   UNL     1      25.778   6.274  10.393  1.00  0.00     0.210 HD
ENDBRANCH  22  23
ENDBRANCH  17  22
BRANCH  18  25
ATOM     25  O   UNL     1      26.873   5.981  14.798  1.00  0.00    -0.385 OA
ATOM     26  H   UNL     1      27.629   6.531  15.137  1.00  0.00     0.211 HD
ENDBRANCH  18  25
BRANCH  20  27
ATOM     27  O   UNL     1      26.624   8.506  15.403  1.00  0.00    -0.387 OA
ATOM     28  H   UNL     1      25.980   8.182  16.076  1.00  0.00     0.211 HD
ENDBRANCH  20  27
BRANCH  21  29
ATOM     29  C   UNL     1      23.991   9.313  15.079  1.00  0.00     0.191 C 
BRANCH  29  30
ATOM     30  O   UNL     1      23.012  10.204  14.605  1.00  0.00    -0.394 OA
ATOM     31  H   UNL     1      22.648  10.680  15.396  1.00  0.00     0.210 HD
ENDBRANCH  29  30
ENDBRANCH  21  29
ENDBRANCH   1  17
TORSDOF 13
ENDMDL
MODEL 7
REMARK VINA RESULT:     3.749      1.348      5.331
REMARK INTER + INTRA:           6.478
REMARK INTER:                   6.099
REMARK INTRA:                   0.378
REMARK UNBOUND:                 0.755
REMARK SMILES OC[C@@H]1O[C@H](O[C@@]2(CO)O[C@@H](CO)[C@@H](O)[C@H]2O)[C@@H](O)[C@H](O)[C@H]1O
REMARK SMILES IDX 6 1 5 2 3 3 22 4 4 5 20 6 18 7 2 8 1 9 23 11 21 13 19 15
REMARK SMILES IDX 7 17 16 18 10 19 14 20 11 21 8 22 9 23 17 25 15 27 12 29
REMARK SMILES IDX 13 30
REMARK H PARENT 1 10 23 12 21 14 19 16 9 24 17 26 15 28 13 31
REMARK Flexibility Score: inf
ROOT
ATOM      1  O   UNL     1      25.609   5.656  15.583  1.00  0.00    -0.313 OA
ENDROOT
BRANCH   1   2
ATOM      2  C   UNL     1      25.100   4.337  15.428  1.00  0.00     0.285 C 
ATOM      3  C   UNL     1      24.704   3.814  17.742  1.00  0.00     0.178 C 
ATOM      4  C   UNL     1      23.167   3.910  17.556  1.00  0.00     0.177 C 
ATOM      5  O   UNL     1      25.417   3.518  16.546  1.00  0.00    -0.341 OA
ATOM      6  C   UNL     1      22.786   4.792  16.364  1.00  0.00     0.179 C 
ATOM      7  C   UNL     1      23.593   4.386  15.122  1.00  0.00     0.202 C 
BRANCH   3   8
ATOM      8  C   UNL     1      25.315   4.995  18.525  1.00  0.00     0.191 C 
BRANCH   8   9
ATOM      9  O   UNL     1      25.497   4.653  19.872  1.00  0.00    -0.394 OA
ATOM     10  H   UNL     1      25.395   3.666  19.938  1.00  0.00     0.210 HD
ENDBRANCH   8   9
ENDBRANCH   3   8
BRANCH   4  11
ATOM     11  O   UNL     1      22.633   2.621  17.363  1.00  0.00    -0.387 OA
ATOM     12  H   UNL     1      21.786   2.729  16.855  1.00  0.00     0.211 HD
ENDBRANCH   4  11
BRANCH   6  13
ATOM     13  O   UNL     1      23.015   6.142  16.673  1.00  0.00    -0.387 OA
ATOM     14  H   UNL     1      22.273   6.437  17.259  1.00  0.00     0.211 HD
ENDBRANCH   6  13
BRANCH   7  15
ATOM     15  O   UNL     1      23.167   3.124  14.666  1.00  0.00    -0.385 OA
ATOM     16  H   UNL     1      22.591   2.737  15.372  1.00  0.00     0.211 HD
ENDBRANCH   7  15
ENDBRANCH   1   2
BRANCH   1  17
ATOM     17  C   UNL     1      25.429   6.485  14.437  1.00  0.00     0.224 C 
ATOM     18  C   UNL     1      26.649   7.411  14.204  1.00  0.00     0.208 C 
ATOM     19  O   UNL     1      24.255   7.269  14.556  1.00  0.00    -0.337 OA
ATOM     20  C   UNL     1      26.033   8.791  13.990  1.00  0.00     0.180 C 
ATOM     21  C   UNL     1      24.513   8.558  14.048  1.00  0.00     0.179 C 
BRANCH  17  22
ATOM     22  C   UNL     1      25.246   5.547  13.223  1.00  0.00     0.225 C 
BRANCH  22  23
ATOM     23  O   UNL     1      25.754   6.144  12.058  1.00  0.00    -0.391 OA
ATOM     24  H   UNL     1      25.480   7.101  12.090  1.00  0.00     0.210 HD
ENDBRANCH  22  23
ENDBRANCH  17  22
BRANCH  18  25
ATOM     25  O   UNL     1      27.540   7.395  15.291  1.00  0.00    -0.385 OA
ATOM     26  H   UNL     1      27.126   7.950  16.005  1.00  0.00     0.211 HD
ENDBRANCH  18  25
BRANCH  20  27
ATOM     27  O   UNL     1      26.497   9.756  14.917  1.00  0.00    -0.387 OA
ATOM     28  H   UNL     1      26.144  10.639  14.654  1.00  0.00     0.211 HD
ENDBRANCH  20  27
BRANCH  21  29
ATOM     29  C   UNL     1      23.729   9.586  14.888  1.00  0.00     0.191 C 
BRANCH  29  30
ATOM     30  O   UNL     1      22.397   9.718  14.459  1.00  0.00    -0.394 OA
ATOM     31  H   UNL     1      22.363  10.507  13.859  1.00  0.00     0.210 HD
ENDBRANCH  29  30
ENDBRANCH  21  29
ENDBRANCH   1  17
TORSDOF 13
ENDMDL
MODEL 8
REMARK VINA RESULT:     3.821      2.688      5.004
REMARK INTER + INTRA:           6.587
REMARK INTER:                   7.332
REMARK INTRA:                  -0.745
REMARK UNBOUND:                 0.755
REMARK SMILES OC[C@@H]1O[C@H](O[C@@]2(CO)O[C@@H](CO)[C@@H](O)[C@H]2O)[C@@H](O)[C@H](O)[C@H]1O
REMARK SMILES IDX 6 1 5 2 3 3 22 4 4 5 20 6 18 7 2 8 1 9 23 11 21 13 19 15
REMARK SMILES IDX 7 17 16 18 10 19 14 20 11 21 8 22 9 23 17 25 15 27 12 29
REMARK SMILES IDX 13 30
REMARK H PARENT 1 10 23 12 21 14 19 16 9 24 17 26 15 28 13 31
REMARK Flexibility Score: inf
ROOT
ATOM      1  O   UNL     1      25.045   5.715  12.220  1.00  0.00    -0.313 OA
ENDROOT
BRANCH   1   2
ATOM      2  C   UNL     1      26.155   6.226  11.493  1.00  0.00     0.285 C 
ATOM      3  C   UNL     1      26.211   4.611   9.711  1.00  0.00     0.178 C 
ATOM      4  C   UNL     1      25.680   5.645   8.685  1.00  0.00     0.177 C 
ATOM      5  O   UNL     1      26.870   5.190  10.832  1.00  0.00    -0.341 OA
ATOM      6  C   UNL     1      24.896   6.775   9.360  1.00  0.00     0.179 C 
ATOM      7  C   UNL     1      25.693   7.344  10.542  1.00  0.00     0.202 C 
BRANCH   3   8
ATOM      8  C   UNL     1      25.175   3.540  10.115  1.00  0.00     0.191 C 
BRANCH   8   9
ATOM      9  O   UNL     1      24.804   2.770   9.004  1.00  0.00    -0.394 OA
ATOM     10  H   UNL     1      25.614   2.669   8.436  1.00  0.00     0.210 HD
ENDBRANCH   8   9
ENDBRANCH   3   8
BRANCH   4  11
ATOM     11  O   UNL     1      26.759   6.199   7.970  1.00  0.00    -0.387 OA
ATOM     12  H   UNL     1      26.391   6.564   7.122  1.00  0.00     0.211 HD
ENDBRANCH   4  11
BRANCH   6  13
ATOM     13  O   UNL     1      23.650   6.298   9.797  1.00  0.00    -0.387 OA
ATOM     14  H   UNL     1      22.983   7.005   9.604  1.00  0.00     0.211 HD
ENDBRANCH   6  13
BRANCH   7  15
ATOM     15  O   UNL     1      26.817   8.047  10.066  1.00  0.00    -0.385 OA
ATOM     16  H   UNL     1      27.323   7.429   9.481  1.00  0.00     0.211 HD
ENDBRANCH   7  15
ENDBRANCH   1   2
BRANCH   1  17
ATOM     17  C   UNL     1      24.952   6.206  13.555  1.00  0.00     0.224 C 
ATOM     18  C   UNL     1      24.495   5.101  14.540  1.00  0.00     0.208 C 
ATOM     19  O   UNL     1      24.061   7.306  13.631  1.00  0.00    -0.337 OA
ATOM     20  C   UNL     1      23.375   5.758  15.344  1.00  0.00     0.180 C 
ATOM     21  C   UNL     1      23.308   7.203  14.818  1.00  0.00     0.179 C 
BRANCH  17  22
ATOM     22  C   UNL     1      26.356   6.711  13.952  1.00  0.00     0.225 C 
BRANCH  22  23
ATOM     23  O   UNL     1      27.004   5.773  14.771  1.00  0.00    -0.391 OA
ATOM     24  H   UNL     1      26.884   6.086  15.709  1.00  0.00     0.210 HD
ENDBRANCH  22  23
ENDBRANCH  17  22
BRANCH  18  25
ATOM     25  O   UNL     1      24.054   3.945  13.871  1.00  0.00    -0.385 OA
ATOM     26  H   UNL     1      24.482   3.958  12.973  1.00  0.00     0.211 HD
ENDBRANCH  18  25
BRANCH  20  27
ATOM     27  O   UNL     1      22.146   5.062  15.255  1.00  0.00    -0.387 OA
ATOM     28  H   UNL     1      21.994   4.810  14.313  1.00  0.00     0.211 HD
ENDBRANCH  20  27
BRANCH  21  29
ATOM     29  C   UNL     1      21.885   7.730  14.547  1.00  0.00     0.191 C 
BRANCH  29  30
ATOM     30  O   UNL     1      21.833   9.135  14.530  1.00  0.00    -0.394 OA
ATOM     31  H   UNL     1      22.500   9.457  15.191  1.00  0.00     0.210 HD
ENDBRANCH  29  30
ENDBRANCH  21  29
ENDBRANCH   1  17
TORSDOF 13
ENDMDL
MODEL 9
REMARK VINA RESULT:     3.917      1.465      3.294
REMARK INTER + INTRA:           6.733
REMARK INTER:                   7.336
REMARK INTRA:                  -0.603
REMARK UNBOUND:                 0.755
REMARK SMILES OC[C@@H]1O[C@H](O[C@@]2(CO)O[C@@H](CO)[C@@H](O)[C@H]2O)[C@@H](O)[C@H](O)[C@H]1O
REMARK SMILES IDX 6 1 5 2 3 3 22 4 4 5 20 6 18 7 2 8 1 9 23 11 21 13 19 15
REMARK SMILES IDX 7 17 16 18 10 19 14 20 11 21 8 22 9 23 17 25 15 27 12 29
REMARK SMILES IDX 13 30
REMARK H PARENT 1 10 23 12 21 14 19 16 9 24 17 26 15 28 13 31
REMARK Flexibility Score: inf
ROOT
ATOM      1  O   UNL     1      24.246   4.673  14.395  1.00  0.00    -0.313 OA
ENDROOT
BRANCH   1   2
ATOM      2  C   UNL     1      23.990   6.009  14.810  1.00  0.00     0.285 C 
ATOM      3  C   UNL     1      26.259   6.747  15.116  1.00  0.00     0.178 C 
ATOM      4  C   UNL     1      26.195   7.641  13.850  1.00  0.00     0.177 C 
ATOM      5  O   UNL     1      24.990   6.480  15.703  1.00  0.00    -0.341 OA
ATOM      6  C   UNL     1      25.132   7.159  12.858  1.00  0.00     0.179 C 
ATOM      7  C   UNL     1      23.800   6.916  13.582  1.00  0.00     0.202 C 
BRANCH   3   8
ATOM      8  C   UNL     1      27.115   5.475  14.941  1.00  0.00     0.191 C 
BRANCH   8   9
ATOM      9  O   UNL     1      28.472   5.763  15.141  1.00  0.00    -0.394 OA
ATOM     10  H   UNL     1      28.952   5.499  14.311  1.00  0.00     0.210 HD
ENDBRANCH   8   9
ENDBRANCH   3   8
BRANCH   4  11
ATOM     11  O   UNL     1      25.907   8.968  14.223  1.00  0.00    -0.387 OA
ATOM     12  H   UNL     1      26.513   9.198  14.975  1.00  0.00     0.211 HD
ENDBRANCH   4  11
BRANCH   6  13
ATOM     13  O   UNL     1      25.565   5.982  12.227  1.00  0.00    -0.387 OA
ATOM     14  H   UNL     1      26.161   6.252  11.483  1.00  0.00     0.211 HD
ENDBRANCH   6  13
BRANCH   7  15
ATOM     15  O   UNL     1      23.246   8.145  13.989  1.00  0.00    -0.385 OA
ATOM     16  H   UNL     1      22.289   7.985  14.183  1.00  0.00     0.211 HD
ENDBRANCH   7  15
ENDBRANCH   1   2
BRANCH   1  17
ATOM     17  C   UNL     1      23.432   3.699  15.044  1.00  0.00     0.224 C 
ATOM     18  C   UNL     1      24.280   2.723  15.898  1.00  0.00     0.208 C 
ATOM     19  O   UNL     1      22.670   2.963  14.101  1.00  0.00    -0.337 OA
ATOM     20  C   UNL     1      23.773   1.340  15.497  1.00  0.00     0.180 C 
ATOM     21  C   UNL     1      22.634   1.612  14.498  1.00  0.00     0.179 C 
BRANCH  17  22
ATOM     22  C   UNL     1      22.444   4.464  15.951  1.00  0.00     0.225 C 
BRANCH  22  23
ATOM     23  O   UNL     1      22.747   4.245  17.304  1.00  0.00    -0.391 OA
ATOM     24  H   UNL     1      23.022   5.126  17.678  1.00  0.00     0.210 HD
ENDBRANCH  22  23
ENDBRANCH  17  22
BRANCH  18  25
ATOM     25  O   UNL     1      25.657   2.869  15.656  1.00  0.00    -0.385 OA
ATOM     26  H   UNL     1      26.076   3.085  16.532  1.00  0.00     0.211 HD
ENDBRANCH  18  25
BRANCH  20  27
ATOM     27  O   UNL     1      24.792   0.502  14.984  1.00  0.00    -0.387 OA
ATOM     28  H   UNL     1      24.451   0.052  14.175  1.00  0.00     0.211 HD
ENDBRANCH  20  27
BRANCH  21  29
ATOM     29  C   UNL     1      22.651   0.726  13.236  1.00  0.00     0.191 C 
BRANCH  29  30
ATOM     30  O   UNL     1      22.837  -0.633  13.544  1.00  0.00    -0.394 OA
ATOM     31  H   UNL     1      22.610  -1.148  12.727  1.00  0.00     0.210 HD
ENDBRANCH  29  30
ENDBRANCH  21  29
ENDBRANCH   1  17
TORSDOF 13
ENDMDL
