MODEL 1
REMARK VINA RESULT:     5.801      0.000      0.000
REMARK INTER + INTRA:           6.246
REMARK INTER:                   6.310
REMARK INTRA:                  -0.064
REMARK UNBOUND:                -0.064
REMARK SMILES COc1cc2ccc(=O)oc2cc1O
REMARK SMILES IDX 3 1 13 2 12 3 11 4 5 5 4 6 6 7 7 8 8 9 9 10 10 11 2 12 1 13
REMARK SMILES IDX 14 14
REMARK H PARENT 14 15
REMARK Flexibility Score: inf
ROOT
ATOM      1  C   UNL     1      -2.111   0.139   2.577  1.00  0.00     0.161 A 
ATOM      2  C   UNL     1      -3.055   0.025   3.617  1.00  0.00     0.161 A 
ATOM      3  C   UNL     1      -4.251  -0.674   3.409  1.00  0.00     0.098 A 
ATOM      4  C   UNL     1      -4.518  -1.266   2.173  1.00  0.00     0.142 A 
ATOM      5  C   UNL     1      -3.579  -1.158   1.127  1.00  0.00     0.022 A 
ATOM      6  C   UNL     1      -2.381  -0.459   1.330  1.00  0.00     0.062 A 
ATOM      7  C   UNL     1      -3.876  -1.761  -0.100  1.00  0.00     0.019 A 
ATOM      8  C   UNL     1      -5.081  -2.446  -0.252  1.00  0.00     0.094 A 
ATOM      9  C   UNL     1      -5.964  -2.511   0.830  1.00  0.00     0.336 A 
ATOM     10  O   UNL     1      -7.057  -3.125   0.713  1.00  0.00    -0.246 OA
ATOM     11  O   UNL     1      -5.658  -1.928   1.986  1.00  0.00    -0.423 OA
ENDROOT
BRANCH   1  12
ATOM     12  O   UNL     1      -0.923   0.847   2.819  1.00  0.00    -0.493 OA
ATOM     13  C   UNL     1       0.353   0.243   3.012  1.00  0.00     0.278 C 
ENDBRANCH   1  12
BRANCH   2  14
ATOM     14  O   UNL     1      -2.824   0.602   4.865  1.00  0.00    -0.504 OA
ATOM     15  H   UNL     1      -2.856   1.604   5.011  1.00  0.00     0.293 HD
ENDBRANCH   2  14
TORSDOF 2
ENDMDL
MODEL 2
REMARK VINA RESULT:     5.821      1.224      2.238
REMARK INTER + INTRA:           6.267
REMARK INTER:                   5.458
REMARK INTRA:                   0.809
REMARK UNBOUND:                -0.064
REMARK SMILES COc1cc2ccc(=O)oc2cc1O
REMARK SMILES IDX 3 1 13 2 12 3 11 4 5 5 4 6 6 7 7 8 8 9 9 10 10 11 2 12 1 13
REMARK SMILES IDX 14 14
REMARK H PARENT 14 15
REMARK Flexibility Score: inf
ROOT
ATOM      1  C   UNL     1      -2.931  -0.009   3.471  1.00  0.00     0.161 A 
ATOM      2  C   UNL     1      -2.253   0.187   2.251  1.00  0.00     0.161 A 
ATOM      3  C   UNL     1      -2.715  -0.428   1.082  1.00  0.00     0.098 A 
ATOM      4  C   UNL     1      -3.850  -1.240   1.111  1.00  0.00     0.142 A 
ATOM      5  C   UNL     1      -4.535  -1.443   2.327  1.00  0.00     0.022 A 
ATOM      6  C   UNL     1      -4.076  -0.829   3.500  1.00  0.00     0.062 A 
ATOM      7  C   UNL     1      -5.669  -2.263   2.324  1.00  0.00     0.019 A 
ATOM      8  C   UNL     1      -6.086  -2.850   1.130  1.00  0.00     0.094 A 
ATOM      9  C   UNL     1      -5.357  -2.604  -0.037  1.00  0.00     0.336 A 
ATOM     10  O   UNL     1      -5.717  -3.125  -1.125  1.00  0.00    -0.246 OA
ATOM     11  O   UNL     1      -4.282  -1.820  -0.007  1.00  0.00    -0.423 OA
ENDROOT
BRANCH   1  12
ATOM     12  O   UNL     1      -2.440   0.622   4.625  1.00  0.00    -0.493 OA
ATOM     13  C   UNL     1      -1.111   1.113   4.774  1.00  0.00     0.278 C 
ENDBRANCH   1  12
BRANCH   2  14
ATOM     14  O   UNL     1      -1.116   0.992   2.182  1.00  0.00    -0.504 OA
ATOM     15  H   UNL     1      -0.475   0.954   1.398  1.00  0.00     0.293 HD
ENDBRANCH   2  14
TORSDOF 2
ENDMDL
MODEL 3
REMARK VINA RESULT:     5.848      1.268      4.887
REMARK INTER + INTRA:           6.296
REMARK INTER:                   6.343
REMARK INTRA:                  -0.047
REMARK UNBOUND:                -0.064
REMARK SMILES COc1cc2ccc(=O)oc2cc1O
REMARK SMILES IDX 3 1 13 2 12 3 11 4 5 5 4 6 6 7 7 8 8 9 9 10 10 11 2 12 1 13
REMARK SMILES IDX 14 14
REMARK H PARENT 14 15
REMARK Flexibility Score: inf
ROOT
ATOM      1  C   UNL     1      -4.894  -2.003   1.279  1.00  0.00     0.161 A 
ATOM      2  C   UNL     1      -5.061  -2.252   2.656  1.00  0.00     0.161 A 
ATOM      3  C   UNL     1      -4.225  -1.630   3.591  1.00  0.00     0.098 A 
ATOM      4  C   UNL     1      -3.219  -0.758   3.170  1.00  0.00     0.142 A 
ATOM      5  C   UNL     1      -3.044  -0.503   1.795  1.00  0.00     0.022 A 
ATOM      6  C   UNL     1      -3.878  -1.123   0.855  1.00  0.00     0.062 A 
ATOM      7  C   UNL     1      -2.027   0.376   1.404  1.00  0.00     0.019 A 
ATOM      8  C   UNL     1      -1.224   0.968   2.377  1.00  0.00     0.094 A 
ATOM      9  C   UNL     1      -1.456   0.667   3.723  1.00  0.00     0.336 A 
ATOM     10  O   UNL     1      -0.741   1.192   4.617  1.00  0.00    -0.246 OA
ATOM     11  O   UNL     1      -2.429  -0.171   4.067  1.00  0.00    -0.423 OA
ENDROOT
BRANCH   1  12
ATOM     12  O   UNL     1      -5.749  -2.644   0.369  1.00  0.00    -0.493 OA
ATOM     13  C   UNL     1      -5.357  -3.108  -0.920  1.00  0.00     0.278 C 
ENDBRANCH   1  12
BRANCH   2  14
ATOM     14  O   UNL     1      -6.055  -3.117   3.115  1.00  0.00    -0.504 OA
ATOM     15  H   UNL     1      -6.612  -2.910   3.935  1.00  0.00     0.293 HD
ENDBRANCH   2  14
TORSDOF 2
ENDMDL
MODEL 4
REMARK VINA RESULT:     7.000      1.316      5.376
REMARK INTER + INTRA:           7.550
REMARK INTER:                   6.855
REMARK INTRA:                   0.694
REMARK UNBOUND:                -0.064
REMARK SMILES COc1cc2ccc(=O)oc2cc1O
REMARK SMILES IDX 3 1 13 2 12 3 11 4 5 5 4 6 6 7 7 8 8 9 9 10 10 11 2 12 1 13
REMARK SMILES IDX 14 14
REMARK H PARENT 14 15
REMARK Flexibility Score: inf
ROOT
ATOM      1  C   UNL     1      -5.239  -1.601   1.193  1.00  0.00     0.161 A 
ATOM      2  C   UNL     1      -4.246  -1.443   0.206  1.00  0.00     0.161 A 
ATOM      3  C   UNL     1      -3.010  -0.873   0.535  1.00  0.00     0.098 A 
ATOM      4  C   UNL     1      -2.749  -0.458   1.842  1.00  0.00     0.142 A 
ATOM      5  C   UNL     1      -3.736  -0.612   2.837  1.00  0.00     0.022 A 
ATOM      6  C   UNL     1      -4.975  -1.182   2.512  1.00  0.00     0.062 A 
ATOM      7  C   UNL     1      -3.445  -0.185   4.138  1.00  0.00     0.019 A 
ATOM      8  C   UNL     1      -2.197   0.374   4.411  1.00  0.00     0.094 A 
ATOM      9  C   UNL     1      -1.268   0.496   3.374  1.00  0.00     0.336 A 
ATOM     10  O   UNL     1      -0.136   0.999   3.600  1.00  0.00    -0.246 OA
ATOM     11  O   UNL     1      -1.570   0.083   2.146  1.00  0.00    -0.423 OA
ENDROOT
BRANCH   1  12
ATOM     12  O   UNL     1      -6.467  -2.176   0.828  1.00  0.00    -0.493 OA
ATOM     13  C   UNL     1      -6.635  -3.125  -0.221  1.00  0.00     0.278 C 
ENDBRANCH   1  12
BRANCH   2  14
ATOM     14  O   UNL     1      -4.469  -1.846  -1.111  1.00  0.00    -0.504 OA
ATOM     15  H   UNL     1      -5.131  -1.374  -1.714  1.00  0.00     0.293 HD
ENDBRANCH   2  14
TORSDOF 2
ENDMDL
MODEL 5
REMARK VINA RESULT:     7.379      1.274      4.949
REMARK INTER + INTRA:           7.962
REMARK INTER:                   8.023
REMARK INTRA:                  -0.062
REMARK UNBOUND:                -0.064
REMARK SMILES COc1cc2ccc(=O)oc2cc1O
REMARK SMILES IDX 3 1 13 2 12 3 11 4 5 5 4 6 6 7 7 8 8 9 9 10 10 11 2 12 1 13
REMARK SMILES IDX 14 14
REMARK H PARENT 14 15
REMARK Flexibility Score: inf
ROOT
ATOM      1  C   UNL     1      -5.013  -1.690   1.607  1.00  0.00     0.161 A 
ATOM      2  C   UNL     1      -4.916  -2.140   2.939  1.00  0.00     0.161 A 
ATOM      3  C   UNL     1      -3.932  -1.620   3.788  1.00  0.00     0.098 A 
ATOM      4  C   UNL     1      -3.039  -0.652   3.326  1.00  0.00     0.142 A 
ATOM      5  C   UNL     1      -3.127  -0.195   1.995  1.00  0.00     0.022 A 
ATOM      6  C   UNL     1      -4.111  -0.713   1.141  1.00  0.00     0.062 A 
ATOM      7  C   UNL     1      -2.217   0.775   1.561  1.00  0.00     0.019 A 
ATOM      8  C   UNL     1      -1.258   1.259   2.449  1.00  0.00     0.094 A 
ATOM      9  C   UNL     1      -1.229   0.759   3.754  1.00  0.00     0.336 A 
ATOM     10  O   UNL     1      -0.370   1.183   4.571  1.00  0.00    -0.246 OA
ATOM     11  O   UNL     1      -2.106  -0.164   4.141  1.00  0.00    -0.423 OA
ENDROOT
BRANCH   1  12
ATOM     12  O   UNL     1      -6.012  -2.232   0.782  1.00  0.00    -0.493 OA
ATOM     13  C   UNL     1      -5.764  -3.076  -0.339  1.00  0.00     0.278 C 
ENDBRANCH   1  12
BRANCH   2  14
ATOM     14  O   UNL     1      -5.791  -3.105   3.438  1.00  0.00    -0.504 OA
ATOM     15  H   UNL     1      -6.763  -2.902   3.635  1.00  0.00     0.293 HD
ENDBRANCH   2  14
TORSDOF 2
ENDMDL
