MODEL 1
REMARK VINA RESULT:    -6.247      0.000      0.000
REMARK INTER + INTRA:         -11.917
REMARK INTER:                  -9.533
REMARK INTRA:                  -2.384
REMARK UNBOUND:                -2.384
REMARK SMILES CC(=O)CCC=C(C)CCC=C(C)CCC=C(C)C
REMARK SMILES IDX 10 1 11 2 12 3 13 4 14 5 15 6 16 7 18 8 17 9 19 10 9 11 7 12
REMARK SMILES IDX 6 13 8 14 5 15 4 16 2 17 3 18 1 19
REMARK H PARENT
REMARK Flexibility Score: inf
ROOT
ATOM      1  C   UNL     1      -9.961  31.752  23.959  1.00  0.00     0.032 C 
ENDROOT
BRANCH   1   2
ATOM      2  C   UNL     1      -9.151  32.177  25.157  1.00  0.00    -0.028 C 
ATOM      3  C   UNL     1      -8.813  31.374  26.194  1.00  0.00    -0.077 C 
ATOM      4  C   UNL     1      -7.951  31.951  27.287  1.00  0.00     0.039 C 
BRANCH   3   5
ATOM      5  C   UNL     1      -9.284  29.937  26.329  1.00  0.00     0.034 C 
BRANCH   5   6
ATOM      6  C   UNL     1      -8.251  28.940  25.784  1.00  0.00     0.032 C 
BRANCH   6   7
ATOM      7  C   UNL     1      -8.678  28.377  24.450  1.00  0.00    -0.028 C 
ATOM      8  C   UNL     1      -8.609  27.970  22.029  1.00  0.00     0.039 C 
ATOM      9  C   UNL     1      -8.107  28.676  23.263  1.00  0.00    -0.080 C 
ATOM     10  C   UNL     1      -6.994  29.687  23.139  1.00  0.00     0.039 C 
ENDBRANCH   6   7
ENDBRANCH   5   6
ENDBRANCH   3   5
ENDBRANCH   1   2
BRANCH   1  11
ATOM     11  C   UNL     1     -10.090  32.901  22.952  1.00  0.00     0.034 C 
BRANCH  11  12
ATOM     12  C   UNL     1      -9.121  32.713  21.801  1.00  0.00    -0.077 C 
ATOM     13  C   UNL     1      -8.134  33.592  21.514  1.00  0.00    -0.028 C 
ATOM     14  C   UNL     1      -9.286  31.509  20.910  1.00  0.00     0.039 C 
BRANCH  13  15
ATOM     15  C   UNL     1      -7.808  34.835  22.311  1.00  0.00     0.035 C 
BRANCH  15  16
ATOM     16  C   UNL     1      -6.985  34.504  23.561  1.00  0.00     0.079 C 
BRANCH  16  17
ATOM     17  C   UNL     1      -7.545  35.166  24.793  1.00  0.00     0.130 C 
ATOM     18  O   UNL     1      -6.947  35.071  25.854  1.00  0.00    -0.300 OA
ATOM     19  C   UNL     1      -8.829  35.939  24.744  1.00  0.00     0.087 C 
ENDBRANCH  16  17
ENDBRANCH  15  16
ENDBRANCH  13  15
ENDBRANCH  11  12
ENDBRANCH   1  11
TORSDOF 9
ENDMDL
MODEL 2
REMARK VINA RESULT:    -6.109      1.892      5.120
REMARK INTER + INTRA:         -11.708
REMARK INTER:                  -9.769
REMARK INTRA:                  -1.938
REMARK UNBOUND:                -2.384
REMARK SMILES CC(=O)CCC=C(C)CCC=C(C)CCC=C(C)C
REMARK SMILES IDX 10 1 11 2 12 3 13 4 14 5 15 6 16 7 18 8 17 9 19 10 9 11 7 12
REMARK SMILES IDX 6 13 8 14 5 15 4 16 2 17 3 18 1 19
REMARK H PARENT
REMARK Flexibility Score: inf
ROOT
ATOM      1  C   UNL     1      -8.036  34.788  23.150  1.00  0.00     0.032 C 
ENDROOT
BRANCH   1   2
ATOM      2  C   UNL     1      -7.500  34.436  21.785  1.00  0.00    -0.028 C 
ATOM      3  C   UNL     1      -8.080  33.573  20.919  1.00  0.00    -0.077 C 
ATOM      4  C   UNL     1      -7.435  33.377  19.571  1.00  0.00     0.039 C 
BRANCH   3   5
ATOM      5  C   UNL     1      -9.325  32.767  21.247  1.00  0.00     0.034 C 
BRANCH   5   6
ATOM      6  C   UNL     1      -9.037  31.261  21.304  1.00  0.00     0.032 C 
BRANCH   6   7
ATOM      7  C   UNL     1      -7.887  30.954  22.233  1.00  0.00    -0.028 C 
ATOM      8  C   UNL     1      -6.344  29.580  23.561  1.00  0.00     0.039 C 
ATOM      9  C   UNL     1      -7.569  29.724  22.694  1.00  0.00    -0.080 C 
ATOM     10  C   UNL     1      -8.396  28.506  22.369  1.00  0.00     0.039 C 
ENDBRANCH   6   7
ENDBRANCH   5   6
ENDBRANCH   3   5
ENDBRANCH   1   2
BRANCH   1  11
ATOM     11  C   UNL     1      -7.352  33.952  24.237  1.00  0.00     0.034 C 
BRANCH  11  12
ATOM     12  C   UNL     1      -8.078  34.099  25.560  1.00  0.00    -0.077 C 
ATOM     13  C   UNL     1      -8.639  33.057  26.216  1.00  0.00    -0.028 C 
ATOM     14  C   UNL     1      -8.213  35.475  26.159  1.00  0.00     0.039 C 
BRANCH  13  15
ATOM     15  C   UNL     1      -8.580  31.612  25.777  1.00  0.00     0.035 C 
BRANCH  15  16
ATOM     16  C   UNL     1      -7.798  30.751  26.776  1.00  0.00     0.079 C 
BRANCH  16  17
ATOM     17  C   UNL     1      -8.556  29.505  27.157  1.00  0.00     0.130 C 
ATOM     18  O   UNL     1      -8.992  29.388  28.293  1.00  0.00    -0.300 OA
ATOM     19  C   UNL     1      -8.783  28.401  26.168  1.00  0.00     0.087 C 
ENDBRANCH  16  17
ENDBRANCH  15  16
ENDBRANCH  13  15
ENDBRANCH  11  12
ENDBRANCH   1  11
TORSDOF 9
ENDMDL
MODEL 3
REMARK VINA RESULT:    -6.064      2.072      5.624
REMARK INTER + INTRA:         -11.639
REMARK INTER:                  -9.751
REMARK INTRA:                  -1.887
REMARK UNBOUND:                -2.384
REMARK SMILES CC(=O)CCC=C(C)CCC=C(C)CCC=C(C)C
REMARK SMILES IDX 10 1 11 2 12 3 13 4 14 5 15 6 16 7 18 8 17 9 19 10 9 11 7 12
REMARK SMILES IDX 6 13 8 14 5 15 4 16 2 17 3 18 1 19
REMARK H PARENT
REMARK Flexibility Score: inf
ROOT
ATOM      1  C   UNL     1      -8.053  32.299  25.498  1.00  0.00     0.032 C 
ENDROOT
BRANCH   1   2
ATOM      2  C   UNL     1      -8.466  33.746  25.596  1.00  0.00    -0.028 C 
ATOM      3  C   UNL     1      -8.034  34.736  24.781  1.00  0.00    -0.077 C 
ATOM      4  C   UNL     1      -8.591  36.121  24.988  1.00  0.00     0.039 C 
BRANCH   3   5
ATOM      5  C   UNL     1      -6.994  34.532  23.693  1.00  0.00     0.034 C 
BRANCH   5   6
ATOM      6  C   UNL     1      -7.590  34.704  22.289  1.00  0.00     0.032 C 
BRANCH   6   7
ATOM      7  C   UNL     1      -8.626  33.646  21.995  1.00  0.00    -0.028 C 
ATOM      8  C   UNL     1      -9.666  31.743  20.843  1.00  0.00     0.039 C 
ATOM      9  C   UNL     1      -8.585  32.788  20.952  1.00  0.00    -0.080 C 
ATOM     10  C   UNL     1      -7.500  32.847  19.906  1.00  0.00     0.039 C 
ENDBRANCH   6   7
ENDBRANCH   5   6
ENDBRANCH   3   5
ENDBRANCH   1   2
BRANCH   1  11
ATOM     11  C   UNL     1      -9.282  31.384  25.448  1.00  0.00     0.034 C 
BRANCH  11  12
ATOM     12  C   UNL     1      -9.120  30.219  26.405  1.00  0.00    -0.077 C 
ATOM     13  C   UNL     1      -9.346  28.933  26.050  1.00  0.00    -0.028 C 
ATOM     14  C   UNL     1      -8.721  30.506  27.829  1.00  0.00     0.039 C 
BRANCH  13  15
ATOM     15  C   UNL     1      -9.726  28.460  24.665  1.00  0.00     0.035 C 
BRANCH  15  16
ATOM     16  C   UNL     1      -8.521  27.875  23.919  1.00  0.00     0.079 C 
BRANCH  16  17
ATOM     17  C   UNL     1      -8.160  28.695  22.708  1.00  0.00     0.130 C 
ATOM     18  O   UNL     1      -8.728  28.488  21.646  1.00  0.00    -0.300 OA
ATOM     19  C   UNL     1      -7.108  29.762  22.778  1.00  0.00     0.087 C 
ENDBRANCH  16  17
ENDBRANCH  15  16
ENDBRANCH  13  15
ENDBRANCH  11  12
ENDBRANCH   1  11
TORSDOF 9
ENDMDL
MODEL 4
REMARK VINA RESULT:    -5.937      2.239      5.461
REMARK INTER + INTRA:         -11.445
REMARK INTER:                  -9.393
REMARK INTRA:                  -2.052
REMARK UNBOUND:                -2.384
REMARK SMILES CC(=O)CCC=C(C)CCC=C(C)CCC=C(C)C
REMARK SMILES IDX 10 1 11 2 12 3 13 4 14 5 15 6 16 7 18 8 17 9 19 10 9 11 7 12
REMARK SMILES IDX 6 13 8 14 5 15 4 16 2 17 3 18 1 19
REMARK H PARENT
REMARK Flexibility Score: inf
ROOT
ATOM      1  C   UNL     1      -7.704  32.270  25.229  1.00  0.00     0.032 C 
ENDROOT
BRANCH   1   2
ATOM      2  C   UNL     1      -8.277  33.654  25.405  1.00  0.00    -0.028 C 
ATOM      3  C   UNL     1      -7.972  34.726  24.637  1.00  0.00    -0.077 C 
ATOM      4  C   UNL     1      -8.680  36.027  24.920  1.00  0.00     0.039 C 
BRANCH   3   5
ATOM      5  C   UNL     1      -6.933  34.697  23.531  1.00  0.00     0.034 C 
BRANCH   5   6
ATOM      6  C   UNL     1      -7.570  34.813  22.139  1.00  0.00     0.032 C 
BRANCH   6   7
ATOM      7  C   UNL     1      -8.549  33.692  21.885  1.00  0.00    -0.028 C 
ATOM      8  C   UNL     1      -9.494  31.705  20.795  1.00  0.00     0.039 C 
ATOM      9  C   UNL     1      -8.471  32.810  20.865  1.00  0.00    -0.080 C 
ATOM     10  C   UNL     1      -7.401  32.900  19.806  1.00  0.00     0.039 C 
ENDBRANCH   6   7
ENDBRANCH   5   6
ENDBRANCH   3   5
ENDBRANCH   1   2
BRANCH   1  11
ATOM     11  C   UNL     1      -8.733  31.331  24.590  1.00  0.00     0.034 C 
BRANCH  11  12
ATOM     12  C   UNL     1      -8.065  30.061  24.100  1.00  0.00    -0.077 C 
ATOM     13  C   UNL     1      -8.393  28.830  24.555  1.00  0.00    -0.028 C 
ATOM     14  C   UNL     1      -6.959  30.175  23.083  1.00  0.00     0.039 C 
BRANCH  13  15
ATOM     15  C   UNL     1      -9.489  28.527  25.551  1.00  0.00     0.035 C 
BRANCH  15  16
ATOM     16  C   UNL     1      -8.932  27.876  26.823  1.00  0.00     0.079 C 
BRANCH  16  17
ATOM     17  C   UNL     1      -9.220  28.703  28.049  1.00  0.00     0.130 C 
ATOM     18  O   UNL     1      -9.465  28.146  29.109  1.00  0.00    -0.300 OA
ATOM     19  C   UNL     1      -9.218  30.201  27.994  1.00  0.00     0.087 C 
ENDBRANCH  16  17
ENDBRANCH  15  16
ENDBRANCH  13  15
ENDBRANCH  11  12
ENDBRANCH   1  11
TORSDOF 9
ENDMDL
MODEL 5
REMARK VINA RESULT:    -5.907      1.437      5.704
REMARK INTER + INTRA:         -11.399
REMARK INTER:                  -9.673
REMARK INTRA:                  -1.726
REMARK UNBOUND:                -2.384
REMARK SMILES CC(=O)CCC=C(C)CCC=C(C)CCC=C(C)C
REMARK SMILES IDX 10 1 11 2 12 3 13 4 14 5 15 6 16 7 18 8 17 9 19 10 9 11 7 12
REMARK SMILES IDX 6 13 8 14 5 15 4 16 2 17 3 18 1 19
REMARK H PARENT
REMARK Flexibility Score: inf
ROOT
ATOM      1  C   UNL     1      -7.715  30.940  23.182  1.00  0.00     0.032 C 
ENDROOT
BRANCH   1   2
ATOM      2  C   UNL     1      -7.517  31.335  21.740  1.00  0.00    -0.028 C 
ATOM      3  C   UNL     1      -7.836  32.539  21.212  1.00  0.00    -0.077 C 
ATOM      4  C   UNL     1      -7.520  32.783  19.758  1.00  0.00     0.039 C 
BRANCH   3   5
ATOM      5  C   UNL     1      -8.525  33.642  21.995  1.00  0.00     0.034 C 
BRANCH   5   6
ATOM      6  C   UNL     1      -7.527  34.685  22.519  1.00  0.00     0.032 C 
BRANCH   6   7
ATOM      7  C   UNL     1      -7.223  34.472  23.982  1.00  0.00    -0.028 C 
ATOM      8  C   UNL     1      -7.509  34.667  26.413  1.00  0.00     0.039 C 
ATOM      9  C   UNL     1      -7.896  35.042  25.005  1.00  0.00    -0.080 C 
ATOM     10  C   UNL     1      -9.011  36.032  24.781  1.00  0.00     0.039 C 
ENDBRANCH   6   7
ENDBRANCH   5   6
ENDBRANCH   3   5
ENDBRANCH   1   2
BRANCH   1  11
ATOM     11  C   UNL     1      -9.032  30.177  23.363  1.00  0.00     0.034 C 
BRANCH  11  12
ATOM     12  C   UNL     1      -8.771  28.692  23.528  1.00  0.00    -0.077 C 
ATOM     13  C   UNL     1      -8.774  28.069  24.729  1.00  0.00    -0.028 C 
ATOM     14  C   UNL     1      -8.458  27.875  22.301  1.00  0.00     0.039 C 
BRANCH  13  15
ATOM     15  C   UNL     1      -9.091  28.724  26.054  1.00  0.00     0.035 C 
BRANCH  15  16
ATOM     16  C   UNL     1      -7.838  29.332  26.696  1.00  0.00     0.079 C 
BRANCH  16  17
ATOM     17  C   UNL     1      -8.015  30.800  26.991  1.00  0.00     0.130 C 
ATOM     18  O   UNL     1      -7.058  31.459  27.368  1.00  0.00    -0.300 OA
ATOM     19  C   UNL     1      -9.348  31.468  26.835  1.00  0.00     0.087 C 
ENDBRANCH  16  17
ENDBRANCH  15  16
ENDBRANCH  13  15
ENDBRANCH  11  12
ENDBRANCH   1  11
TORSDOF 9
ENDMDL
MODEL 6
REMARK VINA RESULT:    -5.852      1.588      4.246
REMARK INTER + INTRA:         -11.316
REMARK INTER:                  -9.270
REMARK INTRA:                  -2.045
REMARK UNBOUND:                -2.384
REMARK SMILES CC(=O)CCC=C(C)CCC=C(C)CCC=C(C)C
REMARK SMILES IDX 10 1 11 2 12 3 13 4 14 5 15 6 16 7 18 8 17 9 19 10 9 11 7 12
REMARK SMILES IDX 6 13 8 14 5 15 4 16 2 17 3 18 1 19
REMARK H PARENT
REMARK Flexibility Score: inf
ROOT
ATOM      1  C   UNL     1      -9.001  27.956  23.331  1.00  0.00     0.032 C 
ENDROOT
BRANCH   1   2
ATOM      2  C   UNL     1      -8.601  27.958  24.785  1.00  0.00    -0.028 C 
ATOM      3  C   UNL     1      -9.117  28.774  25.734  1.00  0.00    -0.077 C 
ATOM      4  C   UNL     1      -8.640  28.604  27.154  1.00  0.00     0.039 C 
BRANCH   3   5
ATOM      5  C   UNL     1     -10.124  29.872  25.438  1.00  0.00     0.034 C 
BRANCH   5   6
ATOM      6  C   UNL     1      -9.932  31.090  26.353  1.00  0.00     0.032 C 
BRANCH   6   7
ATOM      7  C   UNL     1      -9.253  32.224  25.625  1.00  0.00    -0.028 C 
ATOM      8  C   UNL     1      -7.523  33.900  25.141  1.00  0.00     0.039 C 
ATOM      9  C   UNL     1      -8.110  32.826  26.021  1.00  0.00    -0.080 C 
ATOM     10  C   UNL     1      -7.411  32.457  27.307  1.00  0.00     0.039 C 
ENDBRANCH   6   7
ENDBRANCH   5   6
ENDBRANCH   3   5
ENDBRANCH   1   2
BRANCH   1  11
ATOM     11  C   UNL     1      -7.858  28.475  22.451  1.00  0.00     0.034 C 
BRANCH  11  12
ATOM     12  C   UNL     1      -7.385  29.831  22.935  1.00  0.00    -0.077 C 
ATOM     13  C   UNL     1      -7.921  30.998  22.508  1.00  0.00    -0.028 C 
ATOM     14  C   UNL     1      -6.238  29.888  23.911  1.00  0.00     0.039 C 
BRANCH  13  15
ATOM     15  C   UNL     1      -9.087  31.129  21.555  1.00  0.00     0.035 C 
BRANCH  15  16
ATOM     16  C   UNL     1      -9.457  32.597  21.314  1.00  0.00     0.079 C 
BRANCH  16  17
ATOM     17  C   UNL     1      -8.247  33.434  20.986  1.00  0.00     0.130 C 
ATOM     18  O   UNL     1      -7.940  34.364  21.716  1.00  0.00    -0.300 OA
ATOM     19  C   UNL     1      -7.413  33.150  19.773  1.00  0.00     0.087 C 
ENDBRANCH  16  17
ENDBRANCH  15  16
ENDBRANCH  13  15
ENDBRANCH  11  12
ENDBRANCH   1  11
TORSDOF 9
ENDMDL
MODEL 7
REMARK VINA RESULT:    -5.574      1.927      4.423
REMARK INTER + INTRA:         -10.891
REMARK INTER:                  -9.361
REMARK INTRA:                  -1.530
REMARK UNBOUND:                -2.384
REMARK SMILES CC(=O)CCC=C(C)CCC=C(C)CCC=C(C)C
REMARK SMILES IDX 10 1 11 2 12 3 13 4 14 5 15 6 16 7 18 8 17 9 19 10 9 11 7 12
REMARK SMILES IDX 6 13 8 14 5 15 4 16 2 17 3 18 1 19
REMARK H PARENT
REMARK Flexibility Score: inf
ROOT
ATOM      1  C   UNL     1      -7.147  34.363  22.788  1.00  0.00     0.032 C 
ENDROOT
BRANCH   1   2
ATOM      2  C   UNL     1      -7.544  35.227  23.959  1.00  0.00    -0.028 C 
ATOM      3  C   UNL     1      -8.019  34.767  25.140  1.00  0.00    -0.077 C 
ATOM      4  C   UNL     1      -8.318  35.770  26.225  1.00  0.00     0.039 C 
BRANCH   3   5
ATOM      5  C   UNL     1      -8.299  33.301  25.417  1.00  0.00     0.034 C 
BRANCH   5   6
ATOM      6  C   UNL     1      -7.721  32.849  26.765  1.00  0.00     0.032 C 
BRANCH   6   7
ATOM      7  C   UNL     1      -8.585  31.793  27.411  1.00  0.00    -0.028 C 
ATOM      8  C   UNL     1      -9.318  29.539  28.055  1.00  0.00     0.039 C 
ATOM      9  C   UNL     1      -8.406  30.460  27.285  1.00  0.00    -0.080 C 
ATOM     10  C   UNL     1      -7.331  29.874  26.404  1.00  0.00     0.039 C 
ENDBRANCH   6   7
ENDBRANCH   5   6
ENDBRANCH   3   5
ENDBRANCH   1   2
BRANCH   1  11
ATOM     11  C   UNL     1      -8.272  34.303  21.749  1.00  0.00     0.034 C 
BRANCH  11  12
ATOM     12  C   UNL     1      -8.007  33.205  20.738  1.00  0.00    -0.077 C 
ATOM     13  C   UNL     1      -8.496  31.949  20.864  1.00  0.00    -0.028 C 
ATOM     14  C   UNL     1      -7.129  33.513  19.553  1.00  0.00     0.039 C 
BRANCH  13  15
ATOM     15  C   UNL     1      -9.409  31.472  21.970  1.00  0.00     0.035 C 
BRANCH  15  16
ATOM     16  C   UNL     1      -8.620  30.821  23.112  1.00  0.00     0.079 C 
BRANCH  16  17
ATOM     17  C   UNL     1      -7.894  29.581  22.656  1.00  0.00     0.130 C 
ATOM     18  O   UNL     1      -6.678  29.524  22.755  1.00  0.00    -0.300 OA
ATOM     19  C   UNL     1      -8.637  28.415  22.077  1.00  0.00     0.087 C 
ENDBRANCH  16  17
ENDBRANCH  15  16
ENDBRANCH  13  15
ENDBRANCH  11  12
ENDBRANCH   1  11
TORSDOF 9
ENDMDL
MODEL 8
REMARK VINA RESULT:    -5.523      1.636      4.492
REMARK INTER + INTRA:         -10.814
REMARK INTER:                  -9.422
REMARK INTRA:                  -1.392
REMARK UNBOUND:                -2.384
REMARK SMILES CC(=O)CCC=C(C)CCC=C(C)CCC=C(C)C
REMARK SMILES IDX 10 1 11 2 12 3 13 4 14 5 15 6 16 7 18 8 17 9 19 10 9 11 7 12
REMARK SMILES IDX 6 13 8 14 5 15 4 16 2 17 3 18 1 19
REMARK H PARENT
REMARK Flexibility Score: inf
ROOT
ATOM      1  C   UNL     1      -7.619  29.814  25.335  1.00  0.00     0.032 C 
ENDROOT
BRANCH   1   2
ATOM      2  C   UNL     1      -7.986  29.948  26.792  1.00  0.00    -0.028 C 
ATOM      3  C   UNL     1      -8.749  30.937  27.315  1.00  0.00    -0.077 C 
ATOM      4  C   UNL     1      -9.062  30.888  28.789  1.00  0.00     0.039 C 
BRANCH   3   5
ATOM      5  C   UNL     1      -9.275  32.108  26.504  1.00  0.00     0.034 C 
BRANCH   5   6
ATOM      6  C   UNL     1      -8.503  33.402  26.796  1.00  0.00     0.032 C 
BRANCH   6   7
ATOM      7  C   UNL     1      -7.512  33.713  25.700  1.00  0.00    -0.028 C 
ATOM      8  C   UNL     1      -6.474  34.978  23.869  1.00  0.00     0.039 C 
ATOM      9  C   UNL     1      -7.585  34.773  24.866  1.00  0.00    -0.080 C 
ATOM     10  C   UNL     1      -8.737  35.747  24.904  1.00  0.00     0.039 C 
ENDBRANCH   6   7
ENDBRANCH   5   6
ENDBRANCH   3   5
ENDBRANCH   1   2
BRANCH   1  11
ATOM     11  C   UNL     1      -8.808  29.295  24.519  1.00  0.00     0.034 C 
BRANCH  11  12
ATOM     12  C   UNL     1      -8.455  29.226  23.046  1.00  0.00    -0.077 C 
ATOM     13  C   UNL     1      -8.395  30.316  22.247  1.00  0.00    -0.028 C 
ATOM     14  C   UNL     1      -8.191  27.875  22.431  1.00  0.00     0.039 C 
BRANCH  13  15
ATOM     15  C   UNL     1      -8.604  31.744  22.697  1.00  0.00     0.035 C 
BRANCH  15  16
ATOM     16  C   UNL     1      -9.203  32.605  21.579  1.00  0.00     0.079 C 
BRANCH  16  17
ATOM     17  C   UNL     1      -8.151  33.423  20.876  1.00  0.00     0.130 C 
ATOM     18  O   UNL     1      -7.945  34.574  21.230  1.00  0.00    -0.300 OA
ATOM     19  C   UNL     1      -7.352  32.852  19.743  1.00  0.00     0.087 C 
ENDBRANCH  16  17
ENDBRANCH  15  16
ENDBRANCH  13  15
ENDBRANCH  11  12
ENDBRANCH   1  11
TORSDOF 9
ENDMDL
MODEL 9
REMARK VINA RESULT:    -5.490      2.025      3.569
REMARK INTER + INTRA:         -10.762
REMARK INTER:                  -9.013
REMARK INTRA:                  -1.749
REMARK UNBOUND:                -2.384
REMARK SMILES CC(=O)CCC=C(C)CCC=C(C)CCC=C(C)C
REMARK SMILES IDX 10 1 11 2 12 3 13 4 14 5 15 6 16 7 18 8 17 9 19 10 9 11 7 12
REMARK SMILES IDX 6 13 8 14 5 15 4 16 2 17 3 18 1 19
REMARK H PARENT
REMARK Flexibility Score: inf
ROOT
ATOM      1  C   UNL     1      -7.559  32.568  26.872  1.00  0.00     0.032 C 
ENDROOT
BRANCH   1   2
ATOM      2  C   UNL     1      -8.161  31.722  27.966  1.00  0.00    -0.028 C 
ATOM      3  C   UNL     1      -8.919  30.619  27.770  1.00  0.00    -0.077 C 
ATOM      4  C   UNL     1      -9.397  29.860  28.981  1.00  0.00     0.039 C 
BRANCH   3   5
ATOM      5  C   UNL     1      -9.342  30.126  26.397  1.00  0.00     0.034 C 
BRANCH   5   6
ATOM      6  C   UNL     1      -8.256  29.268  25.734  1.00  0.00     0.032 C 
BRANCH   6   7
ATOM      7  C   UNL     1      -8.710  28.740  24.395  1.00  0.00    -0.028 C 
ATOM      8  C   UNL     1      -8.623  28.289  21.982  1.00  0.00     0.039 C 
ATOM      9  C   UNL     1      -8.074  28.948  23.222  1.00  0.00    -0.080 C 
ATOM     10  C   UNL     1      -6.843  29.814  23.118  1.00  0.00     0.039 C 
ENDBRANCH   6   7
ENDBRANCH   5   6
ENDBRANCH   3   5
ENDBRANCH   1   2
BRANCH   1  11
ATOM     11  C   UNL     1      -8.620  33.478  26.242  1.00  0.00     0.034 C 
BRANCH  11  12
ATOM     12  C   UNL     1      -8.080  34.138  24.988  1.00  0.00    -0.077 C 
ATOM     13  C   UNL     1      -8.325  33.673  23.742  1.00  0.00    -0.028 C 
ATOM     14  C   UNL     1      -7.197  35.351  25.136  1.00  0.00     0.039 C 
BRANCH  13  15
ATOM     15  C   UNL     1      -9.204  32.490  23.406  1.00  0.00     0.035 C 
BRANCH  15  16
ATOM     16  C   UNL     1      -9.974  32.711  22.099  1.00  0.00     0.079 C 
BRANCH  16  17
ATOM     17  C   UNL     1      -9.304  32.033  20.932  1.00  0.00     0.130 C 
ATOM     18  O   UNL     1      -9.880  31.127  20.349  1.00  0.00    -0.300 OA
ATOM     19  C   UNL     1      -7.938  32.445  20.474  1.00  0.00     0.087 C 
ENDBRANCH  16  17
ENDBRANCH  15  16
ENDBRANCH  13  15
ENDBRANCH  11  12
ENDBRANCH   1  11
TORSDOF 9
ENDMDL
