MODEL 1
REMARK VINA RESULT:    -4.026      0.000      0.000
REMARK INTER + INTRA:          -5.525
REMARK INTER:                  -5.203
REMARK INTRA:                  -0.321
REMARK UNBOUND:                -0.321
REMARK SMILES CCCCCCC(=O)[O-]
REMARK SMILES IDX 5 1 6 2 7 3 8 4 9 5 4 6 3 7 2 8 1 9
REMARK H PARENT
REMARK Flexibility Score: inf
ROOT
ATOM      1  C   UNL     1      10.491   2.065  35.830  1.00  0.00     0.006 C 
ENDROOT
BRANCH   1   2
ATOM      2  C   UNL     1      11.851   1.350  35.918  1.00  0.00     0.053 C 
BRANCH   2   3
ATOM      3  C   UNL     1      12.277   0.754  34.610  1.00  0.00     0.041 C 
ATOM      4  O   UNL     1      11.614  -0.183  34.091  1.00  0.00    -0.550 OA
ATOM      5  O   UNL     1      13.389   1.257  33.946  1.00  0.00    -0.550 OA
ENDBRANCH   2   3
ENDBRANCH   1   2
BRANCH   1   6
ATOM      6  C   UNL     1       9.430   1.509  36.798  1.00  0.00     0.000 C 
BRANCH   6   7
ATOM      7  C   UNL     1       8.121   1.113  36.094  1.00  0.00    -0.000 C 
BRANCH   7   8
ATOM      8  C   UNL     1       8.259  -0.181  35.279  1.00  0.00    -0.003 C 
ATOM      9  C   UNL     1       8.146   0.056  33.773  1.00  0.00     0.004 C 
ENDBRANCH   7   8
ENDBRANCH   6   7
ENDBRANCH   1   6
TORSDOF 5
ENDMDL
MODEL 2
REMARK VINA RESULT:    -3.988      1.555      2.438
REMARK INTER + INTRA:          -5.474
REMARK INTER:                  -5.093
REMARK INTRA:                  -0.382
REMARK UNBOUND:                -0.321
REMARK SMILES CCCCCCC(=O)[O-]
REMARK SMILES IDX 5 1 6 2 7 3 8 4 9 5 4 6 3 7 2 8 1 9
REMARK H PARENT
REMARK Flexibility Score: inf
ROOT
ATOM      1  C   UNL     1      10.902  -0.007  34.041  1.00  0.00     0.006 C 
ENDROOT
BRANCH   1   2
ATOM      2  C   UNL     1      12.421   0.054  34.277  1.00  0.00     0.053 C 
BRANCH   2   3
ATOM      3  C   UNL     1      12.827   1.207  35.143  1.00  0.00     0.041 C 
ATOM      4  O   UNL     1      12.644   1.163  36.389  1.00  0.00    -0.550 OA
ATOM      5  O   UNL     1      13.437   2.321  34.579  1.00  0.00    -0.550 OA
ENDBRANCH   2   3
ENDBRANCH   1   2
BRANCH   1   6
ATOM      6  C   UNL     1      10.259   1.361  33.751  1.00  0.00     0.000 C 
BRANCH   6   7
ATOM      7  C   UNL     1       8.986   1.616  34.576  1.00  0.00    -0.000 C 
BRANCH   7   8
ATOM      8  C   UNL     1       8.988   0.856  35.911  1.00  0.00    -0.003 C 
ATOM      9  C   UNL     1       9.319   1.756  37.101  1.00  0.00     0.004 C 
ENDBRANCH   7   8
ENDBRANCH   6   7
ENDBRANCH   1   6
TORSDOF 5
ENDMDL
MODEL 3
REMARK VINA RESULT:    -3.966     17.439     18.079
REMARK INTER + INTRA:          -5.447
REMARK INTER:                  -5.050
REMARK INTRA:                  -0.397
REMARK UNBOUND:                -0.321
REMARK SMILES CCCCCCC(=O)[O-]
REMARK SMILES IDX 5 1 6 2 7 3 8 4 9 5 4 6 3 7 2 8 1 9
REMARK H PARENT
REMARK Flexibility Score: inf
ROOT
ATOM      1  C   UNL     1      12.685 -12.530  46.979  1.00  0.00     0.006 C 
ENDROOT
BRANCH   1   2
ATOM      2  C   UNL     1      12.381 -11.214  46.242  1.00  0.00     0.053 C 
BRANCH   2   3
ATOM      3  C   UNL     1      11.324 -10.400  46.924  1.00  0.00     0.041 C 
ATOM      4  O   UNL     1      10.208 -10.912  47.207  1.00  0.00    -0.550 OA
ATOM      5  O   UNL     1      11.582  -9.081  47.279  1.00  0.00    -0.550 OA
ENDBRANCH   2   3
ENDBRANCH   1   2
BRANCH   1   6
ATOM      6  C   UNL     1      13.766 -12.402  48.066  1.00  0.00     0.000 C 
BRANCH   6   7
ATOM      7  C   UNL     1      13.183 -12.236  49.480  1.00  0.00    -0.000 C 
BRANCH   7   8
ATOM      8  C   UNL     1      13.271 -10.788  49.987  1.00  0.00    -0.003 C 
ATOM      9  C   UNL     1      11.958 -10.295  50.593  1.00  0.00     0.004 C 
ENDBRANCH   7   8
ENDBRANCH   6   7
ENDBRANCH   1   6
TORSDOF 5
ENDMDL
MODEL 4
REMARK VINA RESULT:    -3.946      2.613      4.406
REMARK INTER + INTRA:          -5.420
REMARK INTER:                  -5.106
REMARK INTRA:                  -0.314
REMARK UNBOUND:                -0.321
REMARK SMILES CCCCCCC(=O)[O-]
REMARK SMILES IDX 5 1 6 2 7 3 8 4 9 5 4 6 3 7 2 8 1 9
REMARK H PARENT
REMARK Flexibility Score: inf
ROOT
ATOM      1  C   UNL     1       9.283   1.923  34.167  1.00  0.00     0.006 C 
ENDROOT
BRANCH   1   2
ATOM      2  C   UNL     1       8.994   1.385  35.580  1.00  0.00     0.053 C 
BRANCH   2   3
ATOM      3  C   UNL     1       7.829   0.444  35.614  1.00  0.00     0.041 C 
ATOM      4  O   UNL     1       7.877  -0.652  34.994  1.00  0.00    -0.550 OA
ATOM      5  O   UNL     1       6.700   0.761  36.360  1.00  0.00    -0.550 OA
ENDBRANCH   2   3
ENDBRANCH   1   2
BRANCH   1   6
ATOM      6  C   UNL     1      10.714   1.645  33.674  1.00  0.00     0.000 C 
BRANCH   6   7
ATOM      7  C   UNL     1      11.256   0.279  34.131  1.00  0.00    -0.000 C 
BRANCH   7   8
ATOM      8  C   UNL     1      12.740   0.335  34.521  1.00  0.00    -0.003 C 
ATOM      9  C   UNL     1      13.002   1.255  35.713  1.00  0.00     0.004 C 
ENDBRANCH   7   8
ENDBRANCH   6   7
ENDBRANCH   1   6
TORSDOF 5
ENDMDL
MODEL 5
REMARK VINA RESULT:    -3.940     17.564     18.207
REMARK INTER + INTRA:          -5.413
REMARK INTER:                  -5.011
REMARK INTRA:                  -0.402
REMARK UNBOUND:                -0.321
REMARK SMILES CCCCCCC(=O)[O-]
REMARK SMILES IDX 5 1 6 2 7 3 8 4 9 5 4 6 3 7 2 8 1 9
REMARK H PARENT
REMARK Flexibility Score: inf
ROOT
ATOM      1  C   UNL     1      11.733 -10.316  49.633  1.00  0.00     0.006 C 
ENDROOT
BRANCH   1   2
ATOM      2  C   UNL     1      10.652 -11.222  49.018  1.00  0.00     0.053 C 
BRANCH   2   3
ATOM      3  C   UNL     1      10.115 -10.688  47.725  1.00  0.00     0.041 C 
ATOM      4  O   UNL     1      10.872 -10.077  46.925  1.00  0.00    -0.550 OA
ATOM      5  O   UNL     1       8.782 -10.893  47.387  1.00  0.00    -0.550 OA
ENDBRANCH   2   3
ENDBRANCH   1   2
BRANCH   1   6
ATOM      6  C   UNL     1      13.155 -10.898  49.555  1.00  0.00     0.000 C 
BRANCH   6   7
ATOM      7  C   UNL     1      13.194 -12.314  48.953  1.00  0.00    -0.000 C 
BRANCH   7   8
ATOM      8  C   UNL     1      13.771 -12.332  47.529  1.00  0.00    -0.003 C 
ATOM      9  C   UNL     1      12.860 -13.051  46.534  1.00  0.00     0.004 C 
ENDBRANCH   7   8
ENDBRANCH   6   7
ENDBRANCH   1   6
TORSDOF 5
ENDMDL
MODEL 6
REMARK VINA RESULT:    -3.940      2.339      3.200
REMARK INTER + INTRA:          -5.413
REMARK INTER:                  -5.053
REMARK INTRA:                  -0.359
REMARK UNBOUND:                -0.321
REMARK SMILES CCCCCCC(=O)[O-]
REMARK SMILES IDX 5 1 6 2 7 3 8 4 9 5 4 6 3 7 2 8 1 9
REMARK H PARENT
REMARK Flexibility Score: inf
ROOT
ATOM      1  C   UNL     1      12.503   1.299  35.789  1.00  0.00     0.006 C 
ENDROOT
BRANCH   1   2
ATOM      2  C   UNL     1      13.351   2.580  35.696  1.00  0.00     0.053 C 
BRANCH   2   3
ATOM      3  C   UNL     1      12.528   3.799  35.412  1.00  0.00     0.041 C 
ATOM      4  O   UNL     1      11.979   3.951  34.288  1.00  0.00    -0.550 OA
ATOM      5  O   UNL     1      12.338   4.757  36.402  1.00  0.00    -0.550 OA
ENDBRANCH   2   3
ENDBRANCH   1   2
BRANCH   1   6
ATOM      6  C   UNL     1      12.447   0.491  34.481  1.00  0.00     0.000 C 
BRANCH   6   7
ATOM      7  C   UNL     1      11.019   0.068  34.093  1.00  0.00    -0.000 C 
BRANCH   7   8
ATOM      8  C   UNL     1       9.949   0.736  34.971  1.00  0.00    -0.003 C 
ATOM      9  C   UNL     1       9.154   1.804  34.221  1.00  0.00     0.004 C 
ENDBRANCH   7   8
ENDBRANCH   6   7
ENDBRANCH   1   6
TORSDOF 5
ENDMDL
MODEL 7
REMARK VINA RESULT:    -3.854     18.013     18.567
REMARK INTER + INTRA:          -5.302
REMARK INTER:                  -4.910
REMARK INTRA:                  -0.392
REMARK UNBOUND:                -0.321
REMARK SMILES CCCCCCC(=O)[O-]
REMARK SMILES IDX 5 1 6 2 7 3 8 4 9 5 4 6 3 7 2 8 1 9
REMARK H PARENT
REMARK Flexibility Score: inf
ROOT
ATOM      1  C   UNL     1      13.333 -12.340  49.305  1.00  0.00     0.006 C 
ENDROOT
BRANCH   1   2
ATOM      2  C   UNL     1      13.464 -10.971  49.997  1.00  0.00     0.053 C 
BRANCH   2   3
ATOM      3  C   UNL     1      12.138 -10.328  50.264  1.00  0.00     0.041 C 
ATOM      4  O   UNL     1      12.016  -9.075  50.218  1.00  0.00    -0.550 OA
ATOM      5  O   UNL     1      11.024 -11.115  50.533  1.00  0.00    -0.550 OA
ENDBRANCH   2   3
ENDBRANCH   1   2
BRANCH   1   6
ATOM      6  C   UNL     1      13.728 -12.328  47.818  1.00  0.00     0.000 C 
BRANCH   6   7
ATOM      7  C   UNL     1      12.521 -12.453  46.872  1.00  0.00    -0.000 C 
BRANCH   7   8
ATOM      8  C   UNL     1      11.907 -11.091  46.518  1.00  0.00    -0.003 C 
ATOM      9  C   UNL     1      10.484 -10.929  47.052  1.00  0.00     0.004 C 
ENDBRANCH   7   8
ENDBRANCH   6   7
ENDBRANCH   1   6
TORSDOF 5
ENDMDL
MODEL 8
REMARK VINA RESULT:    -3.842      2.402      4.319
REMARK INTER + INTRA:          -5.286
REMARK INTER:                  -4.920
REMARK INTRA:                  -0.367
REMARK UNBOUND:                -0.321
REMARK SMILES CCCCCCC(=O)[O-]
REMARK SMILES IDX 5 1 6 2 7 3 8 4 9 5 4 6 3 7 2 8 1 9
REMARK H PARENT
REMARK Flexibility Score: inf
ROOT
ATOM      1  C   UNL     1       9.712   0.380  33.782  1.00  0.00     0.006 C 
ENDROOT
BRANCH   1   2
ATOM      2  C   UNL     1       9.242   1.683  34.453  1.00  0.00     0.053 C 
BRANCH   2   3
ATOM      3  C   UNL     1       8.803   1.479  35.871  1.00  0.00     0.041 C 
ATOM      4  O   UNL     1       7.684   0.959  36.123  1.00  0.00    -0.550 OA
ATOM      5  O   UNL     1       9.646   1.834  36.918  1.00  0.00    -0.550 OA
ENDBRANCH   2   3
ENDBRANCH   1   2
BRANCH   1   6
ATOM      6  C   UNL     1      11.164  -0.005  34.117  1.00  0.00     0.000 C 
BRANCH   6   7
ATOM      7  C   UNL     1      12.120   1.200  34.130  1.00  0.00    -0.000 C 
BRANCH   7   8
ATOM      8  C   UNL     1      12.892   1.325  35.452  1.00  0.00    -0.003 C 
ATOM      9  C   UNL     1      13.165   2.778  35.840  1.00  0.00     0.004 C 
ENDBRANCH   7   8
ENDBRANCH   6   7
ENDBRANCH   1   6
TORSDOF 5
ENDMDL
MODEL 9
REMARK VINA RESULT:    -3.838     17.788     18.364
REMARK INTER + INTRA:          -5.281
REMARK INTER:                  -4.842
REMARK INTRA:                  -0.439
REMARK UNBOUND:                -0.321
REMARK SMILES CCCCCCC(=O)[O-]
REMARK SMILES IDX 5 1 6 2 7 3 8 4 9 5 4 6 3 7 2 8 1 9
REMARK H PARENT
REMARK Flexibility Score: inf
ROOT
ATOM      1  C   UNL     1      13.847 -12.418  48.025  1.00  0.00     0.006 C 
ENDROOT
BRANCH   1   2
ATOM      2  C   UNL     1      12.764 -12.746  46.982  1.00  0.00     0.053 C 
BRANCH   2   3
ATOM      3  C   UNL     1      12.027 -11.530  46.510  1.00  0.00     0.041 C 
ATOM      4  O   UNL     1      10.800 -11.392  46.757  1.00  0.00    -0.550 OA
ATOM      5  O   UNL     1      12.705 -10.529  45.824  1.00  0.00    -0.550 OA
ENDBRANCH   2   3
ENDBRANCH   1   2
BRANCH   1   6
ATOM      6  C   UNL     1      13.315 -12.314  49.466  1.00  0.00     0.000 C 
BRANCH   6   7
ATOM      7  C   UNL     1      13.152 -10.862  49.945  1.00  0.00    -0.000 C 
BRANCH   7   8
ATOM      8  C   UNL     1      11.681 -10.473  50.157  1.00  0.00    -0.003 C 
ATOM      9  C   UNL     1      10.764 -11.688  50.291  1.00  0.00     0.004 C 
ENDBRANCH   7   8
ENDBRANCH   6   7
ENDBRANCH   1   6
TORSDOF 5
ENDMDL
