MODEL 1
REMARK VINA RESULT:    -4.522      0.000      0.000
REMARK INTER + INTRA:          -5.188
REMARK INTER:                  -4.918
REMARK INTRA:                  -0.270
REMARK UNBOUND:                -0.270
REMARK SMILES CC(=O)c1cc(C)ccc1O
REMARK SMILES IDX 7 1 6 2 5 3 4 4 10 5 9 6 8 7 2 8 3 9 1 10 11 11
REMARK H PARENT 11 12
REMARK Flexibility Score: inf
ROOT
ATOM      1  C   UNL     1      22.603  51.010  -3.125  1.00  0.00     0.044 C 
ATOM      2  C   UNL     1      22.926  51.112  -1.663  1.00  0.00    -0.050 A 
ATOM      3  C   UNL     1      23.940  51.976  -1.224  1.00  0.00     0.019 A 
ATOM      4  C   UNL     1      24.226  52.118   0.148  1.00  0.00     0.059 A 
ATOM      5  C   UNL     1      23.477  51.364   1.082  1.00  0.00     0.126 A 
ATOM      6  C   UNL     1      22.450  50.521   0.637  1.00  0.00     0.047 A 
ATOM      7  C   UNL     1      22.170  50.401  -0.725  1.00  0.00     0.007 A 
ENDROOT
BRANCH   4   8
ATOM      8  C   UNL     1      25.310  53.050   0.559  1.00  0.00     0.163 C 
ATOM      9  O   UNL     1      25.941  52.831   1.628  1.00  0.00    -0.294 OA
ATOM     10  C   UNL     1      25.689  54.250  -0.255  1.00  0.00     0.093 C 
ENDBRANCH   4   8
BRANCH   5  11
ATOM     11  O   UNL     1      23.760  51.431   2.446  1.00  0.00    -0.507 OA
ATOM     12  H   UNL     1      24.660  51.154   2.820  1.00  0.00     0.293 HD
ENDBRANCH   5  11
TORSDOF 2
ENDMDL
MODEL 2
REMARK VINA RESULT:    -4.455      1.614      2.681
REMARK INTER + INTRA:          -5.115
REMARK INTER:                  -4.825
REMARK INTRA:                  -0.290
REMARK UNBOUND:                -0.270
REMARK SMILES CC(=O)c1cc(C)ccc1O
REMARK SMILES IDX 7 1 6 2 5 3 4 4 10 5 9 6 8 7 2 8 3 9 1 10 11 11
REMARK H PARENT 11 12
REMARK Flexibility Score: inf
ROOT
ATOM      1  C   UNL     1      22.964  51.574  -1.515  1.00  0.00     0.044 C 
ATOM      2  C   UNL     1      23.963  52.154  -0.557  1.00  0.00    -0.050 A 
ATOM      3  C   UNL     1      24.674  53.315  -0.895  1.00  0.00     0.019 A 
ATOM      4  C   UNL     1      25.581  53.898   0.011  1.00  0.00     0.059 A 
ATOM      5  C   UNL     1      25.775  53.285   1.271  1.00  0.00     0.126 A 
ATOM      6  C   UNL     1      25.043  52.139   1.611  1.00  0.00     0.047 A 
ATOM      7  C   UNL     1      24.137  51.581   0.708  1.00  0.00     0.007 A 
ENDROOT
BRANCH   4   8
ATOM      8  C   UNL     1      26.307  55.129  -0.399  1.00  0.00     0.163 C 
ATOM      9  O   UNL     1      26.178  56.180   0.284  1.00  0.00    -0.294 OA
ATOM     10  C   UNL     1      27.198  55.173  -1.604  1.00  0.00     0.093 C 
ENDBRANCH   4   8
BRANCH   5  11
ATOM     11  O   UNL     1      26.702  53.795   2.180  1.00  0.00    -0.507 OA
ATOM     12  H   UNL     1      26.579  54.700   2.618  1.00  0.00     0.293 HD
ENDBRANCH   5  11
TORSDOF 2
ENDMDL
MODEL 3
REMARK VINA RESULT:    -4.431      1.869      3.283
REMARK INTER + INTRA:          -5.089
REMARK INTER:                  -4.798
REMARK INTRA:                  -0.291
REMARK UNBOUND:                -0.270
REMARK SMILES CC(=O)c1cc(C)ccc1O
REMARK SMILES IDX 7 1 6 2 5 3 4 4 10 5 9 6 8 7 2 8 3 9 1 10 11 11
REMARK H PARENT 11 12
REMARK Flexibility Score: inf
ROOT
ATOM      1  C   UNL     1      20.843  48.025  -2.422  1.00  0.00     0.044 C 
ATOM      2  C   UNL     1      21.593  49.293  -2.137  1.00  0.00    -0.050 A 
ATOM      3  C   UNL     1      21.907  49.645  -0.816  1.00  0.00     0.019 A 
ATOM      4  C   UNL     1      22.649  50.808  -0.533  1.00  0.00     0.059 A 
ATOM      5  C   UNL     1      23.067  51.628  -1.608  1.00  0.00     0.126 A 
ATOM      6  C   UNL     1      22.770  51.258  -2.927  1.00  0.00     0.047 A 
ATOM      7  C   UNL     1      22.046  50.095  -3.191  1.00  0.00     0.007 A 
ENDROOT
BRANCH   4   8
ATOM      8  C   UNL     1      22.955  51.134   0.885  1.00  0.00     0.163 C 
ATOM      9  O   UNL     1      24.157  51.244   1.250  1.00  0.00    -0.294 OA
ATOM     10  C   UNL     1      21.882  51.339   1.912  1.00  0.00     0.093 C 
ENDBRANCH   4   8
BRANCH   5  11
ATOM     11  O   UNL     1      23.757  52.818  -1.375  1.00  0.00    -0.507 OA
ATOM     12  H   UNL     1      24.494  52.881  -0.681  1.00  0.00     0.293 HD
ENDBRANCH   5  11
TORSDOF 2
ENDMDL
MODEL 4
REMARK VINA RESULT:    -4.310      1.596      3.982
REMARK INTER + INTRA:          -4.958
REMARK INTER:                  -4.669
REMARK INTRA:                  -0.289
REMARK UNBOUND:                -0.270
REMARK SMILES CC(=O)c1cc(C)ccc1O
REMARK SMILES IDX 7 1 6 2 5 3 4 4 10 5 9 6 8 7 2 8 3 9 1 10 11 11
REMARK H PARENT 11 12
REMARK Flexibility Score: inf
ROOT
ATOM      1  C   UNL     1      26.454  55.748  -0.224  1.00  0.00     0.044 C 
ATOM      2  C   UNL     1      26.004  54.426   0.326  1.00  0.00    -0.050 A 
ATOM      3  C   UNL     1      25.241  53.555  -0.466  1.00  0.00     0.019 A 
ATOM      4  C   UNL     1      24.849  52.292   0.018  1.00  0.00     0.059 A 
ATOM      5  C   UNL     1      25.230  51.916   1.328  1.00  0.00     0.126 A 
ATOM      6  C   UNL     1      26.012  52.781   2.104  1.00  0.00     0.047 A 
ATOM      7  C   UNL     1      26.404  54.024   1.605  1.00  0.00     0.007 A 
ENDROOT
BRANCH   4   8
ATOM      8  C   UNL     1      24.042  51.408  -0.865  1.00  0.00     0.163 C 
ATOM      9  O   UNL     1      24.191  50.158  -0.792  1.00  0.00    -0.294 OA
ATOM     10  C   UNL     1      23.047  51.947  -1.848  1.00  0.00     0.093 C 
ENDBRANCH   4   8
BRANCH   5  11
ATOM     11  O   UNL     1      24.819  50.698   1.870  1.00  0.00    -0.507 OA
ATOM     12  H   UNL     1      24.733  50.561   2.870  1.00  0.00     0.293 HD
ENDBRANCH   5  11
TORSDOF 2
ENDMDL
MODEL 5
REMARK VINA RESULT:    -4.298      1.415      2.253
REMARK INTER + INTRA:          -4.944
REMARK INTER:                  -4.649
REMARK INTRA:                  -0.295
REMARK UNBOUND:                -0.270
REMARK SMILES CC(=O)c1cc(C)ccc1O
REMARK SMILES IDX 7 1 6 2 5 3 4 4 10 5 9 6 8 7 2 8 3 9 1 10 11 11
REMARK H PARENT 11 12
REMARK Flexibility Score: inf
ROOT
ATOM      1  C   UNL     1      22.267  51.238  -4.545  1.00  0.00     0.044 C 
ATOM      2  C   UNL     1      22.298  50.721  -3.136  1.00  0.00    -0.050 A 
ATOM      3  C   UNL     1      22.934  51.460  -2.127  1.00  0.00     0.019 A 
ATOM      4  C   UNL     1      22.933  51.012  -0.792  1.00  0.00     0.059 A 
ATOM      5  C   UNL     1      22.286  49.793  -0.482  1.00  0.00     0.126 A 
ATOM      6  C   UNL     1      21.632  49.073  -1.491  1.00  0.00     0.047 A 
ATOM      7  C   UNL     1      21.630  49.537  -2.807  1.00  0.00     0.007 A 
ENDROOT
BRANCH   4   8
ATOM      8  C   UNL     1      23.622  51.835   0.238  1.00  0.00     0.163 C 
ATOM      9  O   UNL     1      23.133  51.913   1.397  1.00  0.00    -0.294 OA
ATOM     10  C   UNL     1      24.889  52.583  -0.048  1.00  0.00     0.093 C 
ENDBRANCH   4   8
BRANCH   5  11
ATOM     11  O   UNL     1      22.305  49.282   0.816  1.00  0.00    -0.507 OA
ATOM     12  H   UNL     1      21.512  48.787   1.206  1.00  0.00     0.293 HD
ENDBRANCH   5  11
TORSDOF 2
ENDMDL
MODEL 6
REMARK VINA RESULT:    -4.192     14.003     15.048
REMARK INTER + INTRA:          -4.829
REMARK INTER:                  -4.598
REMARK INTRA:                  -0.231
REMARK UNBOUND:                -0.270
REMARK SMILES CC(=O)c1cc(C)ccc1O
REMARK SMILES IDX 7 1 6 2 5 3 4 4 10 5 9 6 8 7 2 8 3 9 1 10 11 11
REMARK H PARENT 11 12
REMARK Flexibility Score: inf
ROOT
ATOM      1  C   UNL     1      18.598  60.197  -9.006  1.00  0.00     0.044 C 
ATOM      2  C   UNL     1      19.394  61.453  -8.805  1.00  0.00    -0.050 A 
ATOM      3  C   UNL     1      18.764  62.624  -8.357  1.00  0.00     0.019 A 
ATOM      4  C   UNL     1      19.503  63.798  -8.120  1.00  0.00     0.059 A 
ATOM      5  C   UNL     1      20.898  63.785  -8.352  1.00  0.00     0.126 A 
ATOM      6  C   UNL     1      21.525  62.605  -8.778  1.00  0.00     0.047 A 
ATOM      7  C   UNL     1      20.780  61.445  -8.995  1.00  0.00     0.007 A 
ENDROOT
BRANCH   4   8
ATOM      8  C   UNL     1      18.784  65.011  -7.643  1.00  0.00     0.163 C 
ATOM      9  O   UNL     1      19.436  65.945  -7.104  1.00  0.00    -0.294 OA
ATOM     10  C   UNL     1      17.300  65.170  -7.779  1.00  0.00     0.093 C 
ENDBRANCH   4   8
BRANCH   5  11
ATOM     11  O   UNL     1      21.663  64.939  -8.184  1.00  0.00    -0.507 OA
ATOM     12  H   UNL     1      22.174  65.358  -8.952  1.00  0.00     0.293 HD
ENDBRANCH   5  11
TORSDOF 2
ENDMDL
MODEL 7
REMARK VINA RESULT:    -4.120      1.503      3.302
REMARK INTER + INTRA:          -4.751
REMARK INTER:                  -4.464
REMARK INTRA:                  -0.287
REMARK UNBOUND:                -0.270
REMARK SMILES CC(=O)c1cc(C)ccc1O
REMARK SMILES IDX 7 1 6 2 5 3 4 4 10 5 9 6 8 7 2 8 3 9 1 10 11 11
REMARK H PARENT 11 12
REMARK Flexibility Score: inf
ROOT
ATOM      1  C   UNL     1      21.696  49.422  -2.767  1.00  0.00     0.044 C 
ATOM      2  C   UNL     1      22.288  50.227  -1.647  1.00  0.00    -0.050 A 
ATOM      3  C   UNL     1      21.845  50.035  -0.330  1.00  0.00     0.019 A 
ATOM      4  C   UNL     1      22.421  50.748   0.739  1.00  0.00     0.059 A 
ATOM      5  C   UNL     1      23.453  51.676   0.462  1.00  0.00     0.126 A 
ATOM      6  C   UNL     1      23.906  51.845  -0.854  1.00  0.00     0.047 A 
ATOM      7  C   UNL     1      23.335  51.120  -1.900  1.00  0.00     0.007 A 
ENDROOT
BRANCH   4   8
ATOM      8  C   UNL     1      21.914  50.505   2.116  1.00  0.00     0.163 C 
ATOM      9  O   UNL     1      22.706  50.599   3.092  1.00  0.00    -0.294 OA
ATOM     10  C   UNL     1      20.485  50.149   2.395  1.00  0.00     0.093 C 
ENDBRANCH   4   8
BRANCH   5  11
ATOM     11  O   UNL     1      24.017  52.445   1.480  1.00  0.00    -0.507 OA
ATOM     12  H   UNL     1      24.512  53.307   1.286  1.00  0.00     0.293 HD
ENDBRANCH   5  11
TORSDOF 2
ENDMDL
MODEL 8
REMARK VINA RESULT:    -4.057      1.953      3.026
REMARK INTER + INTRA:          -4.682
REMARK INTER:                  -4.376
REMARK INTRA:                  -0.306
REMARK UNBOUND:                -0.270
REMARK SMILES CC(=O)c1cc(C)ccc1O
REMARK SMILES IDX 7 1 6 2 5 3 4 4 10 5 9 6 8 7 2 8 3 9 1 10 11 11
REMARK H PARENT 11 12
REMARK Flexibility Score: inf
ROOT
ATOM      1  C   UNL     1      21.191  50.144   2.685  1.00  0.00     0.044 C 
ATOM      2  C   UNL     1      21.866  50.462   1.382  1.00  0.00    -0.050 A 
ATOM      3  C   UNL     1      22.856  51.454   1.324  1.00  0.00     0.019 A 
ATOM      4  C   UNL     1      23.531  51.733   0.120  1.00  0.00     0.059 A 
ATOM      5  C   UNL     1      23.186  51.001  -1.041  1.00  0.00     0.126 A 
ATOM      6  C   UNL     1      22.213  49.995  -0.970  1.00  0.00     0.047 A 
ATOM      7  C   UNL     1      21.563  49.721   0.234  1.00  0.00     0.007 A 
ENDROOT
BRANCH   4   8
ATOM      8  C   UNL     1      24.573  52.795   0.115  1.00  0.00     0.163 C 
ATOM      9  O   UNL     1      24.549  53.681  -0.782  1.00  0.00    -0.294 OA
ATOM     10  C   UNL     1      25.662  52.856   1.143  1.00  0.00     0.093 C 
ENDBRANCH   4   8
BRANCH   5  11
ATOM     11  O   UNL     1      23.788  51.279  -2.268  1.00  0.00    -0.507 OA
ATOM     12  H   UNL     1      23.256  51.309  -3.130  1.00  0.00     0.293 HD
ENDBRANCH   5  11
TORSDOF 2
ENDMDL
MODEL 9
REMARK VINA RESULT:    -4.054      1.460      3.174
REMARK INTER + INTRA:          -4.679
REMARK INTER:                  -4.373
REMARK INTRA:                  -0.306
REMARK UNBOUND:                -0.270
REMARK SMILES CC(=O)c1cc(C)ccc1O
REMARK SMILES IDX 7 1 6 2 5 3 4 4 10 5 9 6 8 7 2 8 3 9 1 10 11 11
REMARK H PARENT 11 12
REMARK Flexibility Score: inf
ROOT
ATOM      1  C   UNL     1      22.964  51.604  -2.017  1.00  0.00     0.044 C 
ATOM      2  C   UNL     1      23.794  51.928  -0.809  1.00  0.00    -0.050 A 
ATOM      3  C   UNL     1      23.786  51.072   0.302  1.00  0.00     0.019 A 
ATOM      4  C   UNL     1      24.593  51.336   1.425  1.00  0.00     0.059 A 
ATOM      5  C   UNL     1      25.410  52.491   1.421  1.00  0.00     0.126 A 
ATOM      6  C   UNL     1      25.430  53.329   0.298  1.00  0.00     0.047 A 
ATOM      7  C   UNL     1      24.635  53.046  -0.813  1.00  0.00     0.007 A 
ENDROOT
BRANCH   4   8
ATOM      8  C   UNL     1      24.546  50.395   2.576  1.00  0.00     0.163 C 
ATOM      9  O   UNL     1      25.624  49.967   3.069  1.00  0.00    -0.294 OA
ATOM     10  C   UNL     1      23.256  49.929   3.181  1.00  0.00     0.093 C 
ENDBRANCH   4   8
BRANCH   5  11
ATOM     11  O   UNL     1      26.185  52.824   2.532  1.00  0.00    -0.507 OA
ATOM     12  H   UNL     1      25.773  53.202   3.377  1.00  0.00     0.293 HD
ENDBRANCH   5  11
TORSDOF 2
ENDMDL
