MODEL 1
REMARK VINA RESULT:    -7.987      0.000      0.000
REMARK INTER + INTRA:         -12.576
REMARK INTER:                 -10.788
REMARK INTRA:                  -1.788
REMARK UNBOUND:                -1.788
REMARK SMILES CC[C@H](CC[C@H](C)[C@H]1CC[C@H]2[C@H]3CC(=O)C4=CC(=O)CC[C@]4(C)[C@H]3CC[C@]12C)C(C)C
REMARK SMILES IDX 4 1 3 2 2 3 1 4 29 5 30 6 31 7 5 8 6 9 7 10 8 11 9 12 27 13
REMARK SMILES IDX 10 14 11 15 26 16 28 17 12 18 25 19 24 20 13 21 22 22 14 23
REMARK SMILES IDX 16 24 21 25 23 26 15 27 17 28 20 29 18 30 19 31
REMARK H PARENT
REMARK Flexibility Score: inf
ROOT
ATOM      1  C   UNL     1      14.356 -32.301  23.996  1.00  0.00     0.004 C 
ENDROOT
BRANCH   1   2
ATOM      2  C   UNL     1      14.212 -31.176  22.928  1.00  0.00    -0.009 C 
BRANCH   2   3
ATOM      3  C   UNL     1      13.020 -31.382  21.950  1.00  0.00     0.000 C 
ATOM      4  C   UNL     1      13.466 -31.878  20.573  1.00  0.00     0.004 C 
ENDBRANCH   2   3
BRANCH   2   5
ATOM      5  C   UNL     1      14.300 -29.737  23.540  1.00  0.00    -0.014 C 
ATOM      6  C   UNL     1      15.114 -28.783  22.645  1.00  0.00     0.007 C 
ATOM      7  C   UNL     1      12.942 -29.101  23.880  1.00  0.00     0.007 C 
ENDBRANCH   2   5
ENDBRANCH   1   2
BRANCH   1   8
ATOM      8  C   UNL     1      14.978 -33.643  23.515  1.00  0.00     0.004 C 
BRANCH   8   9
ATOM      9  C   UNL     1      16.504 -33.784  23.827  1.00  0.00    -0.011 C 
ATOM     10  C   UNL     1      16.760 -34.897  24.855  1.00  0.00     0.008 C 
BRANCH   9  11
ATOM     11  C   UNL     1      17.281 -32.461  24.163  1.00  0.00    -0.002 C 
ATOM     12  C   UNL     1      17.941 -32.453  25.567  1.00  0.00     0.005 C 
ATOM     13  C   UNL     1      18.370 -31.869  23.203  1.00  0.00    -0.026 C 
ATOM     14  C   UNL     1      19.131 -31.482  25.496  1.00  0.00     0.005 C 
ATOM     15  C   UNL     1      18.973 -30.811  24.141  1.00  0.00    -0.001 C 
ATOM     16  C   UNL     1      17.820 -31.103  21.970  1.00  0.00     0.007 C 
ATOM     17  C   UNL     1      19.383 -32.964  22.766  1.00  0.00     0.012 C 
ATOM     18  C   UNL     1      20.108 -29.923  23.581  1.00  0.00     0.004 C 
ATOM     19  C   UNL     1      18.915 -30.255  21.277  1.00  0.00     0.005 C 
ATOM     20  C   UNL     1      19.681 -29.273  22.224  1.00  0.00     0.003 C 
ATOM     21  C   UNL     1      21.522 -30.523  23.522  1.00  0.00     0.085 C 
ATOM     22  C   UNL     1      20.849 -28.441  21.508  1.00  0.00    -0.000 C 
ATOM     23  C   UNL     1      22.486 -29.405  23.275  1.00  0.00     0.159 C 
ATOM     24  C   UNL     1      22.068 -28.260  22.429  1.00  0.00     0.005 C 
ATOM     25  C   UNL     1      20.272 -27.045  21.109  1.00  0.00     0.020 C 
ATOM     26  C   UNL     1      21.387 -29.148  20.234  1.00  0.00     0.017 C 
ATOM     27  O   UNL     1      23.644 -29.462  23.771  1.00  0.00    -0.295 OA
ATOM     28  C   UNL     1      22.829 -27.150  22.386  1.00  0.00     0.055 C 
ATOM     29  C   UNL     1      21.333 -26.076  20.576  1.00  0.00     0.081 C 
ATOM     30  C   UNL     1      22.506 -26.017  21.504  1.00  0.00     0.156 C 
ATOM     31  O   UNL     1      23.254 -25.003  21.497  1.00  0.00    -0.295 OA
ENDBRANCH   9  11
ENDBRANCH   8   9
ENDBRANCH   1   8
TORSDOF 6
ENDMDL
MODEL 2
REMARK VINA RESULT:    -7.858      0.539      1.366
REMARK INTER + INTRA:         -12.403
REMARK INTER:                 -10.683
REMARK INTRA:                  -1.720
REMARK UNBOUND:                -1.788
REMARK SMILES CC[C@H](CC[C@H](C)[C@H]1CC[C@H]2[C@H]3CC(=O)C4=CC(=O)CC[C@]4(C)[C@H]3CC[C@]12C)C(C)C
REMARK SMILES IDX 4 1 3 2 2 3 1 4 29 5 30 6 31 7 5 8 6 9 7 10 8 11 9 12 27 13
REMARK SMILES IDX 10 14 11 15 26 16 28 17 12 18 25 19 24 20 13 21 22 22 14 23
REMARK SMILES IDX 16 24 21 25 23 26 15 27 17 28 20 29 18 30 19 31
REMARK H PARENT
REMARK Flexibility Score: inf
ROOT
ATOM      1  C   UNL     1      14.548 -32.849  22.732  1.00  0.00     0.004 C 
ENDROOT
BRANCH   1   2
ATOM      2  C   UNL     1      13.717 -31.558  22.989  1.00  0.00    -0.009 C 
BRANCH   2   3
ATOM      3  C   UNL     1      14.447 -30.500  23.866  1.00  0.00     0.000 C 
ATOM      4  C   UNL     1      14.774 -29.219  23.096  1.00  0.00     0.004 C 
ENDBRANCH   2   3
BRANCH   2   5
ATOM      5  C   UNL     1      13.072 -30.977  21.685  1.00  0.00    -0.014 C 
ATOM      6  C   UNL     1      13.324 -31.885  20.467  1.00  0.00     0.007 C 
ATOM      7  C   UNL     1      11.571 -30.662  21.798  1.00  0.00     0.007 C 
ENDBRANCH   2   5
ENDBRANCH   1   2
BRANCH   1   8
ATOM      8  C   UNL     1      14.990 -33.654  23.987  1.00  0.00     0.004 C 
BRANCH   8   9
ATOM      9  C   UNL     1      16.541 -33.761  24.159  1.00  0.00    -0.011 C 
ATOM     10  C   UNL     1      16.915 -34.879  25.144  1.00  0.00     0.008 C 
BRANCH   9  11
ATOM     11  C   UNL     1      17.314 -32.423  24.442  1.00  0.00    -0.002 C 
ATOM     12  C   UNL     1      17.977 -32.358  25.843  1.00  0.00     0.005 C 
ATOM     13  C   UNL     1      18.398 -31.864  23.457  1.00  0.00    -0.026 C 
ATOM     14  C   UNL     1      19.163 -31.387  25.733  1.00  0.00     0.005 C 
ATOM     15  C   UNL     1      18.999 -30.768  24.353  1.00  0.00    -0.001 C 
ATOM     16  C   UNL     1      17.843 -31.148  22.197  1.00  0.00     0.007 C 
ATOM     17  C   UNL     1      19.415 -32.971  23.061  1.00  0.00     0.012 C 
ATOM     18  C   UNL     1      20.130 -29.898  23.757  1.00  0.00     0.004 C 
ATOM     19  C   UNL     1      18.933 -30.323  21.471  1.00  0.00     0.005 C 
ATOM     20  C   UNL     1      19.698 -29.302  22.378  1.00  0.00     0.003 C 
ATOM     21  C   UNL     1      21.546 -30.494  23.718  1.00  0.00     0.085 C 
ATOM     22  C   UNL     1      20.861 -28.494  21.627  1.00  0.00    -0.000 C 
ATOM     23  C   UNL     1      22.506 -29.384  23.427  1.00  0.00     0.159 C 
ATOM     24  C   UNL     1      22.081 -28.273  22.539  1.00  0.00     0.005 C 
ATOM     25  C   UNL     1      20.278 -27.117  21.176  1.00  0.00     0.020 C 
ATOM     26  C   UNL     1      21.399 -29.247  20.381  1.00  0.00     0.017 C 
ATOM     27  O   UNL     1      23.665 -29.417  23.923  1.00  0.00    -0.295 OA
ATOM     28  C   UNL     1      22.837 -27.162  22.451  1.00  0.00     0.055 C 
ATOM     29  C   UNL     1      21.334 -26.165  20.605  1.00  0.00     0.081 C 
ATOM     30  C   UNL     1      22.508 -26.065  21.527  1.00  0.00     0.156 C 
ATOM     31  O   UNL     1      23.252 -25.050  21.480  1.00  0.00    -0.295 OA
ENDBRANCH   9  11
ENDBRANCH   8   9
ENDBRANCH   1   8
TORSDOF 6
ENDMDL
MODEL 3
REMARK VINA RESULT:    -7.631      2.927      5.521
REMARK INTER + INTRA:         -12.096
REMARK INTER:                 -10.621
REMARK INTRA:                  -1.475
REMARK UNBOUND:                -1.788
REMARK SMILES CC[C@H](CC[C@H](C)[C@H]1CC[C@H]2[C@H]3CC(=O)C4=CC(=O)CC[C@]4(C)[C@H]3CC[C@]12C)C(C)C
REMARK SMILES IDX 4 1 3 2 2 3 1 4 29 5 30 6 31 7 5 8 6 9 7 10 8 11 9 12 27 13
REMARK SMILES IDX 10 14 11 15 26 16 28 17 12 18 25 19 24 20 13 21 22 22 14 23
REMARK SMILES IDX 16 24 21 25 23 26 15 27 17 28 20 29 18 30 19 31
REMARK H PARENT
REMARK Flexibility Score: inf
ROOT
ATOM      1  C   UNL     1      19.306 -37.778  23.913  1.00  0.00     0.004 C 
ENDROOT
BRANCH   1   2
ATOM      2  C   UNL     1      19.389 -37.047  25.286  1.00  0.00    -0.009 C 
BRANCH   2   3
ATOM      3  C   UNL     1      20.023 -35.628  25.209  1.00  0.00     0.000 C 
ATOM      4  C   UNL     1      21.541 -35.649  25.402  1.00  0.00     0.004 C 
ENDBRANCH   2   3
BRANCH   2   5
ATOM      5  C   UNL     1      18.048 -37.108  26.093  1.00  0.00    -0.014 C 
ATOM      6  C   UNL     1      18.291 -37.388  27.588  1.00  0.00     0.007 C 
ATOM      7  C   UNL     1      17.147 -35.872  25.934  1.00  0.00     0.007 C 
ENDBRANCH   2   5
ENDBRANCH   1   2
BRANCH   1   8
ATOM      8  C   UNL     1      19.582 -36.917  22.648  1.00  0.00     0.004 C 
BRANCH   8   9
ATOM      9  C   UNL     1      18.309 -36.623  21.789  1.00  0.00    -0.011 C 
ATOM     10  C   UNL     1      17.953 -37.820  20.894  1.00  0.00     0.008 C 
BRANCH   9  11
ATOM     11  C   UNL     1      18.283 -35.258  21.010  1.00  0.00    -0.002 C 
ATOM     12  C   UNL     1      16.945 -34.972  20.277  1.00  0.00     0.005 C 
ATOM     13  C   UNL     1      18.663 -33.901  21.697  1.00  0.00    -0.026 C 
ATOM     14  C   UNL     1      16.822 -33.445  20.150  1.00  0.00     0.005 C 
ATOM     15  C   UNL     1      18.179 -32.932  20.606  1.00  0.00    -0.001 C 
ATOM     16  C   UNL     1      20.185 -33.649  21.867  1.00  0.00     0.007 C 
ATOM     17  C   UNL     1      17.921 -33.735  23.052  1.00  0.00     0.012 C 
ATOM     18  C   UNL     1      18.392 -31.419  20.848  1.00  0.00     0.004 C 
ATOM     19  C   UNL     1      20.494 -32.171  22.211  1.00  0.00     0.005 C 
ATOM     20  C   UNL     1      19.881 -31.126  21.221  1.00  0.00     0.003 C 
ATOM     21  C   UNL     1      17.404 -30.698  21.779  1.00  0.00     0.085 C 
ATOM     22  C   UNL     1      20.161 -29.598  21.618  1.00  0.00    -0.000 C 
ATOM     23  C   UNL     1      17.593 -29.225  21.599  1.00  0.00     0.159 C 
ATOM     24  C   UNL     1      18.951 -28.698  21.312  1.00  0.00     0.005 C 
ATOM     25  C   UNL     1      21.405 -29.109  20.808  1.00  0.00     0.020 C 
ATOM     26  C   UNL     1      20.444 -29.420  23.134  1.00  0.00     0.017 C 
ATOM     27  O   UNL     1      16.604 -28.452  21.713  1.00  0.00    -0.295 OA
ATOM     28  C   UNL     1      19.101 -27.418  20.923  1.00  0.00     0.055 C 
ATOM     29  C   UNL     1      21.676 -27.607  20.954  1.00  0.00     0.081 C 
ATOM     30  C   UNL     1      20.428 -26.820  20.703  1.00  0.00     0.156 C 
ATOM     31  O   UNL     1      20.514 -25.616  20.345  1.00  0.00    -0.295 OA
ENDBRANCH   9  11
ENDBRANCH   8   9
ENDBRANCH   1   8
TORSDOF 6
ENDMDL
MODEL 4
REMARK VINA RESULT:    -7.599      3.497      7.101
REMARK INTER + INTRA:         -12.053
REMARK INTER:                  -9.805
REMARK INTRA:                  -2.247
REMARK UNBOUND:                -1.788
REMARK SMILES CC[C@H](CC[C@H](C)[C@H]1CC[C@H]2[C@H]3CC(=O)C4=CC(=O)CC[C@]4(C)[C@H]3CC[C@]12C)C(C)C
REMARK SMILES IDX 4 1 3 2 2 3 1 4 29 5 30 6 31 7 5 8 6 9 7 10 8 11 9 12 27 13
REMARK SMILES IDX 10 14 11 15 26 16 28 17 12 18 25 19 24 20 13 21 22 22 14 23
REMARK SMILES IDX 16 24 21 25 23 26 15 27 17 28 20 29 18 30 19 31
REMARK H PARENT
REMARK Flexibility Score: inf
ROOT
ATOM      1  C   UNL     1      19.104 -36.712  23.416  1.00  0.00     0.004 C 
ENDROOT
BRANCH   1   2
ATOM      2  C   UNL     1      19.491 -37.229  24.833  1.00  0.00    -0.009 C 
BRANCH   2   3
ATOM      3  C   UNL     1      21.025 -37.335  25.071  1.00  0.00     0.000 C 
ATOM      4  C   UNL     1      21.523 -36.368  26.147  1.00  0.00     0.004 C 
ENDBRANCH   2   3
BRANCH   2   5
ATOM      5  C   UNL     1      18.710 -36.505  25.982  1.00  0.00    -0.014 C 
ATOM      6  C   UNL     1      17.520 -35.691  25.442  1.00  0.00     0.007 C 
ATOM      7  C   UNL     1      18.238 -37.429  27.117  1.00  0.00     0.007 C 
ENDBRANCH   2   5
ENDBRANCH   1   2
BRANCH   1   8
ATOM      8  C   UNL     1      20.274 -36.262  22.496  1.00  0.00     0.004 C 
BRANCH   8   9
ATOM      9  C   UNL     1      20.582 -34.730  22.562  1.00  0.00    -0.011 C 
ATOM     10  C   UNL     1      22.039 -34.473  22.974  1.00  0.00     0.008 C 
BRANCH   9  11
ATOM     11  C   UNL     1      19.562 -33.840  23.360  1.00  0.00    -0.002 C 
ATOM     12  C   UNL     1      20.226 -32.881  24.385  1.00  0.00     0.005 C 
ATOM     13  C   UNL     1      18.476 -32.969  22.639  1.00  0.00    -0.026 C 
ATOM     14  C   UNL     1      19.266 -31.696  24.575  1.00  0.00     0.005 C 
ATOM     15  C   UNL     1      18.008 -32.125  23.835  1.00  0.00    -0.001 C 
ATOM     16  C   UNL     1      17.232 -33.748  22.134  1.00  0.00     0.007 C 
ATOM     17  C   UNL     1      19.105 -32.130  21.493  1.00  0.00     0.012 C 
ATOM     18  C   UNL     1      16.870 -31.106  23.590  1.00  0.00     0.004 C 
ATOM     19  C   UNL     1      16.064 -32.800  21.767  1.00  0.00     0.005 C 
ATOM     20  C   UNL     1      15.652 -31.798  22.896  1.00  0.00     0.003 C 
ATOM     21  C   UNL     1      17.239 -29.769  22.927  1.00  0.00     0.085 C 
ATOM     22  C   UNL     1      14.479 -30.785  22.485  1.00  0.00    -0.000 C 
ATOM     23  C   UNL     1      16.081 -28.837  23.096  1.00  0.00     0.159 C 
ATOM     24  C   UNL     1      14.701 -29.383  23.080  1.00  0.00     0.005 C 
ATOM     25  C   UNL     1      13.128 -31.374  23.003  1.00  0.00     0.020 C 
ATOM     26  C   UNL     1      14.384 -30.578  20.949  1.00  0.00     0.017 C 
ATOM     27  O   UNL     1      16.292 -27.601  23.229  1.00  0.00    -0.295 OA
ATOM     28  C   UNL     1      13.670 -28.604  23.458  1.00  0.00     0.055 C 
ATOM     29  C   UNL     1      11.942 -30.418  22.838  1.00  0.00     0.081 C 
ATOM     30  C   UNL     1      12.275 -29.066  23.385  1.00  0.00     0.156 C 
ATOM     31  O   UNL     1      11.347 -28.294  23.745  1.00  0.00    -0.295 OA
ENDBRANCH   9  11
ENDBRANCH   8   9
ENDBRANCH   1   8
TORSDOF 6
ENDMDL
MODEL 5
REMARK VINA RESULT:    -7.508      3.720      7.863
REMARK INTER + INTRA:         -11.930
REMARK INTER:                 -10.171
REMARK INTRA:                  -1.759
REMARK UNBOUND:                -1.788
REMARK SMILES CC[C@H](CC[C@H](C)[C@H]1CC[C@H]2[C@H]3CC(=O)C4=CC(=O)CC[C@]4(C)[C@H]3CC[C@]12C)C(C)C
REMARK SMILES IDX 4 1 3 2 2 3 1 4 29 5 30 6 31 7 5 8 6 9 7 10 8 11 9 12 27 13
REMARK SMILES IDX 10 14 11 15 26 16 28 17 12 18 25 19 24 20 13 21 22 22 14 23
REMARK SMILES IDX 16 24 21 25 23 26 15 27 17 28 20 29 18 30 19 31
REMARK H PARENT
REMARK Flexibility Score: inf
ROOT
ATOM      1  C   UNL     1      23.035 -30.564  25.697  1.00  0.00     0.004 C 
ENDROOT
BRANCH   1   2
ATOM      2  C   UNL     1      22.127 -31.598  26.426  1.00  0.00    -0.009 C 
BRANCH   2   3
ATOM      3  C   UNL     1      22.884 -32.859  26.932  1.00  0.00     0.000 C 
ATOM      4  C   UNL     1      24.361 -32.861  26.533  1.00  0.00     0.004 C 
ENDBRANCH   2   3
BRANCH   2   5
ATOM      5  C   UNL     1      21.188 -30.941  27.494  1.00  0.00    -0.014 C 
ATOM      6  C   UNL     1      21.768 -31.056  28.916  1.00  0.00     0.007 C 
ATOM      7  C   UNL     1      20.811 -29.479  27.202  1.00  0.00     0.007 C 
ENDBRANCH   2   5
ENDBRANCH   1   2
BRANCH   1   8
ATOM      8  C   UNL     1      22.964 -30.548  24.144  1.00  0.00     0.004 C 
BRANCH   8   9
ATOM      9  C   UNL     1      22.096 -31.697  23.535  1.00  0.00    -0.011 C 
ATOM     10  C   UNL     1      22.970 -32.728  22.805  1.00  0.00     0.008 C 
BRANCH   9  11
ATOM     11  C   UNL     1      20.842 -31.264  22.693  1.00  0.00    -0.002 C 
ATOM     12  C   UNL     1      20.953 -31.586  21.179  1.00  0.00     0.005 C 
ATOM     13  C   UNL     1      19.386 -31.689  23.090  1.00  0.00    -0.026 C 
ATOM     14  C   UNL     1      19.518 -31.729  20.646  1.00  0.00     0.005 C 
ATOM     15  C   UNL     1      18.651 -31.267  21.807  1.00  0.00    -0.001 C 
ATOM     16  C   UNL     1      18.751 -30.875  24.249  1.00  0.00     0.007 C 
ATOM     17  C   UNL     1      19.309 -33.214  23.378  1.00  0.00     0.012 C 
ATOM     18  C   UNL     1      17.119 -31.476  21.758  1.00  0.00     0.004 C 
ATOM     19  C   UNL     1      17.222 -31.097  24.345  1.00  0.00     0.005 C 
ATOM     20  C   UNL     1      16.437 -30.842  23.014  1.00  0.00     0.003 C 
ATOM     21  C   UNL     1      16.600 -32.892  21.464  1.00  0.00     0.085 C 
ATOM     22  C   UNL     1      14.863 -31.129  23.111  1.00  0.00    -0.000 C 
ATOM     23  C   UNL     1      15.144 -32.790  21.137  1.00  0.00     0.159 C 
ATOM     24  C   UNL     1      14.318 -31.761  21.818  1.00  0.00     0.005 C 
ATOM     25  C   UNL     1      14.141 -29.770  23.382  1.00  0.00     0.020 C 
ATOM     26  C   UNL     1      14.509 -32.125  24.248  1.00  0.00     0.017 C 
ATOM     27  O   UNL     1      14.635 -33.589  20.305  1.00  0.00    -0.295 OA
ATOM     28  C   UNL     1      13.074 -31.503  21.375  1.00  0.00     0.055 C 
ATOM     29  C   UNL     1      12.613 -29.867  23.318  1.00  0.00     0.081 C 
ATOM     30  C   UNL     1      12.182 -30.554  22.060  1.00  0.00     0.156 C 
ATOM     31  O   UNL     1      11.024 -30.353  21.606  1.00  0.00    -0.295 OA
ENDBRANCH   9  11
ENDBRANCH   8   9
ENDBRANCH   1   8
TORSDOF 6
ENDMDL
MODEL 6
REMARK VINA RESULT:    -7.424      1.767      2.900
REMARK INTER + INTRA:         -11.816
REMARK INTER:                 -10.405
REMARK INTRA:                  -1.411
REMARK UNBOUND:                -1.788
REMARK SMILES CC[C@H](CC[C@H](C)[C@H]1CC[C@H]2[C@H]3CC(=O)C4=CC(=O)CC[C@]4(C)[C@H]3CC[C@]12C)C(C)C
REMARK SMILES IDX 4 1 3 2 2 3 1 4 29 5 30 6 31 7 5 8 6 9 7 10 8 11 9 12 27 13
REMARK SMILES IDX 10 14 11 15 26 16 28 17 12 18 25 19 24 20 13 21 22 22 14 23
REMARK SMILES IDX 16 24 21 25 23 26 15 27 17 28 20 29 18 30 19 31
REMARK H PARENT
REMARK Flexibility Score: inf
ROOT
ATOM      1  C   UNL     1      16.787 -35.122  22.167  1.00  0.00     0.004 C 
ENDROOT
BRANCH   1   2
ATOM      2  C   UNL     1      16.085 -34.663  20.855  1.00  0.00    -0.009 C 
BRANCH   2   3
ATOM      3  C   UNL     1      15.724 -33.150  20.828  1.00  0.00     0.000 C 
ATOM      4  C   UNL     1      14.216 -32.902  20.899  1.00  0.00     0.004 C 
ENDBRANCH   2   3
BRANCH   2   5
ATOM      5  C   UNL     1      16.809 -35.174  19.564  1.00  0.00    -0.014 C 
ATOM      6  C   UNL     1      18.040 -34.315  19.218  1.00  0.00     0.007 C 
ATOM      7  C   UNL     1      17.204 -36.660  19.597  1.00  0.00     0.007 C 
ENDBRANCH   2   5
ENDBRANCH   1   2
BRANCH   1   8
ATOM      8  C   UNL     1      16.394 -34.366  23.469  1.00  0.00     0.004 C 
BRANCH   8   9
ATOM      9  C   UNL     1      17.572 -34.193  24.483  1.00  0.00    -0.011 C 
ATOM     10  C   UNL     1      17.267 -34.896  25.815  1.00  0.00     0.008 C 
BRANCH   9  11
ATOM     11  C   UNL     1      18.122 -32.734  24.683  1.00  0.00    -0.002 C 
ATOM     12  C   UNL     1      18.795 -32.494  26.060  1.00  0.00     0.005 C 
ATOM     13  C   UNL     1      19.079 -32.057  23.643  1.00  0.00    -0.026 C 
ATOM     14  C   UNL     1      19.804 -31.350  25.871  1.00  0.00     0.005 C 
ATOM     15  C   UNL     1      19.512 -30.835  24.470  1.00  0.00    -0.001 C 
ATOM     16  C   UNL     1      18.387 -31.504  22.368  1.00  0.00     0.007 C 
ATOM     17  C   UNL     1      20.254 -33.002  23.267  1.00  0.00     0.012 C 
ATOM     18  C   UNL     1      20.473 -29.824  23.802  1.00  0.00     0.004 C 
ATOM     19  C   UNL     1      19.312 -30.550  21.573  1.00  0.00     0.005 C 
ATOM     20  C   UNL     1      19.919 -29.375  22.410  1.00  0.00     0.003 C 
ATOM     21  C   UNL     1      21.966 -30.184  23.749  1.00  0.00     0.085 C 
ATOM     22  C   UNL     1      20.919 -28.427  21.590  1.00  0.00    -0.000 C 
ATOM     23  C   UNL     1      22.725 -28.948  23.380  1.00  0.00     0.159 C 
ATOM     24  C   UNL     1      22.105 -27.966  22.455  1.00  0.00     0.005 C 
ATOM     25  C   UNL     1      20.109 -27.186  21.095  1.00  0.00     0.020 C 
ATOM     26  C   UNL     1      21.546 -29.144  20.364  1.00  0.00     0.017 C 
ATOM     27  O   UNL     1      23.884 -28.769  23.842  1.00  0.00    -0.295 OA
ATOM     28  C   UNL     1      22.668 -26.754  22.295  1.00  0.00     0.055 C 
ATOM     29  C   UNL     1      20.983 -26.105  20.449  1.00  0.00     0.081 C 
ATOM     30  C   UNL     1      22.145 -25.771  21.332  1.00  0.00     0.156 C 
ATOM     31  O   UNL     1      22.712 -24.653  21.217  1.00  0.00    -0.295 OA
ENDBRANCH   9  11
ENDBRANCH   8   9
ENDBRANCH   1   8
TORSDOF 6
ENDMDL
MODEL 7
REMARK VINA RESULT:    -7.309      2.466      3.744
REMARK INTER + INTRA:         -11.661
REMARK INTER:                 -10.012
REMARK INTRA:                  -1.649
REMARK UNBOUND:                -1.788
REMARK SMILES CC[C@H](CC[C@H](C)[C@H]1CC[C@H]2[C@H]3CC(=O)C4=CC(=O)CC[C@]4(C)[C@H]3CC[C@]12C)C(C)C
REMARK SMILES IDX 4 1 3 2 2 3 1 4 29 5 30 6 31 7 5 8 6 9 7 10 8 11 9 12 27 13
REMARK SMILES IDX 10 14 11 15 26 16 28 17 12 18 25 19 24 20 13 21 22 22 14 23
REMARK SMILES IDX 16 24 21 25 23 26 15 27 17 28 20 29 18 30 19 31
REMARK H PARENT
REMARK Flexibility Score: inf
ROOT
ATOM      1  C   UNL     1      13.910 -31.048  21.426  1.00  0.00     0.004 C 
ENDROOT
BRANCH   1   2
ATOM      2  C   UNL     1      13.252 -30.827  22.820  1.00  0.00    -0.009 C 
BRANCH   2   3
ATOM      3  C   UNL     1      14.164 -31.219  24.019  1.00  0.00     0.000 C 
ATOM      4  C   UNL     1      13.885 -32.632  24.534  1.00  0.00     0.004 C 
ENDBRANCH   2   3
BRANCH   2   5
ATOM      5  C   UNL     1      12.576 -29.421  22.961  1.00  0.00    -0.014 C 
ATOM      6  C   UNL     1      11.111 -29.440  22.485  1.00  0.00     0.007 C 
ATOM      7  C   UNL     1      12.658 -28.808  24.368  1.00  0.00     0.007 C 
ENDBRANCH   2   5
ENDBRANCH   1   2
BRANCH   1   8
ATOM      8  C   UNL     1      13.875 -32.497  20.862  1.00  0.00     0.004 C 
BRANCH   8   9
ATOM      9  C   UNL     1      15.290 -33.120  20.623  1.00  0.00    -0.011 C 
ATOM     10  C   UNL     1      15.189 -34.456  19.872  1.00  0.00     0.008 C 
BRANCH   9  11
ATOM     11  C   UNL     1      16.246 -33.197  21.868  1.00  0.00    -0.002 C 
ATOM     12  C   UNL     1      16.495 -34.638  22.387  1.00  0.00     0.005 C 
ATOM     13  C   UNL     1      17.658 -32.517  21.875  1.00  0.00    -0.026 C 
ATOM     14  C   UNL     1      17.859 -34.628  23.096  1.00  0.00     0.005 C 
ATOM     15  C   UNL     1      18.229 -33.154  23.152  1.00  0.00    -0.001 C 
ATOM     16  C   UNL     1      17.654 -30.983  22.112  1.00  0.00     0.007 C 
ATOM     17  C   UNL     1      18.456 -32.874  20.590  1.00  0.00     0.012 C 
ATOM     18  C   UNL     1      19.651 -32.731  23.589  1.00  0.00     0.004 C 
ATOM     19  C   UNL     1      19.063 -30.445  22.462  1.00  0.00     0.005 C 
ATOM     20  C   UNL     1      19.766 -31.173  23.656  1.00  0.00     0.003 C 
ATOM     21  C   UNL     1      20.843 -33.374  22.862  1.00  0.00     0.085 C 
ATOM     22  C   UNL     1      21.246 -30.645  23.972  1.00  0.00    -0.000 C 
ATOM     23  C   UNL     1      22.078 -33.082  23.655  1.00  0.00     0.159 C 
ATOM     24  C   UNL     1      22.185 -31.793  24.382  1.00  0.00     0.005 C 
ATOM     25  C   UNL     1      21.148 -29.600  25.129  1.00  0.00     0.020 C 
ATOM     26  C   UNL     1      21.914 -29.974  22.741  1.00  0.00     0.017 C 
ATOM     27  O   UNL     1      23.015 -33.925  23.680  1.00  0.00    -0.295 OA
ATOM     28  C   UNL     1      23.175 -31.611  25.277  1.00  0.00     0.055 C 
ATOM     29  C   UNL     1      22.512 -29.145  25.659  1.00  0.00     0.081 C 
ATOM     30  C   UNL     1      23.378 -30.327  25.966  1.00  0.00     0.156 C 
ATOM     31  O   UNL     1      24.322 -30.208  26.791  1.00  0.00    -0.295 OA
ENDBRANCH   9  11
ENDBRANCH   8   9
ENDBRANCH   1   8
TORSDOF 6
ENDMDL
MODEL 8
REMARK VINA RESULT:    -7.267      3.603      7.857
REMARK INTER + INTRA:         -11.604
REMARK INTER:                 -10.384
REMARK INTRA:                  -1.220
REMARK UNBOUND:                -1.788
REMARK SMILES CC[C@H](CC[C@H](C)[C@H]1CC[C@H]2[C@H]3CC(=O)C4=CC(=O)CC[C@]4(C)[C@H]3CC[C@]12C)C(C)C
REMARK SMILES IDX 4 1 3 2 2 3 1 4 29 5 30 6 31 7 5 8 6 9 7 10 8 11 9 12 27 13
REMARK SMILES IDX 10 14 11 15 26 16 28 17 12 18 25 19 24 20 13 21 22 22 14 23
REMARK SMILES IDX 16 24 21 25 23 26 15 27 17 28 20 29 18 30 19 31
REMARK H PARENT
REMARK Flexibility Score: inf
ROOT
ATOM      1  C   UNL     1      22.690 -27.263  21.358  1.00  0.00     0.004 C 
ENDROOT
BRANCH   1   2
ATOM      2  C   UNL     1      22.419 -25.880  20.695  1.00  0.00    -0.009 C 
BRANCH   2   3
ATOM      3  C   UNL     1      23.248 -25.624  19.404  1.00  0.00     0.000 C 
ATOM      4  C   UNL     1      23.935 -24.257  19.405  1.00  0.00     0.004 C 
ENDBRANCH   2   3
BRANCH   2   5
ATOM      5  C   UNL     1      20.892 -25.559  20.553  1.00  0.00    -0.014 C 
ATOM      6  C   UNL     1      20.040 -26.841  20.499  1.00  0.00     0.007 C 
ATOM      7  C   UNL     1      20.335 -24.607  21.625  1.00  0.00     0.007 C 
ENDBRANCH   2   5
ENDBRANCH   1   2
BRANCH   1   8
ATOM      8  C   UNL     1      23.254 -27.243  22.807  1.00  0.00     0.004 C 
BRANCH   8   9
ATOM      9  C   UNL     1      22.649 -28.343  23.740  1.00  0.00    -0.011 C 
ATOM     10  C   UNL     1      23.349 -28.358  25.107  1.00  0.00     0.008 C 
BRANCH   9  11
ATOM     11  C   UNL     1      22.494 -29.782  23.125  1.00  0.00    -0.002 C 
ATOM     12  C   UNL     1      23.387 -30.858  23.798  1.00  0.00     0.005 C 
ATOM     13  C   UNL     1      21.095 -30.467  22.957  1.00  0.00    -0.026 C 
ATOM     14  C   UNL     1      22.692 -32.212  23.586  1.00  0.00     0.005 C 
ATOM     15  C   UNL     1      21.561 -31.893  22.620  1.00  0.00    -0.001 C 
ATOM     16  C   UNL     1      20.259 -29.978  21.743  1.00  0.00     0.007 C 
ATOM     17  C   UNL     1      20.267 -30.376  24.269  1.00  0.00     0.012 C 
ATOM     18  C   UNL     1      20.472 -32.951  22.328  1.00  0.00     0.004 C 
ATOM     19  C   UNL     1      19.077 -30.928  21.432  1.00  0.00     0.005 C 
ATOM     20  C   UNL     1      19.474 -32.430  21.243  1.00  0.00     0.003 C 
ATOM     21  C   UNL     1      19.751 -33.585  23.529  1.00  0.00     0.085 C 
ATOM     22  C   UNL     1      18.235 -33.413  20.977  1.00  0.00    -0.000 C 
ATOM     23  C   UNL     1      19.007 -34.787  23.038  1.00  0.00     0.159 C 
ATOM     24  C   UNL     1      18.425 -34.771  21.673  1.00  0.00     0.005 C 
ATOM     25  C   UNL     1      18.107 -33.619  19.433  1.00  0.00     0.020 C 
ATOM     26  C   UNL     1      16.898 -32.844  21.522  1.00  0.00     0.017 C 
ATOM     27  O   UNL     1      18.869 -35.785  23.795  1.00  0.00    -0.295 OA
ATOM     28  C   UNL     1      17.959 -35.914  21.133  1.00  0.00     0.055 C 
ATOM     29  C   UNL     1      17.074 -34.682  19.044  1.00  0.00     0.081 C 
ATOM     30  C   UNL     1      17.298 -35.943  19.818  1.00  0.00     0.156 C 
ATOM     31  O   UNL     1      16.875 -37.038  19.362  1.00  0.00    -0.295 OA
ENDBRANCH   9  11
ENDBRANCH   8   9
ENDBRANCH   1   8
TORSDOF 6
ENDMDL
MODEL 9
REMARK VINA RESULT:    -7.177      2.071      3.992
REMARK INTER + INTRA:         -11.482
REMARK INTER:                 -10.029
REMARK INTRA:                  -1.453
REMARK UNBOUND:                -1.788
REMARK SMILES CC[C@H](CC[C@H](C)[C@H]1CC[C@H]2[C@H]3CC(=O)C4=CC(=O)CC[C@]4(C)[C@H]3CC[C@]12C)C(C)C
REMARK SMILES IDX 4 1 3 2 2 3 1 4 29 5 30 6 31 7 5 8 6 9 7 10 8 11 9 12 27 13
REMARK SMILES IDX 10 14 11 15 26 16 28 17 12 18 25 19 24 20 13 21 22 22 14 23
REMARK SMILES IDX 16 24 21 25 23 26 15 27 17 28 20 29 18 30 19 31
REMARK H PARENT
REMARK Flexibility Score: inf
ROOT
ATOM      1  C   UNL     1      13.800 -32.015  24.250  1.00  0.00     0.004 C 
ENDROOT
BRANCH   1   2
ATOM      2  C   UNL     1      13.656 -30.873  23.201  1.00  0.00    -0.009 C 
BRANCH   2   3
ATOM      3  C   UNL     1      12.400 -31.003  22.293  1.00  0.00     0.000 C 
ATOM      4  C   UNL     1      12.749 -31.375  20.851  1.00  0.00     0.004 C 
ENDBRANCH   2   3
BRANCH   2   5
ATOM      5  C   UNL     1      13.858 -29.448  23.818  1.00  0.00    -0.014 C 
ATOM      6  C   UNL     1      14.663 -28.527  22.882  1.00  0.00     0.007 C 
ATOM      7  C   UNL     1      12.559 -28.746  24.249  1.00  0.00     0.007 C 
ENDBRANCH   2   5
ENDBRANCH   1   2
BRANCH   1   8
ATOM      8  C   UNL     1      14.860 -33.112  23.944  1.00  0.00     0.004 C 
BRANCH   8   9
ATOM      9  C   UNL     1      15.581 -32.933  22.567  1.00  0.00    -0.011 C 
ATOM     10  C   UNL     1      15.030 -33.915  21.521  1.00  0.00     0.008 C 
BRANCH   9  11
ATOM     11  C   UNL     1      17.151 -32.895  22.593  1.00  0.00    -0.002 C 
ATOM     12  C   UNL     1      17.801 -32.623  21.210  1.00  0.00     0.005 C 
ATOM     13  C   UNL     1      17.945 -31.989  23.595  1.00  0.00    -0.026 C 
ATOM     14  C   UNL     1      19.172 -31.984  21.478  1.00  0.00     0.005 C 
ATOM     15  C   UNL     1      19.349 -32.119  22.982  1.00  0.00    -0.001 C 
ATOM     16  C   UNL     1      18.045 -32.534  25.045  1.00  0.00     0.007 C 
ATOM     17  C   UNL     1      17.395 -30.535  23.589  1.00  0.00     0.012 C 
ATOM     18  C   UNL     1      20.511 -31.385  23.693  1.00  0.00     0.004 C 
ATOM     19  C   UNL     1      19.122 -31.790  25.872  1.00  0.00     0.005 C 
ATOM     20  C   UNL     1      20.541 -31.746  25.214  1.00  0.00     0.003 C 
ATOM     21  C   UNL     1      20.659 -29.875  23.448  1.00  0.00     0.085 C 
ATOM     22  C   UNL     1      21.633 -30.926  26.053  1.00  0.00    -0.000 C 
ATOM     23  C   UNL     1      22.007 -29.458  23.946  1.00  0.00     0.159 C 
ATOM     24  C   UNL     1      22.582 -30.136  25.135  1.00  0.00     0.005 C 
ATOM     25  C   UNL     1      22.450 -31.947  26.909  1.00  0.00     0.020 C 
ATOM     26  C   UNL     1      20.991 -29.876  26.998  1.00  0.00     0.017 C 
ATOM     27  O   UNL     1      22.625 -28.527  23.363  1.00  0.00    -0.295 OA
ATOM     28  C   UNL     1      23.875 -29.938  25.456  1.00  0.00     0.055 C 
ATOM     29  C   UNL     1      23.651 -31.320  27.625  1.00  0.00     0.081 C 
ATOM     30  C   UNL     1      24.476 -30.519  26.667  1.00  0.00     0.156 C 
ATOM     31  O   UNL     1      25.689 -30.298  26.924  1.00  0.00    -0.295 OA
ENDBRANCH   9  11
ENDBRANCH   8   9
ENDBRANCH   1   8
TORSDOF 6
ENDMDL
