MODEL 1
REMARK VINA RESULT:    -6.507      0.000      0.000
REMARK INTER + INTRA:          -9.578
REMARK INTER:                  -9.170
REMARK INTRA:                  -0.408
REMARK UNBOUND:                -0.408
REMARK SMILES C[C@H](CO)CCC(=O)[C@@H](C)[C@H]1C(=O)C[C@H]2[C@@H]3CC=C4C[C@@H](O)CC[C@]4(C)[C@@H]3CC[C@@]12C
REMARK SMILES IDX 6 1 5 2 2 3 1 4 3 5 4 6 7 8 8 9 9 10 10 11 11 12 12 13 30 14
REMARK SMILES IDX 13 15 14 16 15 17 29 18 31 19 16 20 28 21 27 22 17 23 25 24
REMARK SMILES IDX 18 25 19 26 24 27 26 28 20 29 23 30 21 31 22 32
REMARK H PARENT 4 7 22 33
REMARK Flexibility Score: inf
ROOT
ATOM      1  C   UNL     1      18.155   0.593 -27.529  1.00  0.00     0.076 C 
ENDROOT
BRANCH   1   2
ATOM      2  C   UNL     1      18.368  -0.268 -28.789  1.00  0.00     0.013 C 
BRANCH   2   3
ATOM      3  C   UNL     1      19.853  -0.609 -29.050  1.00  0.00     0.012 C 
ATOM      4  C   UNL     1      20.071  -2.127 -28.951  1.00  0.00     0.010 C 
BRANCH   3   5
ATOM      5  C   UNL     1      20.818   0.148 -28.115  1.00  0.00     0.159 C 
BRANCH   5   6
ATOM      6  O   UNL     1      21.602   1.075 -28.821  1.00  0.00    -0.396 OA
ATOM      7  H   UNL     1      22.470   1.143 -28.343  1.00  0.00     0.210 HD
ENDBRANCH   5   6
ENDBRANCH   3   5
ENDBRANCH   2   3
ENDBRANCH   1   2
BRANCH   1   8
ATOM      8  C   UNL     1      17.425  -0.164 -26.440  1.00  0.00     0.136 C 
ATOM      9  O   UNL     1      16.301  -0.597 -26.662  1.00  0.00    -0.299 OA
BRANCH   8  10
ATOM     10  C   UNL     1      18.087  -0.500 -25.112  1.00  0.00     0.064 C 
ATOM     11  C   UNL     1      19.097  -1.632 -25.363  1.00  0.00     0.017 C 
BRANCH  10  12
ATOM     12  C   UNL     1      18.735   0.752 -24.404  1.00  0.00     0.072 C 
ATOM     13  C   UNL     1      17.720   1.714 -23.850  1.00  0.00     0.137 C 
ATOM     14  C   UNL     1      19.680   0.494 -23.164  1.00  0.00    -0.019 C 
ATOM     15  O   UNL     1      16.746   2.107 -24.470  1.00  0.00    -0.299 OA
ATOM     16  C   UNL     1      18.059   2.243 -22.513  1.00  0.00     0.080 C 
ATOM     17  C   UNL     1      19.512   1.800 -22.315  1.00  0.00     0.007 C 
ATOM     18  C   UNL     1      19.223  -0.740 -22.327  1.00  0.00     0.008 C 
ATOM     19  C   UNL     1      21.148   0.316 -23.644  1.00  0.00     0.012 C 
ATOM     20  C   UNL     1      19.899   1.732 -20.806  1.00  0.00     0.001 C 
ATOM     21  C   UNL     1      19.790  -0.789 -20.899  1.00  0.00     0.005 C 
ATOM     22  C   UNL     1      19.371   0.461 -20.093  1.00  0.00     0.003 C 
ATOM     23  C   UNL     1      21.417   1.908 -20.605  1.00  0.00     0.031 C 
ATOM     24  C   UNL     1      19.753   0.461 -18.554  1.00  0.00    -0.008 C 
ATOM     25  C   UNL     1      21.867   1.672 -19.193  1.00  0.00    -0.027 C 
ATOM     26  C   UNL     1      21.199   0.904 -18.309  1.00  0.00    -0.065 C 
ATOM     27  C   UNL     1      19.551  -0.950 -17.916  1.00  0.00     0.014 C 
ATOM     28  C   UNL     1      18.820   1.471 -17.827  1.00  0.00     0.016 C 
ATOM     29  C   UNL     1      21.796   0.715 -16.925  1.00  0.00     0.063 C 
ATOM     30  C   UNL     1      20.038  -1.049 -16.464  1.00  0.00     0.033 C 
ATOM     31  C   UNL     1      21.524  -0.693 -16.369  1.00  0.00     0.118 C 
BRANCH  31  32
ATOM     32  O   UNL     1      21.924  -0.768 -15.024  1.00  0.00    -0.393 OA
ATOM     33  H   UNL     1      22.390  -1.637 -14.912  1.00  0.00     0.210 HD
ENDBRANCH  31  32
ENDBRANCH  10  12
ENDBRANCH   8  10
ENDBRANCH   1   8
TORSDOF 8
ENDMDL
MODEL 2
REMARK VINA RESULT:    -6.342      1.677      2.651
REMARK INTER + INTRA:          -9.346
REMARK INTER:                  -9.133
REMARK INTRA:                  -0.213
REMARK UNBOUND:                -0.408
REMARK SMILES C[C@H](CO)CCC(=O)[C@@H](C)[C@H]1C(=O)C[C@H]2[C@@H]3CC=C4C[C@@H](O)CC[C@]4(C)[C@@H]3CC[C@@]12C
REMARK SMILES IDX 6 1 5 2 2 3 1 4 3 5 4 6 7 8 8 9 9 10 10 11 11 12 12 13 30 14
REMARK SMILES IDX 13 15 14 16 15 17 29 18 31 19 16 20 28 21 27 22 17 23 25 24
REMARK SMILES IDX 18 25 19 26 24 27 26 28 20 29 23 30 21 31 22 32
REMARK H PARENT 4 7 22 33
REMARK Flexibility Score: inf
ROOT
ATOM      1  C   UNL     1      19.712  -1.868 -26.855  1.00  0.00     0.076 C 
ENDROOT
BRANCH   1   2
ATOM      2  C   UNL     1      20.567  -2.520 -25.752  1.00  0.00     0.013 C 
BRANCH   2   3
ATOM      3  C   UNL     1      20.098  -3.945 -25.380  1.00  0.00     0.012 C 
ATOM      4  C   UNL     1      19.817  -4.757 -26.653  1.00  0.00     0.010 C 
BRANCH   3   5
ATOM      5  C   UNL     1      18.874  -3.950 -24.442  1.00  0.00     0.159 C 
BRANCH   5   6
ATOM      6  O   UNL     1      18.335  -5.239 -24.300  1.00  0.00    -0.396 OA
ATOM      7  H   UNL     1      17.374  -5.127 -24.075  1.00  0.00     0.210 HD
ENDBRANCH   5   6
ENDBRANCH   3   5
ENDBRANCH   2   3
ENDBRANCH   1   2
BRANCH   1   8
ATOM      8  C   UNL     1      19.700  -0.357 -26.747  1.00  0.00     0.136 C 
ATOM      9  O   UNL     1      20.597   0.288 -27.275  1.00  0.00    -0.299 OA
BRANCH   8  10
ATOM     10  C   UNL     1      18.550   0.393 -26.093  1.00  0.00     0.064 C 
ATOM     11  C   UNL     1      17.671  -0.637 -25.364  1.00  0.00     0.017 C 
BRANCH  10  12
ATOM     12  C   UNL     1      19.026   1.566 -25.151  1.00  0.00     0.072 C 
ATOM     13  C   UNL     1      17.890   2.311 -24.507  1.00  0.00     0.137 C 
ATOM     14  C   UNL     1      19.942   1.198 -23.916  1.00  0.00    -0.019 C 
ATOM     15  O   UNL     1      16.905   2.703 -25.111  1.00  0.00    -0.299 OA
ATOM     16  C   UNL     1      18.112   2.637 -23.084  1.00  0.00     0.080 C 
ATOM     17  C   UNL     1      19.596   2.317 -22.875  1.00  0.00     0.007 C 
ATOM     18  C   UNL     1      19.590  -0.200 -23.323  1.00  0.00     0.008 C 
ATOM     19  C   UNL     1      21.440   1.255 -24.331  1.00  0.00     0.012 C 
ATOM     20  C   UNL     1      19.925   2.033 -21.378  1.00  0.00     0.001 C 
ATOM     21  C   UNL     1      20.099  -0.433 -21.891  1.00  0.00     0.005 C 
ATOM     22  C   UNL     1      19.511   0.613 -20.916  1.00  0.00     0.003 C 
ATOM     23  C   UNL     1      21.405   2.326 -21.061  1.00  0.00     0.031 C 
ATOM     24  C   UNL     1      19.827   0.390 -19.378  1.00  0.00    -0.008 C 
ATOM     25  C   UNL     1      21.820   1.901 -19.683  1.00  0.00    -0.027 C 
ATOM     26  C   UNL     1      21.204   0.930 -18.979  1.00  0.00    -0.065 C 
ATOM     27  C   UNL     1      19.755  -1.122 -18.995  1.00  0.00     0.014 C 
ATOM     28  C   UNL     1      18.759   1.161 -18.552  1.00  0.00     0.016 C 
ATOM     29  C   UNL     1      21.760   0.570 -17.611  1.00  0.00     0.063 C 
ATOM     30  C   UNL     1      20.189  -1.416 -17.552  1.00  0.00     0.033 C 
ATOM     31  C   UNL     1      21.622  -0.932 -17.311  1.00  0.00     0.118 C 
BRANCH  31  32
ATOM     32  O   UNL     1      21.972  -1.194 -15.976  1.00  0.00    -0.393 OA
ATOM     33  H   UNL     1      22.754  -1.805 -15.999  1.00  0.00     0.210 HD
ENDBRANCH  31  32
ENDBRANCH  10  12
ENDBRANCH   8  10
ENDBRANCH   1   8
TORSDOF 8
ENDMDL
MODEL 3
REMARK VINA RESULT:    -6.220      2.170      9.071
REMARK INTER + INTRA:          -9.173
REMARK INTER:                  -8.694
REMARK INTRA:                  -0.479
REMARK UNBOUND:                -0.408
REMARK SMILES C[C@H](CO)CCC(=O)[C@@H](C)[C@H]1C(=O)C[C@H]2[C@@H]3CC=C4C[C@@H](O)CC[C@]4(C)[C@@H]3CC[C@@]12C
REMARK SMILES IDX 6 1 5 2 2 3 1 4 3 5 4 6 7 8 8 9 9 10 10 11 11 12 12 13 30 14
REMARK SMILES IDX 13 15 14 16 15 17 29 18 31 19 16 20 28 21 27 22 17 23 25 24
REMARK SMILES IDX 18 25 19 26 24 27 26 28 20 29 23 30 21 31 22 32
REMARK H PARENT 4 7 22 33
REMARK Flexibility Score: inf
ROOT
ATOM      1  C   UNL     1      20.732   1.988 -14.832  1.00  0.00     0.076 C 
ENDROOT
BRANCH   1   2
ATOM      2  C   UNL     1      22.143   1.945 -15.449  1.00  0.00     0.013 C 
BRANCH   2   3
ATOM      3  C   UNL     1      23.042   0.845 -14.839  1.00  0.00     0.012 C 
ATOM      4  C   UNL     1      24.450   1.400 -14.575  1.00  0.00     0.010 C 
BRANCH   3   5
ATOM      5  C   UNL     1      23.105  -0.429 -15.705  1.00  0.00     0.159 C 
BRANCH   5   6
ATOM      6  O   UNL     1      22.278  -1.443 -15.196  1.00  0.00    -0.396 OA
ATOM      7  H   UNL     1      21.755  -1.801 -15.961  1.00  0.00     0.210 HD
ENDBRANCH   5   6
ENDBRANCH   3   5
ENDBRANCH   2   3
ENDBRANCH   1   2
BRANCH   1   8
ATOM      8  C   UNL     1      19.880   0.819 -15.283  1.00  0.00     0.136 C 
ATOM      9  O   UNL     1      19.637  -0.084 -14.493  1.00  0.00    -0.299 OA
BRANCH   8  10
ATOM     10  C   UNL     1      19.226   0.783 -16.655  1.00  0.00     0.064 C 
ATOM     11  C   UNL     1      18.681   2.190 -16.953  1.00  0.00     0.017 C 
BRANCH  10  12
ATOM     12  C   UNL     1      20.184   0.246 -17.789  1.00  0.00     0.072 C 
ATOM     13  C   UNL     1      20.022  -1.225 -18.056  1.00  0.00     0.137 C 
ATOM     14  C   UNL     1      20.049   0.877 -19.231  1.00  0.00    -0.019 C 
ATOM     15  O   UNL     1      19.977  -2.075 -17.182  1.00  0.00    -0.299 OA
ATOM     16  C   UNL     1      20.035  -1.582 -19.490  1.00  0.00     0.080 C 
ATOM     17  C   UNL     1      20.504  -0.292 -20.171  1.00  0.00     0.007 C 
ATOM     18  C   UNL     1      18.578   1.275 -19.561  1.00  0.00     0.008 C 
ATOM     19  C   UNL     1      20.991   2.107 -19.362  1.00  0.00     0.012 C 
ATOM     20  C   UNL     1      20.061  -0.229 -21.664  1.00  0.00     0.001 C 
ATOM     21  C   UNL     1      18.288   1.464 -21.058  1.00  0.00     0.005 C 
ATOM     22  C   UNL     1      18.573   0.166 -21.848  1.00  0.00     0.003 C 
ATOM     23  C   UNL     1      20.995   0.676 -22.492  1.00  0.00     0.031 C 
ATOM     24  C   UNL     1      18.162   0.174 -23.379  1.00  0.00    -0.008 C 
ATOM     25  C   UNL     1      20.514   0.917 -23.892  1.00  0.00    -0.027 C 
ATOM     26  C   UNL     1      19.222   0.835 -24.267  1.00  0.00    -0.065 C 
ATOM     27  C   UNL     1      16.801   0.907 -23.600  1.00  0.00     0.014 C 
ATOM     28  C   UNL     1      18.011  -1.302 -23.843  1.00  0.00     0.016 C 
ATOM     29  C   UNL     1      18.870   1.150 -25.711  1.00  0.00     0.063 C 
ATOM     30  C   UNL     1      16.419   1.071 -25.077  1.00  0.00     0.033 C 
ATOM     31  C   UNL     1      17.504   1.846 -25.832  1.00  0.00     0.118 C 
BRANCH  31  32
ATOM     32  O   UNL     1      17.131   1.951 -27.182  1.00  0.00    -0.393 OA
ATOM     33  H   UNL     1      17.530   1.173 -27.652  1.00  0.00     0.210 HD
ENDBRANCH  31  32
ENDBRANCH  10  12
ENDBRANCH   8  10
ENDBRANCH   1   8
TORSDOF 8
ENDMDL
MODEL 4
REMARK VINA RESULT:    -6.083      1.837      8.758
REMARK INTER + INTRA:          -8.980
REMARK INTER:                  -8.195
REMARK INTRA:                  -0.785
REMARK UNBOUND:                -0.408
REMARK SMILES C[C@H](CO)CCC(=O)[C@@H](C)[C@H]1C(=O)C[C@H]2[C@@H]3CC=C4C[C@@H](O)CC[C@]4(C)[C@@H]3CC[C@@]12C
REMARK SMILES IDX 6 1 5 2 2 3 1 4 3 5 4 6 7 8 8 9 9 10 10 11 11 12 12 13 30 14
REMARK SMILES IDX 13 15 14 16 15 17 29 18 31 19 16 20 28 21 27 22 17 23 25 24
REMARK SMILES IDX 18 25 19 26 24 27 26 28 20 29 23 30 21 31 22 32
REMARK H PARENT 4 7 22 33
REMARK Flexibility Score: inf
ROOT
ATOM      1  C   UNL     1      18.980   0.294 -15.928  1.00  0.00     0.076 C 
ENDROOT
BRANCH   1   2
ATOM      2  C   UNL     1      19.908   0.918 -14.868  1.00  0.00     0.013 C 
BRANCH   2   3
ATOM      3  C   UNL     1      19.899   2.463 -14.885  1.00  0.00     0.012 C 
ATOM      4  C   UNL     1      18.717   2.975 -15.721  1.00  0.00     0.010 C 
BRANCH   3   5
ATOM      5  C   UNL     1      21.228   3.067 -15.383  1.00  0.00     0.159 C 
BRANCH   5   6
ATOM      6  O   UNL     1      22.256   2.111 -15.405  1.00  0.00    -0.396 OA
ATOM      7  H   UNL     1      21.930   1.349 -15.953  1.00  0.00     0.210 HD
ENDBRANCH   5   6
ENDBRANCH   3   5
ENDBRANCH   2   3
ENDBRANCH   1   2
BRANCH   1   8
ATOM      8  C   UNL     1      19.750  -0.525 -16.943  1.00  0.00     0.136 C 
ATOM      9  O   UNL     1      19.337  -1.636 -17.254  1.00  0.00    -0.299 OA
BRANCH   8  10
ATOM     10  C   UNL     1      20.962   0.032 -17.673  1.00  0.00     0.064 C 
ATOM     11  C   UNL     1      21.609  -1.121 -18.459  1.00  0.00     0.017 C 
BRANCH  10  12
ATOM     12  C   UNL     1      20.626   1.278 -18.581  1.00  0.00     0.072 C 
ATOM     13  C   UNL     1      21.847   1.954 -19.140  1.00  0.00     0.137 C 
ATOM     14  C   UNL     1      19.742   1.038 -19.868  1.00  0.00    -0.019 C 
ATOM     15  O   UNL     1      22.831   2.238 -18.478  1.00  0.00    -0.299 OA
ATOM     16  C   UNL     1      21.717   2.355 -20.556  1.00  0.00     0.080 C 
ATOM     17  C   UNL     1      20.224   2.167 -20.842  1.00  0.00     0.007 C 
ATOM     18  C   UNL     1      20.008  -0.358 -20.509  1.00  0.00     0.008 C 
ATOM     19  C   UNL     1      18.236   1.200 -19.516  1.00  0.00     0.012 C 
ATOM     20  C   UNL     1      19.943   1.974 -22.364  1.00  0.00     0.001 C 
ATOM     21  C   UNL     1      19.549  -0.489 -21.970  1.00  0.00     0.005 C 
ATOM     22  C   UNL     1      20.263   0.544 -22.871  1.00  0.00     0.003 C 
ATOM     23  C   UNL     1      18.507   2.399 -22.730  1.00  0.00     0.031 C 
ATOM     24  C   UNL     1      20.001   0.412 -24.429  1.00  0.00    -0.008 C 
ATOM     25  C   UNL     1      18.124   2.067 -24.142  1.00  0.00    -0.027 C 
ATOM     26  C   UNL     1      18.692   1.079 -24.862  1.00  0.00    -0.065 C 
ATOM     27  C   UNL     1      19.969  -1.083 -24.877  1.00  0.00     0.014 C 
ATOM     28  C   UNL     1      21.165   1.127 -25.173  1.00  0.00     0.016 C 
ATOM     29  C   UNL     1      18.172   0.824 -26.267  1.00  0.00     0.063 C 
ATOM     30  C   UNL     1      19.580  -1.281 -26.348  1.00  0.00     0.033 C 
ATOM     31  C   UNL     1      18.204  -0.671 -26.628  1.00  0.00     0.118 C 
BRANCH  31  32
ATOM     32  O   UNL     1      17.896  -0.848 -27.987  1.00  0.00    -0.393 OA
ATOM     33  H   UNL     1      18.248  -1.738 -28.248  1.00  0.00     0.210 HD
ENDBRANCH  31  32
ENDBRANCH  10  12
ENDBRANCH   8  10
ENDBRANCH   1   8
TORSDOF 8
ENDMDL
MODEL 5
REMARK VINA RESULT:    -5.935      1.566      2.727
REMARK INTER + INTRA:          -8.771
REMARK INTER:                  -8.119
REMARK INTRA:                  -0.652
REMARK UNBOUND:                -0.408
REMARK SMILES C[C@H](CO)CCC(=O)[C@@H](C)[C@H]1C(=O)C[C@H]2[C@@H]3CC=C4C[C@@H](O)CC[C@]4(C)[C@@H]3CC[C@@]12C
REMARK SMILES IDX 6 1 5 2 2 3 1 4 3 5 4 6 7 8 8 9 9 10 10 11 11 12 12 13 30 14
REMARK SMILES IDX 13 15 14 16 15 17 29 18 31 19 16 20 28 21 27 22 17 23 25 24
REMARK SMILES IDX 18 25 19 26 24 27 26 28 20 29 23 30 21 31 22 32
REMARK H PARENT 4 7 22 33
REMARK Flexibility Score: inf
ROOT
ATOM      1  C   UNL     1      17.382  -0.194 -26.294  1.00  0.00     0.076 C 
ENDROOT
BRANCH   1   2
ATOM      2  C   UNL     1      18.082   0.073 -27.639  1.00  0.00     0.013 C 
BRANCH   2   3
ATOM      3  C   UNL     1      19.222  -0.926 -27.942  1.00  0.00     0.012 C 
ATOM      4  C   UNL     1      19.498  -1.801 -26.709  1.00  0.00     0.010 C 
BRANCH   3   5
ATOM      5  C   UNL     1      20.513  -0.237 -28.428  1.00  0.00     0.159 C 
BRANCH   5   6
ATOM      6  O   UNL     1      20.848   0.863 -27.624  1.00  0.00    -0.396 OA
ATOM      7  H   UNL     1      20.645   0.608 -26.685  1.00  0.00     0.210 HD
ENDBRANCH   5   6
ENDBRANCH   3   5
ENDBRANCH   2   3
ENDBRANCH   1   2
BRANCH   1   8
ATOM      8  C   UNL     1      17.450   1.004 -25.370  1.00  0.00     0.136 C 
ATOM      9  O   UNL     1      16.425   1.407 -24.835  1.00  0.00    -0.299 OA
BRANCH   8  10
ATOM     10  C   UNL     1      18.772   1.659 -24.999  1.00  0.00     0.064 C 
ATOM     11  C   UNL     1      18.456   2.980 -24.279  1.00  0.00     0.017 C 
BRANCH  10  12
ATOM     12  C   UNL     1      19.721   0.717 -24.161  1.00  0.00     0.072 C 
ATOM     13  C   UNL     1      21.085   1.303 -23.927  1.00  0.00     0.137 C 
ATOM     14  C   UNL     1      19.262   0.313 -22.704  1.00  0.00    -0.019 C 
ATOM     15  O   UNL     1      21.762   1.822 -24.799  1.00  0.00    -0.299 OA
ATOM     16  C   UNL     1      21.601   1.099 -22.557  1.00  0.00     0.080 C 
ATOM     17  C   UNL     1      20.621   0.087 -21.957  1.00  0.00     0.007 C 
ATOM     18  C   UNL     1      18.462   1.454 -22.005  1.00  0.00     0.008 C 
ATOM     19  C   UNL     1      18.420  -0.994 -22.755  1.00  0.00     0.012 C 
ATOM     20  C   UNL     1      20.605   0.146 -20.399  1.00  0.00     0.001 C 
ATOM     21  C   UNL     1      18.376   1.330 -20.475  1.00  0.00     0.005 C 
ATOM     22  C   UNL     1      19.784   1.335 -19.838  1.00  0.00     0.003 C 
ATOM     23  C   UNL     1      20.153  -1.195 -19.788  1.00  0.00     0.031 C 
ATOM     24  C   UNL     1      19.835   1.376 -18.253  1.00  0.00    -0.008 C 
ATOM     25  C   UNL     1      19.946  -1.140 -18.303  1.00  0.00    -0.027 C 
ATOM     26  C   UNL     1      19.659  -0.011 -17.626  1.00  0.00    -0.065 C 
ATOM     27  C   UNL     1      18.742   2.326 -17.673  1.00  0.00     0.014 C 
ATOM     28  C   UNL     1      21.232   1.912 -17.831  1.00  0.00     0.016 C 
ATOM     29  C   UNL     1      19.429  -0.110 -16.127  1.00  0.00     0.063 C 
ATOM     30  C   UNL     1      18.647   2.300 -16.141  1.00  0.00     0.033 C 
ATOM     31  C   UNL     1      18.356   0.881 -15.644  1.00  0.00     0.118 C 
BRANCH  31  32
ATOM     32  O   UNL     1      18.305   0.893 -14.240  1.00  0.00    -0.393 OA
ATOM     33  H   UNL     1      19.243   0.850 -13.918  1.00  0.00     0.210 HD
ENDBRANCH  31  32
ENDBRANCH  10  12
ENDBRANCH   8  10
ENDBRANCH   1   8
TORSDOF 8
ENDMDL
MODEL 6
REMARK VINA RESULT:    -5.829      1.883      3.139
REMARK INTER + INTRA:          -8.622
REMARK INTER:                  -8.362
REMARK INTRA:                  -0.260
REMARK UNBOUND:                -0.408
REMARK SMILES C[C@H](CO)CCC(=O)[C@@H](C)[C@H]1C(=O)C[C@H]2[C@@H]3CC=C4C[C@@H](O)CC[C@]4(C)[C@@H]3CC[C@@]12C
REMARK SMILES IDX 6 1 5 2 2 3 1 4 3 5 4 6 7 8 8 9 9 10 10 11 11 12 12 13 30 14
REMARK SMILES IDX 13 15 14 16 15 17 29 18 31 19 16 20 28 21 27 22 17 23 25 24
REMARK SMILES IDX 18 25 19 26 24 27 26 28 20 29 23 30 21 31 22 32
REMARK H PARENT 4 7 22 33
REMARK Flexibility Score: inf
ROOT
ATOM      1  C   UNL     1      19.454  -0.483 -24.507  1.00  0.00     0.076 C 
ENDROOT
BRANCH   1   2
ATOM      2  C   UNL     1      17.965  -0.815 -24.721  1.00  0.00     0.013 C 
BRANCH   2   3
ATOM      3  C   UNL     1      17.023   0.358 -24.368  1.00  0.00     0.012 C 
ATOM      4  C   UNL     1      16.809   0.424 -22.848  1.00  0.00     0.010 C 
BRANCH   3   5
ATOM      5  C   UNL     1      15.673   0.292 -25.112  1.00  0.00     0.159 C 
BRANCH   5   6
ATOM      6  O   UNL     1      15.771  -0.455 -26.296  1.00  0.00    -0.396 OA
ATOM      7  H   UNL     1      15.186  -1.250 -26.186  1.00  0.00     0.210 HD
ENDBRANCH   5   6
ENDBRANCH   3   5
ENDBRANCH   2   3
ENDBRANCH   1   2
BRANCH   1   8
ATOM      8  C   UNL     1      20.005   0.392 -25.614  1.00  0.00     0.136 C 
ATOM      9  O   UNL     1      19.362   0.526 -26.648  1.00  0.00    -0.299 OA
BRANCH   8  10
ATOM     10  C   UNL     1      21.282   1.199 -25.440  1.00  0.00     0.064 C 
ATOM     11  C   UNL     1      21.699   1.723 -26.824  1.00  0.00     0.017 C 
BRANCH  10  12
ATOM     12  C   UNL     1      21.153   2.347 -24.364  1.00  0.00     0.072 C 
ATOM     13  C   UNL     1      19.745   2.843 -24.190  1.00  0.00     0.137 C 
ATOM     14  C   UNL     1      21.593   2.024 -22.882  1.00  0.00    -0.019 C 
ATOM     15  O   UNL     1      19.002   3.124 -25.116  1.00  0.00    -0.299 OA
ATOM     16  C   UNL     1      19.358   3.076 -22.783  1.00  0.00     0.080 C 
ATOM     17  C   UNL     1      20.688   2.979 -22.030  1.00  0.00     0.007 C 
ATOM     18  C   UNL     1      21.303   0.542 -22.495  1.00  0.00     0.008 C 
ATOM     19  C   UNL     1      23.101   2.354 -22.691  1.00  0.00     0.012 C 
ATOM     20  C   UNL     1      20.481   2.623 -20.526  1.00  0.00     0.001 C 
ATOM     21  C   UNL     1      21.275   0.270 -20.982  1.00  0.00     0.005 C 
ATOM     22  C   UNL     1      20.188   1.120 -20.286  1.00  0.00     0.003 C 
ATOM     23  C   UNL     1      21.657   3.119 -19.662  1.00  0.00     0.031 C 
ATOM     24  C   UNL     1      19.943   0.818 -18.748  1.00  0.00    -0.008 C 
ATOM     25  C   UNL     1      21.598   2.647 -18.239  1.00  0.00    -0.027 C 
ATOM     26  C   UNL     1      20.950   1.533 -17.843  1.00  0.00    -0.065 C 
ATOM     27  C   UNL     1      20.007  -0.713 -18.451  1.00  0.00     0.014 C 
ATOM     28  C   UNL     1      18.524   1.335 -18.378  1.00  0.00     0.016 C 
ATOM     29  C   UNL     1      21.012   1.150 -16.373  1.00  0.00     0.063 C 
ATOM     30  C   UNL     1      19.918  -1.059 -16.958  1.00  0.00     0.033 C 
ATOM     31  C   UNL     1      21.045  -0.375 -16.179  1.00  0.00     0.118 C 
BRANCH  31  32
ATOM     32  O   UNL     1      20.913  -0.693 -14.817  1.00  0.00    -0.393 OA
ATOM     33  H   UNL     1      20.746   0.160 -14.338  1.00  0.00     0.210 HD
ENDBRANCH  31  32
ENDBRANCH  10  12
ENDBRANCH   8  10
ENDBRANCH   1   8
TORSDOF 8
ENDMDL
MODEL 7
REMARK VINA RESULT:    -5.821     12.907     15.315
REMARK INTER + INTRA:          -8.612
REMARK INTER:                  -8.315
REMARK INTRA:                  -0.296
REMARK UNBOUND:                -0.408
REMARK SMILES C[C@H](CO)CCC(=O)[C@@H](C)[C@H]1C(=O)C[C@H]2[C@@H]3CC=C4C[C@@H](O)CC[C@]4(C)[C@@H]3CC[C@@]12C
REMARK SMILES IDX 6 1 5 2 2 3 1 4 3 5 4 6 7 8 8 9 9 10 10 11 11 12 12 13 30 14
REMARK SMILES IDX 13 15 14 16 15 17 29 18 31 19 16 20 28 21 27 22 17 23 25 24
REMARK SMILES IDX 18 25 19 26 24 27 26 28 20 29 23 30 21 31 22 32
REMARK H PARENT 4 7 22 33
REMARK Flexibility Score: inf
ROOT
ATOM      1  C   UNL     1      26.623 -13.366 -25.750  1.00  0.00     0.076 C 
ENDROOT
BRANCH   1   2
ATOM      2  C   UNL     1      26.858 -12.771 -27.152  1.00  0.00     0.013 C 
BRANCH   2   3
ATOM      3  C   UNL     1      26.669 -11.238 -27.202  1.00  0.00     0.012 C 
ATOM      4  C   UNL     1      26.173 -10.722 -25.843  1.00  0.00     0.010 C 
BRANCH   3   5
ATOM      5  C   UNL     1      25.730 -10.784 -28.339  1.00  0.00     0.159 C 
BRANCH   5   6
ATOM      6  O   UNL     1      24.421 -10.573 -27.877  1.00  0.00    -0.396 OA
ATOM      7  H   UNL     1      23.951 -10.042 -28.572  1.00  0.00     0.210 HD
ENDBRANCH   5   6
ENDBRANCH   3   5
ENDBRANCH   2   3
ENDBRANCH   1   2
BRANCH   1   8
ATOM      8  C   UNL     1      25.397 -14.254 -25.708  1.00  0.00     0.136 C 
ATOM      9  O   UNL     1      25.402 -15.311 -26.326  1.00  0.00    -0.299 OA
BRANCH   8  10
ATOM     10  C   UNL     1      24.197 -13.926 -24.834  1.00  0.00     0.064 C 
ATOM     11  C   UNL     1      24.724 -13.368 -23.501  1.00  0.00     0.017 C 
BRANCH  10  12
ATOM     12  C   UNL     1      23.160 -12.962 -25.533  1.00  0.00     0.072 C 
ATOM     13  C   UNL     1      22.851 -13.350 -26.952  1.00  0.00     0.137 C 
ATOM     14  C   UNL     1      21.724 -12.829 -24.889  1.00  0.00    -0.019 C 
ATOM     15  O   UNL     1      23.699 -13.638 -27.780  1.00  0.00    -0.299 OA
ATOM     16  C   UNL     1      21.420 -13.247 -27.307  1.00  0.00     0.080 C 
ATOM     17  C   UNL     1      20.816 -12.489 -26.120  1.00  0.00     0.007 C 
ATOM     18  C   UNL     1      21.248 -14.163 -24.237  1.00  0.00     0.008 C 
ATOM     19  C   UNL     1      21.715 -11.677 -23.845  1.00  0.00     0.012 C 
ATOM     20  C   UNL     1      19.285 -12.752 -25.981  1.00  0.00     0.001 C 
ATOM     21  C   UNL     1      19.732 -14.254 -24.001  1.00  0.00     0.005 C 
ATOM     22  C   UNL     1      18.954 -14.119 -25.329  1.00  0.00     0.003 C 
ATOM     23  C   UNL     1      18.577 -11.591 -25.256  1.00  0.00     0.031 C 
ATOM     24  C   UNL     1      17.388 -14.357 -25.250  1.00  0.00    -0.008 C 
ATOM     25  C   UNL     1      17.138 -11.870 -24.935  1.00  0.00    -0.027 C 
ATOM     26  C   UNL     1      16.629 -13.109 -24.787  1.00  0.00    -0.065 C 
ATOM     27  C   UNL     1      17.038 -15.536 -24.289  1.00  0.00     0.014 C 
ATOM     28  C   UNL     1      16.884 -14.715 -26.677  1.00  0.00     0.016 C 
ATOM     29  C   UNL     1      15.161 -13.244 -24.416  1.00  0.00     0.063 C 
ATOM     30  C   UNL     1      15.533 -15.724 -24.060  1.00  0.00     0.033 C 
ATOM     31  C   UNL     1      14.911 -14.446 -23.490  1.00  0.00     0.118 C 
BRANCH  31  32
ATOM     32  O   UNL     1      13.531 -14.648 -23.322  1.00  0.00    -0.393 OA
ATOM     33  H   UNL     1      13.218 -15.167 -24.108  1.00  0.00     0.210 HD
ENDBRANCH  31  32
ENDBRANCH  10  12
ENDBRANCH   8  10
ENDBRANCH   1   8
TORSDOF 8
ENDMDL
MODEL 8
REMARK VINA RESULT:    -5.738      3.010      9.583
REMARK INTER + INTRA:          -8.494
REMARK INTER:                  -8.317
REMARK INTRA:                  -0.176
REMARK UNBOUND:                -0.408
REMARK SMILES C[C@H](CO)CCC(=O)[C@@H](C)[C@H]1C(=O)C[C@H]2[C@@H]3CC=C4C[C@@H](O)CC[C@]4(C)[C@@H]3CC[C@@]12C
REMARK SMILES IDX 6 1 5 2 2 3 1 4 3 5 4 6 7 8 8 9 9 10 10 11 11 12 12 13 30 14
REMARK SMILES IDX 13 15 14 16 15 17 29 18 31 19 16 20 28 21 27 22 17 23 25 24
REMARK SMILES IDX 18 25 19 26 24 27 26 28 20 29 23 30 21 31 22 32
REMARK H PARENT 4 7 22 33
REMARK Flexibility Score: inf
ROOT
ATOM      1  C   UNL     1      23.615  -0.616 -15.405  1.00  0.00     0.076 C 
ENDROOT
BRANCH   1   2
ATOM      2  C   UNL     1      24.484  -1.160 -14.255  1.00  0.00     0.013 C 
BRANCH   2   3
ATOM      3  C   UNL     1      25.010  -0.053 -13.313  1.00  0.00     0.012 C 
ATOM      4  C   UNL     1      25.100   1.283 -14.067  1.00  0.00     0.010 C 
BRANCH   3   5
ATOM      5  C   UNL     1      26.360  -0.409 -12.659  1.00  0.00     0.159 C 
BRANCH   5   6
ATOM      6  O   UNL     1      26.986  -1.481 -13.314  1.00  0.00    -0.396 OA
ATOM      7  H   UNL     1      27.033  -1.244 -14.278  1.00  0.00     0.210 HD
ENDBRANCH   5   6
ENDBRANCH   3   5
ENDBRANCH   2   3
ENDBRANCH   1   2
BRANCH   1   8
ATOM      8  C   UNL     1      22.142  -0.886 -15.180  1.00  0.00     0.136 C 
ATOM      9  O   UNL     1      21.788  -1.995 -14.798  1.00  0.00    -0.299 OA
BRANCH   8  10
ATOM     10  C   UNL     1      21.096   0.210 -15.307  1.00  0.00     0.064 C 
ATOM     11  C   UNL     1      21.831   1.533 -15.576  1.00  0.00     0.017 C 
BRANCH  10  12
ATOM     12  C   UNL     1      19.990  -0.107 -16.388  1.00  0.00     0.072 C 
ATOM     13  C   UNL     1      18.917   0.944 -16.468  1.00  0.00     0.137 C 
ATOM     14  C   UNL     1      20.448  -0.249 -17.894  1.00  0.00    -0.019 C 
ATOM     15  O   UNL     1      18.353   1.415 -15.494  1.00  0.00    -0.299 OA
ATOM     16  C   UNL     1      18.512   1.288 -17.846  1.00  0.00     0.080 C 
ATOM     17  C   UNL     1      19.175   0.197 -18.692  1.00  0.00     0.007 C 
ATOM     18  C   UNL     1      21.640   0.696 -18.235  1.00  0.00     0.008 C 
ATOM     19  C   UNL     1      20.817  -1.728 -18.199  1.00  0.00     0.012 C 
ATOM     20  C   UNL     1      19.375   0.650 -20.171  1.00  0.00     0.001 C 
ATOM     21  C   UNL     1      21.844   0.952 -19.737  1.00  0.00     0.005 C 
ATOM     22  C   UNL     1      20.587   1.595 -20.366  1.00  0.00     0.003 C 
ATOM     23  C   UNL     1      19.437  -0.559 -21.127  1.00  0.00     0.031 C 
ATOM     24  C   UNL     1      20.721   2.060 -21.876  1.00  0.00    -0.008 C 
ATOM     25  C   UNL     1      19.807  -0.193 -22.534  1.00  0.00    -0.027 C 
ATOM     26  C   UNL     1      20.510   0.909 -22.864  1.00  0.00    -0.065 C 
ATOM     27  C   UNL     1      22.116   2.704 -22.153  1.00  0.00     0.014 C 
ATOM     28  C   UNL     1      19.621   3.125 -22.150  1.00  0.00     0.016 C 
ATOM     29  C   UNL     1      20.855   1.130 -24.328  1.00  0.00     0.063 C 
ATOM     30  C   UNL     1      22.359   3.045 -23.630  1.00  0.00     0.033 C 
ATOM     31  C   UNL     1      22.232   1.791 -24.500  1.00  0.00     0.118 C 
BRANCH  31  32
ATOM     32  O   UNL     1      22.433   2.149 -25.844  1.00  0.00    -0.393 OA
ATOM     33  H   UNL     1      22.173   3.103 -25.929  1.00  0.00     0.210 HD
ENDBRANCH  31  32
ENDBRANCH  10  12
ENDBRANCH   8  10
ENDBRANCH   1   8
TORSDOF 8
ENDMDL
MODEL 9
REMARK VINA RESULT:    -5.707     13.314     15.950
REMARK INTER + INTRA:          -8.450
REMARK INTER:                  -8.142
REMARK INTRA:                  -0.308
REMARK UNBOUND:                -0.408
REMARK SMILES C[C@H](CO)CCC(=O)[C@@H](C)[C@H]1C(=O)C[C@H]2[C@@H]3CC=C4C[C@@H](O)CC[C@]4(C)[C@@H]3CC[C@@]12C
REMARK SMILES IDX 6 1 5 2 2 3 1 4 3 5 4 6 7 8 8 9 9 10 10 11 11 12 12 13 30 14
REMARK SMILES IDX 13 15 14 16 15 17 29 18 31 19 16 20 28 21 27 22 17 23 25 24
REMARK SMILES IDX 18 25 19 26 24 27 26 28 20 29 23 30 21 31 22 32
REMARK H PARENT 4 7 22 33
REMARK Flexibility Score: inf
ROOT
ATOM      1  C   UNL     1      24.228 -12.961 -26.751  1.00  0.00     0.076 C 
ENDROOT
BRANCH   1   2
ATOM      2  C   UNL     1      25.766 -13.018 -26.703  1.00  0.00     0.013 C 
BRANCH   2   3
ATOM      3  C   UNL     1      26.388 -11.933 -25.795  1.00  0.00     0.012 C 
ATOM      4  C   UNL     1      26.248 -12.336 -24.319  1.00  0.00     0.010 C 
BRANCH   3   5
ATOM      5  C   UNL     1      25.797 -10.530 -26.041  1.00  0.00     0.159 C 
BRANCH   5   6
ATOM      6  O   UNL     1      25.050 -10.082 -24.940  1.00  0.00    -0.396 OA
ATOM      7  H   UNL     1      25.699  -9.726 -24.277  1.00  0.00     0.210 HD
ENDBRANCH   5   6
ENDBRANCH   3   5
ENDBRANCH   2   3
ENDBRANCH   1   2
BRANCH   1   8
ATOM      8  C   UNL     1      23.592 -14.068 -25.936  1.00  0.00     0.136 C 
ATOM      9  O   UNL     1      24.184 -15.132 -25.809  1.00  0.00    -0.299 OA
BRANCH   8  10
ATOM     10  C   UNL     1      22.290 -13.862 -25.179  1.00  0.00     0.064 C 
ATOM     11  C   UNL     1      22.509 -12.726 -24.166  1.00  0.00     0.017 C 
BRANCH  10  12
ATOM     12  C   UNL     1      21.052 -13.608 -26.124  1.00  0.00     0.072 C 
ATOM     13  C   UNL     1      20.799 -14.732 -27.089  1.00  0.00     0.137 C 
ATOM     14  C   UNL     1      19.637 -13.405 -25.451  1.00  0.00    -0.019 C 
ATOM     15  O   UNL     1      21.669 -15.262 -27.760  1.00  0.00    -0.299 OA
ATOM     16  C   UNL     1      19.372 -15.080 -27.249  1.00  0.00     0.080 C 
ATOM     17  C   UNL     1      18.647 -13.928 -26.547  1.00  0.00     0.007 C 
ATOM     18  C   UNL     1      19.480 -14.253 -24.152  1.00  0.00     0.008 C 
ATOM     19  C   UNL     1      19.403 -11.897 -25.150  1.00  0.00     0.012 C 
ATOM     20  C   UNL     1      17.214 -14.337 -26.087  1.00  0.00     0.001 C 
ATOM     21  C   UNL     1      18.026 -14.465 -23.699  1.00  0.00     0.005 C 
ATOM     22  C   UNL     1      17.204 -15.187 -24.791  1.00  0.00     0.003 C 
ATOM     23  C   UNL     1      16.288 -13.109 -25.969  1.00  0.00     0.031 C 
ATOM     24  C   UNL     1      15.730 -15.612 -24.390  1.00  0.00    -0.008 C 
ATOM     25  C   UNL     1      14.953 -13.421 -25.359  1.00  0.00    -0.027 C 
ATOM     26  C   UNL     1      14.729 -14.461 -24.532  1.00  0.00    -0.065 C 
ATOM     27  C   UNL     1      15.669 -16.147 -22.925  1.00  0.00     0.014 C 
ATOM     28  C   UNL     1      15.281 -16.750 -25.351  1.00  0.00     0.016 C 
ATOM     29  C   UNL     1      13.336 -14.630 -23.949  1.00  0.00     0.063 C 
ATOM     30  C   UNL     1      14.247 -16.442 -22.432  1.00  0.00     0.033 C 
ATOM     31  C   UNL     1      13.376 -15.185 -22.516  1.00  0.00     0.118 C 
BRANCH  31  32
ATOM     32  O   UNL     1      12.078 -15.502 -22.082  1.00  0.00    -0.393 OA
ATOM     33  H   UNL     1      11.763 -14.737 -21.534  1.00  0.00     0.210 HD
ENDBRANCH  31  32
ENDBRANCH  10  12
ENDBRANCH   8  10
ENDBRANCH   1   8
TORSDOF 8
ENDMDL
