MODEL 1
REMARK VINA RESULT:    -8.489      0.000      0.000
REMARK INTER + INTRA:         -11.538
REMARK INTER:                 -10.722
REMARK INTRA:                  -0.816
REMARK UNBOUND:                -0.816
REMARK SMILES CC(C)[C@@H](C)C=C[C@H](C)[C@@H]1CC[C@@H]2C3=CC=C4C[C@@H](O)CC[C@]4(C)[C@H]3CC[C@@]21C
REMARK SMILES IDX 8 1 9 2 7 3 6 4 4 5 5 6 2 7 1 8 3 9 10 10 11 11 28 12 12 13
REMARK SMILES IDX 13 14 27 15 29 16 14 17 26 18 25 19 15 20 23 21 16 22 17 23
REMARK SMILES IDX 22 24 24 25 18 26 21 27 19 28 20 29
REMARK H PARENT 20 30
REMARK Flexibility Score: inf
ROOT
ATOM      1  C   UNL     1       4.200   5.404 -26.944  1.00  0.00     0.012 C 
ATOM      2  C   UNL     1       4.045   6.627 -27.859  1.00  0.00     0.012 C 
ENDROOT
BRANCH   1   3
ATOM      3  C   UNL     1       4.094   5.855 -25.500  1.00  0.00    -0.028 C 
ATOM      4  C   UNL     1       5.057   5.636 -24.586  1.00  0.00    -0.028 C 
BRANCH   4   5
ATOM      5  C   UNL     1       4.914   6.171 -23.177  1.00  0.00     0.011 C 
ATOM      6  C   UNL     1       6.054   7.156 -22.872  1.00  0.00     0.012 C 
BRANCH   5   7
ATOM      7  C   UNL     1       4.800   5.051 -22.104  1.00  0.00    -0.011 C 
ATOM      8  C   UNL     1       3.332   4.731 -21.780  1.00  0.00     0.008 C 
ATOM      9  C   UNL     1       5.552   3.761 -22.477  1.00  0.00     0.008 C 
ENDBRANCH   5   7
ENDBRANCH   4   5
ENDBRANCH   1   3
BRANCH   1  10
ATOM     10  C   UNL     1       3.192   4.260 -27.317  1.00  0.00     0.002 C 
ATOM     11  C   UNL     1       1.787   4.425 -26.707  1.00  0.00     0.005 C 
ATOM     12  C   UNL     1       3.601   2.802 -26.929  1.00  0.00    -0.023 C 
ATOM     13  C   UNL     1       1.172   3.030 -26.665  1.00  0.00     0.009 C 
ATOM     14  C   UNL     1       2.262   2.055 -27.135  1.00  0.00     0.021 C 
ATOM     15  C   UNL     1       4.061   2.691 -25.444  1.00  0.00     0.008 C 
ATOM     16  C   UNL     1       4.686   2.232 -27.872  1.00  0.00     0.012 C 
ATOM     17  C   UNL     1       2.149   0.722 -26.419  1.00  0.00    -0.063 C 
ATOM     18  C   UNL     1       4.152   1.242 -24.969  1.00  0.00     0.009 C 
ATOM     19  C   UNL     1       2.791   0.519 -25.058  1.00  0.00     0.025 C 
ATOM     20  C   UNL     1       1.201  -0.129 -26.834  1.00  0.00    -0.000 C 
ATOM     21  C   UNL     1       2.877  -1.006 -24.661  1.00  0.00    -0.005 C 
ATOM     22  C   UNL     1       0.830  -1.311 -26.046  1.00  0.00    -0.000 C 
ATOM     23  C   UNL     1       1.543  -1.693 -24.969  1.00  0.00    -0.061 C 
ATOM     24  C   UNL     1       3.196  -1.111 -23.135  1.00  0.00     0.014 C 
ATOM     25  C   UNL     1       3.973  -1.737 -25.483  1.00  0.00     0.017 C 
ATOM     26  C   UNL     1       1.151  -2.974 -24.264  1.00  0.00     0.063 C 
ATOM     27  C   UNL     1       2.943  -2.503 -22.552  1.00  0.00     0.033 C 
ATOM     28  C   UNL     1       1.477  -2.909 -22.774  1.00  0.00     0.118 C 
BRANCH  28  29
ATOM     29  O   UNL     1       1.170  -4.140 -22.162  1.00  0.00    -0.393 OA
ATOM     30  H   UNL     1       0.883  -3.974 -21.227  1.00  0.00     0.210 HD
ENDBRANCH  28  29
ENDBRANCH   1  10
TORSDOF 5
ENDMDL
MODEL 2
REMARK VINA RESULT:    -8.193      3.014      7.779
REMARK INTER + INTRA:         -11.164
REMARK INTER:                 -10.096
REMARK INTRA:                  -1.068
REMARK UNBOUND:                -0.816
REMARK SMILES CC(C)[C@@H](C)C=C[C@H](C)[C@@H]1CC[C@@H]2C3=CC=C4C[C@@H](O)CC[C@]4(C)[C@H]3CC[C@@]21C
REMARK SMILES IDX 8 1 9 2 7 3 6 4 4 5 5 6 2 7 1 8 3 9 10 10 11 11 28 12 12 13
REMARK SMILES IDX 13 14 27 15 29 16 14 17 26 18 25 19 15 20 23 21 16 22 17 23
REMARK SMILES IDX 22 24 24 25 18 26 21 27 19 28 20 29
REMARK H PARENT 20 30
REMARK Flexibility Score: inf
ROOT
ATOM      1  C   UNL     1       4.733  -1.558 -24.054  1.00  0.00     0.012 C 
ATOM      2  C   UNL     1       5.860  -2.598 -24.002  1.00  0.00     0.012 C 
ENDROOT
BRANCH   1   3
ATOM      3  C   UNL     1       3.664  -1.942 -23.050  1.00  0.00    -0.028 C 
ATOM      4  C   UNL     1       2.369  -2.111 -23.378  1.00  0.00    -0.028 C 
BRANCH   4   5
ATOM      5  C   UNL     1       1.366  -2.559 -22.337  1.00  0.00     0.011 C 
ATOM      6  C   UNL     1       2.084  -2.861 -21.012  1.00  0.00     0.012 C 
BRANCH   5   7
ATOM      7  C   UNL     1       0.479  -3.746 -22.811  1.00  0.00    -0.011 C 
ATOM      8  C   UNL     1      -0.706  -3.259 -23.658  1.00  0.00     0.008 C 
ATOM      9  C   UNL     1       1.260  -4.834 -23.570  1.00  0.00     0.008 C 
ENDBRANCH   5   7
ENDBRANCH   4   5
ENDBRANCH   1   3
BRANCH   1  10
ATOM     10  C   UNL     1       5.273  -0.097 -23.862  1.00  0.00     0.002 C 
ATOM     11  C   UNL     1       4.902   0.549 -22.514  1.00  0.00     0.005 C 
ATOM     12  C   UNL     1       4.832   0.966 -24.921  1.00  0.00    -0.023 C 
ATOM     13  C   UNL     1       4.971   2.057 -22.727  1.00  0.00     0.009 C 
ATOM     14  C   UNL     1       5.260   2.277 -24.220  1.00  0.00     0.021 C 
ATOM     15  C   UNL     1       3.293   0.958 -25.162  1.00  0.00     0.008 C 
ATOM     16  C   UNL     1       5.587   0.801 -26.261  1.00  0.00     0.012 C 
ATOM     17  C   UNL     1       4.581   3.534 -24.730  1.00  0.00    -0.063 C 
ATOM     18  C   UNL     1       2.818   2.186 -25.937  1.00  0.00     0.009 C 
ATOM     19  C   UNL     1       3.134   3.499 -25.189  1.00  0.00     0.025 C 
ATOM     20  C   UNL     1       5.151   4.712 -24.440  1.00  0.00    -0.000 C 
ATOM     21  C   UNL     1       2.737   4.786 -26.010  1.00  0.00    -0.005 C 
ATOM     22  C   UNL     1       4.442   5.981 -24.644  1.00  0.00    -0.000 C 
ATOM     23  C   UNL     1       3.264   6.034 -25.296  1.00  0.00    -0.061 C 
ATOM     24  C   UNL     1       1.180   4.850 -26.124  1.00  0.00     0.014 C 
ATOM     25  C   UNL     1       3.372   4.763 -27.428  1.00  0.00     0.017 C 
ATOM     26  C   UNL     1       2.641   7.391 -25.545  1.00  0.00     0.063 C 
ATOM     27  C   UNL     1       0.655   6.218 -26.566  1.00  0.00     0.033 C 
ATOM     28  C   UNL     1       1.118   7.303 -25.581  1.00  0.00     0.118 C 
BRANCH  28  29
ATOM     29  O   UNL     1       0.572   8.565 -25.888  1.00  0.00    -0.393 OA
ATOM     30  H   UNL     1       0.583   8.691 -26.872  1.00  0.00     0.210 HD
ENDBRANCH  28  29
ENDBRANCH   1  10
TORSDOF 5
ENDMDL
MODEL 3
REMARK VINA RESULT:    -7.711      3.135      7.672
REMARK INTER + INTRA:         -10.555
REMARK INTER:                  -9.745
REMARK INTRA:                  -0.810
REMARK UNBOUND:                -0.816
REMARK SMILES CC(C)[C@@H](C)C=C[C@H](C)[C@@H]1CC[C@@H]2C3=CC=C4C[C@@H](O)CC[C@]4(C)[C@H]3CC[C@@]21C
REMARK SMILES IDX 8 1 9 2 7 3 6 4 4 5 5 6 2 7 1 8 3 9 10 10 11 11 28 12 12 13
REMARK SMILES IDX 13 14 27 15 29 16 14 17 26 18 25 19 15 20 23 21 16 22 17 23
REMARK SMILES IDX 22 24 24 25 18 26 21 27 19 28 20 29
REMARK H PARENT 20 30
REMARK Flexibility Score: inf
ROOT
ATOM      1  C   UNL     1       4.355  -0.255 -22.306  1.00  0.00     0.012 C 
ATOM      2  C   UNL     1       2.832  -0.416 -22.207  1.00  0.00     0.012 C 
ENDROOT
BRANCH   1   3
ATOM      3  C   UNL     1       4.859  -1.069 -23.483  1.00  0.00    -0.028 C 
ATOM      4  C   UNL     1       4.066  -1.868 -24.221  1.00  0.00    -0.028 C 
BRANCH   4   5
ATOM      5  C   UNL     1       4.622  -2.602 -25.423  1.00  0.00     0.011 C 
ATOM      6  C   UNL     1       6.108  -2.925 -25.199  1.00  0.00     0.012 C 
BRANCH   5   7
ATOM      7  C   UNL     1       4.377  -1.854 -26.765  1.00  0.00    -0.011 C 
ATOM      8  C   UNL     1       3.066  -1.053 -26.731  1.00  0.00     0.008 C 
ATOM      9  C   UNL     1       5.544  -0.943 -27.185  1.00  0.00     0.008 C 
ENDBRANCH   5   7
ENDBRANCH   4   5
ENDBRANCH   1   3
BRANCH   1  10
ATOM     10  C   UNL     1       4.783   1.254 -22.363  1.00  0.00     0.002 C 
ATOM     11  C   UNL     1       3.977   2.181 -21.433  1.00  0.00     0.005 C 
ATOM     12  C   UNL     1       4.706   1.960 -23.756  1.00  0.00    -0.023 C 
ATOM     13  C   UNL     1       4.095   3.584 -22.020  1.00  0.00     0.009 C 
ATOM     14  C   UNL     1       4.861   3.443 -23.344  1.00  0.00     0.021 C 
ATOM     15  C   UNL     1       3.334   1.733 -24.460  1.00  0.00     0.008 C 
ATOM     16  C   UNL     1       5.865   1.537 -24.688  1.00  0.00     0.012 C 
ATOM     17  C   UNL     1       4.374   4.452 -24.368  1.00  0.00    -0.063 C 
ATOM     18  C   UNL     1       3.129   2.667 -25.651  1.00  0.00     0.009 C 
ATOM     19  C   UNL     1       3.163   4.153 -25.232  1.00  0.00     0.025 C 
ATOM     20  C   UNL     1       4.801   5.717 -24.248  1.00  0.00    -0.000 C 
ATOM     21  C   UNL     1       3.046   5.140 -26.457  1.00  0.00    -0.005 C 
ATOM     22  C   UNL     1       4.185   6.812 -25.006  1.00  0.00    -0.000 C 
ATOM     23  C   UNL     1       3.291   6.576 -25.985  1.00  0.00    -0.061 C 
ATOM     24  C   UNL     1       1.614   5.012 -27.072  1.00  0.00     0.014 C 
ATOM     25  C   UNL     1       4.116   4.821 -27.538  1.00  0.00     0.017 C 
ATOM     26  C   UNL     1       2.770   7.753 -26.782  1.00  0.00     0.063 C 
ATOM     27  C   UNL     1       1.250   6.161 -28.014  1.00  0.00     0.033 C 
ATOM     28  C   UNL     1       1.346   7.504 -27.272  1.00  0.00     0.118 C 
BRANCH  28  29
ATOM     29  O   UNL     1       0.918   8.582 -28.071  1.00  0.00    -0.393 OA
ATOM     30  H   UNL     1       1.568   9.327 -27.983  1.00  0.00     0.210 HD
ENDBRANCH  28  29
ENDBRANCH   1  10
TORSDOF 5
ENDMDL
MODEL 4
REMARK VINA RESULT:    -7.603      2.180      4.589
REMARK INTER + INTRA:         -10.419
REMARK INTER:                  -9.715
REMARK INTRA:                  -0.704
REMARK UNBOUND:                -0.816
REMARK SMILES CC(C)[C@@H](C)C=C[C@H](C)[C@@H]1CC[C@@H]2C3=CC=C4C[C@@H](O)CC[C@]4(C)[C@H]3CC[C@@]21C
REMARK SMILES IDX 8 1 9 2 7 3 6 4 4 5 5 6 2 7 1 8 3 9 10 10 11 11 28 12 12 13
REMARK SMILES IDX 13 14 27 15 29 16 14 17 26 18 25 19 15 20 23 21 16 22 17 23
REMARK SMILES IDX 22 24 24 25 18 26 21 27 19 28 20 29
REMARK H PARENT 20 30
REMARK Flexibility Score: inf
ROOT
ATOM      1  C   UNL     1       4.251   6.979 -24.834  1.00  0.00     0.012 C 
ATOM      2  C   UNL     1       4.840   6.653 -26.213  1.00  0.00     0.012 C 
ENDROOT
BRANCH   1   3
ATOM      3  C   UNL     1       2.756   7.191 -24.975  1.00  0.00    -0.028 C 
ATOM      4  C   UNL     1       2.093   7.019 -26.134  1.00  0.00    -0.028 C 
BRANCH   4   5
ATOM      5  C   UNL     1       0.589   7.184 -26.190  1.00  0.00     0.011 C 
ATOM      6  C   UNL     1       0.087   7.854 -24.901  1.00  0.00     0.012 C 
BRANCH   5   7
ATOM      7  C   UNL     1      -0.162   5.856 -26.496  1.00  0.00    -0.011 C 
ATOM      8  C   UNL     1       0.817   4.718 -26.820  1.00  0.00     0.008 C 
ATOM      9  C   UNL     1      -1.127   5.422 -25.378  1.00  0.00     0.008 C 
ENDBRANCH   5   7
ENDBRANCH   4   5
ENDBRANCH   1   3
BRANCH   1  10
ATOM     10  C   UNL     1       4.628   5.894 -23.764  1.00  0.00     0.002 C 
ATOM     11  C   UNL     1       6.137   5.597 -23.661  1.00  0.00     0.005 C 
ATOM     12  C   UNL     1       3.978   4.481 -23.928  1.00  0.00    -0.023 C 
ATOM     13  C   UNL     1       6.259   4.198 -23.066  1.00  0.00     0.009 C 
ATOM     14  C   UNL     1       4.829   3.648 -22.941  1.00  0.00     0.021 C 
ATOM     15  C   UNL     1       4.127   3.926 -25.376  1.00  0.00     0.008 C 
ATOM     16  C   UNL     1       2.493   4.471 -23.499  1.00  0.00     0.012 C 
ATOM     17  C   UNL     1       4.799   2.148 -23.169  1.00  0.00    -0.063 C 
ATOM     18  C   UNL     1       3.790   2.438 -25.467  1.00  0.00     0.009 C 
ATOM     19  C   UNL     1       4.713   1.582 -24.575  1.00  0.00     0.025 C 
ATOM     20  C   UNL     1       5.198   1.357 -22.163  1.00  0.00    -0.000 C 
ATOM     21  C   UNL     1       4.327   0.052 -24.578  1.00  0.00    -0.005 C 
ATOM     22  C   UNL     1       5.465  -0.071 -22.368  1.00  0.00    -0.000 C 
ATOM     23  C   UNL     1       5.152  -0.690 -23.523  1.00  0.00    -0.061 C 
ATOM     24  C   UNL     1       4.616  -0.536 -25.997  1.00  0.00     0.014 C 
ATOM     25  C   UNL     1       2.829  -0.148 -24.217  1.00  0.00     0.017 C 
ATOM     26  C   UNL     1       5.375  -2.183 -23.622  1.00  0.00     0.063 C 
ATOM     27  C   UNL     1       4.637  -2.066 -26.031  1.00  0.00     0.033 C 
ATOM     28  C   UNL     1       5.696  -2.602 -25.055  1.00  0.00     0.118 C 
BRANCH  28  29
ATOM     29  O   UNL     1       5.825  -4.002 -25.128  1.00  0.00    -0.393 OA
ATOM     30  H   UNL     1       6.046  -4.258 -26.061  1.00  0.00     0.210 HD
ENDBRANCH  28  29
ENDBRANCH   1  10
TORSDOF 5
ENDMDL
MODEL 5
REMARK VINA RESULT:    -7.543      2.872      7.248
REMARK INTER + INTRA:         -10.343
REMARK INTER:                  -9.710
REMARK INTRA:                  -0.633
REMARK UNBOUND:                -0.816
REMARK SMILES CC(C)[C@@H](C)C=C[C@H](C)[C@@H]1CC[C@@H]2C3=CC=C4C[C@@H](O)CC[C@]4(C)[C@H]3CC[C@@]21C
REMARK SMILES IDX 8 1 9 2 7 3 6 4 4 5 5 6 2 7 1 8 3 9 10 10 11 11 28 12 12 13
REMARK SMILES IDX 13 14 27 15 29 16 14 17 26 18 25 19 15 20 23 21 16 22 17 23
REMARK SMILES IDX 22 24 24 25 18 26 21 27 19 28 20 29
REMARK H PARENT 20 30
REMARK Flexibility Score: inf
ROOT
ATOM      1  C   UNL     1       3.968  -1.682 -26.744  1.00  0.00     0.012 C 
ATOM      2  C   UNL     1       5.497  -1.745 -26.631  1.00  0.00     0.012 C 
ENDROOT
BRANCH   1   3
ATOM      3  C   UNL     1       3.358  -2.319 -25.509  1.00  0.00    -0.028 C 
ATOM      4  C   UNL     1       4.092  -2.820 -24.498  1.00  0.00    -0.028 C 
BRANCH   4   5
ATOM      5  C   UNL     1       3.418  -3.382 -23.265  1.00  0.00     0.011 C 
ATOM      6  C   UNL     1       2.486  -4.539 -23.659  1.00  0.00     0.012 C 
BRANCH   5   7
ATOM      7  C   UNL     1       2.689  -2.300 -22.418  1.00  0.00    -0.011 C 
ATOM      8  C   UNL     1       2.008  -2.915 -21.186  1.00  0.00     0.008 C 
ATOM      9  C   UNL     1       3.599  -1.134 -21.993  1.00  0.00     0.008 C 
ENDBRANCH   5   7
ENDBRANCH   4   5
ENDBRANCH   1   3
BRANCH   1  10
ATOM     10  C   UNL     1       3.458  -0.221 -27.008  1.00  0.00     0.002 C 
ATOM     11  C   UNL     1       4.298   0.572 -28.027  1.00  0.00     0.005 C 
ATOM     12  C   UNL     1       3.369   0.732 -25.772  1.00  0.00    -0.023 C 
ATOM     13  C   UNL     1       4.054   2.047 -27.728  1.00  0.00     0.009 C 
ATOM     14  C   UNL     1       3.176   2.100 -26.468  1.00  0.00     0.021 C 
ATOM     15  C   UNL     1       4.679   0.732 -24.929  1.00  0.00     0.008 C 
ATOM     16  C   UNL     1       2.152   0.408 -24.874  1.00  0.00     0.012 C 
ATOM     17  C   UNL     1       3.512   3.311 -25.617  1.00  0.00    -0.063 C 
ATOM     18  C   UNL     1       4.724   1.881 -23.922  1.00  0.00     0.009 C 
ATOM     19  C   UNL     1       4.652   3.258 -24.615  1.00  0.00     0.025 C 
ATOM     20  C   UNL     1       3.033   4.499 -26.008  1.00  0.00    -0.000 C 
ATOM     21  C   UNL     1       4.603   4.460 -23.594  1.00  0.00    -0.005 C 
ATOM     22  C   UNL     1       3.518   5.755 -25.422  1.00  0.00    -0.000 C 
ATOM     23  C   UNL     1       4.329   5.764 -24.347  1.00  0.00    -0.061 C 
ATOM     24  C   UNL     1       5.976   4.545 -22.852  1.00  0.00     0.014 C 
ATOM     25  C   UNL     1       3.455   4.272 -22.563  1.00  0.00     0.017 C 
ATOM     26  C   UNL     1       4.711   7.101 -23.747  1.00  0.00     0.063 C 
ATOM     27  C   UNL     1       6.191   5.870 -22.116  1.00  0.00     0.033 C 
ATOM     28  C   UNL     1       6.095   7.044 -23.104  1.00  0.00     0.118 C 
BRANCH  28  29
ATOM     29  O   UNL     1       6.390   8.277 -22.491  1.00  0.00    -0.393 OA
ATOM     30  H   UNL     1       5.934   8.318 -21.611  1.00  0.00     0.210 HD
ENDBRANCH  28  29
ENDBRANCH   1  10
TORSDOF 5
ENDMDL
MODEL 6
REMARK VINA RESULT:    -7.097      1.646      3.438
REMARK INTER + INTRA:          -9.780
REMARK INTER:                  -9.434
REMARK INTRA:                  -0.346
REMARK UNBOUND:                -0.816
REMARK SMILES CC(C)[C@@H](C)C=C[C@H](C)[C@@H]1CC[C@@H]2C3=CC=C4C[C@@H](O)CC[C@]4(C)[C@H]3CC[C@@]21C
REMARK SMILES IDX 8 1 9 2 7 3 6 4 4 5 5 6 2 7 1 8 3 9 10 10 11 11 28 12 12 13
REMARK SMILES IDX 13 14 27 15 29 16 14 17 26 18 25 19 15 20 23 21 16 22 17 23
REMARK SMILES IDX 22 24 24 25 18 26 21 27 19 28 20 29
REMARK H PARENT 20 30
REMARK Flexibility Score: inf
ROOT
ATOM      1  C   UNL     1       4.058   5.406 -24.934  1.00  0.00     0.012 C 
ATOM      2  C   UNL     1       5.421   5.727 -24.306  1.00  0.00     0.012 C 
ENDROOT
BRANCH   1   3
ATOM      3  C   UNL     1       3.609   6.593 -25.765  1.00  0.00    -0.028 C 
ATOM      4  C   UNL     1       3.978   6.779 -27.046  1.00  0.00    -0.028 C 
BRANCH   4   5
ATOM      5  C   UNL     1       3.439   7.951 -27.838  1.00  0.00     0.011 C 
ATOM      6  C   UNL     1       4.347   9.176 -27.643  1.00  0.00     0.012 C 
BRANCH   5   7
ATOM      7  C   UNL     1       1.948   8.266 -27.528  1.00  0.00    -0.011 C 
ATOM      8  C   UNL     1       1.529   9.626 -28.106  1.00  0.00     0.008 C 
ATOM      9  C   UNL     1       0.976   7.169 -27.998  1.00  0.00     0.008 C 
ENDBRANCH   5   7
ENDBRANCH   4   5
ENDBRANCH   1   3
BRANCH   1  10
ATOM     10  C   UNL     1       4.084   4.057 -25.736  1.00  0.00     0.002 C 
ATOM     11  C   UNL     1       2.750   3.692 -26.413  1.00  0.00     0.005 C 
ATOM     12  C   UNL     1       4.466   2.767 -24.938  1.00  0.00    -0.023 C 
ATOM     13  C   UNL     1       2.770   2.180 -26.613  1.00  0.00     0.009 C 
ATOM     14  C   UNL     1       4.055   1.666 -25.944  1.00  0.00     0.021 C 
ATOM     15  C   UNL     1       3.653   2.626 -23.617  1.00  0.00     0.008 C 
ATOM     16  C   UNL     1       5.983   2.691 -24.647  1.00  0.00     0.012 C 
ATOM     17  C   UNL     1       3.846   0.288 -25.344  1.00  0.00    -0.063 C 
ATOM     18  C   UNL     1       3.779   1.233 -23.002  1.00  0.00     0.009 C 
ATOM     19  C   UNL     1       3.260   0.133 -23.952  1.00  0.00     0.025 C 
ATOM     20  C   UNL     1       3.852  -0.761 -26.177  1.00  0.00    -0.000 C 
ATOM     21  C   UNL     1       3.464  -1.323 -23.379  1.00  0.00    -0.005 C 
ATOM     22  C   UNL     1       3.392  -2.087 -25.747  1.00  0.00    -0.000 C 
ATOM     23  C   UNL     1       3.115  -2.353 -24.456  1.00  0.00    -0.061 C 
ATOM     24  C   UNL     1       2.536  -1.509 -22.135  1.00  0.00     0.014 C 
ATOM     25  C   UNL     1       4.945  -1.562 -22.974  1.00  0.00     0.017 C 
ATOM     26  C   UNL     1       2.734  -3.769 -24.079  1.00  0.00     0.063 C 
ATOM     27  C   UNL     1       2.362  -2.970 -21.716  1.00  0.00     0.033 C 
ATOM     28  C   UNL     1       1.786  -3.789 -22.883  1.00  0.00     0.118 C 
BRANCH  28  29
ATOM     29  O   UNL     1       1.511  -5.119 -22.511  1.00  0.00    -0.393 OA
ATOM     30  H   UNL     1       0.533  -5.275 -22.567  1.00  0.00     0.210 HD
ENDBRANCH  28  29
ENDBRANCH   1  10
TORSDOF 5
ENDMDL
MODEL 7
REMARK VINA RESULT:    -6.583      2.208      4.721
REMARK INTER + INTRA:          -9.131
REMARK INTER:                  -9.043
REMARK INTRA:                  -0.088
REMARK UNBOUND:                -0.816
REMARK SMILES CC(C)[C@@H](C)C=C[C@H](C)[C@@H]1CC[C@@H]2C3=CC=C4C[C@@H](O)CC[C@]4(C)[C@H]3CC[C@@]21C
REMARK SMILES IDX 8 1 9 2 7 3 6 4 4 5 5 6 2 7 1 8 3 9 10 10 11 11 28 12 12 13
REMARK SMILES IDX 13 14 27 15 29 16 14 17 26 18 25 19 15 20 23 21 16 22 17 23
REMARK SMILES IDX 22 24 24 25 18 26 21 27 19 28 20 29
REMARK H PARENT 20 30
REMARK Flexibility Score: inf
ROOT
ATOM      1  C   UNL     1       4.602   6.969 -23.593  1.00  0.00     0.012 C 
ATOM      2  C   UNL     1       5.991   7.589 -23.386  1.00  0.00     0.012 C 
ENDROOT
BRANCH   1   3
ATOM      3  C   UNL     1       4.390   6.722 -25.075  1.00  0.00    -0.028 C 
ATOM      4  C   UNL     1       3.410   7.308 -25.787  1.00  0.00    -0.028 C 
BRANCH   4   5
ATOM      5  C   UNL     1       3.296   7.068 -27.278  1.00  0.00     0.011 C 
ATOM      6  C   UNL     1       4.284   5.972 -27.709  1.00  0.00     0.012 C 
BRANCH   5   7
ATOM      7  C   UNL     1       3.450   8.366 -28.121  1.00  0.00    -0.011 C 
ATOM      8  C   UNL     1       2.153   9.190 -28.125  1.00  0.00     0.008 C 
ATOM      9  C   UNL     1       4.635   9.247 -27.687  1.00  0.00     0.008 C 
ENDBRANCH   5   7
ENDBRANCH   4   5
ENDBRANCH   1   3
BRANCH   1  10
ATOM     10  C   UNL     1       4.396   5.686 -22.712  1.00  0.00     0.002 C 
ATOM     11  C   UNL     1       5.668   5.193 -21.996  1.00  0.00     0.005 C 
ATOM     12  C   UNL     1       3.853   4.410 -23.435  1.00  0.00    -0.023 C 
ATOM     13  C   UNL     1       5.449   3.712 -21.705  1.00  0.00     0.009 C 
ATOM     14  C   UNL     1       4.112   3.329 -22.359  1.00  0.00     0.021 C 
ATOM     15  C   UNL     1       4.648   4.083 -24.735  1.00  0.00     0.008 C 
ATOM     16  C   UNL     1       2.341   4.514 -23.741  1.00  0.00     0.012 C 
ATOM     17  C   UNL     1       4.143   1.902 -22.872  1.00  0.00    -0.063 C 
ATOM     18  C   UNL     1       4.345   2.684 -25.267  1.00  0.00     0.009 C 
ATOM     19  C   UNL     1       4.710   1.586 -24.245  1.00  0.00     0.025 C 
ATOM     20  C   UNL     1       3.995   0.915 -21.978  1.00  0.00    -0.000 C 
ATOM     21  C   UNL     1       4.321   0.137 -24.732  1.00  0.00    -0.005 C 
ATOM     22  C   UNL     1       4.280  -0.484 -22.321  1.00  0.00    -0.000 C 
ATOM     23  C   UNL     1       4.527  -0.862 -23.590  1.00  0.00    -0.061 C 
ATOM     24  C   UNL     1       5.224  -0.244 -25.949  1.00  0.00     0.014 C 
ATOM     25  C   UNL     1       2.824   0.067 -25.141  1.00  0.00     0.017 C 
ATOM     26  C   UNL     1       4.722  -2.336 -23.875  1.00  0.00     0.063 C 
ATOM     27  C   UNL     1       5.208  -1.739 -26.277  1.00  0.00     0.033 C 
ATOM     28  C   UNL     1       5.665  -2.552 -25.056  1.00  0.00     0.118 C 
BRANCH  28  29
ATOM     29  O   UNL     1       5.767  -3.927 -25.343  1.00  0.00    -0.393 OA
ATOM     30  H   UNL     1       6.358  -4.355 -24.671  1.00  0.00     0.210 HD
ENDBRANCH  28  29
ENDBRANCH   1  10
TORSDOF 5
ENDMDL
MODEL 8
REMARK VINA RESULT:    -6.372      1.506      2.386
REMARK INTER + INTRA:          -8.864
REMARK INTER:                  -8.980
REMARK INTRA:                   0.116
REMARK UNBOUND:                -0.816
REMARK SMILES CC(C)[C@@H](C)C=C[C@H](C)[C@@H]1CC[C@@H]2C3=CC=C4C[C@@H](O)CC[C@]4(C)[C@H]3CC[C@@]21C
REMARK SMILES IDX 8 1 9 2 7 3 6 4 4 5 5 6 2 7 1 8 3 9 10 10 11 11 28 12 12 13
REMARK SMILES IDX 13 14 27 15 29 16 14 17 26 18 25 19 15 20 23 21 16 22 17 23
REMARK SMILES IDX 22 24 24 25 18 26 21 27 19 28 20 29
REMARK H PARENT 20 30
REMARK Flexibility Score: inf
ROOT
ATOM      1  C   UNL     1       4.832   4.461 -26.755  1.00  0.00     0.012 C 
ATOM      2  C   UNL     1       3.454   4.680 -27.395  1.00  0.00     0.012 C 
ENDROOT
BRANCH   1   3
ATOM      3  C   UNL     1       4.811   5.013 -25.343  1.00  0.00    -0.028 C 
ATOM      4  C   UNL     1       4.652   6.320 -25.063  1.00  0.00    -0.028 C 
BRANCH   4   5
ATOM      5  C   UNL     1       4.574   6.794 -23.628  1.00  0.00     0.011 C 
ATOM      6  C   UNL     1       5.990   6.929 -23.044  1.00  0.00     0.012 C 
BRANCH   5   7
ATOM      7  C   UNL     1       3.651   5.912 -22.740  1.00  0.00    -0.011 C 
ATOM      8  C   UNL     1       2.524   5.272 -23.564  1.00  0.00     0.008 C 
ATOM      9  C   UNL     1       4.407   4.832 -21.947  1.00  0.00     0.008 C 
ENDBRANCH   5   7
ENDBRANCH   4   5
ENDBRANCH   1   3
BRANCH   1  10
ATOM     10  C   UNL     1       5.283   2.960 -26.832  1.00  0.00     0.002 C 
ATOM     11  C   UNL     1       4.709   2.182 -28.031  1.00  0.00     0.005 C 
ATOM     12  C   UNL     1       4.945   2.056 -25.601  1.00  0.00    -0.023 C 
ATOM     13  C   UNL     1       4.746   0.707 -27.643  1.00  0.00     0.009 C 
ATOM     14  C   UNL     1       5.223   0.650 -26.183  1.00  0.00     0.021 C 
ATOM     15  C   UNL     1       3.453   2.179 -25.169  1.00  0.00     0.008 C 
ATOM     16  C   UNL     1       5.878   2.335 -24.400  1.00  0.00     0.012 C 
ATOM     17  C   UNL     1       4.568  -0.499 -25.439  1.00  0.00    -0.063 C 
ATOM     18  C   UNL     1       3.037   1.079 -24.193  1.00  0.00     0.009 C 
ATOM     19  C   UNL     1       3.198  -0.328 -24.806  1.00  0.00     0.025 C 
ATOM     20  C   UNL     1       5.047  -1.732 -25.650  1.00  0.00    -0.000 C 
ATOM     21  C   UNL     1       2.863  -1.486 -23.788  1.00  0.00    -0.005 C 
ATOM     22  C   UNL     1       4.321  -2.927 -25.201  1.00  0.00    -0.000 C 
ATOM     23  C   UNL     1       3.240  -2.837 -24.402  1.00  0.00    -0.061 C 
ATOM     24  C   UNL     1       1.334  -1.448 -23.468  1.00  0.00     0.014 C 
ATOM     25  C   UNL     1       3.682  -1.331 -22.476  1.00  0.00     0.017 C 
ATOM     26  C   UNL     1       2.602  -4.118 -23.909  1.00  0.00     0.063 C 
ATOM     27  C   UNL     1       0.819  -2.723 -22.797  1.00  0.00     0.033 C 
ATOM     28  C   UNL     1       1.101  -3.941 -23.690  1.00  0.00     0.118 C 
BRANCH  28  29
ATOM     29  O   UNL     1       0.552  -5.125 -23.161  1.00  0.00    -0.393 OA
ATOM     30  H   UNL     1       1.255  -5.611 -22.657  1.00  0.00     0.210 HD
ENDBRANCH  28  29
ENDBRANCH   1  10
TORSDOF 5
ENDMDL
