MODEL 1
REMARK VINA RESULT:    -5.454      0.000      0.000
REMARK INTER + INTRA:          -8.071
REMARK INTER:                  -7.367
REMARK INTRA:                  -0.704
REMARK UNBOUND:                -0.704
REMARK SMILES C[C@@H]1O[C@@H](Oc2cc(O)c3c(=O)c(O)c(-c4ccc(O)cc4)oc3c2)[C@H](O)[C@@H](O)[C@@H]1O
REMARK SMILES IDX 6 1 7 2 8 3 10 4 24 5 25 6 23 7 15 8 13 9 11 10 12 11 5 12
REMARK SMILES IDX 4 13 1 14 2 15 30 16 3 17 28 18 26 19 31 20 29 22 27 24 9 26
REMARK SMILES IDX 16 28 17 29 22 30 18 31 21 32 19 33 20 34 14 36
REMARK H PARENT 31 21 29 23 27 25 9 27 20 35 14 37
REMARK Flexibility Score: inf
ROOT
ATOM      1  C   UNL     1      72.167   2.789  32.971  1.00  0.00     0.130 A 
ATOM      2  C   UNL     1      71.489   3.673  32.118  1.00  0.00     0.093 A 
ATOM      3  C   UNL     1      71.695   5.056  32.198  1.00  0.00     0.134 A 
ATOM      4  C   UNL     1      72.557   5.585  33.203  1.00  0.00     0.111 A 
ATOM      5  C   UNL     1      73.255   4.677  34.038  1.00  0.00     0.146 A 
ATOM      6  C   UNL     1      73.059   3.300  33.911  1.00  0.00     0.094 A 
ATOM      7  O   UNL     1      74.106   5.114  34.959  1.00  0.00    -0.452 OA
ATOM      8  C   UNL     1      74.348   6.401  35.180  1.00  0.00     0.180 A 
ATOM      9  C   UNL     1      73.646   7.377  34.450  1.00  0.00     0.208 A 
ATOM     10  C   UNL     1      72.738   6.965  33.462  1.00  0.00     0.238 A 
ATOM     11  O   UNL     1      72.072   7.841  32.850  1.00  0.00    -0.285 OA
ENDROOT
BRANCH   1  12
ATOM     12  O   UNL     1      71.991   1.398  32.915  1.00  0.00    -0.462 OA
BRANCH  12  13
ATOM     13  C   UNL     1      72.511   0.463  33.868  1.00  0.00     0.339 C 
ATOM     14  C   UNL     1      74.505  -1.629  31.588  1.00  0.00     0.042 C 
ATOM     15  C   UNL     1      73.246  -1.023  32.207  1.00  0.00     0.151 C 
ATOM     16  C   UNL     1      72.233  -2.122  32.599  1.00  0.00     0.174 C 
ATOM     17  O   UNL     1      73.618  -0.255  33.340  1.00  0.00    -0.335 OA
ATOM     18  C   UNL     1      70.987  -1.473  33.236  1.00  0.00     0.180 C 
ATOM     19  C   UNL     1      71.398  -0.488  34.351  1.00  0.00     0.214 C 
BRANCH  16  20
ATOM     20  O   UNL     1      72.827  -3.018  33.505  1.00  0.00    -0.388 OA
ATOM     21  H   UNL     1      72.210  -3.093  34.278  1.00  0.00     0.211 HD
ENDBRANCH  16  20
BRANCH  18  22
ATOM     22  O   UNL     1      70.246  -0.787  32.259  1.00  0.00    -0.387 OA
ATOM     23  H   UNL     1      70.455   0.178  32.364  1.00  0.00     0.211 HD
ENDBRANCH  18  22
BRANCH  19  24
ATOM     24  O   UNL     1      71.856  -1.193  35.476  1.00  0.00    -0.384 OA
ATOM     25  H   UNL     1      71.843  -2.157  35.237  1.00  0.00     0.211 HD
ENDBRANCH  19  24
ENDBRANCH  12  13
ENDBRANCH   1  12
BRANCH   3  26
ATOM     26  O   UNL     1      71.043   5.840  31.240  1.00  0.00    -0.507 OA
ATOM     27  H   UNL     1      70.164   6.312  31.385  1.00  0.00     0.293 HD
ENDBRANCH   3  26
BRANCH   8  28
ATOM     28  C   UNL     1      75.339   6.757  36.221  1.00  0.00     0.021 A 
ATOM     29  C   UNL     1      76.639   7.177  35.883  1.00  0.00     0.016 A 
ATOM     30  C   UNL     1      74.998   6.617  37.576  1.00  0.00     0.016 A 
ATOM     31  C   UNL     1      77.565   7.483  36.883  1.00  0.00     0.047 A 
ATOM     32  C   UNL     1      75.927   6.925  38.576  1.00  0.00     0.047 A 
ATOM     33  C   UNL     1      77.211   7.361  38.234  1.00  0.00     0.115 A 
BRANCH  33  34
ATOM     34  O   UNL     1      78.125   7.665  39.239  1.00  0.00    -0.508 OA
ATOM     35  H   UNL     1      79.113   7.774  39.041  1.00  0.00     0.293 HD
ENDBRANCH  33  34
ENDBRANCH   8  28
BRANCH   9  36
ATOM     36  O   UNL     1      73.825   8.733  34.737  1.00  0.00    -0.502 OA
ATOM     37  H   UNL     1      73.062   9.334  35.022  1.00  0.00     0.293 HD
ENDBRANCH   9  36
TORSDOF 9
ENDMDL
MODEL 2
REMARK VINA RESULT:    -5.423     11.701     13.871
REMARK INTER + INTRA:          -8.029
REMARK INTER:                  -7.394
REMARK INTRA:                  -0.635
REMARK UNBOUND:                -0.704
REMARK SMILES C[C@@H]1O[C@@H](Oc2cc(O)c3c(=O)c(O)c(-c4ccc(O)cc4)oc3c2)[C@H](O)[C@@H](O)[C@@H]1O
REMARK SMILES IDX 6 1 7 2 8 3 10 4 24 5 25 6 23 7 15 8 13 9 11 10 12 11 5 12
REMARK SMILES IDX 4 13 1 14 2 15 30 16 3 17 28 18 26 19 31 20 29 22 27 24 9 26
REMARK SMILES IDX 16 28 17 29 22 30 18 31 21 32 19 33 20 34 14 36
REMARK H PARENT 31 21 29 23 27 25 9 27 20 35 14 37
REMARK Flexibility Score: inf
ROOT
ATOM      1  C   UNL     1      60.738  -0.239  35.302  1.00  0.00     0.130 A 
ATOM      2  C   UNL     1      60.145  -1.120  34.384  1.00  0.00     0.093 A 
ATOM      3  C   UNL     1      59.878  -0.722  33.068  1.00  0.00     0.134 A 
ATOM      4  C   UNL     1      60.152   0.619  32.667  1.00  0.00     0.111 A 
ATOM      5  C   UNL     1      60.776   1.487  33.598  1.00  0.00     0.146 A 
ATOM      6  C   UNL     1      61.065   1.052  34.893  1.00  0.00     0.094 A 
ATOM      7  O   UNL     1      61.095   2.732  33.261  1.00  0.00    -0.452 OA
ATOM      8  C   UNL     1      60.844   3.254  32.066  1.00  0.00     0.180 A 
ATOM      9  C   UNL     1      60.161   2.491  31.102  1.00  0.00     0.208 A 
ATOM     10  C   UNL     1      59.805   1.168  31.409  1.00  0.00     0.238 A 
ATOM     11  O   UNL     1      59.146   0.508  30.564  1.00  0.00    -0.285 OA
ENDROOT
BRANCH   1  12
ATOM     12  O   UNL     1      61.026  -0.605  36.626  1.00  0.00    -0.462 OA
BRANCH  12  13
ATOM     13  C   UNL     1      61.499  -1.893  37.040  1.00  0.00     0.339 C 
ATOM     14  C   UNL     1      59.131  -2.517  39.788  1.00  0.00     0.042 C 
ATOM     15  C   UNL     1      60.284  -1.841  39.047  1.00  0.00     0.151 C 
ATOM     16  C   UNL     1      61.550  -1.771  39.929  1.00  0.00     0.174 C 
ATOM     17  O   UNL     1      60.543  -2.561  37.852  1.00  0.00    -0.335 OA
ATOM     18  C   UNL     1      62.694  -1.102  39.140  1.00  0.00     0.180 C 
ATOM     19  C   UNL     1      62.858  -1.762  37.755  1.00  0.00     0.214 C 
BRANCH  16  20
ATOM     20  O   UNL     1      61.930  -3.066  40.324  1.00  0.00    -0.388 OA
ATOM     21  H   UNL     1      62.091  -3.031  41.302  1.00  0.00     0.211 HD
ENDBRANCH  16  20
BRANCH  18  22
ATOM     22  O   UNL     1      62.430   0.269  38.974  1.00  0.00    -0.387 OA
ATOM     23  H   UNL     1      62.326   0.425  37.999  1.00  0.00     0.211 HD
ENDBRANCH  18  22
BRANCH  19  24
ATOM     24  O   UNL     1      63.427  -3.039  37.891  1.00  0.00    -0.384 OA
ATOM     25  H   UNL     1      64.410  -2.912  37.943  1.00  0.00     0.211 HD
ENDBRANCH  19  24
ENDBRANCH  12  13
ENDBRANCH   1  12
BRANCH   3  26
ATOM     26  O   UNL     1      59.375  -1.705  32.210  1.00  0.00    -0.507 OA
ATOM     27  H   UNL     1      59.910  -2.166  31.489  1.00  0.00     0.293 HD
ENDBRANCH   3  26
BRANCH   8  28
ATOM     28  C   UNL     1      61.273   4.647  31.809  1.00  0.00     0.021 A 
ATOM     29  C   UNL     1      60.352   5.712  31.817  1.00  0.00     0.016 A 
ATOM     30  C   UNL     1      62.616   4.910  31.491  1.00  0.00     0.016 A 
ATOM     31  C   UNL     1      60.776   7.015  31.546  1.00  0.00     0.047 A 
ATOM     32  C   UNL     1      63.038   6.216  31.221  1.00  0.00     0.047 A 
ATOM     33  C   UNL     1      62.122   7.272  31.250  1.00  0.00     0.115 A 
BRANCH  33  34
ATOM     34  O   UNL     1      62.557   8.567  30.981  1.00  0.00    -0.508 OA
ATOM     35  H   UNL     1      63.109   8.780  30.158  1.00  0.00     0.293 HD
ENDBRANCH  33  34
ENDBRANCH   8  28
BRANCH   9  36
ATOM     36  O   UNL     1      59.810   3.060  29.875  1.00  0.00    -0.502 OA
ATOM     37  H   UNL     1      59.275   2.558  29.176  1.00  0.00     0.293 HD
ENDBRANCH   9  36
TORSDOF 9
ENDMDL
MODEL 3
REMARK VINA RESULT:    -5.242      6.364      9.492
REMARK INTER + INTRA:          -7.785
REMARK INTER:                  -7.217
REMARK INTRA:                  -0.568
REMARK UNBOUND:                -0.704
REMARK SMILES C[C@@H]1O[C@@H](Oc2cc(O)c3c(=O)c(O)c(-c4ccc(O)cc4)oc3c2)[C@H](O)[C@@H](O)[C@@H]1O
REMARK SMILES IDX 6 1 7 2 8 3 10 4 24 5 25 6 23 7 15 8 13 9 11 10 12 11 5 12
REMARK SMILES IDX 4 13 1 14 2 15 30 16 3 17 28 18 26 19 31 20 29 22 27 24 9 26
REMARK SMILES IDX 16 28 17 29 22 30 18 31 21 32 19 33 20 34 14 36
REMARK H PARENT 31 21 29 23 27 25 9 27 20 35 14 37
REMARK Flexibility Score: inf
ROOT
ATOM      1  C   UNL     1      71.969  -0.047  37.521  1.00  0.00     0.130 A 
ATOM      2  C   UNL     1      73.291   0.126  37.959  1.00  0.00     0.093 A 
ATOM      3  C   UNL     1      73.636  -0.044  39.305  1.00  0.00     0.134 A 
ATOM      4  C   UNL     1      72.620  -0.336  40.262  1.00  0.00     0.111 A 
ATOM      5  C   UNL     1      71.295  -0.537  39.800  1.00  0.00     0.146 A 
ATOM      6  C   UNL     1      70.987  -0.396  38.445  1.00  0.00     0.094 A 
ATOM      7  O   UNL     1      70.320  -0.856  40.643  1.00  0.00    -0.452 OA
ATOM      8  C   UNL     1      70.499  -0.991  41.951  1.00  0.00     0.180 A 
ATOM      9  C   UNL     1      71.764  -0.739  42.511  1.00  0.00     0.208 A 
ATOM     10  C   UNL     1      72.829  -0.401  41.661  1.00  0.00     0.238 A 
ATOM     11  O   UNL     1      73.946  -0.123  42.172  1.00  0.00    -0.285 OA
ENDROOT
BRANCH   1  12
ATOM     12  O   UNL     1      71.589   0.109  36.179  1.00  0.00    -0.462 OA
BRANCH  12  13
ATOM     13  C   UNL     1      72.013   1.176  35.322  1.00  0.00     0.339 C 
ATOM     14  C   UNL     1      69.438   0.867  32.709  1.00  0.00     0.042 C 
ATOM     15  C   UNL     1      70.653   0.466  33.546  1.00  0.00     0.151 C 
ATOM     16  C   UNL     1      71.849   0.087  32.647  1.00  0.00     0.174 C 
ATOM     17  O   UNL     1      70.990   1.543  34.405  1.00  0.00    -0.335 OA
ATOM     18  C   UNL     1      73.058  -0.292  33.527  1.00  0.00     0.180 C 
ATOM     19  C   UNL     1      73.316   0.794  34.592  1.00  0.00     0.214 C 
BRANCH  16  20
ATOM     20  O   UNL     1      72.181   1.168  31.812  1.00  0.00    -0.388 OA
ATOM     21  H   UNL     1      72.990   0.899  31.303  1.00  0.00     0.211 HD
ENDBRANCH  16  20
BRANCH  18  22
ATOM     22  O   UNL     1      72.826  -1.523  34.165  1.00  0.00    -0.387 OA
ATOM     23  H   UNL     1      72.764  -1.336  35.138  1.00  0.00     0.211 HD
ENDBRANCH  18  22
BRANCH  19  24
ATOM     24  O   UNL     1      73.856   1.944  33.992  1.00  0.00    -0.384 OA
ATOM     25  H   UNL     1      74.349   1.642  33.184  1.00  0.00     0.211 HD
ENDBRANCH  19  24
ENDBRANCH  12  13
ENDBRANCH   1  12
BRANCH   3  26
ATOM     26  O   UNL     1      74.996   0.058  39.619  1.00  0.00    -0.507 OA
ATOM     27  H   UNL     1      75.400  -0.195  40.507  1.00  0.00     0.293 HD
ENDBRANCH   3  26
BRANCH   8  28
ATOM     28  C   UNL     1      69.333  -1.376  42.779  1.00  0.00     0.021 A 
ATOM     29  C   UNL     1      68.547  -0.408  43.433  1.00  0.00     0.016 A 
ATOM     30  C   UNL     1      69.038  -2.736  42.968  1.00  0.00     0.016 A 
ATOM     31  C   UNL     1      67.466  -0.797  44.230  1.00  0.00     0.047 A 
ATOM     32  C   UNL     1      67.955  -3.122  43.765  1.00  0.00     0.047 A 
ATOM     33  C   UNL     1      67.165  -2.155  44.396  1.00  0.00     0.115 A 
BRANCH  33  34
ATOM     34  O   UNL     1      66.090  -2.554  45.186  1.00  0.00    -0.508 OA
ATOM     35  H   UNL     1      65.456  -3.286  44.887  1.00  0.00     0.293 HD
ENDBRANCH  33  34
ENDBRANCH   8  28
BRANCH   9  36
ATOM     36  O   UNL     1      71.942  -0.788  43.896  1.00  0.00    -0.502 OA
ATOM     37  H   UNL     1      71.550  -0.093  44.520  1.00  0.00     0.293 HD
ENDBRANCH   9  36
TORSDOF 9
ENDMDL
MODEL 4
REMARK VINA RESULT:    -5.232      1.032      1.570
REMARK INTER + INTRA:          -7.771
REMARK INTER:                  -6.990
REMARK INTRA:                  -0.780
REMARK UNBOUND:                -0.704
REMARK SMILES C[C@@H]1O[C@@H](Oc2cc(O)c3c(=O)c(O)c(-c4ccc(O)cc4)oc3c2)[C@H](O)[C@@H](O)[C@@H]1O
REMARK SMILES IDX 6 1 7 2 8 3 10 4 24 5 25 6 23 7 15 8 13 9 11 10 12 11 5 12
REMARK SMILES IDX 4 13 1 14 2 15 30 16 3 17 28 18 26 19 31 20 29 22 27 24 9 26
REMARK SMILES IDX 16 28 17 29 22 30 18 31 21 32 19 33 20 34 14 36
REMARK H PARENT 31 21 29 23 27 25 9 27 20 35 14 37
REMARK Flexibility Score: inf
ROOT
ATOM      1  C   UNL     1      72.125   3.439  32.589  1.00  0.00     0.130 A 
ATOM      2  C   UNL     1      71.436   4.400  31.832  1.00  0.00     0.093 A 
ATOM      3  C   UNL     1      71.638   5.770  32.045  1.00  0.00     0.134 A 
ATOM      4  C   UNL     1      72.508   6.200  33.089  1.00  0.00     0.111 A 
ATOM      5  C   UNL     1      73.218   5.218  33.825  1.00  0.00     0.146 A 
ATOM      6  C   UNL     1      73.025   3.860  33.566  1.00  0.00     0.094 A 
ATOM      7  O   UNL     1      74.076   5.567  34.777  1.00  0.00    -0.452 OA
ATOM      8  C   UNL     1      74.316   6.827  35.119  1.00  0.00     0.180 A 
ATOM      9  C   UNL     1      73.604   7.867  34.496  1.00  0.00     0.208 A 
ATOM     10  C   UNL     1      72.688   7.549  33.480  1.00  0.00     0.238 A 
ATOM     11  O   UNL     1      72.013   8.478  32.963  1.00  0.00    -0.285 OA
ENDROOT
BRANCH   1  12
ATOM     12  O   UNL     1      71.953   2.059  32.398  1.00  0.00    -0.462 OA
BRANCH  12  13
ATOM     13  C   UNL     1      71.014   1.241  33.105  1.00  0.00     0.339 C 
ATOM     14  C   UNL     1      73.250  -0.070  35.719  1.00  0.00     0.042 C 
ATOM     15  C   UNL     1      72.690   0.126  34.310  1.00  0.00     0.151 C 
ATOM     16  C   UNL     1      72.424  -1.230  33.622  1.00  0.00     0.174 C 
ATOM     17  O   UNL     1      71.498   0.890  34.394  1.00  0.00    -0.335 OA
ATOM     18  C   UNL     1      71.843  -0.991  32.213  1.00  0.00     0.180 C 
ATOM     19  C   UNL     1      70.656  -0.007  32.275  1.00  0.00     0.214 C 
BRANCH  16  20
ATOM     20  O   UNL     1      71.525  -1.988  34.392  1.00  0.00    -0.388 OA
ATOM     21  H   UNL     1      71.278  -2.780  33.847  1.00  0.00     0.211 HD
ENDBRANCH  16  20
BRANCH  18  22
ATOM     22  O   UNL     1      72.834  -0.470  31.363  1.00  0.00    -0.387 OA
ATOM     23  H   UNL     1      73.219   0.322  31.821  1.00  0.00     0.211 HD
ENDBRANCH  18  22
BRANCH  19  24
ATOM     24  O   UNL     1      69.538  -0.633  32.851  1.00  0.00    -0.384 OA
ATOM     25  H   UNL     1      68.768  -0.460  32.248  1.00  0.00     0.211 HD
ENDBRANCH  19  24
ENDBRANCH  12  13
ENDBRANCH   1  12
BRANCH   3  26
ATOM     26  O   UNL     1      70.975   6.640  31.174  1.00  0.00    -0.507 OA
ATOM     27  H   UNL     1      70.227   7.261  31.443  1.00  0.00     0.293 HD
ENDBRANCH   3  26
BRANCH   8  28
ATOM     28  C   UNL     1      75.316   7.083  36.181  1.00  0.00     0.021 A 
ATOM     29  C   UNL     1      76.636   7.459  35.869  1.00  0.00     0.016 A 
ATOM     30  C   UNL     1      74.961   6.891  37.526  1.00  0.00     0.016 A 
ATOM     31  C   UNL     1      77.569   7.671  36.888  1.00  0.00     0.047 A 
ATOM     32  C   UNL     1      75.897   7.106  38.544  1.00  0.00     0.047 A 
ATOM     33  C   UNL     1      77.201   7.498  38.229  1.00  0.00     0.115 A 
BRANCH  33  34
ATOM     34  O   UNL     1      78.122   7.708  39.252  1.00  0.00    -0.508 OA
ATOM     35  H   UNL     1      78.837   8.423  39.183  1.00  0.00     0.293 HD
ENDBRANCH  33  34
ENDBRANCH   8  28
BRANCH   9  36
ATOM     36  O   UNL     1      73.782   9.189  34.911  1.00  0.00    -0.502 OA
ATOM     37  H   UNL     1      73.064   9.895  34.801  1.00  0.00     0.293 HD
ENDBRANCH   9  36
TORSDOF 9
ENDMDL
MODEL 5
REMARK VINA RESULT:    -5.230      8.579     12.689
REMARK INTER + INTRA:          -7.768
REMARK INTER:                  -7.031
REMARK INTRA:                  -0.737
REMARK UNBOUND:                -0.704
REMARK SMILES C[C@@H]1O[C@@H](Oc2cc(O)c3c(=O)c(O)c(-c4ccc(O)cc4)oc3c2)[C@H](O)[C@@H](O)[C@@H]1O
REMARK SMILES IDX 6 1 7 2 8 3 10 4 24 5 25 6 23 7 15 8 13 9 11 10 12 11 5 12
REMARK SMILES IDX 4 13 1 14 2 15 30 16 3 17 28 18 26 19 31 20 29 22 27 24 9 26
REMARK SMILES IDX 16 28 17 29 22 30 18 31 21 32 19 33 20 34 14 36
REMARK H PARENT 31 21 29 23 27 25 9 27 20 35 14 37
REMARK Flexibility Score: inf
ROOT
ATOM      1  C   UNL     1      64.426   3.762  33.512  1.00  0.00     0.130 A 
ATOM      2  C   UNL     1      65.776   3.519  33.217  1.00  0.00     0.093 A 
ATOM      3  C   UNL     1      66.446   2.412  33.753  1.00  0.00     0.134 A 
ATOM      4  C   UNL     1      65.768   1.551  34.666  1.00  0.00     0.111 A 
ATOM      5  C   UNL     1      64.397   1.794  34.931  1.00  0.00     0.146 A 
ATOM      6  C   UNL     1      63.744   2.884  34.353  1.00  0.00     0.094 A 
ATOM      7  O   UNL     1      63.707   0.995  35.737  1.00  0.00    -0.452 OA
ATOM      8  C   UNL     1      64.236  -0.054  36.356  1.00  0.00     0.180 A 
ATOM      9  C   UNL     1      65.607  -0.330  36.212  1.00  0.00     0.208 A 
ATOM     10  C   UNL     1      66.379   0.484  35.367  1.00  0.00     0.238 A 
ATOM     11  O   UNL     1      67.616   0.266  35.284  1.00  0.00    -0.285 OA
ENDROOT
BRANCH   1  12
ATOM     12  O   UNL     1      63.721   4.856  32.988  1.00  0.00    -0.462 OA
BRANCH  12  13
ATOM     13  C   UNL     1      63.029   4.865  31.734  1.00  0.00     0.339 C 
ATOM     14  C   UNL     1      62.547   8.497  31.371  1.00  0.00     0.042 C 
ATOM     15  C   UNL     1      62.359   7.102  31.968  1.00  0.00     0.151 C 
ATOM     16  C   UNL     1      60.862   6.747  32.095  1.00  0.00     0.174 C 
ATOM     17  O   UNL     1      63.032   6.160  31.148  1.00  0.00    -0.335 OA
ATOM     18  C   UNL     1      60.715   5.328  32.682  1.00  0.00     0.180 C 
ATOM     19  C   UNL     1      61.595   4.326  31.906  1.00  0.00     0.214 C 
BRANCH  16  20
ATOM     20  O   UNL     1      60.246   6.814  30.833  1.00  0.00    -0.388 OA
ATOM     21  H   UNL     1      59.991   7.761  30.689  1.00  0.00     0.211 HD
ENDBRANCH  16  20
BRANCH  18  22
ATOM     22  O   UNL     1      61.088   5.323  34.037  1.00  0.00    -0.387 OA
ATOM     23  H   UNL     1      60.365   4.859  34.533  1.00  0.00     0.211 HD
ENDBRANCH  18  22
BRANCH  19  24
ATOM     24  O   UNL     1      61.045   4.078  30.638  1.00  0.00    -0.384 OA
ATOM     25  H   UNL     1      60.087   4.334  30.684  1.00  0.00     0.211 HD
ENDBRANCH  19  24
ENDBRANCH  12  13
ENDBRANCH   1  12
BRANCH   3  26
ATOM     26  O   UNL     1      67.760   2.209  33.320  1.00  0.00    -0.507 OA
ATOM     27  H   UNL     1      68.394   2.944  33.046  1.00  0.00     0.293 HD
ENDBRANCH   3  26
BRANCH   8  28
ATOM     28  C   UNL     1      63.351  -0.880  37.209  1.00  0.00     0.021 A 
ATOM     29  C   UNL     1      62.558  -1.907  36.664  1.00  0.00     0.016 A 
ATOM     30  C   UNL     1      63.253  -0.597  38.582  1.00  0.00     0.016 A 
ATOM     31  C   UNL     1      61.712  -2.657  37.485  1.00  0.00     0.047 A 
ATOM     32  C   UNL     1      62.405  -1.351  39.401  1.00  0.00     0.047 A 
ATOM     33  C   UNL     1      61.635  -2.383  38.858  1.00  0.00     0.115 A 
BRANCH  33  34
ATOM     34  O   UNL     1      60.796  -3.125  39.685  1.00  0.00    -0.508 OA
ATOM     35  H   UNL     1      59.788  -3.065  39.607  1.00  0.00     0.293 HD
ENDBRANCH  33  34
ENDBRANCH   8  28
BRANCH   9  36
ATOM     36  O   UNL     1      66.193  -1.375  36.930  1.00  0.00    -0.502 OA
ATOM     37  H   UNL     1      67.195  -1.521  36.959  1.00  0.00     0.293 HD
ENDBRANCH   9  36
TORSDOF 9
ENDMDL
MODEL 6
REMARK VINA RESULT:    -5.207      5.467      8.175
REMARK INTER + INTRA:          -7.737
REMARK INTER:                  -6.940
REMARK INTRA:                  -0.797
REMARK UNBOUND:                -0.704
REMARK SMILES C[C@@H]1O[C@@H](Oc2cc(O)c3c(=O)c(O)c(-c4ccc(O)cc4)oc3c2)[C@H](O)[C@@H](O)[C@@H]1O
REMARK SMILES IDX 6 1 7 2 8 3 10 4 24 5 25 6 23 7 15 8 13 9 11 10 12 11 5 12
REMARK SMILES IDX 4 13 1 14 2 15 30 16 3 17 28 18 26 19 31 20 29 22 27 24 9 26
REMARK SMILES IDX 16 28 17 29 22 30 18 31 21 32 19 33 20 34 14 36
REMARK H PARENT 31 21 29 23 27 25 9 27 20 35 14 37
REMARK Flexibility Score: inf
ROOT
ATOM      1  C   UNL     1      66.810  -0.113  34.421  1.00  0.00     0.130 A 
ATOM      2  C   UNL     1      66.436   0.983  33.628  1.00  0.00     0.093 A 
ATOM      3  C   UNL     1      67.369   1.640  32.815  1.00  0.00     0.134 A 
ATOM      4  C   UNL     1      68.735   1.234  32.839  1.00  0.00     0.111 A 
ATOM      5  C   UNL     1      69.091   0.108  33.623  1.00  0.00     0.146 A 
ATOM      6  C   UNL     1      68.132  -0.551  34.395  1.00  0.00     0.094 A 
ATOM      7  O   UNL     1      70.341  -0.341  33.644  1.00  0.00    -0.452 OA
ATOM      8  C   UNL     1      71.333   0.225  32.967  1.00  0.00     0.180 A 
ATOM      9  C   UNL     1      71.090   1.391  32.220  1.00  0.00     0.208 A 
ATOM     10  C   UNL     1      69.784   1.903  32.163  1.00  0.00     0.238 A 
ATOM     11  O   UNL     1      69.583   2.978  31.539  1.00  0.00    -0.285 OA
ENDROOT
BRANCH   1  12
ATOM     12  O   UNL     1      65.902  -0.799  35.241  1.00  0.00    -0.462 OA
BRANCH  12  13
ATOM     13  C   UNL     1      66.109  -1.102  36.626  1.00  0.00     0.339 C 
ATOM     14  C   UNL     1      62.921  -2.805  37.324  1.00  0.00     0.042 C 
ATOM     15  C   UNL     1      63.854  -1.643  36.982  1.00  0.00     0.151 C 
ATOM     16  C   UNL     1      63.606  -0.437  37.914  1.00  0.00     0.174 C 
ATOM     17  O   UNL     1      65.196  -2.090  37.084  1.00  0.00    -0.335 OA
ATOM     18  C   UNL     1      64.578   0.705  37.551  1.00  0.00     0.180 C 
ATOM     19  C   UNL     1      66.027   0.182  37.476  1.00  0.00     0.214 C 
BRANCH  16  20
ATOM     20  O   UNL     1      63.793  -0.821  39.253  1.00  0.00    -0.388 OA
ATOM     21  H   UNL     1      64.273  -0.077  39.700  1.00  0.00     0.211 HD
ENDBRANCH  16  20
BRANCH  18  22
ATOM     22  O   UNL     1      64.222   1.269  36.314  1.00  0.00    -0.387 OA
ATOM     23  H   UNL     1      63.230   1.278  36.276  1.00  0.00     0.211 HD
ENDBRANCH  18  22
BRANCH  19  24
ATOM     24  O   UNL     1      66.511  -0.093  38.765  1.00  0.00    -0.384 OA
ATOM     25  H   UNL     1      67.144  -0.855  38.680  1.00  0.00     0.211 HD
ENDBRANCH  19  24
ENDBRANCH  12  13
ENDBRANCH   1  12
BRANCH   3  26
ATOM     26  O   UNL     1      66.872   2.658  31.994  1.00  0.00    -0.507 OA
ATOM     27  H   UNL     1      66.059   2.574  31.404  1.00  0.00     0.293 HD
ENDBRANCH   3  26
BRANCH   8  28
ATOM     28  C   UNL     1      72.677  -0.389  33.055  1.00  0.00     0.021 A 
ATOM     29  C   UNL     1      73.192  -1.180  32.011  1.00  0.00     0.016 A 
ATOM     30  C   UNL     1      73.434  -0.230  34.228  1.00  0.00     0.016 A 
ATOM     31  C   UNL     1      74.454  -1.769  32.128  1.00  0.00     0.047 A 
ATOM     32  C   UNL     1      74.697  -0.821  34.342  1.00  0.00     0.047 A 
ATOM     33  C   UNL     1      75.212  -1.589  33.293  1.00  0.00     0.115 A 
BRANCH  33  34
ATOM     34  O   UNL     1      76.471  -2.171  33.419  1.00  0.00    -0.508 OA
ATOM     35  H   UNL     1      76.831  -2.810  32.721  1.00  0.00     0.293 HD
ENDBRANCH  33  34
ENDBRANCH   8  28
BRANCH   9  36
ATOM     36  O   UNL     1      72.144   2.047  31.579  1.00  0.00    -0.502 OA
ATOM     37  H   UNL     1      73.053   1.619  31.449  1.00  0.00     0.293 HD
ENDBRANCH   9  36
TORSDOF 9
ENDMDL
MODEL 7
REMARK VINA RESULT:    -5.180      6.284      9.360
REMARK INTER + INTRA:          -7.701
REMARK INTER:                  -7.011
REMARK INTRA:                  -0.690
REMARK UNBOUND:                -0.704
REMARK SMILES C[C@@H]1O[C@@H](Oc2cc(O)c3c(=O)c(O)c(-c4ccc(O)cc4)oc3c2)[C@H](O)[C@@H](O)[C@@H]1O
REMARK SMILES IDX 6 1 7 2 8 3 10 4 24 5 25 6 23 7 15 8 13 9 11 10 12 11 5 12
REMARK SMILES IDX 4 13 1 14 2 15 30 16 3 17 28 18 26 19 31 20 29 22 27 24 9 26
REMARK SMILES IDX 16 28 17 29 22 30 18 31 21 32 19 33 20 34 14 36
REMARK H PARENT 31 21 29 23 27 25 9 27 20 35 14 37
REMARK Flexibility Score: inf
ROOT
ATOM      1  C   UNL     1      71.555  -0.215  37.316  1.00  0.00     0.130 A 
ATOM      2  C   UNL     1      72.900  -0.013  37.661  1.00  0.00     0.093 A 
ATOM      3  C   UNL     1      73.335  -0.144  38.986  1.00  0.00     0.134 A 
ATOM      4  C   UNL     1      72.388  -0.425  40.015  1.00  0.00     0.111 A 
ATOM      5  C   UNL     1      71.039  -0.655  39.645  1.00  0.00     0.146 A 
ATOM      6  C   UNL     1      70.641  -0.553  38.310  1.00  0.00     0.094 A 
ATOM      7  O   UNL     1      70.125  -0.965  40.558  1.00  0.00    -0.452 OA
ATOM      8  C   UNL     1      70.391  -1.064  41.855  1.00  0.00     0.180 A 
ATOM      9  C   UNL     1      71.686  -0.781  42.324  1.00  0.00     0.208 A 
ATOM     10  C   UNL     1      72.688  -0.451  41.398  1.00  0.00     0.238 A 
ATOM     11  O   UNL     1      73.831  -0.146  41.828  1.00  0.00    -0.285 OA
ENDROOT
BRANCH   1  12
ATOM     12  O   UNL     1      71.086  -0.098  35.998  1.00  0.00    -0.462 OA
BRANCH  12  13
ATOM     13  C   UNL     1      70.699  -1.195  35.162  1.00  0.00     0.339 C 
ATOM     14  C   UNL     1      73.147  -0.737  32.450  1.00  0.00     0.042 C 
ATOM     15  C   UNL     1      71.942  -0.410  33.332  1.00  0.00     0.151 C 
ATOM     16  C   UNL     1      70.690  -0.114  32.479  1.00  0.00     0.174 C 
ATOM     17  O   UNL     1      71.707  -1.501  34.208  1.00  0.00    -0.335 OA
ATOM     18  C   UNL     1      69.493   0.191  33.404  1.00  0.00     0.180 C 
ATOM     19  C   UNL     1      69.347  -0.903  34.482  1.00  0.00     0.214 C 
BRANCH  16  20
ATOM     20  O   UNL     1      70.396  -1.219  31.661  1.00  0.00    -0.388 OA
ATOM     21  H   UNL     1      69.411  -1.239  31.548  1.00  0.00     0.211 HD
ENDBRANCH  16  20
BRANCH  18  22
ATOM     22  O   UNL     1      69.670   1.438  34.028  1.00  0.00    -0.387 OA
ATOM     23  H   UNL     1      69.373   1.334  34.969  1.00  0.00     0.211 HD
ENDBRANCH  18  22
BRANCH  19  24
ATOM     24  O   UNL     1      68.860  -2.088  33.907  1.00  0.00    -0.384 OA
ATOM     25  H   UNL     1      68.693  -1.895  32.947  1.00  0.00     0.211 HD
ENDBRANCH  19  24
ENDBRANCH  12  13
ENDBRANCH   1  12
BRANCH   3  26
ATOM     26  O   UNL     1      74.710  -0.016  39.207  1.00  0.00    -0.507 OA
ATOM     27  H   UNL     1      75.420  -0.548  38.728  1.00  0.00     0.293 HD
ENDBRANCH   3  26
BRANCH   8  28
ATOM     28  C   UNL     1      69.288  -1.443  42.767  1.00  0.00     0.021 A 
ATOM     29  C   UNL     1      68.944  -2.791  42.981  1.00  0.00     0.016 A 
ATOM     30  C   UNL     1      68.527  -0.438  43.387  1.00  0.00     0.016 A 
ATOM     31  C   UNL     1      67.882  -3.124  43.827  1.00  0.00     0.047 A 
ATOM     32  C   UNL     1      67.466  -0.774  44.234  1.00  0.00     0.047 A 
ATOM     33  C   UNL     1      67.141  -2.115  44.459  1.00  0.00     0.115 A 
BRANCH  33  34
ATOM     34  O   UNL     1      66.083  -2.435  45.305  1.00  0.00    -0.508 OA
ATOM     35  H   UNL     1      65.813  -1.826  46.069  1.00  0.00     0.293 HD
ENDBRANCH  33  34
ENDBRANCH   8  28
BRANCH   9  36
ATOM     36  O   UNL     1      71.955  -0.793  43.695  1.00  0.00    -0.502 OA
ATOM     37  H   UNL     1      72.867  -0.566  44.073  1.00  0.00     0.293 HD
ENDBRANCH   9  36
TORSDOF 9
ENDMDL
MODEL 8
REMARK VINA RESULT:    -5.146      3.489      9.140
REMARK INTER + INTRA:          -7.655
REMARK INTER:                  -6.847
REMARK INTRA:                  -0.808
REMARK UNBOUND:                -0.704
REMARK SMILES C[C@@H]1O[C@@H](Oc2cc(O)c3c(=O)c(O)c(-c4ccc(O)cc4)oc3c2)[C@H](O)[C@@H](O)[C@@H]1O
REMARK SMILES IDX 6 1 7 2 8 3 10 4 24 5 25 6 23 7 15 8 13 9 11 10 12 11 5 12
REMARK SMILES IDX 4 13 1 14 2 15 30 16 3 17 28 18 26 19 31 20 29 22 27 24 9 26
REMARK SMILES IDX 16 28 17 29 22 30 18 31 21 32 19 33 20 34 14 36
REMARK H PARENT 31 21 29 23 27 25 9 27 20 35 14 37
REMARK Flexibility Score: inf
ROOT
ATOM      1  C   UNL     1      74.476   5.632  36.796  1.00  0.00     0.130 A 
ATOM      2  C   UNL     1      74.722   5.204  35.483  1.00  0.00     0.093 A 
ATOM      3  C   UNL     1      74.242   3.971  35.021  1.00  0.00     0.134 A 
ATOM      4  C   UNL     1      73.547   3.106  35.916  1.00  0.00     0.111 A 
ATOM      5  C   UNL     1      73.282   3.565  37.230  1.00  0.00     0.146 A 
ATOM      6  C   UNL     1      73.741   4.815  37.652  1.00  0.00     0.094 A 
ATOM      7  O   UNL     1      72.598   2.818  38.088  1.00  0.00    -0.452 OA
ATOM      8  C   UNL     1      72.137   1.606  37.799  1.00  0.00     0.180 A 
ATOM      9  C   UNL     1      72.415   1.037  36.544  1.00  0.00     0.208 A 
ATOM     10  C   UNL     1      73.132   1.789  35.600  1.00  0.00     0.238 A 
ATOM     11  O   UNL     1      73.426   1.255  34.498  1.00  0.00    -0.285 OA
ENDROOT
BRANCH   1  12
ATOM     12  O   UNL     1      74.935   6.863  37.290  1.00  0.00    -0.462 OA
BRANCH  12  13
ATOM     13  C   UNL     1      75.473   7.075  38.601  1.00  0.00     0.339 C 
ATOM     14  C   UNL     1      75.821  10.738  38.491  1.00  0.00     0.042 C 
ATOM     15  C   UNL     1      76.112   9.282  38.126  1.00  0.00     0.151 C 
ATOM     16  C   UNL     1      77.622   8.974  38.223  1.00  0.00     0.174 C 
ATOM     17  O   UNL     1      75.369   8.438  38.990  1.00  0.00    -0.335 OA
ATOM     18  C   UNL     1      77.871   7.494  37.868  1.00  0.00     0.180 C 
ATOM     19  C   UNL     1      76.929   6.575  38.673  1.00  0.00     0.214 C 
BRANCH  16  20
ATOM     20  O   UNL     1      78.081   9.241  39.525  1.00  0.00    -0.388 OA
ATOM     21  H   UNL     1      77.474   9.926  39.908  1.00  0.00     0.211 HD
ENDBRANCH  16  20
BRANCH  18  22
ATOM     22  O   UNL     1      77.662   7.285  36.494  1.00  0.00    -0.387 OA
ATOM     23  H   UNL     1      76.689   7.391  36.331  1.00  0.00     0.211 HD
ENDBRANCH  18  22
BRANCH  19  24
ATOM     24  O   UNL     1      77.330   6.530  40.019  1.00  0.00    -0.384 OA
ATOM     25  H   UNL     1      77.049   7.388  40.432  1.00  0.00     0.211 HD
ENDBRANCH  19  24
ENDBRANCH  12  13
ENDBRANCH   1  12
BRANCH   3  26
ATOM     26  O   UNL     1      74.461   3.683  33.670  1.00  0.00    -0.507 OA
ATOM     27  H   UNL     1      74.831   2.813  33.321  1.00  0.00     0.293 HD
ENDBRANCH   3  26
BRANCH   8  28
ATOM     28  C   UNL     1      71.366   0.886  38.838  1.00  0.00     0.021 A 
ATOM     29  C   UNL     1      72.009   0.134  39.839  1.00  0.00     0.016 A 
ATOM     30  C   UNL     1      69.962   0.901  38.792  1.00  0.00     0.016 A 
ATOM     31  C   UNL     1      71.260  -0.558  40.794  1.00  0.00     0.047 A 
ATOM     32  C   UNL     1      69.215   0.208  39.750  1.00  0.00     0.047 A 
ATOM     33  C   UNL     1      69.859  -0.521  40.754  1.00  0.00     0.115 A 
BRANCH  33  34
ATOM     34  O   UNL     1      69.102  -1.205  41.701  1.00  0.00    -0.508 OA
ATOM     35  H   UNL     1      69.256  -1.078  42.695  1.00  0.00     0.293 HD
ENDBRANCH  33  34
ENDBRANCH   8  28
BRANCH   9  36
ATOM     36  O   UNL     1      72.015  -0.271  36.261  1.00  0.00    -0.502 OA
ATOM     37  H   UNL     1      71.237  -0.716  36.734  1.00  0.00     0.293 HD
ENDBRANCH   9  36
TORSDOF 9
ENDMDL
