MODEL 1
REMARK VINA RESULT:    -4.421      0.000      0.000
REMARK INTER + INTRA:          -5.103
REMARK INTER:                  -4.938
REMARK INTRA:                  -0.164
REMARK UNBOUND:                -0.164
REMARK SMILES C=CCc1ccc2c(c1)OCO2
REMARK SMILES IDX 3 1 2 2 1 3 4 4 9 5 5 6 8 7 6 8 7 9 10 10 12 11 11 12
REMARK H PARENT
REMARK Flexibility Score: inf
ROOT
ATOM      1  C   UNL     1      10.995 -12.538 -12.879  1.00  0.00     0.062 C 
ENDROOT
BRANCH   1   2
ATOM      2  C   UNL     1      10.179 -13.345 -13.849  1.00  0.00    -0.030 C 
ATOM      3  C   UNL     1      10.625 -13.628 -15.077  1.00  0.00     0.004 C 
ENDBRANCH   1   2
BRANCH   1   4
ATOM      4  C   UNL     1      11.045 -13.211 -11.534  1.00  0.00    -0.040 A 
ATOM      5  C   UNL     1       9.853 -13.455 -10.815  1.00  0.00     0.054 A 
ATOM      6  C   UNL     1      12.287 -13.642 -11.001  1.00  0.00     0.008 A 
ATOM      7  C   UNL     1       9.952 -14.107  -9.589  1.00  0.00     0.166 A 
ATOM      8  C   UNL     1      12.342 -14.296  -9.756  1.00  0.00     0.051 A 
ATOM      9  C   UNL     1      11.144 -14.508  -9.081  1.00  0.00     0.165 A 
ATOM     10  O   UNL     1       8.940 -14.449  -8.712  1.00  0.00    -0.454 OA
ATOM     11  O   UNL     1      10.941 -15.124  -7.861  1.00  0.00    -0.454 OA
ATOM     12  C   UNL     1       9.534 -15.107  -7.585  1.00  0.00     0.468 C 
ENDBRANCH   1   4
TORSDOF 2
ENDMDL
MODEL 2
REMARK VINA RESULT:    -4.399      1.964      4.750
REMARK INTER + INTRA:          -5.078
REMARK INTER:                  -4.923
REMARK INTRA:                  -0.155
REMARK UNBOUND:                -0.164
REMARK SMILES C=CCc1ccc2c(c1)OCO2
REMARK SMILES IDX 3 1 2 2 1 3 4 4 9 5 5 6 8 7 6 8 7 9 10 10 12 11 11 12
REMARK H PARENT
REMARK Flexibility Score: inf
ROOT
ATOM      1  C   UNL     1       9.885 -15.113  -7.389  1.00  0.00     0.062 C 
ENDROOT
BRANCH   1   2
ATOM      2  C   UNL     1       8.427 -14.749  -7.364  1.00  0.00    -0.030 C 
ATOM      3  C   UNL     1       7.664 -14.977  -6.290  1.00  0.00     0.004 C 
ENDBRANCH   1   2
BRANCH   1   4
ATOM      4  C   UNL     1      10.533 -14.629  -8.658  1.00  0.00    -0.040 A 
ATOM      5  C   UNL     1       9.740 -14.181  -9.738  1.00  0.00     0.054 A 
ATOM      6  C   UNL     1      11.948 -14.581  -8.759  1.00  0.00     0.008 A 
ATOM      7  C   UNL     1      10.390 -13.717 -10.878  1.00  0.00     0.166 A 
ATOM      8  C   UNL     1      12.564 -14.105  -9.931  1.00  0.00     0.051 A 
ATOM      9  C   UNL     1      11.742 -13.682 -10.971  1.00  0.00     0.165 A 
ATOM     10  O   UNL     1       9.835 -13.237 -12.049  1.00  0.00    -0.454 OA
ATOM     11  O   UNL     1      12.106 -13.177 -12.205  1.00  0.00    -0.454 OA
ATOM     12  C   UNL     1      10.907 -12.878 -12.932  1.00  0.00     0.468 C 
ENDBRANCH   1   4
TORSDOF 2
ENDMDL
MODEL 3
REMARK VINA RESULT:    -4.145      2.581      5.137
REMARK INTER + INTRA:          -4.794
REMARK INTER:                  -4.646
REMARK INTRA:                  -0.148
REMARK UNBOUND:                -0.164
REMARK SMILES C=CCc1ccc2c(c1)OCO2
REMARK SMILES IDX 3 1 2 2 1 3 4 4 9 5 5 6 8 7 6 8 7 9 10 10 12 11 11 12
REMARK H PARENT
REMARK Flexibility Score: inf
ROOT
ATOM      1  C   UNL     1       9.785 -13.990  -8.852  1.00  0.00     0.062 C 
ENDROOT
BRANCH   1   2
ATOM      2  C   UNL     1      11.001 -14.815  -8.539  1.00  0.00    -0.030 C 
ATOM      3  C   UNL     1      12.005 -14.335  -7.798  1.00  0.00     0.004 C 
ENDBRANCH   1   2
BRANCH   1   4
ATOM      4  C   UNL     1       9.609 -13.843 -10.340  1.00  0.00    -0.040 A 
ATOM      5  C   UNL     1      10.735 -13.831 -11.193  1.00  0.00     0.054 A 
ATOM      6  C   UNL     1       8.306 -13.759 -10.896  1.00  0.00     0.008 A 
ATOM      7  C   UNL     1      10.516 -13.723 -12.563  1.00  0.00     0.166 A 
ATOM      8  C   UNL     1       8.130 -13.648 -12.287  1.00  0.00     0.051 A 
ATOM      9  C   UNL     1       9.268 -13.633 -13.087  1.00  0.00     0.165 A 
ATOM     10  O   UNL     1      11.447 -13.687 -13.584  1.00  0.00    -0.454 OA
ATOM     11  O   UNL     1       9.352 -13.538 -14.463  1.00  0.00    -0.454 OA
ATOM     12  C   UNL     1      10.739 -13.569 -14.826  1.00  0.00     0.468 C 
ENDBRANCH   1   4
TORSDOF 2
ENDMDL
MODEL 4
REMARK VINA RESULT:    -4.072      1.224      1.609
REMARK INTER + INTRA:          -4.713
REMARK INTER:                  -4.568
REMARK INTRA:                  -0.145
REMARK UNBOUND:                -0.164
REMARK SMILES C=CCc1ccc2c(c1)OCO2
REMARK SMILES IDX 3 1 2 2 1 3 4 4 9 5 5 6 8 7 6 8 7 9 10 10 12 11 11 12
REMARK H PARENT
REMARK Flexibility Score: inf
ROOT
ATOM      1  C   UNL     1      10.784 -12.832 -11.955  1.00  0.00     0.062 C 
ENDROOT
BRANCH   1   2
ATOM      2  C   UNL     1      10.106 -13.469 -13.136  1.00  0.00    -0.030 C 
ATOM      3  C   UNL     1      10.622 -13.394 -14.367  1.00  0.00     0.004 C 
ENDBRANCH   1   2
BRANCH   1   4
ATOM      4  C   UNL     1      10.297 -13.441 -10.669  1.00  0.00    -0.040 A 
ATOM      5  C   UNL     1       8.974 -13.214 -10.228  1.00  0.00     0.054 A 
ATOM      6  C   UNL     1      11.154 -14.282  -9.912  1.00  0.00     0.008 A 
ATOM      7  C   UNL     1       8.565 -13.824  -9.046  1.00  0.00     0.166 A 
ATOM      8  C   UNL     1      10.700 -14.878  -8.721  1.00  0.00     0.051 A 
ATOM      9  C   UNL     1       9.392 -14.620  -8.323  1.00  0.00     0.165 A 
ATOM     10  O   UNL     1       7.335 -13.751  -8.420  1.00  0.00    -0.454 OA
ATOM     11  O   UNL     1       8.723 -15.087  -7.208  1.00  0.00    -0.454 OA
ATOM     12  C   UNL     1       7.394 -14.550  -7.231  1.00  0.00     0.468 C 
ENDBRANCH   1   4
TORSDOF 2
ENDMDL
MODEL 5
REMARK VINA RESULT:    -4.048      1.183      2.271
REMARK INTER + INTRA:          -4.685
REMARK INTER:                  -4.484
REMARK INTRA:                  -0.202
REMARK UNBOUND:                -0.164
REMARK SMILES C=CCc1ccc2c(c1)OCO2
REMARK SMILES IDX 3 1 2 2 1 3 4 4 9 5 5 6 8 7 6 8 7 9 10 10 12 11 11 12
REMARK H PARENT
REMARK Flexibility Score: inf
ROOT
ATOM      1  C   UNL     1      11.376 -13.427 -11.981  1.00  0.00     0.062 C 
ENDROOT
BRANCH   1   2
ATOM      2  C   UNL     1      10.767 -12.883 -13.243  1.00  0.00    -0.030 C 
ATOM      3  C   UNL     1      10.605 -13.645 -14.330  1.00  0.00     0.004 C 
ENDBRANCH   1   2
BRANCH   1   4
ATOM      4  C   UNL     1      10.335 -13.569 -10.905  1.00  0.00    -0.040 A 
ATOM      5  C   UNL     1      10.597 -14.353  -9.759  1.00  0.00     0.054 A 
ATOM      6  C   UNL     1       9.099 -12.881 -11.017  1.00  0.00     0.008 A 
ATOM      7  C   UNL     1       9.611 -14.428  -8.779  1.00  0.00     0.166 A 
ATOM      8  C   UNL     1       8.129 -12.986 -10.003  1.00  0.00     0.051 A 
ATOM      9  C   UNL     1       8.429 -13.775  -8.897  1.00  0.00     0.165 A 
ATOM     10  O   UNL     1       9.635 -15.125  -7.586  1.00  0.00    -0.454 OA
ATOM     11  O   UNL     1       7.650 -14.027  -7.784  1.00  0.00    -0.454 OA
ATOM     12  C   UNL     1       8.390 -14.895  -6.913  1.00  0.00     0.468 C 
ENDBRANCH   1   4
TORSDOF 2
ENDMDL
MODEL 6
REMARK VINA RESULT:    -3.932      2.387      4.872
REMARK INTER + INTRA:          -4.556
REMARK INTER:                  -4.388
REMARK INTRA:                  -0.168
REMARK UNBOUND:                -0.164
REMARK SMILES C=CCc1ccc2c(c1)OCO2
REMARK SMILES IDX 3 1 2 2 1 3 4 4 9 5 5 6 8 7 6 8 7 9 10 10 12 11 11 12
REMARK H PARENT
REMARK Flexibility Score: inf
ROOT
ATOM      1  C   UNL     1       8.287 -13.817  -8.745  1.00  0.00     0.062 C 
ENDROOT
BRANCH   1   2
ATOM      2  C   UNL     1       8.544 -14.971  -7.817  1.00  0.00    -0.030 C 
ATOM      3  C   UNL     1       8.084 -14.979  -6.561  1.00  0.00     0.004 C 
ENDBRANCH   1   2
BRANCH   1   4
ATOM      4  C   UNL     1       9.244 -13.844  -9.906  1.00  0.00    -0.040 A 
ATOM      5  C   UNL     1       8.797 -13.515 -11.205  1.00  0.00     0.054 A 
ATOM      6  C   UNL     1      10.611 -14.159  -9.693  1.00  0.00     0.008 A 
ATOM      7  C   UNL     1       9.728 -13.527 -12.239  1.00  0.00     0.166 A 
ATOM      8  C   UNL     1      11.519 -14.160 -10.768  1.00  0.00     0.051 A 
ATOM      9  C   UNL     1      11.032 -13.838 -12.030  1.00  0.00     0.165 A 
ATOM     10  O   UNL     1       9.531 -13.248 -13.578  1.00  0.00    -0.454 OA
ATOM     11  O   UNL     1      11.720 -13.768 -13.226  1.00  0.00    -0.454 OA
ATOM     12  C   UNL     1      10.790 -13.392 -14.251  1.00  0.00     0.468 C 
ENDBRANCH   1   4
TORSDOF 2
ENDMDL
MODEL 7
REMARK VINA RESULT:    -3.912      2.211      4.482
REMARK INTER + INTRA:          -4.534
REMARK INTER:                  -4.374
REMARK INTRA:                  -0.160
REMARK UNBOUND:                -0.164
REMARK SMILES C=CCc1ccc2c(c1)OCO2
REMARK SMILES IDX 3 1 2 2 1 3 4 4 9 5 5 6 8 7 6 8 7 9 10 10 12 11 11 12
REMARK H PARENT
REMARK Flexibility Score: inf
ROOT
ATOM      1  C   UNL     1      12.484 -14.452  -9.864  1.00  0.00     0.062 C 
ENDROOT
BRANCH   1   2
ATOM      2  C   UNL     1      11.830 -15.073  -8.662  1.00  0.00    -0.030 C 
ATOM      3  C   UNL     1      11.520 -14.352  -7.579  1.00  0.00     0.004 C 
ENDBRANCH   1   2
BRANCH   1   4
ATOM      4  C   UNL     1      11.460 -14.117 -10.915  1.00  0.00    -0.040 A 
ATOM      5  C   UNL     1      10.224 -14.801 -10.950  1.00  0.00     0.054 A 
ATOM      6  C   UNL     1      11.715 -13.081 -11.851  1.00  0.00     0.008 A 
ATOM      7  C   UNL     1       9.300 -14.433 -11.924  1.00  0.00     0.166 A 
ATOM      8  C   UNL     1      10.753 -12.742 -12.820  1.00  0.00     0.051 A 
ATOM      9  C   UNL     1       9.554 -13.448 -12.820  1.00  0.00     0.165 A 
ATOM     10  O   UNL     1       8.041 -14.952 -12.155  1.00  0.00    -0.454 OA
ATOM     11  O   UNL     1       8.467 -13.298 -13.660  1.00  0.00    -0.454 OA
ATOM     12  C   UNL     1       7.469 -14.249 -13.267  1.00  0.00     0.468 C 
ENDBRANCH   1   4
TORSDOF 2
ENDMDL
MODEL 8
REMARK VINA RESULT:    -3.730      1.990      2.947
REMARK INTER + INTRA:          -4.330
REMARK INTER:                  -4.204
REMARK INTRA:                  -0.127
REMARK UNBOUND:                -0.164
REMARK SMILES C=CCc1ccc2c(c1)OCO2
REMARK SMILES IDX 3 1 2 2 1 3 4 4 9 5 5 6 8 7 6 8 7 9 10 10 12 11 11 12
REMARK H PARENT
REMARK Flexibility Score: inf
ROOT
ATOM      1  C   UNL     1       7.518 -13.189 -11.125  1.00  0.00     0.062 C 
ENDROOT
BRANCH   1   2
ATOM      2  C   UNL     1       7.403 -14.084 -12.327  1.00  0.00    -0.030 C 
ATOM      3  C   UNL     1       7.623 -13.630 -13.565  1.00  0.00     0.004 C 
ENDBRANCH   1   2
BRANCH   1   4
ATOM      4  C   UNL     1       8.643 -13.637 -10.232  1.00  0.00    -0.040 A 
ATOM      5  C   UNL     1       9.876 -14.045 -10.790  1.00  0.00     0.054 A 
ATOM      6  C   UNL     1       8.486 -13.611  -8.822  1.00  0.00     0.008 A 
ATOM      7  C   UNL     1      10.894 -14.422  -9.919  1.00  0.00     0.166 A 
ATOM      8  C   UNL     1       9.541 -14.002  -7.978  1.00  0.00     0.051 A 
ATOM      9  C   UNL     1      10.734 -14.403  -8.572  1.00  0.00     0.165 A 
ATOM     10  O   UNL     1      12.171 -14.855 -10.224  1.00  0.00    -0.454 OA
ATOM     11  O   UNL     1      11.900 -14.822  -7.963  1.00  0.00    -0.454 OA
ATOM     12  C   UNL     1      12.853 -15.125  -8.991  1.00  0.00     0.468 C 
ENDBRANCH   1   4
TORSDOF 2
ENDMDL
MODEL 9
REMARK VINA RESULT:    -3.192      0.962      1.947
REMARK INTER + INTRA:          -3.730
REMARK INTER:                  -3.534
REMARK INTRA:                  -0.196
REMARK UNBOUND:                -0.164
REMARK SMILES C=CCc1ccc2c(c1)OCO2
REMARK SMILES IDX 3 1 2 2 1 3 4 4 9 5 5 6 8 7 6 8 7 9 10 10 12 11 11 12
REMARK H PARENT
REMARK Flexibility Score: inf
ROOT
ATOM      1  C   UNL     1      10.985 -12.554 -13.097  1.00  0.00     0.062 C 
ENDROOT
BRANCH   1   2
ATOM      2  C   UNL     1      10.954 -13.603 -14.173  1.00  0.00    -0.030 C 
ATOM      3  C   UNL     1       9.834 -13.889 -14.844  1.00  0.00     0.004 C 
ENDBRANCH   1   2
BRANCH   1   4
ATOM      4  C   UNL     1      10.762 -13.172 -11.743  1.00  0.00    -0.040 A 
ATOM      5  C   UNL     1      11.858 -13.639 -10.984  1.00  0.00     0.054 A 
ATOM      6  C   UNL     1       9.451 -13.250 -11.204  1.00  0.00     0.008 A 
ATOM      7  C   UNL     1      11.601 -14.176  -9.726  1.00  0.00     0.166 A 
ATOM      8  C   UNL     1       9.236 -13.802  -9.928  1.00  0.00     0.051 A 
ATOM      9  C   UNL     1      10.344 -14.256  -9.221  1.00  0.00     0.165 A 
ATOM     10  O   UNL     1      12.498 -14.694  -8.811  1.00  0.00    -0.454 OA
ATOM     11  O   UNL     1      10.388 -14.826  -7.963  1.00  0.00    -0.454 OA
ATOM     12  C   UNL     1      11.758 -15.125  -7.660  1.00  0.00     0.468 C 
ENDBRANCH   1   4
TORSDOF 2
ENDMDL
