MODEL 1
REMARK VINA RESULT:    -4.783      0.000      0.000
REMARK INTER + INTRA:         -17.659
REMARK INTER:                 -12.612
REMARK INTRA:                  -5.047
REMARK UNBOUND:                -5.047
REMARK SMILES CCCCCCCCCCCCCCCCCCCCCCCCCCCCCC(=O)[O-]
REMARK SMILES IDX 16 1 17 2 18 3 19 4 20 5 21 6 22 7 23 8 24 9 25 10 26 11
REMARK SMILES IDX 27 12 28 13 29 14 30 15 31 16 32 17 15 18 14 19 13 20 12 21
REMARK SMILES IDX 11 22 10 23 9 24 8 25 7 26 6 27 5 28 4 29 3 30 2 31 1 32
REMARK H PARENT
REMARK Flexibility Score: inf
ROOT
ATOM      1  C   UNL     1       2.994  21.559  52.097  1.00  0.00     0.000 C 
ENDROOT
BRANCH   1   2
ATOM      2  C   UNL     1       4.346  22.295  52.224  1.00  0.00     0.000 C 
BRANCH   2   3
ATOM      3  C   UNL     1       4.837  22.996  50.942  1.00  0.00     0.000 C 
BRANCH   3   4
ATOM      4  C   UNL     1       5.704  24.252  51.169  1.00  0.00     0.000 C 
BRANCH   4   5
ATOM      5  C   UNL     1       5.022  25.567  50.733  1.00  0.00     0.000 C 
BRANCH   5   6
ATOM      6  C   UNL     1       3.681  25.811  51.450  1.00  0.00     0.000 C 
BRANCH   6   7
ATOM      7  C   UNL     1       2.597  26.401  50.525  1.00  0.00     0.000 C 
BRANCH   7   8
ATOM      8  C   UNL     1       1.243  25.658  50.514  1.00  0.00     0.000 C 
BRANCH   8   9
ATOM      9  C   UNL     1       1.296  24.186  50.051  1.00  0.00     0.000 C 
BRANCH   9  10
ATOM     10  C   UNL     1       1.974  23.975  48.685  1.00  0.00     0.000 C 
BRANCH  10  11
ATOM     11  C   UNL     1       1.133  24.464  47.488  1.00  0.00     0.000 C 
BRANCH  11  12
ATOM     12  C   UNL     1       2.014  25.027  46.359  1.00  0.00     0.000 C 
BRANCH  12  13
ATOM     13  C   UNL     1       1.832  24.273  45.031  1.00  0.00     0.006 C 
BRANCH  13  14
ATOM     14  C   UNL     1       2.448  22.868  45.061  1.00  0.00     0.053 C 
BRANCH  14  15
ATOM     15  C   UNL     1       2.327  22.215  43.721  1.00  0.00     0.041 C 
ATOM     16  O   UNL     1       3.036  22.611  42.758  1.00  0.00    -0.550 OA
ATOM     17  O   UNL     1       1.398  21.201  43.522  1.00  0.00    -0.550 OA
ENDBRANCH  14  15
ENDBRANCH  13  14
ENDBRANCH  12  13
ENDBRANCH  11  12
ENDBRANCH  10  11
ENDBRANCH   9  10
ENDBRANCH   8   9
ENDBRANCH   7   8
ENDBRANCH   6   7
ENDBRANCH   5   6
ENDBRANCH   4   5
ENDBRANCH   3   4
ENDBRANCH   2   3
ENDBRANCH   1   2
BRANCH   1  18
ATOM     18  C   UNL     1       1.945  21.935  53.160  1.00  0.00     0.000 C 
BRANCH  18  19
ATOM     19  C   UNL     1       1.993  23.423  53.546  1.00  0.00     0.000 C 
BRANCH  19  20
ATOM     20  C   UNL     1       0.598  24.031  53.774  1.00  0.00     0.000 C 
BRANCH  20  21
ATOM     21  C   UNL     1       0.622  25.474  54.320  1.00  0.00     0.000 C 
BRANCH  21  22
ATOM     22  C   UNL     1      -0.786  25.991  54.656  1.00  0.00     0.000 C 
BRANCH  22  23
ATOM     23  C   UNL     1      -1.779  24.834  54.821  1.00  0.00     0.000 C 
BRANCH  23  24
ATOM     24  C   UNL     1      -2.490  24.918  56.181  1.00  0.00    -0.000 C 
BRANCH  24  25
ATOM     25  C   UNL     1      -1.518  24.825  57.368  1.00  0.00    -0.000 C 
BRANCH  25  26
ATOM     26  C   UNL     1      -0.925  23.415  57.530  1.00  0.00    -0.000 C 
BRANCH  26  27
ATOM     27  C   UNL     1       0.612  23.420  57.630  1.00  0.00    -0.000 C 
BRANCH  27  28
ATOM     28  C   UNL     1       1.308  22.168  57.065  1.00  0.00    -0.000 C 
BRANCH  28  29
ATOM     29  C   UNL     1       2.840  22.255  57.127  1.00  0.00    -0.000 C 
BRANCH  29  30
ATOM     30  C   UNL     1       3.328  23.646  56.708  1.00  0.00    -0.000 C 
BRANCH  30  31
ATOM     31  C   UNL     1       4.738  23.578  56.109  1.00  0.00    -0.003 C 
ATOM     32  C   UNL     1       5.131  22.137  55.790  1.00  0.00     0.004 C 
ENDBRANCH  30  31
ENDBRANCH  29  30
ENDBRANCH  28  29
ENDBRANCH  27  28
ENDBRANCH  26  27
ENDBRANCH  25  26
ENDBRANCH  24  25
ENDBRANCH  23  24
ENDBRANCH  22  23
ENDBRANCH  21  22
ENDBRANCH  20  21
ENDBRANCH  19  20
ENDBRANCH  18  19
ENDBRANCH   1  18
TORSDOF 28
ENDMDL
MODEL 2
REMARK VINA RESULT:    -4.758      3.591      9.166
REMARK INTER + INTRA:         -17.592
REMARK INTER:                 -13.439
REMARK INTRA:                  -4.153
REMARK UNBOUND:                -5.047
REMARK SMILES CCCCCCCCCCCCCCCCCCCCCCCCCCCCCC(=O)[O-]
REMARK SMILES IDX 16 1 17 2 18 3 19 4 20 5 21 6 22 7 23 8 24 9 25 10 26 11
REMARK SMILES IDX 27 12 28 13 29 14 30 15 31 16 32 17 15 18 14 19 13 20 12 21
REMARK SMILES IDX 11 22 10 23 9 24 8 25 7 26 6 27 5 28 4 29 3 30 2 31 1 32
REMARK H PARENT
REMARK Flexibility Score: inf
ROOT
ATOM      1  C   UNL     1       3.830  21.757  52.220  1.00  0.00     0.000 C 
ENDROOT
BRANCH   1   2
ATOM      2  C   UNL     1       2.340  21.923  52.589  1.00  0.00     0.000 C 
BRANCH   2   3
ATOM      3  C   UNL     1       1.420  22.358  51.432  1.00  0.00     0.000 C 
BRANCH   3   4
ATOM      4  C   UNL     1       0.510  23.567  51.733  1.00  0.00     0.000 C 
BRANCH   4   5
ATOM      5  C   UNL     1       0.501  23.985  53.220  1.00  0.00     0.000 C 
BRANCH   5   6
ATOM      6  C   UNL     1       0.236  25.490  53.416  1.00  0.00     0.000 C 
BRANCH   6   7
ATOM      7  C   UNL     1       0.494  25.968  54.859  1.00  0.00     0.000 C 
BRANCH   7   8
ATOM      8  C   UNL     1      -0.629  26.813  55.500  1.00  0.00     0.000 C 
BRANCH   8   9
ATOM      9  C   UNL     1      -1.247  26.230  56.789  1.00  0.00     0.000 C 
BRANCH   9  10
ATOM     10  C   UNL     1      -2.456  25.307  56.551  1.00  0.00     0.000 C 
BRANCH  10  11
ATOM     11  C   UNL     1      -2.077  23.836  56.286  1.00  0.00     0.000 C 
BRANCH  11  12
ATOM     12  C   UNL     1      -1.135  23.282  57.370  1.00  0.00     0.000 C 
BRANCH  12  13
ATOM     13  C   UNL     1       0.273  22.977  56.833  1.00  0.00     0.006 C 
BRANCH  13  14
ATOM     14  C   UNL     1       1.203  22.400  57.909  1.00  0.00     0.053 C 
BRANCH  14  15
ATOM     15  C   UNL     1       2.569  22.162  57.347  1.00  0.00     0.041 C 
ATOM     16  O   UNL     1       3.466  21.645  58.063  1.00  0.00    -0.550 OA
ATOM     17  O   UNL     1       2.865  22.555  56.047  1.00  0.00    -0.550 OA
ENDBRANCH  14  15
ENDBRANCH  13  14
ENDBRANCH  12  13
ENDBRANCH  11  12
ENDBRANCH  10  11
ENDBRANCH   9  10
ENDBRANCH   8   9
ENDBRANCH   7   8
ENDBRANCH   6   7
ENDBRANCH   5   6
ENDBRANCH   4   5
ENDBRANCH   3   4
ENDBRANCH   2   3
ENDBRANCH   1   2
BRANCH   1  18
ATOM     18  C   UNL     1       4.289  22.559  50.988  1.00  0.00     0.000 C 
BRANCH  18  19
ATOM     19  C   UNL     1       5.258  23.698  51.343  1.00  0.00     0.000 C 
BRANCH  19  20
ATOM     20  C   UNL     1       4.974  24.324  52.719  1.00  0.00     0.000 C 
BRANCH  20  21
ATOM     21  C   UNL     1       3.922  25.453  52.692  1.00  0.00     0.000 C 
BRANCH  21  22
ATOM     22  C   UNL     1       3.748  26.050  51.286  1.00  0.00     0.000 C 
BRANCH  22  23
ATOM     23  C   UNL     1       2.490  26.924  51.204  1.00  0.00     0.000 C 
BRANCH  23  24
ATOM     24  C   UNL     1       1.688  26.603  49.933  1.00  0.00    -0.000 C 
BRANCH  24  25
ATOM     25  C   UNL     1       2.319  25.478  49.099  1.00  0.00    -0.000 C 
BRANCH  25  26
ATOM     26  C   UNL     1       2.001  25.612  47.599  1.00  0.00    -0.000 C 
BRANCH  26  27
ATOM     27  C   UNL     1       1.010  24.545  47.099  1.00  0.00    -0.000 C 
BRANCH  27  28
ATOM     28  C   UNL     1       1.259  24.042  45.664  1.00  0.00    -0.000 C 
BRANCH  28  29
ATOM     29  C   UNL     1       2.331  22.946  45.592  1.00  0.00    -0.000 C 
BRANCH  29  30
ATOM     30  C   UNL     1       2.705  22.638  44.137  1.00  0.00    -0.000 C 
BRANCH  30  31
ATOM     31  C   UNL     1       1.810  21.535  43.560  1.00  0.00    -0.003 C 
ATOM     32  C   UNL     1       1.966  21.437  42.044  1.00  0.00     0.004 C 
ENDBRANCH  30  31
ENDBRANCH  29  30
ENDBRANCH  28  29
ENDBRANCH  27  28
ENDBRANCH  26  27
ENDBRANCH  25  26
ENDBRANCH  24  25
ENDBRANCH  23  24
ENDBRANCH  22  23
ENDBRANCH  21  22
ENDBRANCH  20  21
ENDBRANCH  19  20
ENDBRANCH  18  19
ENDBRANCH   1  18
TORSDOF 28
ENDMDL
MODEL 3
REMARK VINA RESULT:    -4.699      3.838      9.586
REMARK INTER + INTRA:         -17.437
REMARK INTER:                 -13.124
REMARK INTRA:                  -4.313
REMARK UNBOUND:                -5.047
REMARK SMILES CCCCCCCCCCCCCCCCCCCCCCCCCCCCCC(=O)[O-]
REMARK SMILES IDX 16 1 17 2 18 3 19 4 20 5 21 6 22 7 23 8 24 9 25 10 26 11
REMARK SMILES IDX 27 12 28 13 29 14 30 15 31 16 32 17 15 18 14 19 13 20 12 21
REMARK SMILES IDX 11 22 10 23 9 24 8 25 7 26 6 27 5 28 4 29 3 30 2 31 1 32
REMARK H PARENT
REMARK Flexibility Score: inf
ROOT
ATOM      1  C   UNL     1       3.435  22.293  53.471  1.00  0.00     0.000 C 
ENDROOT
BRANCH   1   2
ATOM      2  C   UNL     1       4.240  23.604  53.330  1.00  0.00     0.000 C 
BRANCH   2   3
ATOM      3  C   UNL     1       3.601  24.841  53.990  1.00  0.00     0.000 C 
BRANCH   3   4
ATOM      4  C   UNL     1       2.123  24.678  54.402  1.00  0.00     0.000 C 
BRANCH   4   5
ATOM      5  C   UNL     1       1.314  25.992  54.356  1.00  0.00     0.000 C 
BRANCH   5   6
ATOM      6  C   UNL     1      -0.166  25.772  53.989  1.00  0.00     0.000 C 
BRANCH   6   7
ATOM      7  C   UNL     1      -0.721  24.425  54.493  1.00  0.00     0.000 C 
BRANCH   7   8
ATOM      8  C   UNL     1      -2.023  24.500  55.321  1.00  0.00     0.000 C 
BRANCH   8   9
ATOM      9  C   UNL     1      -1.884  24.134  56.814  1.00  0.00     0.000 C 
BRANCH   9  10
ATOM     10  C   UNL     1      -0.443  24.203  57.352  1.00  0.00     0.000 C 
BRANCH  10  11
ATOM     11  C   UNL     1       0.096  22.853  57.867  1.00  0.00     0.000 C 
BRANCH  11  12
ATOM     12  C   UNL     1       1.177  22.274  56.937  1.00  0.00     0.000 C 
BRANCH  12  13
ATOM     13  C   UNL     1       2.545  22.140  57.626  1.00  0.00     0.006 C 
BRANCH  13  14
ATOM     14  C   UNL     1       3.337  23.454  57.627  1.00  0.00     0.053 C 
BRANCH  14  15
ATOM     15  C   UNL     1       4.793  23.188  57.407  1.00  0.00     0.041 C 
ATOM     16  O   UNL     1       5.161  22.409  56.490  1.00  0.00    -0.550 OA
ATOM     17  O   UNL     1       5.739  23.763  58.246  1.00  0.00    -0.550 OA
ENDBRANCH  14  15
ENDBRANCH  13  14
ENDBRANCH  12  13
ENDBRANCH  11  12
ENDBRANCH  10  11
ENDBRANCH   9  10
ENDBRANCH   8   9
ENDBRANCH   7   8
ENDBRANCH   6   7
ENDBRANCH   5   6
ENDBRANCH   4   5
ENDBRANCH   3   4
ENDBRANCH   2   3
ENDBRANCH   1   2
BRANCH   1  18
ATOM     18  C   UNL     1       3.448  21.384  52.228  1.00  0.00     0.000 C 
BRANCH  18  19
ATOM     19  C   UNL     1       2.391  21.783  51.185  1.00  0.00     0.000 C 
BRANCH  19  20
ATOM     20  C   UNL     1       1.063  22.237  51.816  1.00  0.00     0.000 C 
BRANCH  20  21
ATOM     21  C   UNL     1       0.537  23.583  51.275  1.00  0.00     0.000 C 
BRANCH  21  22
ATOM     22  C   UNL     1       1.644  24.412  50.604  1.00  0.00     0.000 C 
BRANCH  22  23
ATOM     23  C   UNL     1       1.090  25.721  50.030  1.00  0.00     0.000 C 
BRANCH  23  24
ATOM     24  C   UNL     1       1.192  25.729  48.497  1.00  0.00    -0.000 C 
BRANCH  24  25
ATOM     25  C   UNL     1       1.370  24.322  47.905  1.00  0.00    -0.000 C 
BRANCH  25  26
ATOM     26  C   UNL     1       1.336  24.325  46.367  1.00  0.00    -0.000 C 
BRANCH  26  27
ATOM     27  C   UNL     1       2.359  25.296  45.748  1.00  0.00    -0.000 C 
BRANCH  27  28
ATOM     28  C   UNL     1       3.112  24.757  44.517  1.00  0.00    -0.000 C 
BRANCH  28  29
ATOM     29  C   UNL     1       3.120  23.224  44.445  1.00  0.00    -0.000 C 
BRANCH  29  30
ATOM     30  C   UNL     1       3.025  22.742  42.992  1.00  0.00    -0.000 C 
BRANCH  30  31
ATOM     31  C   UNL     1       2.058  21.559  42.867  1.00  0.00    -0.003 C 
ATOM     32  C   UNL     1       1.788  21.221  41.402  1.00  0.00     0.004 C 
ENDBRANCH  30  31
ENDBRANCH  29  30
ENDBRANCH  28  29
ENDBRANCH  27  28
ENDBRANCH  26  27
ENDBRANCH  25  26
ENDBRANCH  24  25
ENDBRANCH  23  24
ENDBRANCH  22  23
ENDBRANCH  21  22
ENDBRANCH  20  21
ENDBRANCH  19  20
ENDBRANCH  18  19
ENDBRANCH   1  18
TORSDOF 28
ENDMDL
MODEL 4
REMARK VINA RESULT:    -4.691      4.314      8.487
REMARK INTER + INTRA:         -17.416
REMARK INTER:                 -11.158
REMARK INTRA:                  -6.259
REMARK UNBOUND:                -5.047
REMARK SMILES CCCCCCCCCCCCCCCCCCCCCCCCCCCCCC(=O)[O-]
REMARK SMILES IDX 16 1 17 2 18 3 19 4 20 5 21 6 22 7 23 8 24 9 25 10 26 11
REMARK SMILES IDX 27 12 28 13 29 14 30 15 31 16 32 17 15 18 14 19 13 20 12 21
REMARK SMILES IDX 11 22 10 23 9 24 8 25 7 26 6 27 5 28 4 29 3 30 2 31 1 32
REMARK H PARENT
REMARK Flexibility Score: inf
ROOT
ATOM      1  C   UNL     1      -1.379  23.595  57.754  1.00  0.00     0.000 C 
ENDROOT
BRANCH   1   2
ATOM      2  C   UNL     1      -0.012  22.878  57.699  1.00  0.00     0.000 C 
BRANCH   2   3
ATOM      3  C   UNL     1       0.567  22.673  56.286  1.00  0.00     0.000 C 
BRANCH   3   4
ATOM      4  C   UNL     1       2.081  22.939  56.150  1.00  0.00     0.000 C 
BRANCH   4   5
ATOM      5  C   UNL     1       2.527  24.306  56.712  1.00  0.00     0.000 C 
BRANCH   5   6
ATOM      6  C   UNL     1       3.920  24.258  57.368  1.00  0.00     0.000 C 
BRANCH   6   7
ATOM      7  C   UNL     1       3.887  24.543  58.883  1.00  0.00     0.000 C 
BRANCH   7   8
ATOM      8  C   UNL     1       2.492  24.802  59.491  1.00  0.00     0.000 C 
BRANCH   8   9
ATOM      9  C   UNL     1       2.009  23.756  60.518  1.00  0.00     0.000 C 
BRANCH   9  10
ATOM     10  C   UNL     1       2.826  22.451  60.525  1.00  0.00     0.000 C 
BRANCH  10  11
ATOM     11  C   UNL     1       2.048  21.225  60.006  1.00  0.00     0.000 C 
BRANCH  11  12
ATOM     12  C   UNL     1       2.731  20.587  58.782  1.00  0.00     0.000 C 
BRANCH  12  13
ATOM     13  C   UNL     1       4.252  20.817  58.765  1.00  0.00     0.006 C 
BRANCH  13  14
ATOM     14  C   UNL     1       4.982  19.858  57.816  1.00  0.00     0.053 C 
BRANCH  14  15
ATOM     15  C   UNL     1       5.716  20.623  56.761  1.00  0.00     0.041 C 
ATOM     16  O   UNL     1       5.077  21.236  55.865  1.00  0.00    -0.550 OA
ATOM     17  O   UNL     1       7.105  20.621  56.739  1.00  0.00    -0.550 OA
ENDBRANCH  14  15
ENDBRANCH  13  14
ENDBRANCH  12  13
ENDBRANCH  11  12
ENDBRANCH  10  11
ENDBRANCH   9  10
ENDBRANCH   8   9
ENDBRANCH   7   8
ENDBRANCH   6   7
ENDBRANCH   5   6
ENDBRANCH   4   5
ENDBRANCH   3   4
ENDBRANCH   2   3
ENDBRANCH   1   2
BRANCH   1  18
ATOM     18  C   UNL     1      -2.086  23.752  56.395  1.00  0.00     0.000 C 
BRANCH  18  19
ATOM     19  C   UNL     1      -2.448  25.211  56.075  1.00  0.00     0.000 C 
BRANCH  19  20
ATOM     20  C   UNL     1      -1.486  26.225  56.717  1.00  0.00     0.000 C 
BRANCH  20  21
ATOM     21  C   UNL     1      -0.317  26.649  55.804  1.00  0.00     0.000 C 
BRANCH  21  22
ATOM     22  C   UNL     1      -0.590  26.329  54.325  1.00  0.00     0.000 C 
BRANCH  22  23
ATOM     23  C   UNL     1       0.591  25.584  53.690  1.00  0.00     0.000 C 
BRANCH  23  24
ATOM     24  C   UNL     1       0.159  24.188  53.212  1.00  0.00    -0.000 C 
BRANCH  24  25
ATOM     25  C   UNL     1       0.592  23.893  51.768  1.00  0.00    -0.000 C 
BRANCH  25  26
ATOM     26  C   UNL     1       0.982  22.418  51.564  1.00  0.00    -0.000 C 
BRANCH  26  27
ATOM     27  C   UNL     1       1.927  21.892  52.661  1.00  0.00    -0.000 C 
BRANCH  27  28
ATOM     28  C   UNL     1       3.261  21.312  52.153  1.00  0.00    -0.000 C 
BRANCH  28  29
ATOM     29  C   UNL     1       4.408  22.332  52.183  1.00  0.00    -0.000 C 
BRANCH  29  30
ATOM     30  C   UNL     1       4.098  23.478  53.153  1.00  0.00    -0.000 C 
BRANCH  30  31
ATOM     31  C   UNL     1       4.626  24.813  52.613  1.00  0.00    -0.003 C 
ATOM     32  C   UNL     1       3.946  25.181  51.296  1.00  0.00     0.004 C 
ENDBRANCH  30  31
ENDBRANCH  29  30
ENDBRANCH  28  29
ENDBRANCH  27  28
ENDBRANCH  26  27
ENDBRANCH  25  26
ENDBRANCH  24  25
ENDBRANCH  23  24
ENDBRANCH  22  23
ENDBRANCH  21  22
ENDBRANCH  20  21
ENDBRANCH  19  20
ENDBRANCH  18  19
ENDBRANCH   1  18
TORSDOF 28
ENDMDL
MODEL 5
REMARK VINA RESULT:    -4.684      1.384      2.116
REMARK INTER + INTRA:         -17.397
REMARK INTER:                 -13.088
REMARK INTRA:                  -4.309
REMARK UNBOUND:                -5.047
REMARK SMILES CCCCCCCCCCCCCCCCCCCCCCCCCCCCCC(=O)[O-]
REMARK SMILES IDX 16 1 17 2 18 3 19 4 20 5 21 6 22 7 23 8 24 9 25 10 26 11
REMARK SMILES IDX 27 12 28 13 29 14 30 15 31 16 32 17 15 18 14 19 13 20 12 21
REMARK SMILES IDX 11 22 10 23 9 24 8 25 7 26 6 27 5 28 4 29 3 30 2 31 1 32
REMARK H PARENT
REMARK Flexibility Score: inf
ROOT
ATOM      1  C   UNL     1       5.017  23.369  54.359  1.00  0.00     0.000 C 
ENDROOT
BRANCH   1   2
ATOM      2  C   UNL     1       4.239  22.036  54.303  1.00  0.00     0.000 C 
BRANCH   2   3
ATOM      3  C   UNL     1       3.847  21.563  52.890  1.00  0.00     0.000 C 
BRANCH   3   4
ATOM      4  C   UNL     1       4.234  22.521  51.744  1.00  0.00     0.000 C 
BRANCH   4   5
ATOM      5  C   UNL     1       3.133  22.692  50.675  1.00  0.00     0.000 C 
BRANCH   5   6
ATOM      6  C   UNL     1       1.734  22.308  51.192  1.00  0.00     0.000 C 
BRANCH   6   7
ATOM      7  C   UNL     1       0.826  23.527  51.449  1.00  0.00     0.000 C 
BRANCH   7   8
ATOM      8  C   UNL     1       1.437  24.905  51.115  1.00  0.00     0.000 C 
BRANCH   8   9
ATOM      9  C   UNL     1       0.885  25.587  49.845  1.00  0.00     0.000 C 
BRANCH   9  10
ATOM     10  C   UNL     1       1.867  25.607  48.659  1.00  0.00     0.000 C 
BRANCH  10  11
ATOM     11  C   UNL     1       1.829  24.329  47.796  1.00  0.00     0.000 C 
BRANCH  11  12
ATOM     12  C   UNL     1       0.868  24.471  46.602  1.00  0.00     0.000 C 
BRANCH  12  13
ATOM     13  C   UNL     1       1.535  24.130  45.259  1.00  0.00     0.006 C 
BRANCH  13  14
ATOM     14  C   UNL     1       2.280  22.789  45.293  1.00  0.00     0.053 C 
BRANCH  14  15
ATOM     15  C   UNL     1       2.406  22.225  43.913  1.00  0.00     0.041 C 
ATOM     16  O   UNL     1       3.354  22.585  43.167  1.00  0.00    -0.550 OA
ATOM     17  O   UNL     1       1.450  21.337  43.434  1.00  0.00    -0.550 OA
ENDBRANCH  14  15
ENDBRANCH  13  14
ENDBRANCH  12  13
ENDBRANCH  11  12
ENDBRANCH  10  11
ENDBRANCH   9  10
ENDBRANCH   8   9
ENDBRANCH   7   8
ENDBRANCH   6   7
ENDBRANCH   5   6
ENDBRANCH   4   5
ENDBRANCH   3   4
ENDBRANCH   2   3
ENDBRANCH   1   2
BRANCH   1  18
ATOM     18  C   UNL     1       4.272  24.530  55.044  1.00  0.00     0.000 C 
BRANCH  18  19
ATOM     19  C   UNL     1       3.037  24.995  54.255  1.00  0.00     0.000 C 
BRANCH  19  20
ATOM     20  C   UNL     1       1.773  25.109  55.125  1.00  0.00     0.000 C 
BRANCH  20  21
ATOM     21  C   UNL     1       0.916  26.358  54.831  1.00  0.00     0.000 C 
BRANCH  21  22
ATOM     22  C   UNL     1      -0.409  26.002  54.137  1.00  0.00     0.000 C 
BRANCH  22  23
ATOM     23  C   UNL     1      -0.890  24.603  54.540  1.00  0.00     0.000 C 
BRANCH  23  24
ATOM     24  C   UNL     1      -2.181  24.691  55.370  1.00  0.00    -0.000 C 
BRANCH  24  25
ATOM     25  C   UNL     1      -2.094  23.909  56.690  1.00  0.00    -0.000 C 
BRANCH  25  26
ATOM     26  C   UNL     1      -0.772  24.162  57.434  1.00  0.00    -0.000 C 
BRANCH  26  27
ATOM     27  C   UNL     1      -0.094  22.863  57.909  1.00  0.00    -0.000 C 
BRANCH  27  28
ATOM     28  C   UNL     1       0.910  22.248  56.915  1.00  0.00    -0.000 C 
BRANCH  28  29
ATOM     29  C   UNL     1       2.330  22.141  57.487  1.00  0.00    -0.000 C 
BRANCH  29  30
ATOM     30  C   UNL     1       2.368  21.188  58.688  1.00  0.00    -0.000 C 
BRANCH  30  31
ATOM     31  C   UNL     1       3.796  20.695  58.955  1.00  0.00    -0.003 C 
ATOM     32  C   UNL     1       4.630  20.706  57.677  1.00  0.00     0.004 C 
ENDBRANCH  30  31
ENDBRANCH  29  30
ENDBRANCH  28  29
ENDBRANCH  27  28
ENDBRANCH  26  27
ENDBRANCH  25  26
ENDBRANCH  24  25
ENDBRANCH  23  24
ENDBRANCH  22  23
ENDBRANCH  21  22
ENDBRANCH  20  21
ENDBRANCH  19  20
ENDBRANCH  18  19
ENDBRANCH   1  18
TORSDOF 28
ENDMDL
MODEL 6
REMARK VINA RESULT:    -4.678      4.053      8.464
REMARK INTER + INTRA:         -17.381
REMARK INTER:                 -12.021
REMARK INTRA:                  -5.360
REMARK UNBOUND:                -5.047
REMARK SMILES CCCCCCCCCCCCCCCCCCCCCCCCCCCCCC(=O)[O-]
REMARK SMILES IDX 16 1 17 2 18 3 19 4 20 5 21 6 22 7 23 8 24 9 25 10 26 11
REMARK SMILES IDX 27 12 28 13 29 14 30 15 31 16 32 17 15 18 14 19 13 20 12 21
REMARK SMILES IDX 11 22 10 23 9 24 8 25 7 26 6 27 5 28 4 29 3 30 2 31 1 32
REMARK H PARENT
REMARK Flexibility Score: inf
ROOT
ATOM      1  C   UNL     1       4.808  21.882  55.680  1.00  0.00     0.000 C 
ENDROOT
BRANCH   1   2
ATOM      2  C   UNL     1       5.940  22.633  56.416  1.00  0.00     0.000 C 
BRANCH   2   3
ATOM      3  C   UNL     1       6.885  21.744  57.247  1.00  0.00     0.000 C 
BRANCH   3   4
ATOM      4  C   UNL     1       6.453  20.268  57.381  1.00  0.00     0.000 C 
BRANCH   4   5
ATOM      5  C   UNL     1       6.486  19.738  58.831  1.00  0.00     0.000 C 
BRANCH   5   6
ATOM      6  C   UNL     1       5.090  19.361  59.361  1.00  0.00     0.000 C 
BRANCH   6   7
ATOM      7  C   UNL     1       3.982  19.483  58.295  1.00  0.00     0.000 C 
BRANCH   7   8
ATOM      8  C   UNL     1       2.836  20.465  58.623  1.00  0.00     0.000 C 
BRANCH   8   9
ATOM      9  C   UNL     1       3.238  21.705  59.451  1.00  0.00     0.000 C 
BRANCH   9  10
ATOM     10  C   UNL     1       2.163  22.805  59.507  1.00  0.00     0.000 C 
BRANCH  10  11
ATOM     11  C   UNL     1       0.845  22.427  58.802  1.00  0.00     0.000 C 
BRANCH  11  12
ATOM     12  C   UNL     1       0.211  23.632  58.084  1.00  0.00     0.000 C 
BRANCH  12  13
ATOM     13  C   UNL     1      -0.413  23.255  56.730  1.00  0.00     0.006 C 
BRANCH  13  14
ATOM     14  C   UNL     1      -1.896  23.637  56.637  1.00  0.00     0.053 C 
BRANCH  14  15
ATOM     15  C   UNL     1      -2.044  25.054  56.180  1.00  0.00     0.041 C 
ATOM     16  O   UNL     1      -1.977  25.334  54.954  1.00  0.00    -0.550 OA
ATOM     17  O   UNL     1      -2.208  26.072  57.112  1.00  0.00    -0.550 OA
ENDBRANCH  14  15
ENDBRANCH  13  14
ENDBRANCH  12  13
ENDBRANCH  11  12
ENDBRANCH  10  11
ENDBRANCH   9  10
ENDBRANCH   8   9
ENDBRANCH   7   8
ENDBRANCH   6   7
ENDBRANCH   5   6
ENDBRANCH   4   5
ENDBRANCH   3   4
ENDBRANCH   2   3
ENDBRANCH   1   2
BRANCH   1  18
ATOM     18  C   UNL     1       3.466  22.635  55.608  1.00  0.00     0.000 C 
BRANCH  18  19
ATOM     19  C   UNL     1       3.466  23.934  56.431  1.00  0.00     0.000 C 
BRANCH  19  20
ATOM     20  C   UNL     1       3.196  25.186  55.579  1.00  0.00     0.000 C 
BRANCH  20  21
ATOM     21  C   UNL     1       2.991  24.895  54.078  1.00  0.00     0.000 C 
BRANCH  21  22
ATOM     22  C   UNL     1       2.112  25.955  53.396  1.00  0.00     0.000 C 
BRANCH  22  23
ATOM     23  C   UNL     1       0.762  25.368  52.967  1.00  0.00     0.000 C 
BRANCH  23  24
ATOM     24  C   UNL     1       0.753  23.841  53.144  1.00  0.00    -0.000 C 
BRANCH  24  25
ATOM     25  C   UNL     1       0.410  23.093  51.846  1.00  0.00    -0.000 C 
BRANCH  25  26
ATOM     26  C   UNL     1       1.027  23.762  50.605  1.00  0.00    -0.000 C 
BRANCH  26  27
ATOM     27  C   UNL     1       2.377  23.140  50.199  1.00  0.00    -0.000 C 
BRANCH  27  28
ATOM     28  C   UNL     1       2.782  21.881  50.989  1.00  0.00    -0.000 C 
BRANCH  28  29
ATOM     29  C   UNL     1       4.008  22.105  51.885  1.00  0.00    -0.000 C 
BRANCH  29  30
ATOM     30  C   UNL     1       5.050  22.983  51.182  1.00  0.00    -0.000 C 
BRANCH  30  31
ATOM     31  C   UNL     1       5.846  23.812  52.197  1.00  0.00    -0.003 C 
ATOM     32  C   UNL     1       7.268  24.070  51.701  1.00  0.00     0.004 C 
ENDBRANCH  30  31
ENDBRANCH  29  30
ENDBRANCH  28  29
ENDBRANCH  27  28
ENDBRANCH  26  27
ENDBRANCH  25  26
ENDBRANCH  24  25
ENDBRANCH  23  24
ENDBRANCH  22  23
ENDBRANCH  21  22
ENDBRANCH  20  21
ENDBRANCH  19  20
ENDBRANCH  18  19
ENDBRANCH   1  18
TORSDOF 28
ENDMDL
MODEL 7
REMARK VINA RESULT:    -4.644      1.116      3.919
REMARK INTER + INTRA:         -17.292
REMARK INTER:                 -12.746
REMARK INTRA:                  -4.546
REMARK UNBOUND:                -5.047
REMARK SMILES CCCCCCCCCCCCCCCCCCCCCCCCCCCCCC(=O)[O-]
REMARK SMILES IDX 16 1 17 2 18 3 19 4 20 5 21 6 22 7 23 8 24 9 25 10 26 11
REMARK SMILES IDX 27 12 28 13 29 14 30 15 31 16 32 17 15 18 14 19 13 20 12 21
REMARK SMILES IDX 11 22 10 23 9 24 8 25 7 26 6 27 5 28 4 29 3 30 2 31 1 32
REMARK H PARENT
REMARK Flexibility Score: inf
ROOT
ATOM      1  C   UNL     1       1.747  22.247  52.618  1.00  0.00     0.000 C 
ENDROOT
BRANCH   1   2
ATOM      2  C   UNL     1       2.675  21.825  51.457  1.00  0.00     0.000 C 
BRANCH   2   3
ATOM      3  C   UNL     1       4.183  22.001  51.725  1.00  0.00     0.000 C 
BRANCH   3   4
ATOM      4  C   UNL     1       4.889  23.055  50.847  1.00  0.00     0.000 C 
BRANCH   4   5
ATOM      5  C   UNL     1       5.669  24.116  51.653  1.00  0.00     0.000 C 
BRANCH   5   6
ATOM      6  C   UNL     1       4.810  25.343  52.014  1.00  0.00     0.000 C 
BRANCH   6   7
ATOM      7  C   UNL     1       3.749  25.677  50.946  1.00  0.00     0.000 C 
BRANCH   7   8
ATOM      8  C   UNL     1       2.279  25.624  51.416  1.00  0.00     0.000 C 
BRANCH   8   9
ATOM      9  C   UNL     1       1.262  25.132  50.365  1.00  0.00     0.000 C 
BRANCH   9  10
ATOM     10  C   UNL     1       1.686  25.384  48.906  1.00  0.00     0.000 C 
BRANCH  10  11
ATOM     11  C   UNL     1       1.972  24.096  48.107  1.00  0.00     0.000 C 
BRANCH  11  12
ATOM     12  C   UNL     1       1.308  24.123  46.719  1.00  0.00     0.000 C 
BRANCH  12  13
ATOM     13  C   UNL     1       2.321  23.967  45.573  1.00  0.00     0.006 C 
BRANCH  13  14
ATOM     14  C   UNL     1       2.250  22.587  44.906  1.00  0.00     0.053 C 
BRANCH  14  15
ATOM     15  C   UNL     1       2.881  22.628  43.550  1.00  0.00     0.041 C 
ATOM     16  O   UNL     1       2.529  21.806  42.664  1.00  0.00    -0.550 OA
ATOM     17  O   UNL     1       3.891  23.543  43.280  1.00  0.00    -0.550 OA
ENDBRANCH  14  15
ENDBRANCH  13  14
ENDBRANCH  12  13
ENDBRANCH  11  12
ENDBRANCH  10  11
ENDBRANCH   9  10
ENDBRANCH   8   9
ENDBRANCH   7   8
ENDBRANCH   6   7
ENDBRANCH   5   6
ENDBRANCH   4   5
ENDBRANCH   3   4
ENDBRANCH   2   3
ENDBRANCH   1   2
BRANCH   1  18
ATOM     18  C   UNL     1       2.425  22.325  53.998  1.00  0.00     0.000 C 
BRANCH  18  19
ATOM     19  C   UNL     1       2.585  23.769  54.504  1.00  0.00     0.000 C 
BRANCH  19  20
ATOM     20  C   UNL     1       3.794  23.950  55.437  1.00  0.00     0.000 C 
BRANCH  20  21
ATOM     21  C   UNL     1       4.953  22.969  55.163  1.00  0.00     0.000 C 
BRANCH  21  22
ATOM     22  C   UNL     1       5.475  22.312  56.452  1.00  0.00     0.000 C 
BRANCH  22  23
ATOM     23  C   UNL     1       5.296  20.790  56.413  1.00  0.00     0.000 C 
BRANCH  23  24
ATOM     24  C   UNL     1       4.795  20.266  57.768  1.00  0.00    -0.000 C 
BRANCH  24  25
ATOM     25  C   UNL     1       3.864  21.259  58.482  1.00  0.00    -0.000 C 
BRANCH  25  26
ATOM     26  C   UNL     1       2.402  21.124  58.022  1.00  0.00    -0.000 C 
BRANCH  26  27
ATOM     27  C   UNL     1       1.571  22.393  58.291  1.00  0.00    -0.000 C 
BRANCH  27  28
ATOM     28  C   UNL     1       0.534  22.737  57.206  1.00  0.00    -0.000 C 
BRANCH  28  29
ATOM     29  C   UNL     1      -0.375  23.911  57.597  1.00  0.00    -0.000 C 
BRANCH  29  30
ATOM     30  C   UNL     1      -1.829  23.640  57.193  1.00  0.00    -0.000 C 
BRANCH  30  31
ATOM     31  C   UNL     1      -2.335  24.702  56.210  1.00  0.00    -0.003 C 
ATOM     32  C   UNL     1      -1.840  24.421  54.793  1.00  0.00     0.004 C 
ENDBRANCH  30  31
ENDBRANCH  29  30
ENDBRANCH  28  29
ENDBRANCH  27  28
ENDBRANCH  26  27
ENDBRANCH  25  26
ENDBRANCH  24  25
ENDBRANCH  23  24
ENDBRANCH  22  23
ENDBRANCH  21  22
ENDBRANCH  20  21
ENDBRANCH  19  20
ENDBRANCH  18  19
ENDBRANCH   1  18
TORSDOF 28
ENDMDL
MODEL 8
REMARK VINA RESULT:    -4.608      3.997      8.508
REMARK INTER + INTRA:         -17.197
REMARK INTER:                 -11.168
REMARK INTRA:                  -6.028
REMARK UNBOUND:                -5.047
REMARK SMILES CCCCCCCCCCCCCCCCCCCCCCCCCCCCCC(=O)[O-]
REMARK SMILES IDX 16 1 17 2 18 3 19 4 20 5 21 6 22 7 23 8 24 9 25 10 26 11
REMARK SMILES IDX 27 12 28 13 29 14 30 15 31 16 32 17 15 18 14 19 13 20 12 21
REMARK SMILES IDX 11 22 10 23 9 24 8 25 7 26 6 27 5 28 4 29 3 30 2 31 1 32
REMARK H PARENT
REMARK Flexibility Score: inf
ROOT
ATOM      1  C   UNL     1       0.375  25.939  54.485  1.00  0.00     0.000 C 
ENDROOT
BRANCH   1   2
ATOM      2  C   UNL     1      -1.126  25.918  54.851  1.00  0.00     0.000 C 
BRANCH   2   3
ATOM      3  C   UNL     1      -1.735  24.515  55.044  1.00  0.00     0.000 C 
BRANCH   3   4
ATOM      4  C   UNL     1      -2.228  24.203  56.473  1.00  0.00     0.000 C 
BRANCH   4   5
ATOM      5  C   UNL     1      -1.153  23.559  57.376  1.00  0.00     0.000 C 
BRANCH   5   6
ATOM      6  C   UNL     1       0.010  22.944  56.576  1.00  0.00     0.000 C 
BRANCH   6   7
ATOM      7  C   UNL     1       1.105  22.329  57.471  1.00  0.00     0.000 C 
BRANCH   7   8
ATOM      8  C   UNL     1       0.820  22.343  58.989  1.00  0.00     0.000 C 
BRANCH   8   9
ATOM      9  C   UNL     1       1.693  23.307  59.821  1.00  0.00     0.000 C 
BRANCH   9  10
ATOM     10  C   UNL     1       1.740  24.748  59.278  1.00  0.00     0.000 C 
BRANCH  10  11
ATOM     11  C   UNL     1       3.166  25.320  59.148  1.00  0.00     0.000 C 
BRANCH  11  12
ATOM     12  C   UNL     1       4.240  24.231  59.324  1.00  0.00     0.000 C 
BRANCH  12  13
ATOM     13  C   UNL     1       5.019  23.951  58.028  1.00  0.00     0.006 C 
BRANCH  13  14
ATOM     14  C   UNL     1       4.625  22.617  57.380  1.00  0.00     0.053 C 
BRANCH  14  15
ATOM     15  C   UNL     1       5.626  22.227  56.338  1.00  0.00     0.041 C 
ATOM     16  O   UNL     1       5.630  22.803  55.218  1.00  0.00    -0.550 OA
ATOM     17  O   UNL     1       6.522  21.195  56.586  1.00  0.00    -0.550 OA
ENDBRANCH  14  15
ENDBRANCH  13  14
ENDBRANCH  12  13
ENDBRANCH  11  12
ENDBRANCH  10  11
ENDBRANCH   9  10
ENDBRANCH   8   9
ENDBRANCH   7   8
ENDBRANCH   6   7
ENDBRANCH   5   6
ENDBRANCH   4   5
ENDBRANCH   3   4
ENDBRANCH   2   3
ENDBRANCH   1   2
BRANCH   1  18
ATOM     18  C   UNL     1       1.324  26.287  55.647  1.00  0.00     0.000 C 
BRANCH  18  19
ATOM     19  C   UNL     1       2.629  25.475  55.616  1.00  0.00     0.000 C 
BRANCH  19  20
ATOM     20  C   UNL     1       3.047  25.060  54.195  1.00  0.00     0.000 C 
BRANCH  20  21
ATOM     21  C   UNL     1       3.823  26.148  53.424  1.00  0.00     0.000 C 
BRANCH  21  22
ATOM     22  C   UNL     1       3.041  26.665  52.206  1.00  0.00     0.000 C 
BRANCH  22  23
ATOM     23  C   UNL     1       2.789  25.544  51.190  1.00  0.00     0.000 C 
BRANCH  23  24
ATOM     24  C   UNL     1       1.282  25.360  50.948  1.00  0.00    -0.000 C 
BRANCH  24  25
ATOM     25  C   UNL     1       0.883  23.886  50.778  1.00  0.00    -0.000 C 
BRANCH  25  26
ATOM     26  C   UNL     1       0.527  23.217  52.118  1.00  0.00    -0.000 C 
BRANCH  26  27
ATOM     27  C   UNL     1       1.536  22.129  52.530  1.00  0.00    -0.000 C 
BRANCH  27  28
ATOM     28  C   UNL     1       2.665  21.865  51.515  1.00  0.00    -0.000 C 
BRANCH  28  29
ATOM     29  C   UNL     1       4.065  22.085  52.106  1.00  0.00    -0.000 C 
BRANCH  29  30
ATOM     30  C   UNL     1       4.996  22.745  51.082  1.00  0.00    -0.000 C 
BRANCH  30  31
ATOM     31  C   UNL     1       6.057  23.607  51.778  1.00  0.00    -0.003 C 
ATOM     32  C   UNL     1       6.434  24.813  50.920  1.00  0.00     0.004 C 
ENDBRANCH  30  31
ENDBRANCH  29  30
ENDBRANCH  28  29
ENDBRANCH  27  28
ENDBRANCH  26  27
ENDBRANCH  25  26
ENDBRANCH  24  25
ENDBRANCH  23  24
ENDBRANCH  22  23
ENDBRANCH  21  22
ENDBRANCH  20  21
ENDBRANCH  19  20
ENDBRANCH  18  19
ENDBRANCH   1  18
TORSDOF 28
ENDMDL
MODEL 9
REMARK VINA RESULT:    -4.571      3.551      9.157
REMARK INTER + INTRA:         -17.099
REMARK INTER:                 -12.502
REMARK INTRA:                  -4.597
REMARK UNBOUND:                -5.047
REMARK SMILES CCCCCCCCCCCCCCCCCCCCCCCCCCCCCC(=O)[O-]
REMARK SMILES IDX 16 1 17 2 18 3 19 4 20 5 21 6 22 7 23 8 24 9 25 10 26 11
REMARK SMILES IDX 27 12 28 13 29 14 30 15 31 16 32 17 15 18 14 19 13 20 12 21
REMARK SMILES IDX 11 22 10 23 9 24 8 25 7 26 6 27 5 28 4 29 3 30 2 31 1 32
REMARK H PARENT
REMARK Flexibility Score: inf
ROOT
ATOM      1  C   UNL     1       2.390  22.150  50.969  1.00  0.00     0.000 C 
ENDROOT
BRANCH   1   2
ATOM      2  C   UNL     1       1.187  22.242  51.933  1.00  0.00     0.000 C 
BRANCH   2   3
ATOM      3  C   UNL     1       1.141  23.512  52.806  1.00  0.00     0.000 C 
BRANCH   3   4
ATOM      4  C   UNL     1       1.601  23.323  54.266  1.00  0.00     0.000 C 
BRANCH   4   5
ATOM      5  C   UNL     1       2.486  24.473  54.795  1.00  0.00     0.000 C 
BRANCH   5   6
ATOM      6  C   UNL     1       3.981  24.105  54.839  1.00  0.00     0.000 C 
BRANCH   6   7
ATOM      7  C   UNL     1       4.236  22.650  55.281  1.00  0.00     0.000 C 
BRANCH   7   8
ATOM      8  C   UNL     1       5.095  22.472  56.552  1.00  0.00     0.000 C 
BRANCH   8   9
ATOM      9  C   UNL     1       4.321  22.505  57.888  1.00  0.00     0.000 C 
BRANCH   9  10
ATOM     10  C   UNL     1       2.893  21.935  57.808  1.00  0.00     0.000 C 
BRANCH  10  11
ATOM     11  C   UNL     1       1.800  22.925  58.257  1.00  0.00     0.000 C 
BRANCH  11  12
ATOM     12  C   UNL     1       0.431  22.589  57.638  1.00  0.00     0.000 C 
BRANCH  12  13
ATOM     13  C   UNL     1      -0.552  23.770  57.692  1.00  0.00     0.006 C 
BRANCH  13  14
ATOM     14  C   UNL     1      -1.619  23.701  56.592  1.00  0.00     0.053 C 
BRANCH  14  15
ATOM     15  C   UNL     1      -1.944  25.073  56.092  1.00  0.00     0.041 C 
ATOM     16  O   UNL     1      -2.464  25.921  56.865  1.00  0.00    -0.550 OA
ATOM     17  O   UNL     1      -1.717  25.400  54.761  1.00  0.00    -0.550 OA
ENDBRANCH  14  15
ENDBRANCH  13  14
ENDBRANCH  12  13
ENDBRANCH  11  12
ENDBRANCH  10  11
ENDBRANCH   9  10
ENDBRANCH   8   9
ENDBRANCH   7   8
ENDBRANCH   6   7
ENDBRANCH   5   6
ENDBRANCH   4   5
ENDBRANCH   3   4
ENDBRANCH   2   3
ENDBRANCH   1   2
BRANCH   1  18
ATOM     18  C   UNL     1       3.772  22.262  51.639  1.00  0.00     0.000 C 
BRANCH  18  19
ATOM     19  C   UNL     1       4.878  22.694  50.661  1.00  0.00     0.000 C 
BRANCH  19  20
ATOM     20  C   UNL     1       6.054  23.401  51.356  1.00  0.00     0.000 C 
BRANCH  20  21
ATOM     21  C   UNL     1       5.741  24.841  51.813  1.00  0.00     0.000 C 
BRANCH  21  22
ATOM     22  C   UNL     1       5.967  25.868  50.691  1.00  0.00     0.000 C 
BRANCH  22  23
ATOM     23  C   UNL     1       4.644  26.495  50.236  1.00  0.00     0.000 C 
BRANCH  23  24
ATOM     24  C   UNL     1       3.489  26.047  51.145  1.00  0.00    -0.000 C 
BRANCH  24  25
ATOM     25  C   UNL     1       2.166  25.870  50.384  1.00  0.00    -0.000 C 
BRANCH  25  26
ATOM     26  C   UNL     1       2.380  25.710  48.868  1.00  0.00    -0.000 C 
BRANCH  26  27
ATOM     27  C   UNL     1       1.674  24.468  48.292  1.00  0.00    -0.000 C 
BRANCH  27  28
ATOM     28  C   UNL     1       0.792  24.731  47.056  1.00  0.00    -0.000 C 
BRANCH  28  29
ATOM     29  C   UNL     1       1.204  23.892  45.838  1.00  0.00    -0.000 C 
BRANCH  29  30
ATOM     30  C   UNL     1       2.497  24.428  45.213  1.00  0.00    -0.000 C 
BRANCH  30  31
ATOM     31  C   UNL     1       3.096  23.413  44.231  1.00  0.00    -0.003 C 
ATOM     32  C   UNL     1       2.354  22.080  44.298  1.00  0.00     0.004 C 
ENDBRANCH  30  31
ENDBRANCH  29  30
ENDBRANCH  28  29
ENDBRANCH  27  28
ENDBRANCH  26  27
ENDBRANCH  25  26
ENDBRANCH  24  25
ENDBRANCH  23  24
ENDBRANCH  22  23
ENDBRANCH  21  22
ENDBRANCH  20  21
ENDBRANCH  19  20
ENDBRANCH  18  19
ENDBRANCH   1  18
TORSDOF 28
ENDMDL
