MODEL 1
REMARK VINA RESULT:    -4.086      0.000      0.000
REMARK INTER + INTRA:          -8.111
REMARK INTER:                  -6.952
REMARK INTRA:                  -1.158
REMARK UNBOUND:                -1.158
REMARK SMILES CCCCCCCCCCCCCC(=O)[O-]
REMARK SMILES IDX 8 1 9 2 10 3 11 4 12 5 13 6 14 7 15 8 16 9 7 10 6 11 5 12
REMARK SMILES IDX 4 13 3 14 2 15 1 16
REMARK H PARENT
REMARK Flexibility Score: inf
ROOT
ATOM      1  C   UNL     1      51.205   2.827  20.998  1.00  0.00     0.000 C 
ENDROOT
BRANCH   1   2
ATOM      2  C   UNL     1      51.804   2.598  19.605  1.00  0.00     0.000 C 
BRANCH   2   3
ATOM      3  C   UNL     1      52.673   3.788  19.177  1.00  0.00     0.000 C 
BRANCH   3   4
ATOM      4  C   UNL     1      51.904   4.817  18.329  1.00  0.00     0.000 C 
BRANCH   4   5
ATOM      5  C   UNL     1      52.425   6.261  18.485  1.00  0.00     0.006 C 
BRANCH   5   6
ATOM      6  C   UNL     1      51.530   7.104  19.403  1.00  0.00     0.053 C 
BRANCH   6   7
ATOM      7  C   UNL     1      50.899   8.223  18.637  1.00  0.00     0.041 C 
ATOM      8  O   UNL     1      50.824   9.373  19.142  1.00  0.00    -0.550 OA
ATOM      9  O   UNL     1      50.439   8.007  17.345  1.00  0.00    -0.550 OA
ENDBRANCH   6   7
ENDBRANCH   5   6
ENDBRANCH   4   5
ENDBRANCH   3   4
ENDBRANCH   2   3
ENDBRANCH   1   2
BRANCH   1  10
ATOM     10  C   UNL     1      49.830   3.502  20.901  1.00  0.00     0.000 C 
BRANCH  10  11
ATOM     11  C   UNL     1      49.641   4.615  21.944  1.00  0.00    -0.000 C 
BRANCH  11  12
ATOM     12  C   UNL     1      48.386   5.464  21.684  1.00  0.00    -0.000 C 
BRANCH  12  13
ATOM     13  C   UNL     1      48.316   6.651  22.652  1.00  0.00    -0.000 C 
BRANCH  13  14
ATOM     14  C   UNL     1      49.444   7.655  22.373  1.00  0.00    -0.000 C 
BRANCH  14  15
ATOM     15  C   UNL     1      50.060   8.223  23.661  1.00  0.00    -0.003 C 
ATOM     16  C   UNL     1      50.398   7.139  24.683  1.00  0.00     0.004 C 
ENDBRANCH  14  15
ENDBRANCH  13  14
ENDBRANCH  12  13
ENDBRANCH  11  12
ENDBRANCH  10  11
ENDBRANCH   1  10
TORSDOF 12
ENDMDL
MODEL 2
REMARK VINA RESULT:    -4.025      4.691      6.374
REMARK INTER + INTRA:          -8.007
REMARK INTER:                  -6.520
REMARK INTRA:                  -1.487
REMARK UNBOUND:                -1.158
REMARK SMILES CCCCCCCCCCCCCC(=O)[O-]
REMARK SMILES IDX 8 1 9 2 10 3 11 4 12 5 13 6 14 7 15 8 16 9 7 10 6 11 5 12
REMARK SMILES IDX 4 13 3 14 2 15 1 16
REMARK H PARENT
REMARK Flexibility Score: inf
ROOT
ATOM      1  C   UNL     1      46.754   2.187  19.880  1.00  0.00     0.000 C 
ENDROOT
BRANCH   1   2
ATOM      2  C   UNL     1      47.210   0.943  20.652  1.00  0.00     0.000 C 
BRANCH   2   3
ATOM      3  C   UNL     1      48.734   0.936  20.834  1.00  0.00     0.000 C 
BRANCH   3   4
ATOM      4  C   UNL     1      49.196   1.762  22.047  1.00  0.00     0.000 C 
BRANCH   4   5
ATOM      5  C   UNL     1      50.385   2.697  21.742  1.00  0.00     0.006 C 
BRANCH   5   6
ATOM      6  C   UNL     1      50.312   3.286  20.327  1.00  0.00     0.053 C 
BRANCH   6   7
ATOM      7  C   UNL     1      51.575   3.006  19.577  1.00  0.00     0.041 C 
ATOM      8  O   UNL     1      52.192   1.924  19.756  1.00  0.00    -0.550 OA
ATOM      9  O   UNL     1      52.045   3.921  18.643  1.00  0.00    -0.550 OA
ENDBRANCH   6   7
ENDBRANCH   5   6
ENDBRANCH   4   5
ENDBRANCH   3   4
ENDBRANCH   2   3
ENDBRANCH   1   2
BRANCH   1  10
ATOM     10  C   UNL     1      45.884   3.093  20.763  1.00  0.00     0.000 C 
BRANCH  10  11
ATOM     11  C   UNL     1      44.464   3.279  20.205  1.00  0.00    -0.000 C 
BRANCH  11  12
ATOM     12  C   UNL     1      43.387   2.652  21.105  1.00  0.00    -0.000 C 
BRANCH  12  13
ATOM     13  C   UNL     1      43.414   1.122  21.010  1.00  0.00    -0.000 C 
BRANCH  13  14
ATOM     14  C   UNL     1      43.223   0.481  22.393  1.00  0.00    -0.000 C 
BRANCH  14  15
ATOM     15  C   UNL     1      44.518  -0.135  22.943  1.00  0.00    -0.003 C 
ATOM     16  C   UNL     1      45.331   0.850  23.784  1.00  0.00     0.004 C 
ENDBRANCH  14  15
ENDBRANCH  13  14
ENDBRANCH  12  13
ENDBRANCH  11  12
ENDBRANCH  10  11
ENDBRANCH   1  10
TORSDOF 12
ENDMDL
MODEL 3
REMARK VINA RESULT:    -4.013      1.330      4.539
REMARK INTER + INTRA:          -7.987
REMARK INTER:                  -6.953
REMARK INTRA:                  -1.033
REMARK UNBOUND:                -1.158
REMARK SMILES CCCCCCCCCCCCCC(=O)[O-]
REMARK SMILES IDX 8 1 9 2 10 3 11 4 12 5 13 6 14 7 15 8 16 9 7 10 6 11 5 12
REMARK SMILES IDX 4 13 3 14 2 15 1 16
REMARK H PARENT
REMARK Flexibility Score: inf
ROOT
ATOM      1  C   UNL     1      48.211   6.155  23.177  1.00  0.00     0.000 C 
ENDROOT
BRANCH   1   2
ATOM      2  C   UNL     1      49.631   6.714  23.028  1.00  0.00     0.000 C 
BRANCH   2   3
ATOM      3  C   UNL     1      49.605   8.147  22.481  1.00  0.00     0.000 C 
BRANCH   3   4
ATOM      4  C   UNL     1      49.334   8.205  20.967  1.00  0.00     0.000 C 
BRANCH   4   5
ATOM      5  C   UNL     1      50.394   7.468  20.120  1.00  0.00     0.006 C 
BRANCH   5   6
ATOM      6  C   UNL     1      51.109   8.407  19.141  1.00  0.00     0.053 C 
BRANCH   6   7
ATOM      7  C   UNL     1      50.122   9.070  18.234  1.00  0.00     0.041 C 
ATOM      8  O   UNL     1      49.474   8.389  17.397  1.00  0.00    -0.550 OA
ATOM      9  O   UNL     1      49.881  10.433  18.347  1.00  0.00    -0.550 OA
ENDBRANCH   6   7
ENDBRANCH   5   6
ENDBRANCH   4   5
ENDBRANCH   3   4
ENDBRANCH   2   3
ENDBRANCH   1   2
BRANCH   1  10
ATOM     10  C   UNL     1      48.092   4.773  22.519  1.00  0.00     0.000 C 
BRANCH  10  11
ATOM     11  C   UNL     1      49.235   4.486  21.532  1.00  0.00    -0.000 C 
BRANCH  11  12
ATOM     12  C   UNL     1      50.035   3.227  21.902  1.00  0.00    -0.000 C 
BRANCH  12  13
ATOM     13  C   UNL     1      50.440   2.445  20.647  1.00  0.00    -0.000 C 
BRANCH  13  14
ATOM     14  C   UNL     1      51.131   3.362  19.627  1.00  0.00    -0.000 C 
BRANCH  14  15
ATOM     15  C   UNL     1      52.522   2.852  19.220  1.00  0.00    -0.003 C 
ATOM     16  C   UNL     1      53.009   1.701  20.099  1.00  0.00     0.004 C 
ENDBRANCH  14  15
ENDBRANCH  13  14
ENDBRANCH  12  13
ENDBRANCH  11  12
ENDBRANCH  10  11
ENDBRANCH   1  10
TORSDOF 12
ENDMDL
MODEL 4
REMARK VINA RESULT:    -4.000      3.011      5.317
REMARK INTER + INTRA:          -7.964
REMARK INTER:                  -6.792
REMARK INTRA:                  -1.172
REMARK UNBOUND:                -1.158
REMARK SMILES CCCCCCCCCCCCCC(=O)[O-]
REMARK SMILES IDX 8 1 9 2 10 3 11 4 12 5 13 6 14 7 15 8 16 9 7 10 6 11 5 12
REMARK SMILES IDX 4 13 3 14 2 15 1 16
REMARK H PARENT
REMARK Flexibility Score: inf
ROOT
ATOM      1  C   UNL     1      48.238   6.742  21.578  1.00  0.00     0.000 C 
ENDROOT
BRANCH   1   2
ATOM      2  C   UNL     1      49.388   5.940  22.200  1.00  0.00     0.000 C 
BRANCH   2   3
ATOM      3  C   UNL     1      49.495   4.547  21.564  1.00  0.00     0.000 C 
BRANCH   3   4
ATOM      4  C   UNL     1      50.687   4.418  20.600  1.00  0.00     0.000 C 
BRANCH   4   5
ATOM      5  C   UNL     1      50.856   3.001  20.012  1.00  0.00     0.006 C 
BRANCH   5   6
ATOM      6  C   UNL     1      52.025   2.921  19.020  1.00  0.00     0.053 C 
BRANCH   6   7
ATOM      7  C   UNL     1      53.215   2.285  19.665  1.00  0.00     0.041 C 
ATOM      8  O   UNL     1      54.138   3.000  20.135  1.00  0.00    -0.550 OA
ATOM      9  O   UNL     1      53.283   0.904  19.789  1.00  0.00    -0.550 OA
ENDBRANCH   6   7
ENDBRANCH   5   6
ENDBRANCH   4   5
ENDBRANCH   3   4
ENDBRANCH   2   3
ENDBRANCH   1   2
BRANCH   1  10
ATOM     10  C   UNL     1      48.664   8.191  21.304  1.00  0.00     0.000 C 
BRANCH  10  11
ATOM     11  C   UNL     1      48.078   8.743  19.994  1.00  0.00    -0.000 C 
BRANCH  11  12
ATOM     12  C   UNL     1      48.766  10.039  19.538  1.00  0.00    -0.000 C 
BRANCH  12  13
ATOM     13  C   UNL     1      50.091   9.737  18.827  1.00  0.00    -0.000 C 
BRANCH  13  14
ATOM     14  C   UNL     1      49.897   8.682  17.728  1.00  0.00    -0.000 C 
BRANCH  14  15
ATOM     15  C   UNL     1      50.833   7.475  17.895  1.00  0.00    -0.003 C 
ATOM     16  C   UNL     1      51.629   7.521  19.198  1.00  0.00     0.004 C 
ENDBRANCH  14  15
ENDBRANCH  13  14
ENDBRANCH  12  13
ENDBRANCH  11  12
ENDBRANCH  10  11
ENDBRANCH   1  10
TORSDOF 12
ENDMDL
MODEL 5
REMARK VINA RESULT:    -3.950      4.156      7.031
REMARK INTER + INTRA:          -7.880
REMARK INTER:                  -6.925
REMARK INTRA:                  -0.955
REMARK UNBOUND:                -1.158
REMARK SMILES CCCCCCCCCCCCCC(=O)[O-]
REMARK SMILES IDX 8 1 9 2 10 3 11 4 12 5 13 6 14 7 15 8 16 9 7 10 6 11 5 12
REMARK SMILES IDX 4 13 3 14 2 15 1 16
REMARK H PARENT
REMARK Flexibility Score: inf
ROOT
ATOM      1  C   UNL     1      47.102  11.444  23.476  1.00  0.00     0.000 C 
ENDROOT
BRANCH   1   2
ATOM      2  C   UNL     1      45.867  11.310  22.578  1.00  0.00     0.000 C 
BRANCH   2   3
ATOM      3  C   UNL     1      46.033  12.125  21.288  1.00  0.00     0.000 C 
BRANCH   3   4
ATOM      4  C   UNL     1      47.377  11.867  20.585  1.00  0.00     0.000 C 
BRANCH   4   5
ATOM      5  C   UNL     1      47.913  13.087  19.807  1.00  0.00     0.006 C 
BRANCH   5   6
ATOM      6  C   UNL     1      48.944  12.690  18.743  1.00  0.00     0.053 C 
BRANCH   6   7
ATOM      7  C   UNL     1      49.631  13.902  18.200  1.00  0.00     0.041 C 
ATOM      8  O   UNL     1      49.868  13.998  16.967  1.00  0.00    -0.550 OA
ATOM      9  O   UNL     1      49.965  14.949  19.049  1.00  0.00    -0.550 OA
ENDBRANCH   6   7
ENDBRANCH   5   6
ENDBRANCH   4   5
ENDBRANCH   3   4
ENDBRANCH   2   3
ENDBRANCH   1   2
BRANCH   1  10
ATOM     10  C   UNL     1      47.373  10.137  24.236  1.00  0.00     0.000 C 
BRANCH  10  11
ATOM     11  C   UNL     1      48.806   9.621  24.034  1.00  0.00    -0.000 C 
BRANCH  11  12
ATOM     12  C   UNL     1      48.858   8.316  23.223  1.00  0.00    -0.000 C 
BRANCH  12  13
ATOM     13  C   UNL     1      48.778   8.602  21.718  1.00  0.00    -0.000 C 
BRANCH  13  14
ATOM     14  C   UNL     1      49.909   7.890  20.963  1.00  0.00    -0.000 C 
BRANCH  14  15
ATOM     15  C   UNL     1      50.407   8.692  19.751  1.00  0.00    -0.003 C 
ATOM     16  C   UNL     1      51.213   7.842  18.769  1.00  0.00     0.004 C 
ENDBRANCH  14  15
ENDBRANCH  13  14
ENDBRANCH  12  13
ENDBRANCH  11  12
ENDBRANCH  10  11
ENDBRANCH   1  10
TORSDOF 12
ENDMDL
MODEL 6
REMARK VINA RESULT:    -3.944      2.313      4.615
REMARK INTER + INTRA:          -7.869
REMARK INTER:                  -6.728
REMARK INTRA:                  -1.141
REMARK UNBOUND:                -1.158
REMARK SMILES CCCCCCCCCCCCCC(=O)[O-]
REMARK SMILES IDX 8 1 9 2 10 3 11 4 12 5 13 6 14 7 15 8 16 9 7 10 6 11 5 12
REMARK SMILES IDX 4 13 3 14 2 15 1 16
REMARK H PARENT
REMARK Flexibility Score: inf
ROOT
ATOM      1  C   UNL     1      49.300   4.113  22.107  1.00  0.00     0.000 C 
ENDROOT
BRANCH   1   2
ATOM      2  C   UNL     1      48.533   5.374  21.692  1.00  0.00     0.000 C 
BRANCH   2   3
ATOM      3  C   UNL     1      49.471   6.586  21.603  1.00  0.00     0.000 C 
BRANCH   3   4
ATOM      4  C   UNL     1      48.859   7.761  20.822  1.00  0.00     0.000 C 
BRANCH   4   5
ATOM      5  C   UNL     1      49.859   8.465  19.879  1.00  0.00     0.006 C 
BRANCH   5   6
ATOM      6  C   UNL     1      51.197   7.720  19.794  1.00  0.00     0.053 C 
BRANCH   6   7
ATOM      7  C   UNL     1      51.399   7.161  18.421  1.00  0.00     0.041 C 
ATOM      8  O   UNL     1      50.740   7.614  17.449  1.00  0.00    -0.550 OA
ATOM      9  O   UNL     1      52.352   6.174  18.207  1.00  0.00    -0.550 OA
ENDBRANCH   6   7
ENDBRANCH   5   6
ENDBRANCH   4   5
ENDBRANCH   3   4
ENDBRANCH   2   3
ENDBRANCH   1   2
BRANCH   1  10
ATOM     10  C   UNL     1      50.252   3.657  20.991  1.00  0.00     0.000 C 
BRANCH  10  11
ATOM     11  C   UNL     1      50.025   2.193  20.580  1.00  0.00    -0.000 C 
BRANCH  11  12
ATOM     12  C   UNL     1      48.819   1.559  21.291  1.00  0.00    -0.000 C 
BRANCH  12  13
ATOM     13  C   UNL     1      47.774   1.077  20.277  1.00  0.00    -0.000 C 
BRANCH  13  14
ATOM     14  C   UNL     1      46.366   1.540  20.677  1.00  0.00    -0.000 C 
BRANCH  14  15
ATOM     15  C   UNL     1      46.080   2.990  20.258  1.00  0.00    -0.003 C 
ATOM     16  C   UNL     1      44.585   3.296  20.169  1.00  0.00     0.004 C 
ENDBRANCH  14  15
ENDBRANCH  13  14
ENDBRANCH  12  13
ENDBRANCH  11  12
ENDBRANCH  10  11
ENDBRANCH   1  10
TORSDOF 12
ENDMDL
MODEL 7
REMARK VINA RESULT:    -3.939      3.047      5.548
REMARK INTER + INTRA:          -7.861
REMARK INTER:                  -5.960
REMARK INTRA:                  -1.901
REMARK UNBOUND:                -1.158
REMARK SMILES CCCCCCCCCCCCCC(=O)[O-]
REMARK SMILES IDX 8 1 9 2 10 3 11 4 12 5 13 6 14 7 15 8 16 9 7 10 6 11 5 12
REMARK SMILES IDX 4 13 3 14 2 15 1 16
REMARK H PARENT
REMARK Flexibility Score: inf
ROOT
ATOM      1  C   UNL     1      47.363   4.841  21.318  1.00  0.00     0.000 C 
ENDROOT
BRANCH   1   2
ATOM      2  C   UNL     1      47.946   4.829  22.736  1.00  0.00     0.000 C 
BRANCH   2   3
ATOM      3  C   UNL     1      49.421   4.403  22.722  1.00  0.00     0.000 C 
BRANCH   3   4
ATOM      4  C   UNL     1      49.952   4.131  21.304  1.00  0.00     0.000 C 
BRANCH   4   5
ATOM      5  C   UNL     1      50.886   2.905  21.219  1.00  0.00     0.006 C 
BRANCH   5   6
ATOM      6  C   UNL     1      51.233   2.540  19.769  1.00  0.00     0.053 C 
BRANCH   6   7
ATOM      7  C   UNL     1      52.317   3.429  19.250  1.00  0.00     0.041 C 
ATOM      8  O   UNL     1      53.518   3.208  19.554  1.00  0.00    -0.550 OA
ATOM      9  O   UNL     1      52.006   4.475  18.390  1.00  0.00    -0.550 OA
ENDBRANCH   6   7
ENDBRANCH   5   6
ENDBRANCH   4   5
ENDBRANCH   3   4
ENDBRANCH   2   3
ENDBRANCH   1   2
BRANCH   1  10
ATOM     10  C   UNL     1      45.936   4.275  21.306  1.00  0.00     0.000 C 
BRANCH  10  11
ATOM     11  C   UNL     1      45.904   2.753  21.091  1.00  0.00    -0.000 C 
BRANCH  11  12
ATOM     12  C   UNL     1      46.813   2.299  19.938  1.00  0.00    -0.000 C 
BRANCH  12  13
ATOM     13  C   UNL     1      47.791   1.214  20.405  1.00  0.00    -0.000 C 
BRANCH  13  14
ATOM     14  C   UNL     1      47.627   0.936  21.906  1.00  0.00    -0.000 C 
BRANCH  14  15
ATOM     15  C   UNL     1      48.200  -0.429  22.320  1.00  0.00    -0.003 C 
ATOM     16  C   UNL     1      49.721  -0.497  22.183  1.00  0.00     0.004 C 
ENDBRANCH  14  15
ENDBRANCH  13  14
ENDBRANCH  12  13
ENDBRANCH  11  12
ENDBRANCH  10  11
ENDBRANCH   1  10
TORSDOF 12
ENDMDL
MODEL 8
REMARK VINA RESULT:    -3.921      2.887      4.657
REMARK INTER + INTRA:          -7.830
REMARK INTER:                  -6.164
REMARK INTRA:                  -1.666
REMARK UNBOUND:                -1.158
REMARK SMILES CCCCCCCCCCCCCC(=O)[O-]
REMARK SMILES IDX 8 1 9 2 10 3 11 4 12 5 13 6 14 7 15 8 16 9 7 10 6 11 5 12
REMARK SMILES IDX 4 13 3 14 2 15 1 16
REMARK H PARENT
REMARK Flexibility Score: inf
ROOT
ATOM      1  C   UNL     1      49.093   4.607  24.934  1.00  0.00     0.000 C 
ENDROOT
BRANCH   1   2
ATOM      2  C   UNL     1      50.010   4.267  23.752  1.00  0.00     0.000 C 
BRANCH   2   3
ATOM      3  C   UNL     1      49.200   3.737  22.561  1.00  0.00     0.000 C 
BRANCH   3   4
ATOM      4  C   UNL     1      49.966   3.825  21.229  1.00  0.00     0.000 C 
BRANCH   4   5
ATOM      5  C   UNL     1      50.639   2.499  20.814  1.00  0.00     0.006 C 
BRANCH   5   6
ATOM      6  C   UNL     1      52.129   2.467  21.176  1.00  0.00     0.053 C 
BRANCH   6   7
ATOM      7  C   UNL     1      52.966   2.790  19.979  1.00  0.00     0.041 C 
ATOM      8  O   UNL     1      52.425   2.966  18.856  1.00  0.00    -0.550 OA
ATOM      9  O   UNL     1      54.340   2.945  20.113  1.00  0.00    -0.550 OA
ENDBRANCH   6   7
ENDBRANCH   5   6
ENDBRANCH   4   5
ENDBRANCH   3   4
ENDBRANCH   2   3
ENDBRANCH   1   2
BRANCH   1  10
ATOM     10  C   UNL     1      49.179   6.100  25.284  1.00  0.00     0.000 C 
BRANCH  10  11
ATOM     11  C   UNL     1      50.472   6.755  24.772  1.00  0.00    -0.000 C 
BRANCH  11  12
ATOM     12  C   UNL     1      50.326   8.272  24.568  1.00  0.00    -0.000 C 
BRANCH  12  13
ATOM     13  C   UNL     1      49.329   8.582  23.446  1.00  0.00    -0.000 C 
BRANCH  13  14
ATOM     14  C   UNL     1      49.776   7.946  22.122  1.00  0.00    -0.000 C 
BRANCH  14  15
ATOM     15  C   UNL     1      48.629   7.229  21.393  1.00  0.00    -0.003 C 
ATOM     16  C   UNL     1      47.371   7.101  22.252  1.00  0.00     0.004 C 
ENDBRANCH  14  15
ENDBRANCH  13  14
ENDBRANCH  12  13
ENDBRANCH  11  12
ENDBRANCH  10  11
ENDBRANCH   1  10
TORSDOF 12
ENDMDL
MODEL 9
REMARK VINA RESULT:    -3.881      5.966      7.877
REMARK INTER + INTRA:          -7.762
REMARK INTER:                  -5.797
REMARK INTRA:                  -1.966
REMARK UNBOUND:                -1.158
REMARK SMILES CCCCCCCCCCCCCC(=O)[O-]
REMARK SMILES IDX 8 1 9 2 10 3 11 4 12 5 13 6 14 7 15 8 16 9 7 10 6 11 5 12
REMARK SMILES IDX 4 13 3 14 2 15 1 16
REMARK H PARENT
REMARK Flexibility Score: inf
ROOT
ATOM      1  C   UNL     1      44.362   0.008  22.744  1.00  0.00     0.000 C 
ENDROOT
BRANCH   1   2
ATOM      2  C   UNL     1      45.380   0.945  23.405  1.00  0.00     0.000 C 
BRANCH   2   3
ATOM      3  C   UNL     1      46.727   0.239  23.610  1.00  0.00     0.000 C 
BRANCH   3   4
ATOM      4  C   UNL     1      47.027  -0.806  22.521  1.00  0.00     0.000 C 
BRANCH   4   5
ATOM      5  C   UNL     1      48.497  -0.802  22.049  1.00  0.00     0.006 C 
BRANCH   5   6
ATOM      6  C   UNL     1      49.240   0.471  22.476  1.00  0.00     0.053 C 
BRANCH   6   7
ATOM      7  C   UNL     1      50.462   0.125  23.266  1.00  0.00     0.041 C 
ATOM      8  O   UNL     1      51.518   0.793  23.124  1.00  0.00    -0.550 OA
ATOM      9  O   UNL     1      50.418  -0.907  24.195  1.00  0.00    -0.550 OA
ENDBRANCH   6   7
ENDBRANCH   5   6
ENDBRANCH   4   5
ENDBRANCH   3   4
ENDBRANCH   2   3
ENDBRANCH   1   2
BRANCH   1  10
ATOM     10  C   UNL     1      43.517   0.760  21.705  1.00  0.00     0.000 C 
BRANCH  10  11
ATOM     11  C   UNL     1      43.522   2.281  21.926  1.00  0.00    -0.000 C 
BRANCH  11  12
ATOM     12  C   UNL     1      43.312   3.070  20.624  1.00  0.00    -0.000 C 
BRANCH  12  13
ATOM     13  C   UNL     1      44.646   3.314  19.909  1.00  0.00    -0.000 C 
BRANCH  13  14
ATOM     14  C   UNL     1      45.720   3.793  20.897  1.00  0.00    -0.000 C 
BRANCH  14  15
ATOM     15  C   UNL     1      47.028   2.996  20.780  1.00  0.00    -0.003 C 
ATOM     16  C   UNL     1      46.914   1.810  19.824  1.00  0.00     0.004 C 
ENDBRANCH  14  15
ENDBRANCH  13  14
ENDBRANCH  12  13
ENDBRANCH  11  12
ENDBRANCH  10  11
ENDBRANCH   1  10
TORSDOF 12
ENDMDL
