MODEL 1
REMARK VINA RESULT:    -4.456      0.000      0.000
REMARK INTER + INTRA:          -8.934
REMARK INTER:                  -7.843
REMARK INTRA:                  -1.091
REMARK UNBOUND:                -1.091
REMARK SMILES CCCCCCC=CCCCCCCCC(=O)[O-]
REMARK SMILES IDX 10 1 11 2 12 3 13 4 14 5 15 6 16 7 17 8 18 9 9 10 8 11 7 12
REMARK SMILES IDX 6 13 5 14 4 15 3 16 2 17 1 18
REMARK H PARENT
REMARK Flexibility Score: inf
ROOT
ATOM      1  C   UNL     1      44.184  26.860   2.879  1.00  0.00     0.004 C 
ENDROOT
BRANCH   1   2
ATOM      2  C   UNL     1      44.869  25.996   3.949  1.00  0.00     0.000 C 
BRANCH   2   3
ATOM      3  C   UNL     1      46.399  25.997   3.821  1.00  0.00     0.000 C 
BRANCH   3   4
ATOM      4  C   UNL     1      47.058  26.512   5.108  1.00  0.00     0.000 C 
BRANCH   4   5
ATOM      5  C   UNL     1      46.038  26.921   6.187  1.00  0.00     0.006 C 
BRANCH   5   6
ATOM      6  C   UNL     1      46.552  26.758   7.628  1.00  0.00     0.053 C 
BRANCH   6   7
ATOM      7  C   UNL     1      45.549  27.189   8.654  1.00  0.00     0.041 C 
ATOM      8  O   UNL     1      45.049  28.344   8.609  1.00  0.00    -0.550 OA
ATOM      9  O   UNL     1      45.139  26.302   9.642  1.00  0.00    -0.550 OA
ENDBRANCH   6   7
ENDBRANCH   5   6
ENDBRANCH   4   5
ENDBRANCH   3   4
ENDBRANCH   2   3
ENDBRANCH   1   2
BRANCH   1  10
ATOM     10  C   UNL     1      44.643  28.327   2.918  1.00  0.00     0.027 C 
BRANCH  10  11
ATOM     11  C   UNL     1      45.239  28.740   1.601  1.00  0.00    -0.031 C 
ATOM     12  C   UNL     1      45.450  27.852   0.617  1.00  0.00    -0.031 C 
BRANCH  12  13
ATOM     13  C   UNL     1      46.029  28.265  -0.708  1.00  0.00     0.027 C 
BRANCH  13  14
ATOM     14  C   UNL     1      45.181  29.338  -1.417  1.00  0.00     0.004 C 
BRANCH  14  15
ATOM     15  C   UNL     1      44.624  28.907  -2.786  1.00  0.00     0.000 C 
BRANCH  15  16
ATOM     16  C   UNL     1      44.704  27.387  -3.010  1.00  0.00    -0.000 C 
BRANCH  16  17
ATOM     17  C   UNL     1      43.443  26.826  -3.687  1.00  0.00    -0.003 C 
ATOM     18  C   UNL     1      42.607  27.907  -4.372  1.00  0.00     0.004 C 
ENDBRANCH  16  17
ENDBRANCH  15  16
ENDBRANCH  14  15
ENDBRANCH  13  14
ENDBRANCH  12  13
ENDBRANCH  10  11
ENDBRANCH   1  10
TORSDOF 13
ENDMDL
MODEL 2
REMARK VINA RESULT:    -4.351      4.733      9.717
REMARK INTER + INTRA:          -8.748
REMARK INTER:                  -8.060
REMARK INTRA:                  -0.688
REMARK UNBOUND:                -1.091
REMARK SMILES CCCCCCC=CCCCCCCCC(=O)[O-]
REMARK SMILES IDX 10 1 11 2 12 3 13 4 14 5 15 6 16 7 17 8 18 9 9 10 8 11 7 12
REMARK SMILES IDX 6 13 5 14 4 15 3 16 2 17 1 18
REMARK H PARENT
REMARK Flexibility Score: inf
ROOT
ATOM      1  C   UNL     1      44.878  28.308   2.091  1.00  0.00     0.004 C 
ENDROOT
BRANCH   1   2
ATOM      2  C   UNL     1      45.664  27.838   0.857  1.00  0.00     0.000 C 
BRANCH   2   3
ATOM      3  C   UNL     1      45.424  28.728  -0.371  1.00  0.00     0.000 C 
BRANCH   3   4
ATOM      4  C   UNL     1      45.697  27.958  -1.671  1.00  0.00     0.000 C 
BRANCH   4   5
ATOM      5  C   UNL     1      44.787  28.395  -2.834  1.00  0.00     0.006 C 
BRANCH   5   6
ATOM      6  C   UNL     1      44.021  27.237  -3.498  1.00  0.00     0.053 C 
BRANCH   6   7
ATOM      7  C   UNL     1      43.011  27.709  -4.500  1.00  0.00     0.041 C 
ATOM      8  O   UNL     1      41.876  28.101  -4.122  1.00  0.00    -0.550 OA
ATOM      9  O   UNL     1      43.336  27.748  -5.850  1.00  0.00    -0.550 OA
ENDBRANCH   6   7
ENDBRANCH   5   6
ENDBRANCH   4   5
ENDBRANCH   3   4
ENDBRANCH   2   3
ENDBRANCH   1   2
BRANCH   1  10
ATOM     10  C   UNL     1      44.057  27.180   2.736  1.00  0.00     0.027 C 
BRANCH  10  11
ATOM     11  C   UNL     1      44.864  26.453   3.776  1.00  0.00    -0.031 C 
ATOM     12  C   UNL     1      45.719  27.102   4.580  1.00  0.00    -0.031 C 
BRANCH  12  13
ATOM     13  C   UNL     1      46.515  26.380   5.633  1.00  0.00     0.027 C 
BRANCH  13  14
ATOM     14  C   UNL     1      46.355  27.009   7.030  1.00  0.00     0.004 C 
BRANCH  14  15
ATOM     15  C   UNL     1      45.672  28.389   7.033  1.00  0.00     0.000 C 
BRANCH  15  16
ATOM     16  C   UNL     1      45.213  28.823   8.436  1.00  0.00    -0.000 C 
BRANCH  16  17
ATOM     17  C   UNL     1      45.142  27.646   9.421  1.00  0.00    -0.003 C 
ATOM     18  C   UNL     1      46.036  27.844  10.646  1.00  0.00     0.004 C 
ENDBRANCH  16  17
ENDBRANCH  15  16
ENDBRANCH  14  15
ENDBRANCH  13  14
ENDBRANCH  12  13
ENDBRANCH  10  11
ENDBRANCH   1  10
TORSDOF 13
ENDMDL
MODEL 3
REMARK VINA RESULT:    -4.188      4.126      8.990
REMARK INTER + INTRA:          -8.461
REMARK INTER:                  -7.421
REMARK INTRA:                  -1.041
REMARK UNBOUND:                -1.091
REMARK SMILES CCCCCCC=CCCCCCCCC(=O)[O-]
REMARK SMILES IDX 10 1 11 2 12 3 13 4 14 5 15 6 16 7 17 8 18 9 9 10 8 11 7 12
REMARK SMILES IDX 6 13 5 14 4 15 3 16 2 17 1 18
REMARK H PARENT
REMARK Flexibility Score: inf
ROOT
ATOM      1  C   UNL     1      44.151  27.187   2.629  1.00  0.00     0.004 C 
ENDROOT
BRANCH   1   2
ATOM      2  C   UNL     1      44.352  28.682   2.926  1.00  0.00     0.000 C 
BRANCH   2   3
ATOM      3  C   UNL     1      45.141  29.404   1.825  1.00  0.00     0.000 C 
BRANCH   3   4
ATOM      4  C   UNL     1      45.690  28.405   0.797  1.00  0.00     0.000 C 
BRANCH   4   5
ATOM      5  C   UNL     1      46.093  29.068  -0.534  1.00  0.00     0.006 C 
BRANCH   5   6
ATOM      6  C   UNL     1      45.190  28.687  -1.721  1.00  0.00     0.053 C 
BRANCH   6   7
ATOM      7  C   UNL     1      45.786  27.614  -2.581  1.00  0.00     0.041 C 
ATOM      8  O   UNL     1      45.184  27.219  -3.614  1.00  0.00    -0.550 OA
ATOM      9  O   UNL     1      47.024  27.071  -2.258  1.00  0.00    -0.550 OA
ENDBRANCH   6   7
ENDBRANCH   5   6
ENDBRANCH   4   5
ENDBRANCH   3   4
ENDBRANCH   2   3
ENDBRANCH   1   2
BRANCH   1  10
ATOM     10  C   UNL     1      44.882  26.280   3.631  1.00  0.00     0.027 C 
BRANCH  10  11
ATOM     11  C   UNL     1      45.507  27.090   4.734  1.00  0.00    -0.031 C 
ATOM     12  C   UNL     1      46.390  26.550   5.587  1.00  0.00    -0.031 C 
BRANCH  12  13
ATOM     13  C   UNL     1      47.030  27.361   6.680  1.00  0.00     0.027 C 
BRANCH  13  14
ATOM     14  C   UNL     1      46.542  28.822   6.696  1.00  0.00     0.004 C 
BRANCH  14  15
ATOM     15  C   UNL     1      45.521  29.141   7.804  1.00  0.00     0.000 C 
BRANCH  15  16
ATOM     16  C   UNL     1      45.226  27.932   8.707  1.00  0.00    -0.000 C 
BRANCH  16  17
ATOM     17  C   UNL     1      45.017  28.333  10.176  1.00  0.00    -0.003 C 
ATOM     18  C   UNL     1      44.379  29.715  10.328  1.00  0.00     0.004 C 
ENDBRANCH  16  17
ENDBRANCH  15  16
ENDBRANCH  14  15
ENDBRANCH  13  14
ENDBRANCH  12  13
ENDBRANCH  10  11
ENDBRANCH   1  10
TORSDOF 13
ENDMDL
MODEL 4
REMARK VINA RESULT:    -4.068      4.420      9.431
REMARK INTER + INTRA:          -8.251
REMARK INTER:                  -7.481
REMARK INTRA:                  -0.769
REMARK UNBOUND:                -1.091
REMARK SMILES CCCCCCC=CCCCCCCCC(=O)[O-]
REMARK SMILES IDX 10 1 11 2 12 3 13 4 14 5 15 6 16 7 17 8 18 9 9 10 8 11 7 12
REMARK SMILES IDX 6 13 5 14 4 15 3 16 2 17 1 18
REMARK H PARENT
REMARK Flexibility Score: inf
ROOT
ATOM      1  C   UNL     1      45.590  28.002  -0.939  1.00  0.00     0.004 C 
ENDROOT
BRANCH   1   2
ATOM      2  C   UNL     1      46.669  28.338  -1.980  1.00  0.00     0.000 C 
BRANCH   2   3
ATOM      3  C   UNL     1      46.772  27.280  -3.089  1.00  0.00     0.000 C 
BRANCH   3   4
ATOM      4  C   UNL     1      46.528  27.905  -4.470  1.00  0.00     0.000 C 
BRANCH   4   5
ATOM      5  C   UNL     1      45.208  28.695  -4.549  1.00  0.00     0.006 C 
BRANCH   5   6
ATOM      6  C   UNL     1      44.058  27.925  -5.224  1.00  0.00     0.053 C 
BRANCH   6   7
ATOM      7  C   UNL     1      43.057  27.400  -4.241  1.00  0.00     0.041 C 
ATOM      8  O   UNL     1      43.338  26.411  -3.514  1.00  0.00    -0.550 OA
ATOM      9  O   UNL     1      41.823  28.023  -4.104  1.00  0.00    -0.550 OA
ENDBRANCH   6   7
ENDBRANCH   5   6
ENDBRANCH   4   5
ENDBRANCH   3   4
ENDBRANCH   2   3
ENDBRANCH   1   2
BRANCH   1  10
ATOM     10  C   UNL     1      45.846  28.673   0.419  1.00  0.00     0.027 C 
BRANCH  10  11
ATOM     11  C   UNL     1      45.710  27.683   1.543  1.00  0.00    -0.031 C 
ATOM     12  C   UNL     1      44.616  27.649   2.319  1.00  0.00    -0.031 C 
BRANCH  12  13
ATOM     13  C   UNL     1      44.469  26.649   3.433  1.00  0.00     0.027 C 
BRANCH  13  14
ATOM     14  C   UNL     1      45.773  26.452   4.229  1.00  0.00     0.004 C 
BRANCH  14  15
ATOM     15  C   UNL     1      45.993  27.481   5.354  1.00  0.00     0.000 C 
BRANCH  15  16
ATOM     16  C   UNL     1      45.948  26.850   6.755  1.00  0.00    -0.000 C 
BRANCH  16  17
ATOM     17  C   UNL     1      45.567  27.865   7.845  1.00  0.00    -0.003 C 
ATOM     18  C   UNL     1      45.417  27.224   9.225  1.00  0.00     0.004 C 
ENDBRANCH  16  17
ENDBRANCH  15  16
ENDBRANCH  14  15
ENDBRANCH  13  14
ENDBRANCH  12  13
ENDBRANCH  10  11
ENDBRANCH   1  10
TORSDOF 13
ENDMDL
MODEL 5
REMARK VINA RESULT:    -4.011      4.761      9.215
REMARK INTER + INTRA:          -8.150
REMARK INTER:                  -6.976
REMARK INTRA:                  -1.174
REMARK UNBOUND:                -1.091
REMARK SMILES CCCCCCC=CCCCCCCCC(=O)[O-]
REMARK SMILES IDX 10 1 11 2 12 3 13 4 14 5 15 6 16 7 17 8 18 9 9 10 8 11 7 12
REMARK SMILES IDX 6 13 5 14 4 15 3 16 2 17 1 18
REMARK H PARENT
REMARK Flexibility Score: inf
ROOT
ATOM      1  C   UNL     1      45.685  28.111  -0.233  1.00  0.00     0.004 C 
ENDROOT
BRANCH   1   2
ATOM      2  C   UNL     1      45.991  29.327  -1.121  1.00  0.00     0.000 C 
BRANCH   2   3
ATOM      3  C   UNL     1      44.829  29.683  -2.059  1.00  0.00     0.000 C 
BRANCH   3   4
ATOM      4  C   UNL     1      45.167  29.326  -3.514  1.00  0.00     0.000 C 
BRANCH   4   5
ATOM      5  C   UNL     1      45.264  27.807  -3.755  1.00  0.00     0.006 C 
BRANCH   5   6
ATOM      6  C   UNL     1      43.905  27.084  -3.747  1.00  0.00     0.053 C 
BRANCH   6   7
ATOM      7  C   UNL     1      42.904  27.723  -4.661  1.00  0.00     0.041 C 
ATOM      8  O   UNL     1      41.801  28.132  -4.211  1.00  0.00    -0.550 OA
ATOM      9  O   UNL     1      43.202  27.895  -6.008  1.00  0.00    -0.550 OA
ENDBRANCH   6   7
ENDBRANCH   5   6
ENDBRANCH   4   5
ENDBRANCH   3   4
ENDBRANCH   2   3
ENDBRANCH   1   2
BRANCH   1  10
ATOM     10  C   UNL     1      45.192  28.509   1.167  1.00  0.00     0.027 C 
BRANCH  10  11
ATOM     11  C   UNL     1      45.533  27.450   2.179  1.00  0.00    -0.031 C 
ATOM     12  C   UNL     1      44.619  26.984   3.043  1.00  0.00    -0.031 C 
BRANCH  12  13
ATOM     13  C   UNL     1      44.952  25.912   4.045  1.00  0.00     0.027 C 
BRANCH  13  14
ATOM     14  C   UNL     1      46.469  25.711   4.214  1.00  0.00     0.004 C 
BRANCH  14  15
ATOM     15  C   UNL     1      47.054  26.327   5.499  1.00  0.00     0.000 C 
BRANCH  15  16
ATOM     16  C   UNL     1      45.970  26.871   6.445  1.00  0.00    -0.000 C 
BRANCH  16  17
ATOM     17  C   UNL     1      46.179  28.354   6.788  1.00  0.00    -0.003 C 
ATOM     18  C   UNL     1      45.842  29.285   5.623  1.00  0.00     0.004 C 
ENDBRANCH  16  17
ENDBRANCH  15  16
ENDBRANCH  14  15
ENDBRANCH  13  14
ENDBRANCH  12  13
ENDBRANCH  10  11
ENDBRANCH   1  10
TORSDOF 13
ENDMDL
MODEL 6
REMARK VINA RESULT:    -3.951      2.382      4.821
REMARK INTER + INTRA:          -8.046
REMARK INTER:                  -6.665
REMARK INTRA:                  -1.381
REMARK UNBOUND:                -1.091
REMARK SMILES CCCCCCC=CCCCCCCCC(=O)[O-]
REMARK SMILES IDX 10 1 11 2 12 3 13 4 14 5 15 6 16 7 17 8 18 9 9 10 8 11 7 12
REMARK SMILES IDX 6 13 5 14 4 15 3 16 2 17 1 18
REMARK H PARENT
REMARK Flexibility Score: inf
ROOT
ATOM      1  C   UNL     1      45.411  27.825  -1.791  1.00  0.00     0.004 C 
ENDROOT
BRANCH   1   2
ATOM      2  C   UNL     1      45.457  29.056  -0.872  1.00  0.00     0.000 C 
BRANCH   2   3
ATOM      3  C   UNL     1      46.524  28.935   0.226  1.00  0.00     0.000 C 
BRANCH   3   4
ATOM      4  C   UNL     1      46.152  27.840   1.236  1.00  0.00     0.000 C 
BRANCH   4   5
ATOM      5  C   UNL     1      45.071  28.287   2.239  1.00  0.00     0.006 C 
BRANCH   5   6
ATOM      6  C   UNL     1      44.304  27.122   2.893  1.00  0.00     0.053 C 
BRANCH   6   7
ATOM      7  C   UNL     1      45.100  26.432   3.958  1.00  0.00     0.041 C 
ATOM      8  O   UNL     1      45.294  25.189   3.902  1.00  0.00    -0.550 OA
ATOM      9  O   UNL     1      45.655  27.167   4.998  1.00  0.00    -0.550 OA
ENDBRANCH   6   7
ENDBRANCH   5   6
ENDBRANCH   4   5
ENDBRANCH   3   4
ENDBRANCH   2   3
ENDBRANCH   1   2
BRANCH   1  10
ATOM     10  C   UNL     1      46.745  27.571  -2.509  1.00  0.00     0.027 C 
BRANCH  10  11
ATOM     11  C   UNL     1      46.523  27.252  -3.962  1.00  0.00    -0.031 C 
ATOM     12  C   UNL     1      46.063  28.175  -4.820  1.00  0.00    -0.031 C 
BRANCH  12  13
ATOM     13  C   UNL     1      45.856  27.864  -6.278  1.00  0.00     0.027 C 
BRANCH  13  14
ATOM     14  C   UNL     1      44.368  27.703  -6.643  1.00  0.00     0.004 C 
BRANCH  14  15
ATOM     15  C   UNL     1      43.517  28.967  -6.417  1.00  0.00     0.000 C 
BRANCH  15  16
ATOM     16  C   UNL     1      42.244  28.688  -5.600  1.00  0.00    -0.000 C 
BRANCH  16  17
ATOM     17  C   UNL     1      42.536  28.505  -4.102  1.00  0.00    -0.003 C 
ATOM     18  C   UNL     1      42.903  29.815  -3.405  1.00  0.00     0.004 C 
ENDBRANCH  16  17
ENDBRANCH  15  16
ENDBRANCH  14  15
ENDBRANCH  13  14
ENDBRANCH  12  13
ENDBRANCH  10  11
ENDBRANCH   1  10
TORSDOF 13
ENDMDL
MODEL 7
REMARK VINA RESULT:    -3.929      5.004      9.482
REMARK INTER + INTRA:          -8.006
REMARK INTER:                  -6.740
REMARK INTRA:                  -1.266
REMARK UNBOUND:                -1.091
REMARK SMILES CCCCCCC=CCCCCCCCC(=O)[O-]
REMARK SMILES IDX 10 1 11 2 12 3 13 4 14 5 15 6 16 7 17 8 18 9 9 10 8 11 7 12
REMARK SMILES IDX 6 13 5 14 4 15 3 16 2 17 1 18
REMARK H PARENT
REMARK Flexibility Score: inf
ROOT
ATOM      1  C   UNL     1      45.183  27.520  -3.119  1.00  0.00     0.004 C 
ENDROOT
BRANCH   1   2
ATOM      2  C   UNL     1      46.525  27.689  -3.849  1.00  0.00     0.000 C 
BRANCH   2   3
ATOM      3  C   UNL     1      46.354  28.162  -5.300  1.00  0.00     0.000 C 
BRANCH   3   4
ATOM      4  C   UNL     1      45.133  27.501  -5.954  1.00  0.00     0.000 C 
BRANCH   4   5
ATOM      5  C   UNL     1      44.217  28.507  -6.677  1.00  0.00     0.006 C 
BRANCH   5   6
ATOM      6  C   UNL     1      43.519  29.505  -5.736  1.00  0.00     0.053 C 
BRANCH   6   7
ATOM      7  C   UNL     1      42.125  29.086  -5.378  1.00  0.00     0.041 C 
ATOM      8  O   UNL     1      41.140  29.548  -6.011  1.00  0.00    -0.550 OA
ATOM      9  O   UNL     1      41.917  28.157  -4.365  1.00  0.00    -0.550 OA
ENDBRANCH   6   7
ENDBRANCH   5   6
ENDBRANCH   4   5
ENDBRANCH   3   4
ENDBRANCH   2   3
ENDBRANCH   1   2
BRANCH   1  10
ATOM     10  C   UNL     1      44.797  28.759  -2.295  1.00  0.00     0.027 C 
BRANCH  10  11
ATOM     11  C   UNL     1      45.663  28.883  -1.072  1.00  0.00    -0.031 C 
ATOM     12  C   UNL     1      45.559  28.024  -0.048  1.00  0.00    -0.031 C 
BRANCH  12  13
ATOM     13  C   UNL     1      46.437  28.135   1.169  1.00  0.00     0.027 C 
BRANCH  13  14
ATOM     14  C   UNL     1      45.724  28.814   2.354  1.00  0.00     0.004 C 
BRANCH  14  15
ATOM     15  C   UNL     1      44.338  28.228   2.684  1.00  0.00     0.000 C 
BRANCH  15  16
ATOM     16  C   UNL     1      44.401  26.748   3.099  1.00  0.00    -0.000 C 
BRANCH  16  17
ATOM     17  C   UNL     1      45.307  26.518   4.318  1.00  0.00    -0.003 C 
ATOM     18  C   UNL     1      46.520  25.644   3.999  1.00  0.00     0.004 C 
ENDBRANCH  16  17
ENDBRANCH  15  16
ENDBRANCH  14  15
ENDBRANCH  13  14
ENDBRANCH  12  13
ENDBRANCH  10  11
ENDBRANCH   1  10
TORSDOF 13
ENDMDL
MODEL 8
REMARK VINA RESULT:    -3.672      5.191      9.758
REMARK INTER + INTRA:          -7.554
REMARK INTER:                  -6.334
REMARK INTRA:                  -1.220
REMARK UNBOUND:                -1.091
REMARK SMILES CCCCCCC=CCCCCCCCC(=O)[O-]
REMARK SMILES IDX 10 1 11 2 12 3 13 4 14 5 15 6 16 7 17 8 18 9 9 10 8 11 7 12
REMARK SMILES IDX 6 13 5 14 4 15 3 16 2 17 1 18
REMARK H PARENT
REMARK Flexibility Score: inf
ROOT
ATOM      1  C   UNL     1      44.434  26.988  -3.036  1.00  0.00     0.004 C 
ENDROOT
BRANCH   1   2
ATOM      2  C   UNL     1      43.260  26.963  -4.027  1.00  0.00     0.000 C 
BRANCH   2   3
ATOM      3  C   UNL     1      42.516  28.305  -4.098  1.00  0.00     0.000 C 
BRANCH   3   4
ATOM      4  C   UNL     1      42.415  28.801  -5.547  1.00  0.00     0.000 C 
BRANCH   4   5
ATOM      5  C   UNL     1      43.456  29.885  -5.888  1.00  0.00     0.006 C 
BRANCH   5   6
ATOM      6  C   UNL     1      44.478  29.456  -6.956  1.00  0.00     0.053 C 
BRANCH   6   7
ATOM      7  C   UNL     1      45.548  28.561  -6.408  1.00  0.00     0.041 C 
ATOM      8  O   UNL     1      45.544  27.330  -6.671  1.00  0.00    -0.550 OA
ATOM      9  O   UNL     1      46.570  29.095  -5.632  1.00  0.00    -0.550 OA
ENDBRANCH   6   7
ENDBRANCH   5   6
ENDBRANCH   4   5
ENDBRANCH   3   4
ENDBRANCH   2   3
ENDBRANCH   1   2
BRANCH   1  10
ATOM     10  C   UNL     1      44.829  28.414  -2.620  1.00  0.00     0.027 C 
BRANCH  10  11
ATOM     11  C   UNL     1      45.810  28.391  -1.481  1.00  0.00    -0.031 C 
ATOM     12  C   UNL     1      45.539  28.985  -0.310  1.00  0.00    -0.031 C 
BRANCH  12  13
ATOM     13  C   UNL     1      46.511  28.949   0.838  1.00  0.00     0.027 C 
BRANCH  13  14
ATOM     14  C   UNL     1      46.194  27.830   1.847  1.00  0.00     0.004 C 
BRANCH  14  15
ATOM     15  C   UNL     1      44.694  27.518   2.002  1.00  0.00     0.000 C 
BRANCH  15  16
ATOM     16  C   UNL     1      44.362  26.844   3.345  1.00  0.00    -0.000 C 
BRANCH  16  17
ATOM     17  C   UNL     1      45.575  26.127   3.958  1.00  0.00    -0.003 C 
ATOM     18  C   UNL     1      45.920  26.636   5.358  1.00  0.00     0.004 C 
ENDBRANCH  16  17
ENDBRANCH  15  16
ENDBRANCH  14  15
ENDBRANCH  13  14
ENDBRANCH  12  13
ENDBRANCH  10  11
ENDBRANCH   1  10
TORSDOF 13
ENDMDL
MODEL 9
REMARK VINA RESULT:    -3.590      1.141      2.284
REMARK INTER + INTRA:          -7.410
REMARK INTER:                  -6.438
REMARK INTRA:                  -0.971
REMARK UNBOUND:                -1.091
REMARK SMILES CCCCCCC=CCCCCCCCC(=O)[O-]
REMARK SMILES IDX 10 1 11 2 12 3 13 4 14 5 15 6 16 7 17 8 18 9 9 10 8 11 7 12
REMARK SMILES IDX 6 13 5 14 4 15 3 16 2 17 1 18
REMARK H PARENT
REMARK Flexibility Score: inf
ROOT
ATOM      1  C   UNL     1      45.508  27.894   1.008  1.00  0.00     0.004 C 
ENDROOT
BRANCH   1   2
ATOM      2  C   UNL     1      44.975  28.155   2.426  1.00  0.00     0.000 C 
BRANCH   2   3
ATOM      3  C   UNL     1      44.119  26.996   2.959  1.00  0.00     0.000 C 
BRANCH   3   4
ATOM      4  C   UNL     1      44.930  26.106   3.912  1.00  0.00     0.000 C 
BRANCH   4   5
ATOM      5  C   UNL     1      46.295  26.713   4.289  1.00  0.00     0.006 C 
BRANCH   5   6
ATOM      6  C   UNL     1      46.725  26.430   5.740  1.00  0.00     0.053 C 
BRANCH   6   7
ATOM      7  C   UNL     1      46.002  27.284   6.735  1.00  0.00     0.041 C 
ATOM      8  O   UNL     1      45.743  28.488   6.472  1.00  0.00    -0.550 OA
ATOM      9  O   UNL     1      45.583  26.741   7.944  1.00  0.00    -0.550 OA
ENDBRANCH   6   7
ENDBRANCH   5   6
ENDBRANCH   4   5
ENDBRANCH   3   4
ENDBRANCH   2   3
ENDBRANCH   1   2
BRANCH   1  10
ATOM     10  C   UNL     1      46.742  28.747   0.673  1.00  0.00     0.027 C 
BRANCH  10  11
ATOM     11  C   UNL     1      46.785  29.078  -0.793  1.00  0.00    -0.031 C 
ATOM     12  C   UNL     1      46.280  28.246  -1.716  1.00  0.00    -0.031 C 
BRANCH  12  13
ATOM     13  C   UNL     1      46.306  28.583  -3.182  1.00  0.00     0.027 C 
BRANCH  13  14
ATOM     14  C   UNL     1      45.316  29.704  -3.549  1.00  0.00     0.004 C 
BRANCH  14  15
ATOM     15  C   UNL     1      43.925  29.562  -2.905  1.00  0.00     0.000 C 
BRANCH  15  16
ATOM     16  C   UNL     1      42.849  29.106  -3.905  1.00  0.00    -0.000 C 
BRANCH  16  17
ATOM     17  C   UNL     1      43.248  27.823  -4.652  1.00  0.00    -0.003 C 
ATOM     18  C   UNL     1      43.292  26.596  -3.740  1.00  0.00     0.004 C 
ENDBRANCH  16  17
ENDBRANCH  15  16
ENDBRANCH  14  15
ENDBRANCH  13  14
ENDBRANCH  12  13
ENDBRANCH  10  11
ENDBRANCH   1  10
TORSDOF 13
ENDMDL
