MODEL 1
REMARK VINA RESULT:    -3.599      0.000      0.000
REMARK INTER + INTRA:          -5.346
REMARK INTER:                  -5.493
REMARK INTRA:                   0.147
REMARK UNBOUND:                 0.147
REMARK SMILES CC1=CCC[C@@H](C)C(=O)C[C@H](C(C)C)C(=O)C1
REMARK SMILES IDX 8 1 9 2 6 3 7 4 5 5 4 6 3 7 2 8 1 9 10 11 11 12 15 13 16 14
REMARK SMILES IDX 17 15 12 17 13 18 14 19
REMARK H PARENT
REMARK Flexibility Score: 70.00
ROOT
ATOM      1  C   UNL     1       6.161 -30.960  14.525  1.00  0.00     0.136 C 
ATOM      2  O   UNL     1       6.012 -32.079  14.997  1.00  0.00    -0.299 OA
ENDROOT
BRANCH   1   3
ATOM      3  C   UNL     1       6.060 -30.759  13.029  1.00  0.00     0.053 C 
ATOM      4  C   UNL     1       6.395 -32.048  12.271  1.00  0.00     0.016 C 
BRANCH   3   5
ATOM      5  C   UNL     1       6.995 -29.595  12.615  1.00  0.00     0.015 C 
BRANCH   5   6
ATOM      6  C   UNL     1       8.362 -30.003  12.033  1.00  0.00     0.028 C 
BRANCH   6   7
ATOM      7  C   UNL     1       9.584 -29.295  12.580  1.00  0.00    -0.028 C 
ATOM      8  C   UNL     1      10.215 -29.548  13.752  1.00  0.00    -0.070 CG0
ATOM      9  C   UNL     1      11.490 -28.790  14.037  1.00  0.00     0.039 C 
ATOM     10  G   UNL     1       9.680 -30.475  14.829  1.00  0.00     0.000 G0
ENDBRANCH   6   7
ENDBRANCH   5   6
ENDBRANCH   3   5
ENDBRANCH   1   3
BRANCH   1  11
ATOM     11  C   UNL     1       6.514 -29.812  15.444  1.00  0.00     0.087 C 
BRANCH  11  12
ATOM     12  C   UNL     1       7.632 -30.187  16.460  1.00  0.00     0.066 C 
BRANCH  12  13
ATOM     13  C   UNL     1       9.005 -29.763  15.952  1.00  0.00     0.140 C 
ATOM     14  O   UNL     1       9.567 -28.813  16.478  1.00  0.00    -0.299 OA
BRANCH  13  15
ATOM     15  C   UNL     1       9.707 -30.494  14.827  1.00  0.00     0.106 CG0
ATOM     16  G   UNL     1      10.205 -29.519  13.775  1.00  0.00     0.000 G0
ENDBRANCH  13  15
ENDBRANCH  12  13
BRANCH  12  17
ATOM     17  C   UNL     1       7.333 -29.630  17.886  1.00  0.00    -0.006 C 
ATOM     18  C   UNL     1       5.880 -29.147  18.008  1.00  0.00     0.008 C 
ATOM     19  C   UNL     1       7.664 -30.609  19.027  1.00  0.00     0.008 C 
ENDBRANCH  12  17
ENDBRANCH  11  12
ENDBRANCH   1  11
TORSDOF 1
ENDMDL
MODEL 2
REMARK VINA RESULT:    -3.511      2.330      5.346
REMARK INTER + INTRA:          -5.211
REMARK INTER:                  -4.980
REMARK INTRA:                  -0.230
REMARK UNBOUND:                 0.147
REMARK SMILES CC1=CCC[C@@H](C)C(=O)C[C@H](C(C)C)C(=O)C1
REMARK SMILES IDX 8 1 9 2 6 3 7 4 5 5 4 6 3 7 2 8 1 9 10 11 11 12 15 13 16 14
REMARK SMILES IDX 17 15 12 17 13 18 14 19
REMARK H PARENT
REMARK Flexibility Score: 70.00
ROOT
ATOM      1  C   UNL     1       8.613 -29.569  15.784  1.00  0.00     0.136 C 
ATOM      2  O   UNL     1       9.687 -29.001  15.930  1.00  0.00    -0.299 OA
ENDROOT
BRANCH   1   3
ATOM      3  C   UNL     1       7.880 -30.105  16.993  1.00  0.00     0.053 C 
ATOM      4  C   UNL     1       8.272 -29.345  18.265  1.00  0.00     0.016 C 
BRANCH   3   5
ATOM      5  C   UNL     1       8.167 -31.622  17.124  1.00  0.00     0.015 C 
BRANCH   5   6
ATOM      6  C   UNL     1       6.931 -32.542  17.147  1.00  0.00     0.028 C 
BRANCH   6   7
ATOM      7  C   UNL     1       6.933 -33.723  16.200  1.00  0.00    -0.028 C 
ATOM      8  C   UNL     1       6.824 -33.685  14.850  1.00  0.00    -0.070 CG0
ATOM      9  C   UNL     1       6.970 -34.988  14.100  1.00  0.00     0.039 C 
ATOM     10  G   UNL     1       6.483 -32.438  14.055  1.00  0.00     0.000 G0
ENDBRANCH   6   7
ENDBRANCH   5   6
ENDBRANCH   3   5
ENDBRANCH   1   3
BRANCH   1  11
ATOM     11  C   UNL     1       8.077 -29.786  14.387  1.00  0.00     0.087 C 
BRANCH  11  12
ATOM     12  C   UNL     1       8.702 -31.034  13.698  1.00  0.00     0.066 C 
BRANCH  12  13
ATOM     13  C   UNL     1       7.623 -31.977  13.181  1.00  0.00     0.140 C 
ATOM     14  O   UNL     1       7.693 -32.389  12.031  1.00  0.00    -0.299 OA
BRANCH  13  15
ATOM     15  C   UNL     1       6.473 -32.439  14.052  1.00  0.00     0.106 CG0
ATOM     16  G   UNL     1       6.854 -33.682  14.835  1.00  0.00     0.000 G0
ENDBRANCH  13  15
ENDBRANCH  12  13
BRANCH  12  17
ATOM     17  C   UNL     1       9.719 -30.635  12.585  1.00  0.00    -0.006 C 
ATOM     18  C   UNL     1       9.443 -29.221  12.051  1.00  0.00     0.008 C 
ATOM     19  C   UNL     1      11.195 -30.765  13.004  1.00  0.00     0.008 C 
ENDBRANCH  12  17
ENDBRANCH  11  12
ENDBRANCH   1  11
TORSDOF 1
ENDMDL
MODEL 3
REMARK VINA RESULT:    -3.307      2.096      2.579
REMARK INTER + INTRA:          -4.901
REMARK INTER:                  -4.979
REMARK INTRA:                   0.079
REMARK UNBOUND:                 0.147
REMARK SMILES CC1=CCC[C@@H](C)C(=O)C[C@H](C(C)C)C(=O)C1
REMARK SMILES IDX 8 1 9 2 6 3 7 4 5 5 4 6 3 7 2 8 1 9 10 11 11 12 15 13 16 14
REMARK SMILES IDX 17 15 12 17 13 18 14 19
REMARK H PARENT
REMARK Flexibility Score: 70.00
ROOT
ATOM      1  C   UNL     1       6.719 -32.481  16.573  1.00  0.00     0.136 C 
ATOM      2  O   UNL     1       7.327 -32.924  17.537  1.00  0.00    -0.299 OA
ENDROOT
BRANCH   1   3
ATOM      3  C   UNL     1       6.107 -33.434  15.571  1.00  0.00     0.053 C 
ATOM      4  C   UNL     1       6.272 -34.891  16.017  1.00  0.00     0.016 C 
BRANCH   3   5
ATOM      5  C   UNL     1       6.751 -33.187  14.183  1.00  0.00     0.015 C 
BRANCH   5   6
ATOM      6  C   UNL     1       8.291 -33.242  14.136  1.00  0.00     0.028 C 
BRANCH   6   7
ATOM      7  C   UNL     1       8.983 -32.334  13.142  1.00  0.00    -0.028 C 
ATOM      8  C   UNL     1       8.933 -30.980  13.102  1.00  0.00    -0.070 CG0
ATOM      9  C   UNL     1       9.803 -30.278  12.087  1.00  0.00     0.039 C 
ATOM     10  G   UNL     1       7.999 -30.135  13.950  1.00  0.00     0.000 G0
ENDBRANCH   6   7
ENDBRANCH   5   6
ENDBRANCH   3   5
ENDBRANCH   1   3
BRANCH   1  11
ATOM     11  C   UNL     1       6.653 -30.984  16.365  1.00  0.00     0.087 C 
BRANCH  11  12
ATOM     12  C   UNL     1       8.028 -30.292  16.595  1.00  0.00     0.066 C 
BRANCH  12  13
ATOM     13  C   UNL     1       8.623 -29.797  15.282  1.00  0.00     0.140 C 
ATOM     14  O   UNL     1       9.652 -29.136  15.306  1.00  0.00    -0.299 OA
BRANCH  13  15
ATOM     15  C   UNL     1       7.992 -30.117  13.943  1.00  0.00     0.106 CG0
ATOM     16  G   UNL     1       8.923 -30.968  13.097  1.00  0.00     0.000 G0
ENDBRANCH  13  15
ENDBRANCH  12  13
BRANCH  12  17
ATOM     17  C   UNL     1       7.938 -29.160  17.664  1.00  0.00    -0.006 C 
ATOM     18  C   UNL     1       6.572 -29.158  18.368  1.00  0.00     0.008 C 
ATOM     19  C   UNL     1       9.071 -29.185  18.706  1.00  0.00     0.008 C 
ENDBRANCH  12  17
ENDBRANCH  11  12
ENDBRANCH   1  11
TORSDOF 1
ENDMDL
MODEL 4
REMARK VINA RESULT:    -3.161      1.948      3.946
REMARK INTER + INTRA:          -4.678
REMARK INTER:                  -4.645
REMARK INTRA:                  -0.033
REMARK UNBOUND:                 0.147
REMARK SMILES CC1=CCC[C@@H](C)C(=O)C[C@H](C(C)C)C(=O)C1
REMARK SMILES IDX 8 1 9 2 6 3 7 4 5 5 4 6 3 7 2 8 1 9 10 11 11 12 15 13 16 14
REMARK SMILES IDX 17 15 12 17 13 18 14 19
REMARK H PARENT
REMARK Flexibility Score: 70.00
ROOT
ATOM      1  C   UNL     1       9.626 -29.669  14.851  1.00  0.00     0.136 C 
ATOM      2  O   UNL     1       9.659 -28.829  15.741  1.00  0.00    -0.299 OA
ENDROOT
BRANCH   1   3
ATOM      3  C   UNL     1      10.274 -29.372  13.517  1.00  0.00     0.053 C 
ATOM      4  C   UNL     1       9.230 -28.973  12.468  1.00  0.00     0.016 C 
BRANCH   3   5
ATOM      5  C   UNL     1      11.090 -30.610  13.068  1.00  0.00     0.015 C 
BRANCH   5   6
ATOM      6  C   UNL     1      10.492 -31.423  11.903  1.00  0.00     0.028 C 
BRANCH   6   7
ATOM      7  C   UNL     1       9.848 -32.750  12.248  1.00  0.00    -0.028 C 
ATOM      8  C   UNL     1       8.524 -32.997  12.400  1.00  0.00    -0.070 CG0
ATOM      9  C   UNL     1       8.103 -34.429  12.629  1.00  0.00     0.039 C 
ATOM     10  G   UNL     1       7.453 -31.922  12.440  1.00  0.00     0.000 G0
ENDBRANCH   6   7
ENDBRANCH   5   6
ENDBRANCH   3   5
ENDBRANCH   1   3
BRANCH   1  11
ATOM     11  C   UNL     1       8.874 -30.960  15.082  1.00  0.00     0.087 C 
BRANCH  11  12
ATOM     12  C   UNL     1       7.342 -30.802  14.861  1.00  0.00     0.066 C 
BRANCH  12  13
ATOM     13  C   UNL     1       6.827 -31.801  13.832  1.00  0.00     0.140 C 
ATOM     14  O   UNL     1       5.881 -32.521  14.121  1.00  0.00    -0.299 OA
BRANCH  13  15
ATOM     15  C   UNL     1       7.437 -31.918  12.450  1.00  0.00     0.106 CG0
ATOM     16  G   UNL     1       8.511 -32.991  12.422  1.00  0.00     0.000 G0
ENDBRANCH  13  15
ENDBRANCH  12  13
BRANCH  12  17
ATOM     17  C   UNL     1       6.549 -30.878  16.203  1.00  0.00    -0.006 C 
ATOM     18  C   UNL     1       7.428 -31.411  17.346  1.00  0.00     0.008 C 
ATOM     19  C   UNL     1       5.885 -29.553  16.617  1.00  0.00     0.008 C 
ENDBRANCH  12  17
ENDBRANCH  11  12
ENDBRANCH   1  11
TORSDOF 1
ENDMDL
MODEL 5
REMARK VINA RESULT:    -3.139      1.887      4.378
REMARK INTER + INTRA:          -4.644
REMARK INTER:                  -4.616
REMARK INTRA:                  -0.028
REMARK UNBOUND:                 0.147
REMARK SMILES CC1=CCC[C@@H](C)C(=O)C[C@H](C(C)C)C(=O)C1
REMARK SMILES IDX 8 1 9 2 6 3 7 4 5 5 4 6 3 7 2 8 1 9 10 11 11 12 15 13 16 14
REMARK SMILES IDX 17 15 12 17 13 18 14 19
REMARK H PARENT
REMARK Flexibility Score: 70.00
ROOT
ATOM      1  C   UNL     1       8.145 -32.825  13.565  1.00  0.00     0.136 C 
ATOM      2  O   UNL     1       8.054 -32.585  12.369  1.00  0.00    -0.299 OA
ENDROOT
BRANCH   1   3
ATOM      3  C   UNL     1       7.145 -33.750  14.222  1.00  0.00     0.053 C 
ATOM      4  C   UNL     1       6.018 -34.128  13.255  1.00  0.00     0.016 C 
BRANCH   3   5
ATOM      5  C   UNL     1       6.595 -33.070  15.501  1.00  0.00     0.015 C 
BRANCH   5   6
ATOM      6  C   UNL     1       5.913 -31.704  15.296  1.00  0.00     0.028 C 
BRANCH   6   7
ATOM      7  C   UNL     1       5.913 -30.750  16.473  1.00  0.00    -0.028 C 
ATOM      8  C   UNL     1       6.995 -30.220  17.092  1.00  0.00    -0.070 CG0
ATOM      9  C   UNL     1       6.750 -29.196  18.174  1.00  0.00     0.039 C 
ATOM     10  G   UNL     1       8.427 -30.652  16.829  1.00  0.00     0.000 G0
ENDBRANCH   6   7
ENDBRANCH   5   6
ENDBRANCH   3   5
ENDBRANCH   1   3
BRANCH   1  11
ATOM     11  C   UNL     1       9.216 -32.132  14.377  1.00  0.00     0.087 C 
BRANCH  11  12
ATOM     12  C   UNL     1       9.126 -30.581  14.279  1.00  0.00     0.066 C 
BRANCH  12  13
ATOM     13  C   UNL     1       9.050 -29.944  15.661  1.00  0.00     0.140 C 
ATOM     14  O   UNL     1       9.476 -28.809  15.818  1.00  0.00    -0.299 OA
BRANCH  13  15
ATOM     15  C   UNL     1       8.443 -30.666  16.847  1.00  0.00     0.106 CG0
ATOM     16  G   UNL     1       7.023 -30.191  17.099  1.00  0.00     0.000 G0
ENDBRANCH  13  15
ENDBRANCH  12  13
BRANCH  12  17
ATOM     17  C   UNL     1      10.282 -29.985  13.418  1.00  0.00    -0.006 C 
ATOM     18  C   UNL     1      11.432 -30.990  13.245  1.00  0.00     0.008 C 
ATOM     19  C   UNL     1       9.835 -29.449  12.047  1.00  0.00     0.008 C 
ENDBRANCH  12  17
ENDBRANCH  11  12
ENDBRANCH   1  11
TORSDOF 1
ENDMDL
MODEL 6
REMARK VINA RESULT:    -3.074      2.444      3.530
REMARK INTER + INTRA:          -4.544
REMARK INTER:                  -4.419
REMARK INTRA:                  -0.125
REMARK UNBOUND:                 0.147
REMARK SMILES CC1=CCC[C@@H](C)C(=O)C[C@H](C(C)C)C(=O)C1
REMARK SMILES IDX 8 1 9 2 6 3 7 4 5 5 4 6 3 7 2 8 1 9 10 11 11 12 15 13 16 14
REMARK SMILES IDX 17 15 12 17 13 18 14 19
REMARK H PARENT
REMARK Flexibility Score: 70.00
ROOT
ATOM      1  C   UNL     1       9.525 -32.586  13.848  1.00  0.00     0.136 C 
ATOM      2  O   UNL     1      10.103 -33.162  14.760  1.00  0.00    -0.299 OA
ENDROOT
BRANCH   1   3
ATOM      3  C   UNL     1      10.298 -32.166  12.619  1.00  0.00     0.053 C 
ATOM      4  C   UNL     1      11.171 -33.310  12.092  1.00  0.00     0.016 C 
BRANCH   3   5
ATOM      5  C   UNL     1      11.144 -30.914  12.960  1.00  0.00     0.015 C 
BRANCH   5   6
ATOM      6  C   UNL     1      10.351 -29.625  13.253  1.00  0.00     0.028 C 
BRANCH   6   7
ATOM      7  C   UNL     1      10.325 -29.142  14.688  1.00  0.00    -0.028 C 
ATOM      8  C   UNL     1       9.280 -29.203  15.548  1.00  0.00    -0.070 CG0
ATOM      9  C   UNL     1       9.522 -28.765  16.973  1.00  0.00     0.039 C 
ATOM     10  G   UNL     1       7.868 -29.600  15.153  1.00  0.00     0.000 G0
ENDBRANCH   6   7
ENDBRANCH   5   6
ENDBRANCH   3   5
ENDBRANCH   1   3
BRANCH   1  11
ATOM     11  C   UNL     1       8.060 -32.243  14.004  1.00  0.00     0.087 C 
BRANCH  11  12
ATOM     12  C   UNL     1       7.614 -32.205  15.494  1.00  0.00     0.066 C 
BRANCH  12  13
ATOM     13  C   UNL     1       7.358 -30.775  15.957  1.00  0.00     0.140 C 
ATOM     14  O   UNL     1       6.756 -30.587  17.004  1.00  0.00    -0.299 OA
BRANCH  13  15
ATOM     15  C   UNL     1       7.847 -29.576  15.170  1.00  0.00     0.106 CG0
ATOM     16  G   UNL     1       9.273 -29.224  15.552  1.00  0.00     0.000 G0
ENDBRANCH  13  15
ENDBRANCH  12  13
BRANCH  12  17
ATOM     17  C   UNL     1       6.392 -33.137  15.760  1.00  0.00    -0.006 C 
ATOM     18  C   UNL     1       6.072 -34.008  14.535  1.00  0.00     0.008 C 
ATOM     19  C   UNL     1       6.532 -34.017  17.015  1.00  0.00     0.008 C 
ENDBRANCH  12  17
ENDBRANCH  11  12
ENDBRANCH   1  11
TORSDOF 1
ENDMDL
MODEL 7
REMARK VINA RESULT:    -2.940      2.556      4.550
REMARK INTER + INTRA:          -4.340
REMARK INTER:                  -4.624
REMARK INTRA:                   0.283
REMARK UNBOUND:                 0.147
REMARK SMILES CC1=CCC[C@@H](C)C(=O)C[C@H](C(C)C)C(=O)C1
REMARK SMILES IDX 8 1 9 2 6 3 7 4 5 5 4 6 3 7 2 8 1 9 10 11 11 12 15 13 16 14
REMARK SMILES IDX 17 15 12 17 13 18 14 19
REMARK H PARENT
REMARK Flexibility Score: 70.00
ROOT
ATOM      1  C   UNL     1       8.013 -32.760  15.467  1.00  0.00     0.136 C 
ATOM      2  O   UNL     1       7.062 -33.179  14.821  1.00  0.00    -0.299 OA
ENDROOT
BRANCH   1   3
ATOM      3  C   UNL     1       7.787 -32.191  16.849  1.00  0.00     0.053 C 
ATOM      4  C   UNL     1       7.375 -33.284  17.841  1.00  0.00     0.016 C 
BRANCH   3   5
ATOM      5  C   UNL     1       6.722 -31.069  16.763  1.00  0.00     0.015 C 
BRANCH   5   6
ATOM      6  C   UNL     1       7.072 -29.876  15.852  1.00  0.00     0.028 C 
BRANCH   6   7
ATOM      7  C   UNL     1       8.533 -29.490  15.752  1.00  0.00    -0.028 C 
ATOM      8  C   UNL     1       9.293 -29.459  14.631  1.00  0.00    -0.070 CG0
ATOM      9  C   UNL     1      10.701 -28.927  14.755  1.00  0.00     0.039 C 
ATOM     10  G   UNL     1       8.852 -30.003  13.284  1.00  0.00     0.000 G0
ENDBRANCH   6   7
ENDBRANCH   5   6
ENDBRANCH   3   5
ENDBRANCH   1   3
BRANCH   1  11
ATOM     11  C   UNL     1       9.387 -32.755  14.837  1.00  0.00     0.087 C 
BRANCH  11  12
ATOM     12  C   UNL     1       9.331 -32.608  13.288  1.00  0.00     0.066 C 
BRANCH  12  13
ATOM     13  C   UNL     1       9.676 -31.188  12.856  1.00  0.00     0.140 C 
ATOM     14  O   UNL     1      10.641 -31.004  12.128  1.00  0.00    -0.299 OA
BRANCH  13  15
ATOM     15  C   UNL     1       8.848 -29.994  13.284  1.00  0.00     0.106 CG0
ATOM     16  G   UNL     1       9.304 -29.476  14.637  1.00  0.00     0.000 G0
ENDBRANCH  13  15
ENDBRANCH  12  13
BRANCH  12  17
ATOM     17  C   UNL     1      10.215 -33.673  12.569  1.00  0.00    -0.006 C 
ATOM     18  C   UNL     1      11.319 -34.207  13.497  1.00  0.00     0.008 C 
ATOM     19  C   UNL     1       9.422 -34.844  11.961  1.00  0.00     0.008 C 
ENDBRANCH  12  17
ENDBRANCH  11  12
ENDBRANCH   1  11
TORSDOF 1
ENDMDL
MODEL 8
REMARK VINA RESULT:    -2.835      2.527      5.016
REMARK INTER + INTRA:          -4.180
REMARK INTER:                  -4.117
REMARK INTRA:                  -0.063
REMARK UNBOUND:                 0.147
REMARK SMILES CC1=CCC[C@@H](C)C(=O)C[C@H](C(C)C)C(=O)C1
REMARK SMILES IDX 8 1 9 2 6 3 7 4 5 5 4 6 3 7 2 8 1 9 10 11 11 12 15 13 16 14
REMARK SMILES IDX 17 15 12 17 13 18 14 19
REMARK H PARENT
REMARK Flexibility Score: 70.00
ROOT
ATOM      1  C   UNL     1       7.425 -30.457  13.608  1.00  0.00     0.136 C 
ATOM      2  O   UNL     1       6.283 -30.037  13.735  1.00  0.00    -0.299 OA
ENDROOT
BRANCH   1   3
ATOM      3  C   UNL     1       8.595 -29.551  13.920  1.00  0.00     0.053 C 
ATOM      4  C   UNL     1       9.733 -29.745  12.911  1.00  0.00     0.016 C 
BRANCH   3   5
ATOM      5  C   UNL     1       9.068 -29.820  15.370  1.00  0.00     0.015 C 
BRANCH   5   6
ATOM      6  C   UNL     1       7.954 -29.948  16.428  1.00  0.00     0.028 C 
BRANCH   6   7
ATOM      7  C   UNL     1       8.032 -31.129  17.373  1.00  0.00    -0.028 C 
ATOM      8  C   UNL     1       7.430 -32.333  17.222  1.00  0.00    -0.070 CG0
ATOM      9  C   UNL     1       7.746 -33.405  18.237  1.00  0.00     0.039 C 
ATOM     10  G   UNL     1       6.396 -32.645  16.154  1.00  0.00     0.000 G0
ENDBRANCH   6   7
ENDBRANCH   5   6
ENDBRANCH   3   5
ENDBRANCH   1   3
BRANCH   1  11
ATOM     11  C   UNL     1       7.643 -31.854  13.073  1.00  0.00     0.087 C 
BRANCH  11  12
ATOM     12  C   UNL     1       8.142 -32.840  14.168  1.00  0.00     0.066 C 
BRANCH  12  13
ATOM     13  C   UNL     1       6.979 -33.399  14.979  1.00  0.00     0.140 C 
ATOM     14  O   UNL     1       6.519 -34.494  14.686  1.00  0.00    -0.299 OA
BRANCH  13  15
ATOM     15  C   UNL     1       6.384 -32.649  16.154  1.00  0.00     0.106 CG0
ATOM     16  G   UNL     1       7.444 -32.356  17.201  1.00  0.00     0.000 G0
ENDBRANCH  13  15
ENDBRANCH  12  13
BRANCH  12  17
ATOM     17  C   UNL     1       9.039 -33.968  13.572  1.00  0.00    -0.006 C 
ATOM     18  C   UNL     1       8.772 -34.165  12.071  1.00  0.00     0.008 C 
ATOM     19  C   UNL     1      10.545 -33.772  13.821  1.00  0.00     0.008 C 
ENDBRANCH  12  17
ENDBRANCH  11  12
ENDBRANCH   1  11
TORSDOF 1
ENDMDL
