MODEL 1
REMARK VINA RESULT:    -7.210      0.000      0.000
REMARK INTER + INTRA:          -8.283
REMARK INTER:                  -7.842
REMARK INTRA:                  -0.441
REMARK UNBOUND:                -0.441
REMARK SMILES C=C(C)[C@H]1CC[C@]2(C)CC[C@@]3(C)[C@H](CC[C@H]4[C@]5(C)CC[C@H](O)C(C)(C)[C@@H]5CC[C@@]43C)[C@H]12
REMARK SMILES IDX 4 1 5 2 6 3 7 4 31 5 13 6 14 7 15 8 16 9 17 10 19 11 20 12
REMARK SMILES IDX 21 13 23 14 26 15 27 16 28 17 29 18 11 19 10 20 9 21 12 22
REMARK SMILES IDX 30 23 24 24 25 25 18 26 8 27 2 28 3 29 1 30 22 31
REMARK H PARENT 22 32
REMARK Flexibility Score: inf
ROOT
ATOM      1  C   UNL     1     115.741 124.545 124.247  1.00  0.00     0.018 C 
ATOM      2  C   UNL     1     114.447 123.755 124.522  1.00  0.00     0.009 C 
ATOM      3  C   UNL     1     114.100 122.977 123.253  1.00  0.00     0.008 C 
ATOM      4  C   UNL     1     114.829 123.686 122.101  1.00  0.00    -0.029 C 
ATOM      5  C   UNL     1     116.125 124.266 122.757  1.00  0.00     0.006 C 
ATOM      6  C   UNL     1     117.421 123.375 122.596  1.00  0.00    -0.000 C 
ATOM      7  C   UNL     1     117.501 122.176 123.608  1.00  0.00     0.005 C 
ATOM      8  C   UNL     1     118.433 121.029 123.189  1.00  0.00     0.005 C 
ATOM      9  C   UNL     1     119.608 121.574 122.362  1.00  0.00     0.002 C 
ATOM     10  C   UNL     1     120.916 120.668 122.368  1.00  0.00    -0.026 C 
ATOM     11  C   UNL     1     121.593 120.783 123.785  1.00  0.00     0.010 C 
ATOM     12  C   UNL     1     122.617 121.914 123.869  1.00  0.00     0.033 C 
ATOM     13  C   UNL     1     123.839 121.669 122.962  1.00  0.00     0.120 C 
ATOM     14  C   UNL     1     123.486 120.923 121.617  1.00  0.00    -0.006 C 
ATOM     15  C   UNL     1     121.949 121.103 121.228  1.00  0.00     0.003 C 
ATOM     16  C   UNL     1     121.695 122.541 120.663  1.00  0.00     0.005 C 
ATOM     17  C   UNL     1     120.242 123.056 120.498  1.00  0.00     0.008 C 
ATOM     18  C   UNL     1     119.094 122.114 120.972  1.00  0.00    -0.024 C 
ATOM     19  C   UNL     1     117.656 122.908 121.117  1.00  0.00    -0.024 C 
ATOM     20  C   UNL     1     116.403 122.024 120.767  1.00  0.00     0.008 C 
ATOM     21  C   UNL     1     115.045 122.737 120.877  1.00  0.00     0.007 C 
ATOM     22  C   UNL     1     117.628 124.136 120.143  1.00  0.00     0.012 C 
ATOM     23  C   UNL     1     118.944 121.003 119.891  1.00  0.00     0.012 C 
ATOM     24  C   UNL     1     123.846 119.414 121.762  1.00  0.00     0.014 C 
ATOM     25  C   UNL     1     124.407 121.422 120.461  1.00  0.00     0.014 C 
ATOM     26  C   UNL     1     120.514 119.172 122.176  1.00  0.00     0.012 C 
ATOM     27  C   UNL     1     113.910 124.844 121.618  1.00  0.00     0.011 C 
ENDROOT
BRANCH   1  28
ATOM     28  C   UNL     1     115.609 126.006 124.698  1.00  0.00    -0.077 C 
ATOM     29  C   UNL     1     114.399 126.387 125.516  1.00  0.00     0.039 C 
ATOM     30  C   UNL     1     116.459 126.992 124.357  1.00  0.00     0.008 C 
ENDBRANCH   1  28
BRANCH  13  31
ATOM     31  O   UNL     1     124.459 122.908 122.714  1.00  0.00    -0.393 OA
ATOM     32  H   UNL     1     123.945 123.355 121.993  1.00  0.00     0.210 HD
ENDBRANCH  13  31
TORSDOF 2
ENDMDL
MODEL 2
REMARK VINA RESULT:    -6.729      2.586      7.563
REMARK INTER + INTRA:          -7.760
REMARK INTER:                  -7.355
REMARK INTRA:                  -0.405
REMARK UNBOUND:                -0.441
REMARK SMILES C=C(C)[C@H]1CC[C@]2(C)CC[C@@]3(C)[C@H](CC[C@H]4[C@]5(C)CC[C@H](O)C(C)(C)[C@@H]5CC[C@@]43C)[C@H]12
REMARK SMILES IDX 4 1 5 2 6 3 7 4 31 5 13 6 14 7 15 8 16 9 17 10 19 11 20 12
REMARK SMILES IDX 21 13 23 14 26 15 27 16 28 17 29 18 11 19 10 20 9 21 12 22
REMARK SMILES IDX 30 23 24 24 25 25 18 26 8 27 2 28 3 29 1 30 22 31
REMARK H PARENT 22 32
REMARK Flexibility Score: inf
ROOT
ATOM      1  C   UNL     1     119.637 120.011 119.316  1.00  0.00     0.018 C 
ATOM      2  C   UNL     1     119.057 119.313 118.070  1.00  0.00     0.009 C 
ATOM      3  C   UNL     1     117.788 118.577 118.500  1.00  0.00     0.008 C 
ATOM      4  C   UNL     1     117.898 118.381 120.019  1.00  0.00    -0.029 C 
ATOM      5  C   UNL     1     118.713 119.621 120.515  1.00  0.00     0.006 C 
ATOM      6  C   UNL     1     117.847 120.825 121.061  1.00  0.00    -0.000 C 
ATOM      7  C   UNL     1     117.237 121.735 119.934  1.00  0.00     0.005 C 
ATOM      8  C   UNL     1     116.026 122.578 120.360  1.00  0.00     0.005 C 
ATOM      9  C   UNL     1     116.137 122.957 121.845  1.00  0.00     0.002 C 
ATOM     10  C   UNL     1     115.333 124.262 122.271  1.00  0.00    -0.026 C 
ATOM     11  C   UNL     1     116.078 125.518 121.684  1.00  0.00     0.010 C 
ATOM     12  C   UNL     1     117.124 126.093 122.637  1.00  0.00     0.033 C 
ATOM     13  C   UNL     1     116.495 126.678 123.917  1.00  0.00     0.120 C 
ATOM     14  C   UNL     1     115.220 125.890 124.409  1.00  0.00    -0.006 C 
ATOM     15  C   UNL     1     115.203 124.391 123.859  1.00  0.00     0.003 C 
ATOM     16  C   UNL     1     116.228 123.510 124.649  1.00  0.00     0.005 C 
ATOM     17  C   UNL     1     116.612 122.108 124.109  1.00  0.00     0.008 C 
ATOM     18  C   UNL     1     115.987 121.673 122.749  1.00  0.00    -0.024 C 
ATOM     19  C   UNL     1     116.760 120.371 122.096  1.00  0.00    -0.024 C 
ATOM     20  C   UNL     1     115.812 119.406 121.292  1.00  0.00     0.008 C 
ATOM     21  C   UNL     1     116.497 118.172 120.681  1.00  0.00     0.007 C 
ATOM     22  C   UNL     1     117.412 119.515 123.237  1.00  0.00     0.012 C 
ATOM     23  C   UNL     1     114.506 121.283 123.034  1.00  0.00     0.012 C 
ATOM     24  C   UNL     1     113.941 126.657 123.959  1.00  0.00     0.014 C 
ATOM     25  C   UNL     1     115.141 125.903 125.968  1.00  0.00     0.014 C 
ATOM     26  C   UNL     1     113.912 124.233 121.625  1.00  0.00     0.012 C 
ATOM     27  C   UNL     1     118.710 117.077 120.258  1.00  0.00     0.011 C 
ENDROOT
BRANCH   1  28
ATOM     28  C   UNL     1     121.144 119.750 119.450  1.00  0.00    -0.077 C 
ATOM     29  C   UNL     1     121.999 119.897 118.215  1.00  0.00     0.039 C 
ATOM     30  C   UNL     1     121.751 119.331 120.576  1.00  0.00     0.008 C 
ENDBRANCH   1  28
BRANCH  13  31
ATOM     31  O   UNL     1     117.487 126.724 124.915  1.00  0.00    -0.393 OA
ATOM     32  H   UNL     1     117.712 125.786 125.149  1.00  0.00     0.210 HD
ENDBRANCH  13  31
TORSDOF 2
ENDMDL
MODEL 3
REMARK VINA RESULT:    -6.646      6.518      9.610
REMARK INTER + INTRA:          -7.669
REMARK INTER:                  -7.228
REMARK INTRA:                  -0.441
REMARK UNBOUND:                -0.441
REMARK SMILES C=C(C)[C@H]1CC[C@]2(C)CC[C@@]3(C)[C@H](CC[C@H]4[C@]5(C)CC[C@H](O)C(C)(C)[C@@H]5CC[C@@]43C)[C@H]12
REMARK SMILES IDX 4 1 5 2 6 3 7 4 31 5 13 6 14 7 15 8 16 9 17 10 19 11 20 12
REMARK SMILES IDX 21 13 23 14 26 15 27 16 28 17 29 18 11 19 10 20 9 21 12 22
REMARK SMILES IDX 30 23 24 24 25 25 18 26 8 27 2 28 3 29 1 30 22 31
REMARK H PARENT 22 32
REMARK Flexibility Score: inf
ROOT
ATOM      1  C   UNL     1     123.044 119.981 114.105  1.00  0.00     0.018 C 
ATOM      2  C   UNL     1     121.766 119.172 113.807  1.00  0.00     0.009 C 
ATOM      3  C   UNL     1     121.920 117.803 114.469  1.00  0.00     0.008 C 
ATOM      4  C   UNL     1     123.427 117.594 114.680  1.00  0.00    -0.029 C 
ATOM      5  C   UNL     1     123.992 119.034 114.910  1.00  0.00     0.006 C 
ATOM      6  C   UNL     1     124.169 119.458 116.424  1.00  0.00    -0.000 C 
ATOM      7  C   UNL     1     122.837 119.920 117.117  1.00  0.00     0.005 C 
ATOM      8  C   UNL     1     122.844 119.858 118.651  1.00  0.00     0.005 C 
ATOM      9  C   UNL     1     124.260 120.117 119.188  1.00  0.00     0.002 C 
ATOM     10  C   UNL     1     124.328 120.667 120.679  1.00  0.00    -0.026 C 
ATOM     11  C   UNL     1     123.834 122.161 120.679  1.00  0.00     0.010 C 
ATOM     12  C   UNL     1     124.966 123.166 120.469  1.00  0.00     0.033 C 
ATOM     13  C   UNL     1     125.971 123.173 121.638  1.00  0.00     0.120 C 
ATOM     14  C   UNL     1     126.188 121.753 122.290  1.00  0.00    -0.006 C 
ATOM     15  C   UNL     1     125.806 120.575 121.282  1.00  0.00     0.003 C 
ATOM     16  C   UNL     1     126.920 120.405 120.196  1.00  0.00     0.005 C 
ATOM     17  C   UNL     1     126.643 119.539 118.940  1.00  0.00     0.008 C 
ATOM     18  C   UNL     1     125.217 118.925 118.799  1.00  0.00    -0.024 C 
ATOM     19  C   UNL     1     124.924 118.376 117.272  1.00  0.00    -0.024 C 
ATOM     20  C   UNL     1     124.000 117.103 117.220  1.00  0.00     0.008 C 
ATOM     21  C   UNL     1     123.717 116.554 115.812  1.00  0.00     0.007 C 
ATOM     22  C   UNL     1     126.275 117.981 116.581  1.00  0.00     0.012 C 
ATOM     23  C   UNL     1     125.142 117.721 119.785  1.00  0.00     0.012 C 
ATOM     24  C   UNL     1     125.345 121.657 123.596  1.00  0.00     0.014 C 
ATOM     25  C   UNL     1     127.663 121.599 122.779  1.00  0.00     0.014 C 
ATOM     26  C   UNL     1     123.339 119.860 121.577  1.00  0.00     0.012 C 
ATOM     27  C   UNL     1     123.999 117.000 113.363  1.00  0.00     0.011 C 
ENDROOT
BRANCH   1  28
ATOM     28  C   UNL     1     123.594 120.643 112.834  1.00  0.00    -0.077 C 
ATOM     29  C   UNL     1     122.733 120.614 111.594  1.00  0.00     0.039 C 
ATOM     30  C   UNL     1     124.819 121.188 112.723  1.00  0.00     0.008 C 
ENDBRANCH   1  28
BRANCH  13  31
ATOM     31  O   UNL     1     127.183 123.716 121.172  1.00  0.00    -0.393 OA
ATOM     32  H   UNL     1     127.675 122.985 120.715  1.00  0.00     0.210 HD
ENDBRANCH  13  31
TORSDOF 2
ENDMDL
MODEL 4
REMARK VINA RESULT:    -6.641      8.316     11.717
REMARK INTER + INTRA:          -7.665
REMARK INTER:                  -7.278
REMARK INTRA:                  -0.387
REMARK UNBOUND:                -0.441
REMARK SMILES C=C(C)[C@H]1CC[C@]2(C)CC[C@@]3(C)[C@H](CC[C@H]4[C@]5(C)CC[C@H](O)C(C)(C)[C@@H]5CC[C@@]43C)[C@H]12
REMARK SMILES IDX 4 1 5 2 6 3 7 4 31 5 13 6 14 7 15 8 16 9 17 10 19 11 20 12
REMARK SMILES IDX 21 13 23 14 26 15 27 16 28 17 29 18 11 19 10 20 9 21 12 22
REMARK SMILES IDX 30 23 24 24 25 25 18 26 8 27 2 28 3 29 1 30 22 31
REMARK H PARENT 22 32
REMARK Flexibility Score: inf
ROOT
ATOM      1  C   UNL     1     127.708 115.775 119.525  1.00  0.00     0.018 C 
ATOM      2  C   UNL     1     126.916 114.781 120.396  1.00  0.00     0.009 C 
ATOM      3  C   UNL     1     125.702 115.521 120.956  1.00  0.00     0.008 C 
ATOM      4  C   UNL     1     126.040 117.018 120.882  1.00  0.00    -0.029 C 
ATOM      5  C   UNL     1     126.968 117.148 119.631  1.00  0.00     0.006 C 
ATOM      6  C   UNL     1     126.244 117.579 118.293  1.00  0.00    -0.000 C 
ATOM      7  C   UNL     1     125.501 116.402 117.562  1.00  0.00     0.005 C 
ATOM      8  C   UNL     1     124.404 116.834 116.578  1.00  0.00     0.005 C 
ATOM      9  C   UNL     1     124.759 118.189 115.946  1.00  0.00     0.002 C 
ATOM     10  C   UNL     1     124.081 118.475 114.536  1.00  0.00    -0.026 C 
ATOM     11  C   UNL     1     124.773 117.560 113.458  1.00  0.00     0.010 C 
ATOM     12  C   UNL     1     125.976 118.225 112.791  1.00  0.00     0.033 C 
ATOM     13  C   UNL     1     125.577 119.450 111.945  1.00  0.00     0.120 C 
ATOM     14  C   UNL     1     124.365 120.262 112.546  1.00  0.00    -0.006 C 
ATOM     15  C   UNL     1     124.206 120.012 114.115  1.00  0.00     0.003 C 
ATOM     16  C   UNL     1     125.307 120.795 114.906  1.00  0.00     0.005 C 
ATOM     17  C   UNL     1     125.549 120.478 116.404  1.00  0.00     0.008 C 
ATOM     18  C   UNL     1     124.703 119.330 117.034  1.00  0.00    -0.024 C 
ATOM     19  C   UNL     1     125.315 118.828 118.481  1.00  0.00    -0.024 C 
ATOM     20  C   UNL     1     124.218 118.367 119.510  1.00  0.00     0.008 C 
ATOM     21  C   UNL     1     124.752 117.906 120.876  1.00  0.00     0.007 C 
ATOM     22  C   UNL     1     126.105 120.001 119.159  1.00  0.00     0.012 C 
ATOM     23  C   UNL     1     123.271 119.897 117.268  1.00  0.00     0.012 C 
ATOM     24  C   UNL     1     123.062 119.868 111.790  1.00  0.00     0.014 C 
ATOM     25  C   UNL     1     124.530 121.786 112.247  1.00  0.00     0.014 C 
ATOM     26  C   UNL     1     122.578 118.061 114.587  1.00  0.00     0.012 C 
ATOM     27  C   UNL     1     126.830 117.376 122.173  1.00  0.00     0.011 C 
ENDROOT
BRANCH   1  28
ATOM     28  C   UNL     1     129.207 115.734 119.855  1.00  0.00    -0.077 C 
ATOM     29  C   UNL     1     129.611 115.331 121.253  1.00  0.00     0.039 C 
ATOM     30  C   UNL     1     130.188 116.100 119.010  1.00  0.00     0.008 C 
ENDBRANCH   1  28
BRANCH  13  31
ATOM     31  O   UNL     1     126.713 120.265 111.787  1.00  0.00    -0.393 OA
ATOM     32  H   UNL     1     126.812 120.446 110.816  1.00  0.00     0.210 HD
ENDBRANCH  13  31
TORSDOF 2
ENDMDL
MODEL 5
REMARK VINA RESULT:    -6.629      6.722      9.584
REMARK INTER + INTRA:          -7.651
REMARK INTER:                  -7.246
REMARK INTRA:                  -0.405
REMARK UNBOUND:                -0.441
REMARK SMILES C=C(C)[C@H]1CC[C@]2(C)CC[C@@]3(C)[C@H](CC[C@H]4[C@]5(C)CC[C@H](O)C(C)(C)[C@@H]5CC[C@@]43C)[C@H]12
REMARK SMILES IDX 4 1 5 2 6 3 7 4 31 5 13 6 14 7 15 8 16 9 17 10 19 11 20 12
REMARK SMILES IDX 21 13 23 14 26 15 27 16 28 17 29 18 11 19 10 20 9 21 12 22
REMARK SMILES IDX 30 23 24 24 25 25 18 26 8 27 2 28 3 29 1 30 22 31
REMARK H PARENT 22 32
REMARK Flexibility Score: inf
ROOT
ATOM      1  C   UNL     1     125.761 121.994 121.077  1.00  0.00     0.018 C 
ATOM      2  C   UNL     1     126.620 121.171 122.057  1.00  0.00     0.009 C 
ATOM      3  C   UNL     1     126.068 119.746 122.072  1.00  0.00     0.008 C 
ATOM      4  C   UNL     1     124.623 119.839 121.558  1.00  0.00    -0.029 C 
ATOM      5  C   UNL     1     124.642 121.036 120.553  1.00  0.00     0.006 C 
ATOM      6  C   UNL     1     124.813 120.641 119.031  1.00  0.00    -0.000 C 
ATOM      7  C   UNL     1     126.296 120.329 118.616  1.00  0.00     0.005 C 
ATOM      8  C   UNL     1     126.453 119.483 117.343  1.00  0.00     0.005 C 
ATOM      9  C   UNL     1     125.299 119.767 116.370  1.00  0.00     0.002 C 
ATOM     10  C   UNL     1     125.613 119.459 114.841  1.00  0.00    -0.026 C 
ATOM     11  C   UNL     1     126.604 120.558 114.307  1.00  0.00     0.010 C 
ATOM     12  C   UNL     1     125.890 121.770 113.710  1.00  0.00     0.033 C 
ATOM     13  C   UNL     1     125.103 121.417 112.432  1.00  0.00     0.120 C 
ATOM     14  C   UNL     1     124.473 119.971 112.459  1.00  0.00    -0.006 C 
ATOM     15  C   UNL     1     124.284 119.437 113.952  1.00  0.00     0.003 C 
ATOM     16  C   UNL     1     123.060 120.137 114.631  1.00  0.00     0.005 C 
ATOM     17  C   UNL     1     122.855 120.013 116.162  1.00  0.00     0.008 C 
ATOM     18  C   UNL     1     123.939 119.231 116.964  1.00  0.00    -0.024 C 
ATOM     19  C   UNL     1     123.830 119.502 118.587  1.00  0.00    -0.024 C 
ATOM     20  C   UNL     1     124.225 118.259 119.468  1.00  0.00     0.008 C 
ATOM     21  C   UNL     1     124.120 118.472 120.987  1.00  0.00     0.007 C 
ATOM     22  C   UNL     1     122.354 119.873 118.965  1.00  0.00     0.012 C 
ATOM     23  C   UNL     1     123.698 117.716 116.694  1.00  0.00     0.012 C 
ATOM     24  C   UNL     1     125.378 119.006 111.638  1.00  0.00     0.014 C 
ATOM     25  C   UNL     1     123.112 119.957 111.695  1.00  0.00     0.014 C 
ATOM     26  C   UNL     1     126.349 118.088 114.727  1.00  0.00     0.012 C 
ATOM     27  C   UNL     1     123.722 120.178 122.778  1.00  0.00     0.011 C 
ENDROOT
BRANCH   1  28
ATOM     28  C   UNL     1     125.335 123.332 121.697  1.00  0.00    -0.077 C 
ATOM     29  C   UNL     1     125.168 124.516 120.775  1.00  0.00     0.039 C 
ATOM     30  C   UNL     1     125.168 123.547 123.015  1.00  0.00     0.008 C 
ENDBRANCH   1  28
BRANCH  13  31
ATOM     31  O   UNL     1     124.117 122.403 112.236  1.00  0.00    -0.393 OA
ATOM     32  H   UNL     1     124.475 123.253 112.603  1.00  0.00     0.210 HD
ENDBRANCH  13  31
TORSDOF 2
ENDMDL
MODEL 6
REMARK VINA RESULT:    -6.603      2.819      4.838
REMARK INTER + INTRA:          -7.623
REMARK INTER:                  -7.207
REMARK INTRA:                  -0.416
REMARK UNBOUND:                -0.441
REMARK SMILES C=C(C)[C@H]1CC[C@]2(C)CC[C@@]3(C)[C@H](CC[C@H]4[C@]5(C)CC[C@H](O)C(C)(C)[C@@H]5CC[C@@]43C)[C@H]12
REMARK SMILES IDX 4 1 5 2 6 3 7 4 31 5 13 6 14 7 15 8 16 9 17 10 19 11 20 12
REMARK SMILES IDX 21 13 23 14 26 15 27 16 28 17 29 18 11 19 10 20 9 21 12 22
REMARK SMILES IDX 30 23 24 24 25 25 18 26 8 27 2 28 3 29 1 30 22 31
REMARK H PARENT 22 32
REMARK Flexibility Score: inf
ROOT
ATOM      1  C   UNL     1     113.878 122.078 121.139  1.00  0.00     0.018 C 
ATOM      2  C   UNL     1     113.784 123.602 121.348  1.00  0.00     0.009 C 
ATOM      3  C   UNL     1     114.775 123.981 122.448  1.00  0.00     0.008 C 
ATOM      4  C   UNL     1     115.048 122.694 123.242  1.00  0.00    -0.029 C 
ATOM      5  C   UNL     1     114.909 121.547 122.188  1.00  0.00     0.006 C 
ATOM      6  C   UNL     1     116.265 121.051 121.544  1.00  0.00    -0.000 C 
ATOM      7  C   UNL     1     116.803 121.978 120.396  1.00  0.00     0.005 C 
ATOM      8  C   UNL     1     118.303 121.840 120.093  1.00  0.00     0.005 C 
ATOM      9  C   UNL     1     118.770 120.401 120.366  1.00  0.00     0.002 C 
ATOM     10  C   UNL     1     120.072 119.951 119.570  1.00  0.00    -0.026 C 
ATOM     11  C   UNL     1     119.685 119.756 118.057  1.00  0.00     0.010 C 
ATOM     12  C   UNL     1     119.236 118.332 117.732  1.00  0.00     0.033 C 
ATOM     13  C   UNL     1     120.375 117.305 117.895  1.00  0.00     0.120 C 
ATOM     14  C   UNL     1     121.370 117.650 119.069  1.00  0.00    -0.006 C 
ATOM     15  C   UNL     1     120.693 118.601 120.158  1.00  0.00     0.003 C 
ATOM     16  C   UNL     1     119.698 117.785 121.051  1.00  0.00     0.005 C 
ATOM     17  C   UNL     1     118.702 118.534 121.973  1.00  0.00     0.008 C 
ATOM     18  C   UNL     1     118.709 120.092 121.912  1.00  0.00    -0.024 C 
ATOM     19  C   UNL     1     117.370 120.748 122.616  1.00  0.00    -0.024 C 
ATOM     20  C   UNL     1     117.636 122.127 123.326  1.00  0.00     0.008 C 
ATOM     21  C   UNL     1     116.411 122.762 124.006  1.00  0.00     0.007 C 
ATOM     22  C   UNL     1     116.817 119.775 123.714  1.00  0.00     0.012 C 
ATOM     23  C   UNL     1     119.969 120.572 122.692  1.00  0.00     0.012 C 
ATOM     24  C   UNL     1     122.649 118.313 118.476  1.00  0.00     0.014 C 
ATOM     25  C   UNL     1     121.898 116.341 119.736  1.00  0.00     0.014 C 
ATOM     26  C   UNL     1     121.135 121.091 119.625  1.00  0.00     0.012 C 
ATOM     27  C   UNL     1     113.933 122.571 124.317  1.00  0.00     0.011 C 
ENDROOT
BRANCH   1  28
ATOM     28  C   UNL     1     112.486 121.432 121.103  1.00  0.00    -0.077 C 
ATOM     29  C   UNL     1     112.236 120.242 121.998  1.00  0.00     0.039 C 
ATOM     30  C   UNL     1     111.490 121.805 120.279  1.00  0.00     0.008 C 
ENDBRANCH   1  28
BRANCH  13  31
ATOM     31  O   UNL     1     119.799 116.032 118.067  1.00  0.00    -0.393 OA
ATOM     32  H   UNL     1     120.485 115.455 118.492  1.00  0.00     0.210 HD
ENDBRANCH  13  31
TORSDOF 2
ENDMDL
MODEL 7
REMARK VINA RESULT:    -6.558      1.990      3.289
REMARK INTER + INTRA:          -7.574
REMARK INTER:                  -7.172
REMARK INTRA:                  -0.402
REMARK UNBOUND:                -0.441
REMARK SMILES C=C(C)[C@H]1CC[C@]2(C)CC[C@@]3(C)[C@H](CC[C@H]4[C@]5(C)CC[C@H](O)C(C)(C)[C@@H]5CC[C@@]43C)[C@H]12
REMARK SMILES IDX 4 1 5 2 6 3 7 4 31 5 13 6 14 7 15 8 16 9 17 10 19 11 20 12
REMARK SMILES IDX 21 13 23 14 26 15 27 16 28 17 29 18 11 19 10 20 9 21 12 22
REMARK SMILES IDX 30 23 24 24 25 25 18 26 8 27 2 28 3 29 1 30 22 31
REMARK H PARENT 22 32
REMARK Flexibility Score: inf
ROOT
ATOM      1  C   UNL     1     114.137 121.331 122.189  1.00  0.00     0.018 C 
ATOM      2  C   UNL     1     113.253 121.674 120.974  1.00  0.00     0.009 C 
ATOM      3  C   UNL     1     113.881 122.876 120.269  1.00  0.00     0.008 C 
ATOM      4  C   UNL     1     114.777 123.565 121.309  1.00  0.00    -0.029 C 
ATOM      5  C   UNL     1     115.276 122.401 122.227  1.00  0.00     0.006 C 
ATOM      6  C   UNL     1     116.701 121.818 121.865  1.00  0.00    -0.000 C 
ATOM      7  C   UNL     1     116.690 120.805 120.664  1.00  0.00     0.005 C 
ATOM      8  C   UNL     1     118.043 120.604 119.966  1.00  0.00     0.005 C 
ATOM      9  C   UNL     1     119.191 120.776 120.973  1.00  0.00     0.002 C 
ATOM     10  C   UNL     1     120.548 120.042 120.583  1.00  0.00    -0.026 C 
ATOM     11  C   UNL     1     120.344 118.492 120.768  1.00  0.00     0.010 C 
ATOM     12  C   UNL     1     120.715 118.003 122.168  1.00  0.00     0.033 C 
ATOM     13  C   UNL     1     122.220 118.155 122.464  1.00  0.00     0.120 C 
ATOM     14  C   UNL     1     122.868 119.428 121.795  1.00  0.00    -0.006 C 
ATOM     15  C   UNL     1     121.776 120.547 121.472  1.00  0.00     0.003 C 
ATOM     16  C   UNL     1     121.344 121.281 122.785  1.00  0.00     0.005 C 
ATOM     17  C   UNL     1     120.090 122.192 122.779  1.00  0.00     0.008 C 
ATOM     18  C   UNL     1     119.278 122.277 121.450  1.00  0.00    -0.024 C 
ATOM     19  C   UNL     1     117.783 122.937 121.675  1.00  0.00    -0.024 C 
ATOM     20  C   UNL     1     117.275 123.790 120.454  1.00  0.00     0.008 C 
ATOM     21  C   UNL     1     115.890 124.433 120.635  1.00  0.00     0.007 C 
ATOM     22  C   UNL     1     117.807 123.894 122.916  1.00  0.00     0.012 C 
ATOM     23  C   UNL     1     120.087 123.191 120.482  1.00  0.00     0.012 C 
ATOM     24  C   UNL     1     123.617 118.997 120.498  1.00  0.00     0.014 C 
ATOM     25  C   UNL     1     123.994 120.007 122.707  1.00  0.00     0.014 C 
ATOM     26  C   UNL     1     120.853 120.282 119.071  1.00  0.00     0.012 C 
ATOM     27  C   UNL     1     113.876 124.537 122.122  1.00  0.00     0.011 C 
ENDROOT
BRANCH   1  28
ATOM     28  C   UNL     1     113.292 121.131 123.454  1.00  0.00    -0.077 C 
ATOM     29  C   UNL     1     112.072 120.246 123.357  1.00  0.00     0.039 C 
ATOM     30  C   UNL     1     113.517 121.744 124.631  1.00  0.00     0.008 C 
ENDBRANCH   1  28
BRANCH  13  31
ATOM     31  O   UNL     1     122.395 118.163 123.860  1.00  0.00    -0.393 OA
ATOM     32  H   UNL     1     123.233 118.661 124.048  1.00  0.00     0.210 HD
ENDBRANCH  13  31
TORSDOF 2
ENDMDL
MODEL 8
REMARK VINA RESULT:    -6.482      5.525      9.892
REMARK INTER + INTRA:          -7.491
REMARK INTER:                  -7.053
REMARK INTRA:                  -0.439
REMARK UNBOUND:                -0.441
REMARK SMILES C=C(C)[C@H]1CC[C@]2(C)CC[C@@]3(C)[C@H](CC[C@H]4[C@]5(C)CC[C@H](O)C(C)(C)[C@@H]5CC[C@@]43C)[C@H]12
REMARK SMILES IDX 4 1 5 2 6 3 7 4 31 5 13 6 14 7 15 8 16 9 17 10 19 11 20 12
REMARK SMILES IDX 21 13 23 14 26 15 27 16 28 17 29 18 11 19 10 20 9 21 12 22
REMARK SMILES IDX 30 23 24 24 25 25 18 26 8 27 2 28 3 29 1 30 22 31
REMARK H PARENT 22 32
REMARK Flexibility Score: inf
ROOT
ATOM      1  C   UNL     1     123.417 120.338 113.655  1.00  0.00     0.018 C 
ATOM      2  C   UNL     1     122.865 119.989 112.259  1.00  0.00     0.009 C 
ATOM      3  C   UNL     1     122.553 118.493 112.246  1.00  0.00     0.008 C 
ATOM      4  C   UNL     1     123.386 117.870 113.377  1.00  0.00    -0.029 C 
ATOM      5  C   UNL     1     123.484 118.997 114.456  1.00  0.00     0.006 C 
ATOM      6  C   UNL     1     122.426 118.908 115.627  1.00  0.00    -0.000 C 
ATOM      7  C   UNL     1     121.005 119.460 115.246  1.00  0.00     0.005 C 
ATOM      8  C   UNL     1     119.851 118.958 116.126  1.00  0.00     0.005 C 
ATOM      9  C   UNL     1     120.348 118.695 117.556  1.00  0.00     0.002 C 
ATOM     10  C   UNL     1     119.227 118.756 118.683  1.00  0.00    -0.026 C 
ATOM     11  C   UNL     1     118.808 120.259 118.885  1.00  0.00     0.010 C 
ATOM     12  C   UNL     1     119.636 120.973 119.952  1.00  0.00     0.033 C 
ATOM     13  C   UNL     1     119.404 120.395 121.362  1.00  0.00     0.120 C 
ATOM     14  C   UNL     1     119.144 118.839 121.370  1.00  0.00    -0.006 C 
ATOM     15  C   UNL     1     119.736 118.135 120.065  1.00  0.00     0.003 C 
ATOM     16  C   UNL     1     121.294 118.019 120.168  1.00  0.00     0.005 C 
ATOM     17  C   UNL     1     122.122 117.650 118.911  1.00  0.00     0.008 C 
ATOM     18  C   UNL     1     121.342 117.470 117.573  1.00  0.00    -0.024 C 
ATOM     19  C   UNL     1     122.344 117.476 116.262  1.00  0.00    -0.024 C 
ATOM     20  C   UNL     1     121.866 116.539 115.092  1.00  0.00     0.008 C 
ATOM     21  C   UNL     1     122.785 116.509 113.859  1.00  0.00     0.007 C 
ATOM     22  C   UNL     1     123.771 116.981 116.684  1.00  0.00     0.012 C 
ATOM     23  C   UNL     1     120.625 116.089 117.646  1.00  0.00     0.012 C 
ATOM     24  C   UNL     1     117.613 118.579 121.491  1.00  0.00     0.014 C 
ATOM     25  C   UNL     1     119.741 118.195 122.660  1.00  0.00     0.014 C 
ATOM     26  C   UNL     1     117.957 117.991 118.195  1.00  0.00     0.012 C 
ATOM     27  C   UNL     1     124.794 117.561 112.796  1.00  0.00     0.011 C 
ENDROOT
BRANCH   1  28
ATOM     28  C   UNL     1     124.693 121.185 113.555  1.00  0.00    -0.077 C 
ATOM     29  C   UNL     1     125.728 121.034 114.643  1.00  0.00     0.039 C 
ATOM     30  C   UNL     1     124.928 122.107 112.603  1.00  0.00     0.008 C 
ENDBRANCH   1  28
BRANCH  13  31
ATOM     31  O   UNL     1     120.509 120.736 122.165  1.00  0.00    -0.393 OA
ATOM     32  H   UNL     1     120.501 120.126 122.949  1.00  0.00     0.210 HD
ENDBRANCH  13  31
TORSDOF 2
ENDMDL
MODEL 9
REMARK VINA RESULT:    -6.415      2.076      7.690
REMARK INTER + INTRA:          -7.418
REMARK INTER:                  -6.977
REMARK INTRA:                  -0.442
REMARK UNBOUND:                -0.441
REMARK SMILES C=C(C)[C@H]1CC[C@]2(C)CC[C@@]3(C)[C@H](CC[C@H]4[C@]5(C)CC[C@H](O)C(C)(C)[C@@H]5CC[C@@]43C)[C@H]12
REMARK SMILES IDX 4 1 5 2 6 3 7 4 31 5 13 6 14 7 15 8 16 9 17 10 19 11 20 12
REMARK SMILES IDX 21 13 23 14 26 15 27 16 28 17 29 18 11 19 10 20 9 21 12 22
REMARK SMILES IDX 30 23 24 24 25 25 18 26 8 27 2 28 3 29 1 30 22 31
REMARK H PARENT 22 32
REMARK Flexibility Score: inf
ROOT
ATOM      1  C   UNL     1     123.835 122.482 121.874  1.00  0.00     0.018 C 
ATOM      2  C   UNL     1     124.486 122.165 120.514  1.00  0.00     0.009 C 
ATOM      3  C   UNL     1     123.834 120.893 119.973  1.00  0.00     0.008 C 
ATOM      4  C   UNL     1     123.221 120.175 121.185  1.00  0.00    -0.029 C 
ATOM      5  C   UNL     1     122.819 121.329 122.160  1.00  0.00     0.006 C 
ATOM      6  C   UNL     1     121.307 121.786 122.080  1.00  0.00    -0.000 C 
ATOM      7  C   UNL     1     120.997 122.754 120.880  1.00  0.00     0.005 C 
ATOM      8  C   UNL     1     119.520 122.824 120.463  1.00  0.00     0.005 C 
ATOM      9  C   UNL     1     118.612 122.599 121.683  1.00  0.00     0.002 C 
ATOM     10  C   UNL     1     117.149 123.212 121.557  1.00  0.00    -0.026 C 
ATOM     11  C   UNL     1     117.256 124.778 121.668  1.00  0.00     0.010 C 
ATOM     12  C   UNL     1     117.130 125.287 123.103  1.00  0.00     0.033 C 
ATOM     13  C   UNL     1     115.731 125.030 123.697  1.00  0.00     0.120 C 
ATOM     14  C   UNL     1     115.071 123.687 123.196  1.00  0.00    -0.006 C 
ATOM     15  C   UNL     1     116.166 122.646 122.684  1.00  0.00     0.003 C 
ATOM     16  C   UNL     1     116.909 121.994 123.898  1.00  0.00     0.005 C 
ATOM     17  C   UNL     1     118.209 121.184 123.659  1.00  0.00     0.008 C 
ATOM     18  C   UNL     1     118.746 121.114 122.197  1.00  0.00    -0.024 C 
ATOM     19  C   UNL     1     120.305 120.581 122.132  1.00  0.00    -0.024 C 
ATOM     20  C   UNL     1     120.631 119.726 120.851  1.00  0.00     0.008 C 
ATOM     21  C   UNL     1     122.074 119.200 120.764  1.00  0.00     0.007 C 
ATOM     22  C   UNL     1     120.607 119.670 123.371  1.00  0.00     0.012 C 
ATOM     23  C   UNL     1     117.841 120.106 121.429  1.00  0.00     0.012 C 
ATOM     24  C   UNL     1     114.047 124.012 122.068  1.00  0.00     0.014 C 
ATOM     25  C   UNL     1     114.200 123.055 124.327  1.00  0.00     0.014 C 
ATOM     26  C   UNL     1     116.571 122.894 120.143  1.00  0.00     0.012 C 
ATOM     27  C   UNL     1     124.343 119.305 121.820  1.00  0.00     0.011 C 
ENDROOT
BRANCH   1  28
ATOM     28  C   UNL     1     124.894 122.792 122.941  1.00  0.00    -0.077 C 
ATOM     29  C   UNL     1     126.335 122.884 122.499  1.00  0.00     0.039 C 
ATOM     30  C   UNL     1     124.642 122.919 124.257  1.00  0.00     0.008 C 
ENDBRANCH   1  28
BRANCH  13  31
ATOM     31  O   UNL     1     115.836 125.059 125.100  1.00  0.00    -0.393 OA
ATOM     32  H   UNL     1     116.076 124.142 125.395  1.00  0.00     0.210 HD
ENDBRANCH  13  31
TORSDOF 2
ENDMDL
