MODEL 1
REMARK VINA RESULT:    12.316      0.000      0.000
REMARK INTER + INTRA:          21.853
REMARK INTER:                  18.076
REMARK INTRA:                   3.778
REMARK UNBOUND:                 3.778
REMARK SMILES O=c1c(O[C@@H]2O[C@H](CO)[C@@H](O)[C@H](O)[C@H]2O)c(-c2ccc(O)c(O)c2)oc2cc(O)cc(O)c12
REMARK SMILES IDX 4 1 3 2 16 3 25 4 2 5 26 6 1 7 33 8 27 9 31 10 28 11 30 12
REMARK SMILES IDX 17 13 18 14 19 15 20 16 24 17 22 18 21 19 23 21 32 23 29 25
REMARK SMILES IDX 5 27 14 28 6 29 12 30 7 31 10 32 15 33 13 35 8 37 9 38 11 40
REMARK H PARENT 21 20 23 22 32 24 29 26 15 34 13 36 9 39 11 41
REMARK Flexibility Score: inf
ROOT
ATOM      1  O   UNL     1       5.371  10.085   8.525  1.00  0.00    -0.454 OA
ENDROOT
BRANCH   1   2
ATOM      2  C   UNL     1       5.864  10.693   7.365  1.00  0.00     0.214 A 
ATOM      3  C   UNL     1       4.951  11.221   6.449  1.00  0.00     0.180 A 
ATOM      4  O   UNL     1       5.374  11.757   5.314  1.00  0.00    -0.452 OA
ATOM      5  C   UNL     1       7.232  10.742   7.071  1.00  0.00     0.239 A 
ATOM      6  C   UNL     1       6.661  11.849   4.995  1.00  0.00     0.146 A 
ATOM      7  O   UNL     1       8.042  10.182   7.857  1.00  0.00    -0.285 OA
ATOM      8  C   UNL     1       7.669  11.360   5.871  1.00  0.00     0.111 A 
ATOM      9  C   UNL     1       7.004  12.436   3.775  1.00  0.00     0.094 A 
ATOM     10  C   UNL     1       9.033  11.481   5.473  1.00  0.00     0.134 A 
ATOM     11  C   UNL     1       8.338  12.527   3.383  1.00  0.00     0.123 A 
ATOM     12  C   UNL     1       9.341  12.031   4.220  1.00  0.00     0.093 A 
BRANCH   3  13
ATOM     13  C   UNL     1       3.510  11.180   6.738  1.00  0.00     0.025 A 
ATOM     14  C   UNL     1       2.709  10.186   6.169  1.00  0.00     0.016 A 
ATOM     15  C   UNL     1       1.367  10.076   6.537  1.00  0.00     0.051 A 
ATOM     16  C   UNL     1       0.812  10.960   7.470  1.00  0.00     0.157 A 
ATOM     17  C   UNL     1       2.960  12.066   7.682  1.00  0.00     0.062 A 
ATOM     18  C   UNL     1       1.613  11.964   8.039  1.00  0.00     0.158 A 
BRANCH  16  19
ATOM     19  O   UNL     1      -0.531  10.817   7.823  1.00  0.00    -0.504 OA
ATOM     20  H   UNL     1      -0.957   9.909   7.969  1.00  0.00     0.293 HD
ENDBRANCH  16  19
BRANCH  18  21
ATOM     21  O   UNL     1       1.062  12.868   8.950  1.00  0.00    -0.504 OA
ATOM     22  H   UNL     1       0.396  12.572   9.655  1.00  0.00     0.293 HD
ENDBRANCH  18  21
ENDBRANCH   3  13
BRANCH  10  23
ATOM     23  O   UNL     1      10.122  11.112   6.271  1.00  0.00    -0.507 OA
ATOM     24  H   UNL     1      11.067  11.448   6.160  1.00  0.00     0.293 HD
ENDBRANCH  10  23
BRANCH  11  25
ATOM     25  O   UNL     1       8.660  13.125   2.163  1.00  0.00    -0.508 OA
ATOM     26  H   UNL     1       9.624  13.238   1.867  1.00  0.00     0.293 HD
ENDBRANCH  11  25
ENDBRANCH   1   2
BRANCH   1  27
ATOM     27  C   UNL     1       5.494  10.639   9.833  1.00  0.00     0.339 C 
ATOM     28  C   UNL     1       4.761  12.004   9.873  1.00  0.00     0.214 C 
ATOM     29  O   UNL     1       5.031   9.721  10.815  1.00  0.00    -0.332 OA
ATOM     30  C   UNL     1       3.456  11.928  10.677  1.00  0.00     0.180 C 
ATOM     31  C   UNL     1       3.638   9.410  10.724  1.00  0.00     0.179 C 
ATOM     32  C   UNL     1       2.732  10.607  10.327  1.00  0.00     0.177 C 
BRANCH  28  33
ATOM     33  O   UNL     1       5.615  13.018  10.354  1.00  0.00    -0.384 OA
ATOM     34  H   UNL     1       5.495  13.094  11.340  1.00  0.00     0.211 HD
ENDBRANCH  28  33
BRANCH  30  35
ATOM     35  O   UNL     1       2.658  13.062  10.434  1.00  0.00    -0.387 OA
ATOM     36  H   UNL     1       2.210  13.325  11.285  1.00  0.00     0.211 HD
ENDBRANCH  30  35
BRANCH  31  37
ATOM     37  C   UNL     1       3.403   8.172   9.839  1.00  0.00     0.191 C 
BRANCH  37  38
ATOM     38  O   UNL     1       3.098   8.571   8.528  1.00  0.00    -0.394 OA
ATOM     39  H   UNL     1       2.246   9.079   8.591  1.00  0.00     0.210 HD
ENDBRANCH  37  38
ENDBRANCH  31  37
BRANCH  32  40
ATOM     40  O   UNL     1       1.471  10.488  10.955  1.00  0.00    -0.387 OA
ATOM     41  H   UNL     1       1.445   9.648  11.486  1.00  0.00     0.211 HD
ENDBRANCH  32  40
ENDBRANCH   1  27
TORSDOF 12
ENDMDL
