MODEL 1
REMARK VINA RESULT:    -7.997      0.000      0.000
REMARK INTER + INTRA:         -12.876
REMARK INTER:                 -11.036
REMARK INTRA:                  -1.840
REMARK UNBOUND:                -1.840
REMARK SMILES O=C([O-])[C@@H]1O[C@H](Oc2cc3oc(-c4ccccc4)cc(=O)c3c(O)c2O)[C@@H](O)[C@H](O)[C@@H]1O
REMARK SMILES IDX 7 1 6 2 4 3 31 4 5 5 29 6 27 7 2 8 1 9 3 10 32 11 30 13
REMARK SMILES IDX 28 15 8 17 25 18 9 19 23 20 10 21 22 22 11 23 20 24 12 25
REMARK SMILES IDX 19 26 21 27 26 28 24 30 13 32 14 33 18 34 15 35 17 36 16 37
REMARK H PARENT 32 12 30 14 28 16 26 29 24 31
REMARK Flexibility Score: inf
ROOT
ATOM      1  O   UNL     1     178.389 170.112 173.437  1.00  0.00    -0.458 OA
ENDROOT
BRANCH   1   2
ATOM      2  C   UNL     1     179.358 169.060 173.350  1.00  0.00     0.339 C 
ATOM      3  C   UNL     1     180.255 169.737 171.246  1.00  0.00     0.199 C 
ATOM      4  C   UNL     1     181.634 170.099 171.860  1.00  0.00     0.180 C 
ATOM      5  O   UNL     1     179.595 168.719 171.990  1.00  0.00    -0.328 OA
ATOM      6  C   UNL     1     181.549 170.422 173.361  1.00  0.00     0.181 C 
ATOM      7  C   UNL     1     180.669 169.398 174.111  1.00  0.00     0.214 C 
BRANCH   3   8
ATOM      8  C   UNL     1     179.335 170.895 170.920  1.00  0.00     0.073 C 
ATOM      9  O   UNL     1     178.269 170.682 170.283  1.00  0.00    -0.547 OA
ATOM     10  O   UNL     1     179.686 172.206 171.219  1.00  0.00    -0.547 OA
ENDBRANCH   3   8
BRANCH   4  11
ATOM     11  O   UNL     1     182.253 171.156 171.171  1.00  0.00    -0.387 OA
ATOM     12  H   UNL     1     183.007 170.764 170.659  1.00  0.00     0.211 HD
ENDBRANCH   4  11
BRANCH   6  13
ATOM     13  O   UNL     1     181.133 171.746 173.594  1.00  0.00    -0.387 OA
ATOM     14  H   UNL     1     180.827 172.134 172.738  1.00  0.00     0.211 HD
ENDBRANCH   6  13
BRANCH   7  15
ATOM     15  O   UNL     1     181.398 168.224 174.377  1.00  0.00    -0.384 OA
ATOM     16  H   UNL     1     181.980 168.041 173.594  1.00  0.00     0.211 HD
ENDBRANCH   7  15
ENDBRANCH   1   2
BRANCH   1  17
ATOM     17  C   UNL     1     177.004 170.005 173.674  1.00  0.00     0.172 A 
ATOM     18  C   UNL     1     176.102 169.293 172.846  1.00  0.00     0.201 A 
ATOM     19  C   UNL     1     176.521 170.677 174.797  1.00  0.00     0.098 A 
ATOM     20  C   UNL     1     174.733 169.203 173.211  1.00  0.00     0.176 A 
ATOM     21  C   UNL     1     175.173 170.632 175.141  1.00  0.00     0.146 A 
ATOM     22  C   UNL     1     174.264 169.891 174.357  1.00  0.00     0.111 A 
ATOM     23  O   UNL     1     174.761 171.290 176.219  1.00  0.00    -0.456 OA
ATOM     24  C   UNL     1     172.915 169.870 174.773  1.00  0.00     0.197 A 
ATOM     25  C   UNL     1     173.496 171.303 176.631  1.00  0.00     0.138 A 
ATOM     26  C   UNL     1     172.532 170.577 175.914  1.00  0.00     0.100 A 
ATOM     27  O   UNL     1     172.039 169.224 174.138  1.00  0.00    -0.289 OA
BRANCH  18  28
ATOM     28  O   UNL     1     176.569 168.719 171.663  1.00  0.00    -0.502 OA
ATOM     29  H   UNL     1     176.482 169.139 170.749  1.00  0.00     0.293 HD
ENDBRANCH  18  28
BRANCH  20  30
ATOM     30  O   UNL     1     173.833 168.433 172.467  1.00  0.00    -0.504 OA
ATOM     31  H   UNL     1     173.049 168.808 171.953  1.00  0.00     0.293 HD
ENDBRANCH  20  30
BRANCH  25  32
ATOM     32  C   UNL     1     173.149 172.078 177.850  1.00  0.00     0.017 A 
ATOM     33  C   UNL     1     171.876 172.657 178.024  1.00  0.00     0.012 A 
ATOM     34  C   UNL     1     174.123 172.270 178.848  1.00  0.00     0.012 A 
ATOM     35  C   UNL     1     171.583 173.390 179.178  1.00  0.00     0.001 A 
ATOM     36  C   UNL     1     173.824 173.004 180.000  1.00  0.00     0.001 A 
ATOM     37  C   UNL     1     172.555 173.561 180.166  1.00  0.00     0.000 A 
ENDBRANCH  25  32
ENDBRANCH   1  17
TORSDOF 9
ENDMDL
MODEL 2
REMARK VINA RESULT:    -7.897      7.008     11.159
REMARK INTER + INTRA:         -12.737
REMARK INTER:                 -10.912
REMARK INTRA:                  -1.826
REMARK UNBOUND:                -1.840
REMARK SMILES O=C([O-])[C@@H]1O[C@H](Oc2cc3oc(-c4ccccc4)cc(=O)c3c(O)c2O)[C@@H](O)[C@H](O)[C@@H]1O
REMARK SMILES IDX 7 1 6 2 4 3 31 4 5 5 29 6 27 7 2 8 1 9 3 10 32 11 30 13
REMARK SMILES IDX 28 15 8 17 25 18 9 19 23 20 10 21 22 22 11 23 20 24 12 25
REMARK SMILES IDX 19 26 21 27 26 28 24 30 13 32 14 33 18 34 15 35 17 36 16 37
REMARK H PARENT 32 12 30 14 28 16 26 29 24 31
REMARK Flexibility Score: inf
ROOT
ATOM      1  O   UNL     1     168.177 176.251 173.332  1.00  0.00    -0.458 OA
ENDROOT
BRANCH   1   2
ATOM      2  C   UNL     1     167.188 177.288 173.301  1.00  0.00     0.339 C 
ATOM      3  C   UNL     1     166.268 176.674 171.187  1.00  0.00     0.199 C 
ATOM      4  C   UNL     1     164.907 176.263 171.809  1.00  0.00     0.180 C 
ATOM      5  O   UNL     1     166.922 177.675 171.958  1.00  0.00    -0.328 OA
ATOM      6  C   UNL     1     165.022 175.885 173.295  1.00  0.00     0.181 C 
ATOM      7  C   UNL     1     165.897 176.896 174.069  1.00  0.00     0.214 C 
BRANCH   3   8
ATOM      8  C   UNL     1     167.204 175.547 170.802  1.00  0.00     0.073 C 
ATOM      9  O   UNL     1     168.255 175.805 170.157  1.00  0.00    -0.547 OA
ATOM     10  O   UNL     1     166.881 174.219 171.056  1.00  0.00    -0.547 OA
ENDBRANCH   3   8
BRANCH   4  11
ATOM     11  O   UNL     1     164.296 175.221 171.090  1.00  0.00    -0.387 OA
ATOM     12  H   UNL     1     164.168 174.469 171.725  1.00  0.00     0.211 HD
ENDBRANCH   4  11
BRANCH   6  13
ATOM     13  O   UNL     1     165.466 174.560 173.470  1.00  0.00    -0.387 OA
ATOM     14  H   UNL     1     166.305 174.441 172.962  1.00  0.00     0.211 HD
ENDBRANCH   6  13
BRANCH   7  15
ATOM     15  O   UNL     1     165.151 178.045 174.391  1.00  0.00    -0.384 OA
ATOM     16  H   UNL     1     165.705 178.613 174.987  1.00  0.00     0.211 HD
ENDBRANCH   7  15
ENDBRANCH   1   2
BRANCH   1  17
ATOM     17  C   UNL     1     169.553 176.368 173.613  1.00  0.00     0.172 A 
ATOM     18  C   UNL     1     170.473 177.104 172.826  1.00  0.00     0.201 A 
ATOM     19  C   UNL     1     170.009 175.680 174.738  1.00  0.00     0.098 A 
ATOM     20  C   UNL     1     171.829 177.201 173.234  1.00  0.00     0.176 A 
ATOM     21  C   UNL     1     171.345 175.731 175.123  1.00  0.00     0.146 A 
ATOM     22  C   UNL     1     172.271 176.495 174.381  1.00  0.00     0.111 A 
ATOM     23  O   UNL     1     171.731 175.057 176.201  1.00  0.00    -0.456 OA
ATOM     24  C   UNL     1     173.606 176.522 174.838  1.00  0.00     0.197 A 
ATOM     25  C   UNL     1     172.983 175.048 176.651  1.00  0.00     0.138 A 
ATOM     26  C   UNL     1     173.961 175.797 175.977  1.00  0.00     0.100 A 
ATOM     27  O   UNL     1     174.494 177.188 174.242  1.00  0.00    -0.289 OA
BRANCH  18  28
ATOM     28  O   UNL     1     170.036 177.695 171.639  1.00  0.00    -0.502 OA
ATOM     29  H   UNL     1     170.512 177.619 170.752  1.00  0.00     0.293 HD
ENDBRANCH  18  28
BRANCH  20  30
ATOM     30  O   UNL     1     172.743 177.993 172.532  1.00  0.00    -0.504 OA
ATOM     31  H   UNL     1     172.665 178.993 172.419  1.00  0.00     0.293 HD
ENDBRANCH  20  30
BRANCH  25  32
ATOM     32  C   UNL     1     173.301 174.254 177.865  1.00  0.00     0.017 A 
ATOM     33  C   UNL     1     172.358 174.061 178.894  1.00  0.00     0.012 A 
ATOM     34  C   UNL     1     174.588 173.703 178.014  1.00  0.00     0.012 A 
ATOM     35  C   UNL     1     172.692 173.318 180.031  1.00  0.00     0.001 A 
ATOM     36  C   UNL     1     174.916 172.960 179.152  1.00  0.00     0.001 A 
ATOM     37  C   UNL     1     173.968 172.766 180.158  1.00  0.00     0.000 A 
ENDBRANCH  25  32
ENDBRANCH   1  17
TORSDOF 9
ENDMDL
MODEL 3
REMARK VINA RESULT:    -7.751      0.889      2.326
REMARK INTER + INTRA:         -12.537
REMARK INTER:                 -10.852
REMARK INTRA:                  -1.684
REMARK UNBOUND:                -1.840
REMARK SMILES O=C([O-])[C@@H]1O[C@H](Oc2cc3oc(-c4ccccc4)cc(=O)c3c(O)c2O)[C@@H](O)[C@H](O)[C@@H]1O
REMARK SMILES IDX 7 1 6 2 4 3 31 4 5 5 29 6 27 7 2 8 1 9 3 10 32 11 30 13
REMARK SMILES IDX 28 15 8 17 25 18 9 19 23 20 10 21 22 22 11 23 20 24 12 25
REMARK SMILES IDX 19 26 21 27 26 28 24 30 13 32 14 33 18 34 15 35 17 36 16 37
REMARK H PARENT 32 12 30 14 28 16 26 29 24 31
REMARK Flexibility Score: inf
ROOT
ATOM      1  O   UNL     1     178.352 170.744 173.331  1.00  0.00    -0.458 OA
ENDROOT
BRANCH   1   2
ATOM      2  C   UNL     1     178.997 171.990 173.044  1.00  0.00     0.339 C 
ATOM      3  C   UNL     1     181.128 171.045 172.538  1.00  0.00     0.199 C 
ATOM      4  C   UNL     1     181.049 171.464 171.046  1.00  0.00     0.180 C 
ATOM      5  O   UNL     1     180.378 171.920 173.374  1.00  0.00    -0.328 OA
ATOM      6  C   UNL     1     179.604 171.656 170.558  1.00  0.00     0.181 C 
ATOM      7  C   UNL     1     178.763 172.453 171.580  1.00  0.00     0.214 C 
BRANCH   3   8
ATOM      8  C   UNL     1     180.856 169.587 172.847  1.00  0.00     0.073 C 
ATOM      9  O   UNL     1     181.040 169.155 174.015  1.00  0.00    -0.547 OA
ATOM     10  O   UNL     1     180.505 168.688 171.846  1.00  0.00    -0.547 OA
ENDBRANCH   3   8
BRANCH   4  11
ATOM     11  O   UNL     1     181.726 170.559 170.211  1.00  0.00    -0.387 OA
ATOM     12  H   UNL     1     181.783 169.699 170.704  1.00  0.00     0.211 HD
ENDBRANCH   4  11
BRANCH   6  13
ATOM     13  O   UNL     1     178.996 170.434 170.214  1.00  0.00    -0.387 OA
ATOM     14  H   UNL     1     179.316 169.738 170.838  1.00  0.00     0.211 HD
ENDBRANCH   6  13
BRANCH   7  15
ATOM     15  O   UNL     1     179.017 173.832 171.455  1.00  0.00    -0.384 OA
ATOM     16  H   UNL     1     179.366 173.998 170.541  1.00  0.00     0.211 HD
ENDBRANCH   7  15
ENDBRANCH   1   2
BRANCH   1  17
ATOM     17  C   UNL     1     176.992 170.511 173.618  1.00  0.00     0.172 A 
ATOM     18  C   UNL     1     176.124 169.735 172.812  1.00  0.00     0.201 A 
ATOM     19  C   UNL     1     176.497 171.122 174.771  1.00  0.00     0.098 A 
ATOM     20  C   UNL     1     174.784 169.519 173.227  1.00  0.00     0.176 A 
ATOM     21  C   UNL     1     175.172 170.953 175.164  1.00  0.00     0.146 A 
ATOM     22  C   UNL     1     174.301 170.146 174.402  1.00  0.00     0.111 A 
ATOM     23  O   UNL     1     174.747 171.557 176.269  1.00  0.00    -0.456 OA
ATOM     24  C   UNL     1     172.977 170.000 174.868  1.00  0.00     0.197 A 
ATOM     25  C   UNL     1     173.503 171.452 176.728  1.00  0.00     0.138 A 
ATOM     26  C   UNL     1     172.579 170.654 176.035  1.00  0.00     0.100 A 
ATOM     27  O   UNL     1     172.136 169.289 174.255  1.00  0.00    -0.289 OA
BRANCH  18  28
ATOM     28  O   UNL     1     176.593 169.222 171.601  1.00  0.00    -0.502 OA
ATOM     29  H   UNL     1     176.705 168.239 171.400  1.00  0.00     0.293 HD
ENDBRANCH  18  28
BRANCH  20  30
ATOM     30  O   UNL     1     173.926 168.684 172.503  1.00  0.00    -0.504 OA
ATOM     31  H   UNL     1     173.517 168.919 171.611  1.00  0.00     0.293 HD
ENDBRANCH  20  30
BRANCH  25  32
ATOM     32  C   UNL     1     173.137 172.175 177.973  1.00  0.00     0.017 A 
ATOM     33  C   UNL     1     171.865 172.756 178.148  1.00  0.00     0.012 A 
ATOM     34  C   UNL     1     174.092 172.315 178.997  1.00  0.00     0.012 A 
ATOM     35  C   UNL     1     171.555 173.440 179.327  1.00  0.00     0.001 A 
ATOM     36  C   UNL     1     173.776 173.000 180.175  1.00  0.00     0.001 A 
ATOM     37  C   UNL     1     172.508 173.560 180.340  1.00  0.00     0.000 A 
ENDBRANCH  25  32
ENDBRANCH   1  17
TORSDOF 9
ENDMDL
MODEL 4
REMARK VINA RESULT:    -7.687      1.689      1.959
REMARK INTER + INTRA:         -12.448
REMARK INTER:                 -10.727
REMARK INTRA:                  -1.722
REMARK UNBOUND:                -1.840
REMARK SMILES O=C([O-])[C@@H]1O[C@H](Oc2cc3oc(-c4ccccc4)cc(=O)c3c(O)c2O)[C@@H](O)[C@H](O)[C@@H]1O
REMARK SMILES IDX 7 1 6 2 4 3 31 4 5 5 29 6 27 7 2 8 1 9 3 10 32 11 30 13
REMARK SMILES IDX 28 15 8 17 25 18 9 19 23 20 10 21 22 22 11 23 20 24 12 25
REMARK SMILES IDX 19 26 21 27 26 28 24 30 13 32 14 33 18 34 15 35 17 36 16 37
REMARK H PARENT 32 12 30 14 28 16 26 29 24 31
REMARK Flexibility Score: inf
ROOT
ATOM      1  O   UNL     1     177.244 171.724 173.238  1.00  0.00    -0.458 OA
ENDROOT
BRANCH   1   2
ATOM      2  C   UNL     1     178.208 170.763 172.791  1.00  0.00     0.339 C 
ATOM      3  C   UNL     1     178.778 171.915 170.782  1.00  0.00     0.199 C 
ATOM      4  C   UNL     1     180.224 172.206 171.263  1.00  0.00     0.180 C 
ATOM      5  O   UNL     1     178.252 170.731 171.370  1.00  0.00    -0.328 OA
ATOM      6  C   UNL     1     180.353 172.197 172.796  1.00  0.00     0.181 C 
ATOM      7  C   UNL     1     179.610 170.996 173.419  1.00  0.00     0.214 C 
BRANCH   3   8
ATOM      8  C   UNL     1     177.799 173.069 170.845  1.00  0.00     0.073 C 
ATOM      9  O   UNL     1     176.599 172.884 170.512  1.00  0.00    -0.547 OA
ATOM     10  O   UNL     1     178.216 174.356 171.167  1.00  0.00    -0.547 OA
ENDBRANCH   3   8
BRANCH   4  11
ATOM     11  O   UNL     1     180.717 173.414 170.742  1.00  0.00    -0.387 OA
ATOM     12  H   UNL     1     180.641 174.092 171.463  1.00  0.00     0.211 HD
ENDBRANCH   4  11
BRANCH   6  13
ATOM     13  O   UNL     1     179.951 173.421 173.366  1.00  0.00    -0.387 OA
ATOM     14  H   UNL     1     180.740 174.012 173.427  1.00  0.00     0.211 HD
ENDBRANCH   6  13
BRANCH   7  15
ATOM     15  O   UNL     1     180.391 169.830 173.321  1.00  0.00    -0.384 OA
ATOM     16  H   UNL     1     180.554 169.650 172.358  1.00  0.00     0.211 HD
ENDBRANCH   7  15
ENDBRANCH   1   2
BRANCH   1  17
ATOM     17  C   UNL     1     175.944 171.490 173.730  1.00  0.00     0.172 A 
ATOM     18  C   UNL     1     174.902 170.884 172.986  1.00  0.00     0.201 A 
ATOM     19  C   UNL     1     175.697 171.918 175.034  1.00  0.00     0.098 A 
ATOM     20  C   UNL     1     173.645 170.645 173.601  1.00  0.00     0.176 A 
ATOM     21  C   UNL     1     174.455 171.729 175.633  1.00  0.00     0.146 A 
ATOM     22  C   UNL     1     173.416 171.086 174.927  1.00  0.00     0.111 A 
ATOM     23  O   UNL     1     174.268 172.157 176.877  1.00  0.00    -0.456 OA
ATOM     24  C   UNL     1     172.188 170.907 175.600  1.00  0.00     0.197 A 
ATOM     25  C   UNL     1     173.120 172.017 177.535  1.00  0.00     0.138 A 
ATOM     26  C   UNL     1     172.042 171.373 176.908  1.00  0.00     0.100 A 
ATOM     27  O   UNL     1     171.211 170.333 175.049  1.00  0.00    -0.289 OA
BRANCH  18  28
ATOM     28  O   UNL     1     175.119 170.562 171.645  1.00  0.00    -0.502 OA
ATOM     29  H   UNL     1     175.868 169.974 171.310  1.00  0.00     0.293 HD
ENDBRANCH  18  28
BRANCH  20  30
ATOM     30  O   UNL     1     172.624 169.967 172.926  1.00  0.00    -0.504 OA
ATOM     31  H   UNL     1     172.676 169.667 171.964  1.00  0.00     0.293 HD
ENDBRANCH  20  30
BRANCH  25  32
ATOM     32  C   UNL     1     173.024 172.538 178.923  1.00  0.00     0.017 A 
ATOM     33  C   UNL     1     171.823 173.068 179.435  1.00  0.00     0.012 A 
ATOM     34  C   UNL     1     174.167 172.533 179.744  1.00  0.00     0.012 A 
ATOM     35  C   UNL     1     171.767 173.561 180.743  1.00  0.00     0.001 A 
ATOM     36  C   UNL     1     174.105 173.027 181.051  1.00  0.00     0.001 A 
ATOM     37  C   UNL     1     172.906 173.537 181.551  1.00  0.00     0.000 A 
ENDBRANCH  25  32
ENDBRANCH   1  17
TORSDOF 9
ENDMDL
MODEL 5
REMARK VINA RESULT:    -7.648      2.190      3.220
REMARK INTER + INTRA:         -12.394
REMARK INTER:                 -10.399
REMARK INTRA:                  -1.995
REMARK UNBOUND:                -1.840
REMARK SMILES O=C([O-])[C@@H]1O[C@H](Oc2cc3oc(-c4ccccc4)cc(=O)c3c(O)c2O)[C@@H](O)[C@H](O)[C@@H]1O
REMARK SMILES IDX 7 1 6 2 4 3 31 4 5 5 29 6 27 7 2 8 1 9 3 10 32 11 30 13
REMARK SMILES IDX 28 15 8 17 25 18 9 19 23 20 10 21 22 22 11 23 20 24 12 25
REMARK SMILES IDX 19 26 21 27 26 28 24 30 13 32 14 33 18 34 15 35 17 36 16 37
REMARK H PARENT 32 12 30 14 28 16 26 29 24 31
REMARK Flexibility Score: inf
ROOT
ATOM      1  O   UNL     1     176.134 169.645 173.279  1.00  0.00    -0.458 OA
ENDROOT
BRANCH   1   2
ATOM      2  C   UNL     1     177.020 168.687 173.868  1.00  0.00     0.339 C 
ATOM      3  C   UNL     1     177.740 167.730 171.805  1.00  0.00     0.199 C 
ATOM      4  C   UNL     1     179.194 168.244 171.982  1.00  0.00     0.180 C 
ATOM      5  O   UNL     1     177.097 167.521 173.057  1.00  0.00    -0.328 OA
ATOM      6  C   UNL     1     179.283 169.470 172.907  1.00  0.00     0.181 C 
ATOM      7  C   UNL     1     178.420 169.285 174.174  1.00  0.00     0.214 C 
BRANCH   3   8
ATOM      8  C   UNL     1     176.866 168.495 170.833  1.00  0.00     0.073 C 
ATOM      9  O   UNL     1     175.745 168.025 170.503  1.00  0.00    -0.547 OA
ATOM     10  O   UNL     1     177.315 169.657 170.216  1.00  0.00    -0.547 OA
ENDBRANCH   3   8
BRANCH   4  11
ATOM     11  O   UNL     1     179.805 168.522 170.748  1.00  0.00    -0.387 OA
ATOM     12  H   UNL     1     180.699 168.906 170.948  1.00  0.00     0.211 HD
ENDBRANCH   4  11
BRANCH   6  13
ATOM     13  O   UNL     1     178.977 170.665 172.229  1.00  0.00    -0.387 OA
ATOM     14  H   UNL     1     178.456 171.245 172.836  1.00  0.00     0.211 HD
ENDBRANCH   6  13
BRANCH   7  15
ATOM     15  O   UNL     1     179.097 168.491 175.118  1.00  0.00    -0.384 OA
ATOM     16  H   UNL     1     180.070 168.553 174.929  1.00  0.00     0.211 HD
ENDBRANCH   7  15
ENDBRANCH   1   2
BRANCH   1  17
ATOM     17  C   UNL     1     175.816 170.938 173.741  1.00  0.00     0.172 A 
ATOM     18  C   UNL     1     175.953 172.120 172.973  1.00  0.00     0.201 A 
ATOM     19  C   UNL     1     175.360 171.023 175.057  1.00  0.00     0.098 A 
ATOM     20  C   UNL     1     175.549 173.366 173.520  1.00  0.00     0.176 A 
ATOM     21  C   UNL     1     175.002 172.245 175.619  1.00  0.00     0.146 A 
ATOM     22  C   UNL     1     175.086 173.430 174.858  1.00  0.00     0.111 A 
ATOM     23  O   UNL     1     174.574 172.275 176.877  1.00  0.00    -0.456 OA
ATOM     24  C   UNL     1     174.687 174.633 175.481  1.00  0.00     0.197 A 
ATOM     25  C   UNL     1     174.205 173.391 177.499  1.00  0.00     0.138 A 
ATOM     26  C   UNL     1     174.245 174.611 176.805  1.00  0.00     0.100 A 
ATOM     27  O   UNL     1     174.720 175.734 174.871  1.00  0.00    -0.289 OA
BRANCH  18  28
ATOM     28  O   UNL     1     176.518 172.045 171.699  1.00  0.00    -0.502 OA
ATOM     29  H   UNL     1     177.457 171.727 171.506  1.00  0.00     0.293 HD
ENDBRANCH  18  28
BRANCH  20  30
ATOM     30  O   UNL     1     175.585 174.539 172.759  1.00  0.00    -0.504 OA
ATOM     31  H   UNL     1     175.606 175.471 173.146  1.00  0.00     0.293 HD
ENDBRANCH  20  30
BRANCH  25  32
ATOM     32  C   UNL     1     173.748 173.306 178.909  1.00  0.00     0.017 A 
ATOM     33  C   UNL     1     172.402 173.523 179.268  1.00  0.00     0.012 A 
ATOM     34  C   UNL     1     174.683 173.032 179.925  1.00  0.00     0.012 A 
ATOM     35  C   UNL     1     172.004 173.446 180.607  1.00  0.00     0.001 A 
ATOM     36  C   UNL     1     174.279 172.956 181.261  1.00  0.00     0.001 A 
ATOM     37  C   UNL     1     172.941 173.160 181.602  1.00  0.00     0.000 A 
ENDBRANCH  25  32
ENDBRANCH   1  17
TORSDOF 9
ENDMDL
MODEL 6
REMARK VINA RESULT:    -7.641      6.510      9.744
REMARK INTER + INTRA:         -12.385
REMARK INTER:                 -10.389
REMARK INTRA:                  -1.996
REMARK UNBOUND:                -1.840
REMARK SMILES O=C([O-])[C@@H]1O[C@H](Oc2cc3oc(-c4ccccc4)cc(=O)c3c(O)c2O)[C@@H](O)[C@H](O)[C@@H]1O
REMARK SMILES IDX 7 1 6 2 4 3 31 4 5 5 29 6 27 7 2 8 1 9 3 10 32 11 30 13
REMARK SMILES IDX 28 15 8 17 25 18 9 19 23 20 10 21 22 22 11 23 20 24 12 25
REMARK SMILES IDX 19 26 21 27 26 28 24 30 13 32 14 33 18 34 15 35 17 36 16 37
REMARK H PARENT 32 12 30 14 28 16 26 29 24 31
REMARK Flexibility Score: inf
ROOT
ATOM      1  O   UNL     1     170.271 176.729 173.265  1.00  0.00    -0.458 OA
ENDROOT
BRANCH   1   2
ATOM      2  C   UNL     1     169.407 177.707 173.855  1.00  0.00     0.339 C 
ATOM      3  C   UNL     1     168.662 178.642 171.790  1.00  0.00     0.199 C 
ATOM      4  C   UNL     1     167.206 178.149 172.000  1.00  0.00     0.180 C 
ATOM      5  O   UNL     1     169.330 178.862 173.028  1.00  0.00    -0.328 OA
ATOM      6  C   UNL     1     167.118 176.938 172.944  1.00  0.00     0.181 C 
ATOM      7  C   UNL     1     168.005 177.130 174.194  1.00  0.00     0.214 C 
BRANCH   3   8
ATOM      8  C   UNL     1     169.510 177.852 170.815  1.00  0.00     0.073 C 
ATOM      9  O   UNL     1     170.639 178.295 170.473  1.00  0.00    -0.547 OA
ATOM     10  O   UNL     1     169.030 176.697 170.208  1.00  0.00    -0.547 OA
ENDBRANCH   3   8
BRANCH   4  11
ATOM     11  O   UNL     1     166.570 177.859 170.780  1.00  0.00    -0.387 OA
ATOM     12  H   UNL     1     166.990 177.033 170.424  1.00  0.00     0.211 HD
ENDBRANCH   4  11
BRANCH   6  13
ATOM     13  O   UNL     1     167.399 175.729 172.279  1.00  0.00    -0.387 OA
ATOM     14  H   UNL     1     167.016 175.776 171.369  1.00  0.00     0.211 HD
ENDBRANCH   6  13
BRANCH   7  15
ATOM     15  O   UNL     1     167.354 177.946 175.137  1.00  0.00    -0.384 OA
ATOM     16  H   UNL     1     167.920 177.984 175.952  1.00  0.00     0.211 HD
ENDBRANCH   7  15
ENDBRANCH   1   2
BRANCH   1  17
ATOM     17  C   UNL     1     170.576 175.437 173.737  1.00  0.00     0.172 A 
ATOM     18  C   UNL     1     170.417 174.249 172.981  1.00  0.00     0.201 A 
ATOM     19  C   UNL     1     171.041 175.358 175.050  1.00  0.00     0.098 A 
ATOM     20  C   UNL     1     170.809 173.004 173.537  1.00  0.00     0.176 A 
ATOM     21  C   UNL     1     171.387 174.137 175.621  1.00  0.00     0.146 A 
ATOM     22  C   UNL     1     171.281 172.946 174.872  1.00  0.00     0.111 A 
ATOM     23  O   UNL     1     171.824 174.114 176.876  1.00  0.00    -0.456 OA
ATOM     24  C   UNL     1     171.669 171.744 175.504  1.00  0.00     0.197 A 
ATOM     25  C   UNL     1     172.183 172.998 177.506  1.00  0.00     0.138 A 
ATOM     26  C   UNL     1     172.122 171.773 176.824  1.00  0.00     0.100 A 
ATOM     27  O   UNL     1     171.617 170.637 174.904  1.00  0.00    -0.289 OA
BRANCH  18  28
ATOM     28  O   UNL     1     169.843 174.320 171.711  1.00  0.00    -0.502 OA
ATOM     29  H   UNL     1     168.924 174.689 171.517  1.00  0.00     0.293 HD
ENDBRANCH  18  28
BRANCH  20  30
ATOM     30  O   UNL     1     170.752 171.824 172.787  1.00  0.00    -0.504 OA
ATOM     31  H   UNL     1     171.390 171.589 172.042  1.00  0.00     0.293 HD
ENDBRANCH  20  30
BRANCH  25  32
ATOM     32  C   UNL     1     172.653 173.091 178.912  1.00  0.00     0.017 A 
ATOM     33  C   UNL     1     171.775 173.406 179.969  1.00  0.00     0.012 A 
ATOM     34  C   UNL     1     174.016 172.891 179.200  1.00  0.00     0.012 A 
ATOM     35  C   UNL     1     172.251 173.497 181.281  1.00  0.00     0.001 A 
ATOM     36  C   UNL     1     174.485 172.983 180.514  1.00  0.00     0.001 A 
ATOM     37  C   UNL     1     173.603 173.283 181.554  1.00  0.00     0.000 A 
ENDBRANCH  25  32
ENDBRANCH   1  17
TORSDOF 9
ENDMDL
MODEL 7
REMARK VINA RESULT:    -7.611      6.981     10.674
REMARK INTER + INTRA:         -12.344
REMARK INTER:                 -10.687
REMARK INTRA:                  -1.656
REMARK UNBOUND:                -1.840
REMARK SMILES O=C([O-])[C@@H]1O[C@H](Oc2cc3oc(-c4ccccc4)cc(=O)c3c(O)c2O)[C@@H](O)[C@H](O)[C@@H]1O
REMARK SMILES IDX 7 1 6 2 4 3 31 4 5 5 29 6 27 7 2 8 1 9 3 10 32 11 30 13
REMARK SMILES IDX 28 15 8 17 25 18 9 19 23 20 10 21 22 22 11 23 20 24 12 25
REMARK SMILES IDX 19 26 21 27 26 28 24 30 13 32 14 33 18 34 15 35 17 36 16 37
REMARK H PARENT 32 12 30 14 28 16 26 29 24 31
REMARK Flexibility Score: inf
ROOT
ATOM      1  O   UNL     1     168.217 175.478 173.186  1.00  0.00    -0.458 OA
ENDROOT
BRANCH   1   2
ATOM      2  C   UNL     1     167.566 174.239 172.880  1.00  0.00     0.339 C 
ATOM      3  C   UNL     1     165.421 175.195 172.462  1.00  0.00     0.199 C 
ATOM      4  C   UNL     1     165.458 174.820 170.956  1.00  0.00     0.180 C 
ATOM      5  O   UNL     1     166.194 174.298 173.250  1.00  0.00    -0.328 OA
ATOM      6  C   UNL     1     166.890 174.645 170.423  1.00  0.00     0.181 C 
ATOM      7  C   UNL     1     167.759 173.820 171.397  1.00  0.00     0.214 C 
BRANCH   3   8
ATOM      8  C   UNL     1     165.699 176.644 172.805  1.00  0.00     0.073 C 
ATOM      9  O   UNL     1     165.541 177.043 173.989  1.00  0.00    -0.547 OA
ATOM     10  O   UNL     1     166.029 177.571 171.823  1.00  0.00    -0.547 OA
ENDBRANCH   3   8
BRANCH   4  11
ATOM     11  O   UNL     1     164.758 175.748 170.167  1.00  0.00    -0.387 OA
ATOM     12  H   UNL     1     164.162 175.227 169.568  1.00  0.00     0.211 HD
ENDBRANCH   4  11
BRANCH   6  13
ATOM     13  O   UNL     1     167.487 175.878 170.098  1.00  0.00    -0.387 OA
ATOM     14  H   UNL     1     167.526 175.958 169.114  1.00  0.00     0.211 HD
ENDBRANCH   6  13
BRANCH   7  15
ATOM     15  O   UNL     1     167.504 172.445 171.240  1.00  0.00    -0.384 OA
ATOM     16  H   UNL     1     168.350 172.006 170.960  1.00  0.00     0.211 HD
ENDBRANCH   7  15
ENDBRANCH   1   2
BRANCH   1  17
ATOM     17  C   UNL     1     169.570 175.694 173.512  1.00  0.00     0.172 A 
ATOM     18  C   UNL     1     170.486 176.409 172.702  1.00  0.00     0.201 A 
ATOM     19  C   UNL     1     170.009 175.133 174.712  1.00  0.00     0.098 A 
ATOM     20  C   UNL     1     171.815 176.616 173.155  1.00  0.00     0.176 A 
ATOM     21  C   UNL     1     171.322 175.291 175.146  1.00  0.00     0.146 A 
ATOM     22  C   UNL     1     172.239 176.038 174.377  1.00  0.00     0.111 A 
ATOM     23  O   UNL     1     171.691 174.736 176.295  1.00  0.00    -0.456 OA
ATOM     24  C   UNL     1     173.549 176.178 174.886  1.00  0.00     0.197 A 
ATOM     25  C   UNL     1     172.920 174.836 176.795  1.00  0.00     0.138 A 
ATOM     26  C   UNL     1     173.888 175.576 176.098  1.00  0.00     0.100 A 
ATOM     27  O   UNL     1     174.428 176.838 174.270  1.00  0.00    -0.289 OA
BRANCH  18  28
ATOM     28  O   UNL     1     170.075 176.869 171.450  1.00  0.00    -0.502 OA
ATOM     29  H   UNL     1     169.254 176.544 170.961  1.00  0.00     0.293 HD
ENDBRANCH  18  28
BRANCH  20  30
ATOM     30  O   UNL     1     172.720 177.393 172.424  1.00  0.00    -0.504 OA
ATOM     31  H   UNL     1     172.460 178.175 171.840  1.00  0.00     0.293 HD
ENDBRANCH  20  30
BRANCH  25  32
ATOM     32  C   UNL     1     173.222 174.169 178.088  1.00  0.00     0.017 A 
ATOM     33  C   UNL     1     172.272 174.097 179.126  1.00  0.00     0.012 A 
ATOM     34  C   UNL     1     174.501 173.621 178.301  1.00  0.00     0.012 A 
ATOM     35  C   UNL     1     172.591 173.472 180.336  1.00  0.00     0.001 A 
ATOM     36  C   UNL     1     174.814 172.997 179.512  1.00  0.00     0.001 A 
ATOM     37  C   UNL     1     173.859 172.921 180.528  1.00  0.00     0.000 A 
ENDBRANCH  25  32
ENDBRANCH   1  17
TORSDOF 9
ENDMDL
MODEL 8
REMARK VINA RESULT:    -7.487      2.423      3.798
REMARK INTER + INTRA:         -12.172
REMARK INTER:                 -10.233
REMARK INTRA:                  -1.939
REMARK UNBOUND:                -1.840
REMARK SMILES O=C([O-])[C@@H]1O[C@H](Oc2cc3oc(-c4ccccc4)cc(=O)c3c(O)c2O)[C@@H](O)[C@H](O)[C@@H]1O
REMARK SMILES IDX 7 1 6 2 4 3 31 4 5 5 29 6 27 7 2 8 1 9 3 10 32 11 30 13
REMARK SMILES IDX 28 15 8 17 25 18 9 19 23 20 10 21 22 22 11 23 20 24 12 25
REMARK SMILES IDX 19 26 21 27 26 28 24 30 13 32 14 33 18 34 15 35 17 36 16 37
REMARK H PARENT 32 12 30 14 28 16 26 29 24 31
REMARK Flexibility Score: inf
ROOT
ATOM      1  O   UNL     1     174.909 168.340 173.939  1.00  0.00    -0.458 OA
ENDROOT
BRANCH   1   2
ATOM      2  C   UNL     1     176.328 168.337 174.138  1.00  0.00     0.339 C 
ATOM      3  C   UNL     1     176.845 167.153 172.133  1.00  0.00     0.199 C 
ATOM      4  C   UNL     1     177.571 168.373 171.504  1.00  0.00     0.180 C 
ATOM      5  O   UNL     1     176.905 167.176 173.554  1.00  0.00    -0.328 OA
ATOM      6  C   UNL     1     177.102 169.712 172.096  1.00  0.00     0.181 C 
ATOM      7  C   UNL     1     176.998 169.645 173.636  1.00  0.00     0.214 C 
BRANCH   3   8
ATOM      8  C   UNL     1     175.448 166.861 171.623  1.00  0.00     0.073 C 
ATOM      9  O   UNL     1     174.897 165.768 171.917  1.00  0.00    -0.547 OA
ATOM     10  O   UNL     1     174.798 167.729 170.754  1.00  0.00    -0.547 OA
ENDBRANCH   3   8
BRANCH   4  11
ATOM     11  O   UNL     1     177.447 168.392 170.105  1.00  0.00    -0.387 OA
ATOM     12  H   UNL     1     177.667 167.479 169.783  1.00  0.00     0.211 HD
ENDBRANCH   4  11
BRANCH   6  13
ATOM     13  O   UNL     1     175.905 170.161 171.506  1.00  0.00    -0.387 OA
ATOM     14  H   UNL     1     175.145 169.803 172.027  1.00  0.00     0.211 HD
ENDBRANCH   6  13
BRANCH   7  15
ATOM     15  O   UNL     1     178.269 169.800 174.221  1.00  0.00    -0.384 OA
ATOM     16  H   UNL     1     178.931 169.912 173.491  1.00  0.00     0.211 HD
ENDBRANCH   7  15
ENDBRANCH   1   2
BRANCH   1  17
ATOM     17  C   UNL     1     173.982 169.342 174.290  1.00  0.00     0.172 A 
ATOM     18  C   UNL     1     172.975 169.840 173.427  1.00  0.00     0.201 A 
ATOM     19  C   UNL     1     174.110 169.872 175.574  1.00  0.00     0.098 A 
ATOM     20  C   UNL     1     172.057 170.812 173.904  1.00  0.00     0.176 A 
ATOM     21  C   UNL     1     173.243 170.857 176.038  1.00  0.00     0.146 A 
ATOM     22  C   UNL     1     172.203 171.336 175.212  1.00  0.00     0.111 A 
ATOM     23  O   UNL     1     173.406 171.332 177.268  1.00  0.00    -0.456 OA
ATOM     24  C   UNL     1     171.346 172.319 175.752  1.00  0.00     0.197 A 
ATOM     25  C   UNL     1     172.626 172.268 177.802  1.00  0.00     0.138 A 
ATOM     26  C   UNL     1     171.559 172.785 177.051  1.00  0.00     0.100 A 
ATOM     27  O   UNL     1     170.385 172.793 175.088  1.00  0.00    -0.289 OA
BRANCH  18  28
ATOM     28  O   UNL     1     172.924 169.391 172.107  1.00  0.00    -0.502 OA
ATOM     29  H   UNL     1     172.742 169.980 171.307  1.00  0.00     0.293 HD
ENDBRANCH  18  28
BRANCH  20  30
ATOM     30  O   UNL     1     170.995 171.259 173.110  1.00  0.00    -0.504 OA
ATOM     31  H   UNL     1     170.801 170.929 172.177  1.00  0.00     0.293 HD
ENDBRANCH  20  30
BRANCH  25  32
ATOM     32  C   UNL     1     172.905 172.727 179.187  1.00  0.00     0.017 A 
ATOM     33  C   UNL     1     174.175 172.575 179.778  1.00  0.00     0.012 A 
ATOM     34  C   UNL     1     171.869 173.301 179.947  1.00  0.00     0.012 A 
ATOM     35  C   UNL     1     174.403 173.007 181.088  1.00  0.00     0.001 A 
ATOM     36  C   UNL     1     172.103 173.731 181.257  1.00  0.00     0.001 A 
ATOM     37  C   UNL     1     173.369 173.587 181.826  1.00  0.00     0.000 A 
ENDBRANCH  25  32
ENDBRANCH   1  17
TORSDOF 9
ENDMDL
MODEL 9
REMARK VINA RESULT:    -7.305      2.244      3.008
REMARK INTER + INTRA:         -11.921
REMARK INTER:                 -10.073
REMARK INTRA:                  -1.848
REMARK UNBOUND:                -1.840
REMARK SMILES O=C([O-])[C@@H]1O[C@H](Oc2cc3oc(-c4ccccc4)cc(=O)c3c(O)c2O)[C@@H](O)[C@H](O)[C@@H]1O
REMARK SMILES IDX 7 1 6 2 4 3 31 4 5 5 29 6 27 7 2 8 1 9 3 10 32 11 30 13
REMARK SMILES IDX 28 15 8 17 25 18 9 19 23 20 10 21 22 22 11 23 20 24 12 25
REMARK SMILES IDX 19 26 21 27 26 28 24 30 13 32 14 33 18 34 15 35 17 36 16 37
REMARK H PARENT 32 12 30 14 28 16 26 29 24 31
REMARK Flexibility Score: inf
ROOT
ATOM      1  O   UNL     1     177.442 171.358 173.347  1.00  0.00    -0.458 OA
ENDROOT
BRANCH   1   2
ATOM      2  C   UNL     1     177.428 170.255 172.433  1.00  0.00     0.339 C 
ATOM      3  C   UNL     1     179.273 171.008 171.123  1.00  0.00     0.199 C 
ATOM      4  C   UNL     1     180.171 169.820 171.559  1.00  0.00     0.180 C 
ATOM      5  O   UNL     1     177.892 170.667 171.154  1.00  0.00    -0.328 OA
ATOM      6  C   UNL     1     179.741 169.212 172.904  1.00  0.00     0.181 C 
ATOM      7  C   UNL     1     178.209 169.027 172.977  1.00  0.00     0.214 C 
BRANCH   3   8
ATOM      8  C   UNL     1     179.548 172.342 171.786  1.00  0.00     0.073 C 
ATOM      9  O   UNL     1     178.995 173.383 171.340  1.00  0.00    -0.547 OA
ATOM     10  O   UNL     1     180.477 172.463 172.813  1.00  0.00    -0.547 OA
ENDBRANCH   3   8
BRANCH   4  11
ATOM     11  O   UNL     1     181.530 170.178 171.601  1.00  0.00    -0.387 OA
ATOM     12  H   UNL     1     182.051 169.333 171.611  1.00  0.00     0.211 HD
ENDBRANCH   4  11
BRANCH   6  13
ATOM     13  O   UNL     1     180.236 169.946 173.998  1.00  0.00    -0.387 OA
ATOM     14  H   UNL     1     179.677 169.747 174.788  1.00  0.00     0.211 HD
ENDBRANCH   6  13
BRANCH   7  15
ATOM     15  O   UNL     1     177.822 167.859 172.294  1.00  0.00    -0.384 OA
ATOM     16  H   UNL     1     176.924 168.017 171.902  1.00  0.00     0.211 HD
ENDBRANCH   7  15
ENDBRANCH   1   2
BRANCH   1  17
ATOM     17  C   UNL     1     176.371 172.194 173.721  1.00  0.00     0.172 A 
ATOM     18  C   UNL     1     175.684 173.061 172.837  1.00  0.00     0.201 A 
ATOM     19  C   UNL     1     176.004 172.154 175.067  1.00  0.00     0.098 A 
ATOM     20  C   UNL     1     174.580 173.818 173.309  1.00  0.00     0.176 A 
ATOM     21  C   UNL     1     174.951 172.926 175.551  1.00  0.00     0.146 A 
ATOM     22  C   UNL     1     174.223 173.762 174.679  1.00  0.00     0.111 A 
ATOM     23  O   UNL     1     174.641 172.854 176.841  1.00  0.00    -0.456 OA
ATOM     24  C   UNL     1     173.153 174.501 175.230  1.00  0.00     0.197 A 
ATOM     25  C   UNL     1     173.651 173.548 177.396  1.00  0.00     0.138 A 
ATOM     26  C   UNL     1     172.867 174.391 176.592  1.00  0.00     0.100 A 
ATOM     27  O   UNL     1     172.444 175.263 174.521  1.00  0.00    -0.289 OA
BRANCH  18  28
ATOM     28  O   UNL     1     176.128 173.184 171.519  1.00  0.00    -0.502 OA
ATOM     29  H   UNL     1     176.170 174.053 171.007  1.00  0.00     0.293 HD
ENDBRANCH  18  28
BRANCH  20  30
ATOM     30  O   UNL     1     173.822 174.615 172.444  1.00  0.00    -0.504 OA
ATOM     31  H   UNL     1     174.029 174.753 171.465  1.00  0.00     0.293 HD
ENDBRANCH  20  30
BRANCH  25  32
ATOM     32  C   UNL     1     173.397 173.392 178.851  1.00  0.00     0.017 A 
ATOM     33  C   UNL     1     172.117 173.592 179.407  1.00  0.00     0.012 A 
ATOM     34  C   UNL     1     174.465 173.069 179.708  1.00  0.00     0.012 A 
ATOM     35  C   UNL     1     171.912 173.449 180.783  1.00  0.00     0.001 A 
ATOM     36  C   UNL     1     174.254 172.927 181.083  1.00  0.00     0.001 A 
ATOM     37  C   UNL     1     172.978 173.114 181.620  1.00  0.00     0.000 A 
ENDBRANCH  25  32
ENDBRANCH   1  17
TORSDOF 9
ENDMDL
