MODEL 1
REMARK VINA RESULT:    -8.136      0.000      0.000
REMARK INTER + INTRA:         -10.121
REMARK INTER:                  -9.800
REMARK INTRA:                  -0.320
REMARK UNBOUND:                -0.320
REMARK SMILES O=c1c(O)c(-c2ccc(O)c(O)c2)oc2cc(O)cc(O)c12
REMARK SMILES IDX 5 1 3 2 2 3 1 4 22 5 20 6 19 7 17 8 16 9 15 10 14 11 6 12
REMARK SMILES IDX 7 13 8 14 9 15 13 16 11 17 10 18 12 20 4 22 21 24 18 26
REMARK H PARENT 10 19 12 21 4 23 21 25 18 27
REMARK Flexibility Score: inf
ROOT
ATOM      1  C   UNL     1      17.741 -59.774   5.833  1.00  0.00     0.180 A 
ATOM      2  C   UNL     1      18.551 -60.868   5.486  1.00  0.00     0.208 A 
ATOM      3  C   UNL     1      19.622 -60.669   4.599  1.00  0.00     0.238 A 
ATOM      4  O   UNL     1      20.378 -61.639   4.335  1.00  0.00    -0.285 OA
ATOM      5  C   UNL     1      19.858 -59.382   4.057  1.00  0.00     0.111 A 
ATOM      6  C   UNL     1      20.888 -59.074   3.119  1.00  0.00     0.134 A 
ATOM      7  C   UNL     1      21.110 -57.741   2.751  1.00  0.00     0.093 A 
ATOM      8  C   UNL     1      20.297 -56.714   3.236  1.00  0.00     0.123 A 
ATOM      9  C   UNL     1      19.251 -57.012   4.106  1.00  0.00     0.094 A 
ATOM     10  C   UNL     1      19.027 -58.328   4.520  1.00  0.00     0.146 A 
ATOM     11  O   UNL     1      18.026 -58.567   5.359  1.00  0.00    -0.452 OA
ENDROOT
BRANCH   1  12
ATOM     12  C   UNL     1      16.579 -59.911   6.742  1.00  0.00     0.025 A 
ATOM     13  C   UNL     1      16.706 -59.708   8.127  1.00  0.00     0.016 A 
ATOM     14  C   UNL     1      15.602 -59.866   8.968  1.00  0.00     0.051 A 
ATOM     15  C   UNL     1      14.360 -60.243   8.441  1.00  0.00     0.157 A 
ATOM     16  C   UNL     1      15.337 -60.309   6.221  1.00  0.00     0.062 A 
ATOM     17  C   UNL     1      14.229 -60.469   7.061  1.00  0.00     0.158 A 
BRANCH  15  18
ATOM     18  O   UNL     1      13.260 -60.399   9.283  1.00  0.00    -0.504 OA
ATOM     19  H   UNL     1      12.788 -59.601   9.692  1.00  0.00     0.293 HD
ENDBRANCH  15  18
BRANCH  17  20
ATOM     20  O   UNL     1      13.008 -60.851   6.506  1.00  0.00    -0.504 OA
ATOM     21  H   UNL     1      12.721 -61.820   6.452  1.00  0.00     0.293 HD
ENDBRANCH  17  20
ENDBRANCH   1  12
BRANCH   2  22
ATOM     22  O   UNL     1      18.316 -62.125   6.049  1.00  0.00    -0.502 OA
ATOM     23  H   UNL     1      18.848 -62.478   6.836  1.00  0.00     0.293 HD
ENDBRANCH   2  22
BRANCH   6  24
ATOM     24  O   UNL     1      21.696 -60.034   2.503  1.00  0.00    -0.507 OA
ATOM     25  H   UNL     1      22.580 -59.841   2.057  1.00  0.00     0.293 HD
ENDBRANCH   6  24
BRANCH   8  26
ATOM     26  O   UNL     1      20.515 -55.393   2.853  1.00  0.00    -0.508 OA
ATOM     27  H   UNL     1      21.160 -55.156   2.106  1.00  0.00     0.293 HD
ENDBRANCH   8  26
TORSDOF 6
ENDMDL
MODEL 2
REMARK VINA RESULT:    -7.710      1.254      2.884
REMARK INTER + INTRA:          -9.609
REMARK INTER:                  -9.290
REMARK INTRA:                  -0.318
REMARK UNBOUND:                -0.320
REMARK SMILES O=c1c(O)c(-c2ccc(O)c(O)c2)oc2cc(O)cc(O)c12
REMARK SMILES IDX 5 1 3 2 2 3 1 4 22 5 20 6 19 7 17 8 16 9 15 10 14 11 6 12
REMARK SMILES IDX 7 13 8 14 9 15 13 16 11 17 10 18 12 20 4 22 21 24 18 26
REMARK H PARENT 10 19 12 21 4 23 21 25 18 27
REMARK Flexibility Score: inf
ROOT
ATOM      1  C   UNL     1      17.068 -58.985   5.752  1.00  0.00     0.180 A 
ATOM      2  C   UNL     1      17.027 -57.616   5.440  1.00  0.00     0.208 A 
ATOM      3  C   UNL     1      18.051 -57.067   4.651  1.00  0.00     0.238 A 
ATOM      4  O   UNL     1      17.980 -55.853   4.328  1.00  0.00    -0.285 OA
ATOM      5  C   UNL     1      19.111 -57.889   4.198  1.00  0.00     0.111 A 
ATOM      6  C   UNL     1      20.221 -57.431   3.428  1.00  0.00     0.134 A 
ATOM      7  C   UNL     1      21.142 -58.358   2.925  1.00  0.00     0.093 A 
ATOM      8  C   UNL     1      21.030 -59.719   3.222  1.00  0.00     0.123 A 
ATOM      9  C   UNL     1      19.984 -60.168   4.023  1.00  0.00     0.094 A 
ATOM     10  C   UNL     1      19.028 -59.273   4.509  1.00  0.00     0.146 A 
ATOM     11  O   UNL     1      18.040 -59.744   5.260  1.00  0.00    -0.452 OA
ENDROOT
BRANCH   1  12
ATOM     12  C   UNL     1      16.039 -59.631   6.600  1.00  0.00     0.025 A 
ATOM     13  C   UNL     1      16.094 -59.557   8.002  1.00  0.00     0.016 A 
ATOM     14  C   UNL     1      15.125 -60.194   8.782  1.00  0.00     0.051 A 
ATOM     15  C   UNL     1      14.098 -60.926   8.174  1.00  0.00     0.157 A 
ATOM     16  C   UNL     1      15.019 -60.384   5.996  1.00  0.00     0.062 A 
ATOM     17  C   UNL     1      14.047 -61.023   6.773  1.00  0.00     0.158 A 
BRANCH  15  18
ATOM     18  O   UNL     1      13.132 -61.560   8.954  1.00  0.00    -0.504 OA
ATOM     19  H   UNL     1      13.379 -62.281   9.622  1.00  0.00     0.293 HD
ENDBRANCH  15  18
BRANCH  17  20
ATOM     20  O   UNL     1      13.041 -61.750   6.137  1.00  0.00    -0.504 OA
ATOM     21  H   UNL     1      12.367 -62.302   6.653  1.00  0.00     0.293 HD
ENDBRANCH  17  20
ENDBRANCH   1  12
BRANCH   2  22
ATOM     22  O   UNL     1      15.961 -56.826   5.877  1.00  0.00    -0.502 OA
ATOM     23  H   UNL     1      15.012 -56.963   5.549  1.00  0.00     0.293 HD
ENDBRANCH   2  22
BRANCH   6  24
ATOM     24  O   UNL     1      20.477 -56.085   3.152  1.00  0.00    -0.507 OA
ATOM     25  H   UNL     1      21.342 -55.610   3.362  1.00  0.00     0.293 HD
ENDBRANCH   6  24
BRANCH   8  26
ATOM     26  O   UNL     1      21.961 -60.632   2.731  1.00  0.00    -0.508 OA
ATOM     27  H   UNL     1      22.064 -61.555   3.139  1.00  0.00     0.293 HD
ENDBRANCH   8  26
TORSDOF 6
ENDMDL
MODEL 3
REMARK VINA RESULT:    -7.674      1.312      3.183
REMARK INTER + INTRA:          -9.564
REMARK INTER:                  -9.299
REMARK INTRA:                  -0.265
REMARK UNBOUND:                -0.320
REMARK SMILES O=c1c(O)c(-c2ccc(O)c(O)c2)oc2cc(O)cc(O)c12
REMARK SMILES IDX 5 1 3 2 2 3 1 4 22 5 20 6 19 7 17 8 16 9 15 10 14 11 6 12
REMARK SMILES IDX 7 13 8 14 9 15 13 16 11 17 10 18 12 20 4 22 21 24 18 26
REMARK H PARENT 10 19 12 21 4 23 21 25 18 27
REMARK Flexibility Score: inf
ROOT
ATOM      1  C   UNL     1      17.062 -59.061   5.844  1.00  0.00     0.180 A 
ATOM      2  C   UNL     1      16.988 -57.699   5.508  1.00  0.00     0.208 A 
ATOM      3  C   UNL     1      17.995 -57.140   4.705  1.00  0.00     0.238 A 
ATOM      4  O   UNL     1      17.894 -55.933   4.361  1.00  0.00    -0.285 OA
ATOM      5  C   UNL     1      19.072 -57.945   4.263  1.00  0.00     0.111 A 
ATOM      6  C   UNL     1      20.168 -57.474   3.479  1.00  0.00     0.134 A 
ATOM      7  C   UNL     1      21.109 -58.387   2.989  1.00  0.00     0.093 A 
ATOM      8  C   UNL     1      21.030 -59.745   3.310  1.00  0.00     0.123 A 
ATOM      9  C   UNL     1      19.998 -60.205   4.122  1.00  0.00     0.094 A 
ATOM     10  C   UNL     1      19.023 -59.324   4.597  1.00  0.00     0.146 A 
ATOM     11  O   UNL     1      18.050 -59.806   5.361  1.00  0.00    -0.452 OA
ENDROOT
BRANCH   1  12
ATOM     12  C   UNL     1      16.052 -59.717   6.707  1.00  0.00     0.025 A 
ATOM     13  C   UNL     1      15.047 -60.536   6.163  1.00  0.00     0.016 A 
ATOM     14  C   UNL     1      14.090 -61.125   6.994  1.00  0.00     0.051 A 
ATOM     15  C   UNL     1      14.113 -60.892   8.375  1.00  0.00     0.157 A 
ATOM     16  C   UNL     1      16.058 -59.470   8.089  1.00  0.00     0.062 A 
ATOM     17  C   UNL     1      15.101 -60.057   8.924  1.00  0.00     0.158 A 
BRANCH  15  18
ATOM     18  O   UNL     1      13.158 -61.482   9.201  1.00  0.00    -0.504 OA
ATOM     19  H   UNL     1      12.478 -62.142   8.840  1.00  0.00     0.293 HD
ENDBRANCH  15  18
BRANCH  17  20
ATOM     20  O   UNL     1      15.148 -59.800  10.293  1.00  0.00    -0.504 OA
ATOM     21  H   UNL     1      14.432 -59.262  10.765  1.00  0.00     0.293 HD
ENDBRANCH  17  20
ENDBRANCH   1  12
BRANCH   2  22
ATOM     22  O   UNL     1      15.904 -56.927   5.936  1.00  0.00    -0.502 OA
ATOM     23  H   UNL     1      15.023 -56.901   5.436  1.00  0.00     0.293 HD
ENDBRANCH   2  22
BRANCH   6  24
ATOM     24  O   UNL     1      20.391 -56.127   3.180  1.00  0.00    -0.507 OA
ATOM     25  H   UNL     1      20.695 -55.780   2.282  1.00  0.00     0.293 HD
ENDBRANCH   6  24
BRANCH   8  26
ATOM     26  O   UNL     1      21.980 -60.645   2.830  1.00  0.00    -0.508 OA
ATOM     27  H   UNL     1      22.134 -60.775   1.836  1.00  0.00     0.293 HD
ENDBRANCH   8  26
TORSDOF 6
ENDMDL
MODEL 4
REMARK VINA RESULT:    -7.519      1.551      2.228
REMARK INTER + INTRA:          -9.378
REMARK INTER:                  -9.108
REMARK INTRA:                  -0.271
REMARK UNBOUND:                -0.320
REMARK SMILES O=c1c(O)c(-c2ccc(O)c(O)c2)oc2cc(O)cc(O)c12
REMARK SMILES IDX 5 1 3 2 2 3 1 4 22 5 20 6 19 7 17 8 16 9 15 10 14 11 6 12
REMARK SMILES IDX 7 13 8 14 9 15 13 16 11 17 10 18 12 20 4 22 21 24 18 26
REMARK H PARENT 10 19 12 21 4 23 21 25 18 27
REMARK Flexibility Score: inf
ROOT
ATOM      1  C   UNL     1      16.619 -59.943   6.892  1.00  0.00     0.180 A 
ATOM      2  C   UNL     1      17.644 -60.845   6.557  1.00  0.00     0.208 A 
ATOM      3  C   UNL     1      18.661 -60.426   5.684  1.00  0.00     0.238 A 
ATOM      4  O   UNL     1      19.605 -61.218   5.431  1.00  0.00    -0.285 OA
ATOM      5  C   UNL     1      18.632 -59.117   5.144  1.00  0.00     0.111 A 
ATOM      6  C   UNL     1      19.588 -58.601   4.219  1.00  0.00     0.134 A 
ATOM      7  C   UNL     1      19.534 -57.250   3.852  1.00  0.00     0.093 A 
ATOM      8  C   UNL     1      18.519 -56.415   4.326  1.00  0.00     0.123 A 
ATOM      9  C   UNL     1      17.547 -56.925   5.182  1.00  0.00     0.094 A 
ATOM     10  C   UNL     1      17.595 -58.259   5.595  1.00  0.00     0.146 A 
ATOM     11  O   UNL     1      16.654 -58.702   6.421  1.00  0.00    -0.452 OA
ENDROOT
BRANCH   1  12
ATOM     12  C   UNL     1      15.500 -60.319   7.786  1.00  0.00     0.025 A 
ATOM     13  C   UNL     1      14.472 -61.173   7.351  1.00  0.00     0.016 A 
ATOM     14  C   UNL     1      13.413 -61.495   8.204  1.00  0.00     0.051 A 
ATOM     15  C   UNL     1      13.358 -60.959   9.496  1.00  0.00     0.157 A 
ATOM     16  C   UNL     1      15.429 -59.767   9.076  1.00  0.00     0.062 A 
ATOM     17  C   UNL     1      14.370 -60.087   9.932  1.00  0.00     0.158 A 
BRANCH  15  18
ATOM     18  O   UNL     1      12.301 -61.283  10.346  1.00  0.00    -0.504 OA
ATOM     19  H   UNL     1      12.422 -61.326  11.351  1.00  0.00     0.293 HD
ENDBRANCH  15  18
BRANCH  17  20
ATOM     20  O   UNL     1      14.340 -59.530  11.210  1.00  0.00    -0.504 OA
ATOM     21  H   UNL     1      14.266 -60.100  12.044  1.00  0.00     0.293 HD
ENDBRANCH  17  20
ENDBRANCH   1  12
BRANCH   2  22
ATOM     22  O   UNL     1      17.666 -62.123   7.119  1.00  0.00    -0.502 OA
ATOM     23  H   UNL     1      18.002 -62.300   8.059  1.00  0.00     0.293 HD
ENDBRANCH   2  22
BRANCH   6  24
ATOM     24  O   UNL     1      20.585 -59.372   3.615  1.00  0.00    -0.507 OA
ATOM     25  H   UNL     1      20.419 -60.221   3.095  1.00  0.00     0.293 HD
ENDBRANCH   6  24
BRANCH   8  26
ATOM     26  O   UNL     1      18.463 -55.076   3.943  1.00  0.00    -0.508 OA
ATOM     27  H   UNL     1      18.261 -54.341   4.613  1.00  0.00     0.293 HD
ENDBRANCH   8  26
TORSDOF 6
ENDMDL
MODEL 5
REMARK VINA RESULT:    -7.396      2.711      6.844
REMARK INTER + INTRA:          -9.230
REMARK INTER:                  -9.068
REMARK INTRA:                  -0.162
REMARK UNBOUND:                -0.320
REMARK SMILES O=c1c(O)c(-c2ccc(O)c(O)c2)oc2cc(O)cc(O)c12
REMARK SMILES IDX 5 1 3 2 2 3 1 4 22 5 20 6 19 7 17 8 16 9 15 10 14 11 6 12
REMARK SMILES IDX 7 13 8 14 9 15 13 16 11 17 10 18 12 20 4 22 21 24 18 26
REMARK H PARENT 10 19 12 21 4 23 21 25 18 27
REMARK Flexibility Score: inf
ROOT
ATOM      1  C   UNL     1      20.367 -56.977   3.566  1.00  0.00     0.180 A 
ATOM      2  C   UNL     1      20.919 -57.903   2.665  1.00  0.00     0.208 A 
ATOM      3  C   UNL     1      20.838 -59.274   2.963  1.00  0.00     0.238 A 
ATOM      4  O   UNL     1      21.284 -60.102   2.126  1.00  0.00    -0.285 OA
ATOM      5  C   UNL     1      20.223 -59.699   4.165  1.00  0.00     0.111 A 
ATOM      6  C   UNL     1      20.122 -61.058   4.587  1.00  0.00     0.134 A 
ATOM      7  C   UNL     1      19.378 -61.372   5.731  1.00  0.00     0.093 A 
ATOM      8  C   UNL     1      18.787 -60.369   6.504  1.00  0.00     0.123 A 
ATOM      9  C   UNL     1      18.930 -59.035   6.133  1.00  0.00     0.094 A 
ATOM     10  C   UNL     1      19.636 -58.692   4.977  1.00  0.00     0.146 A 
ATOM     11  O   UNL     1      19.740 -57.409   4.653  1.00  0.00    -0.452 OA
ENDROOT
BRANCH   1  12
ATOM     12  C   UNL     1      20.435 -55.515   3.333  1.00  0.00     0.025 A 
ATOM     13  C   UNL     1      21.667 -54.844   3.252  1.00  0.00     0.016 A 
ATOM     14  C   UNL     1      21.706 -53.461   3.056  1.00  0.00     0.051 A 
ATOM     15  C   UNL     1      20.518 -52.728   2.952  1.00  0.00     0.157 A 
ATOM     16  C   UNL     1      19.246 -54.773   3.249  1.00  0.00     0.062 A 
ATOM     17  C   UNL     1      19.281 -53.388   3.053  1.00  0.00     0.158 A 
BRANCH  15  18
ATOM     18  O   UNL     1      20.560 -51.348   2.755  1.00  0.00    -0.504 OA
ATOM     19  H   UNL     1      20.754 -50.709   3.517  1.00  0.00     0.293 HD
ENDBRANCH  15  18
BRANCH  17  20
ATOM     20  O   UNL     1      18.080 -52.686   2.961  1.00  0.00    -0.504 OA
ATOM     21  H   UNL     1      17.256 -52.957   3.482  1.00  0.00     0.293 HD
ENDBRANCH  17  20
ENDBRANCH   1  12
BRANCH   2  22
ATOM     22  O   UNL     1      21.501 -57.465   1.473  1.00  0.00    -0.502 OA
ATOM     23  H   UNL     1      22.122 -58.047   0.923  1.00  0.00     0.293 HD
ENDBRANCH   2  22
BRANCH   6  24
ATOM     24  O   UNL     1      20.751 -62.125   3.940  1.00  0.00    -0.507 OA
ATOM     25  H   UNL     1      21.475 -62.029   3.243  1.00  0.00     0.293 HD
ENDBRANCH   6  24
BRANCH   8  26
ATOM     26  O   UNL     1      18.062 -60.689   7.650  1.00  0.00    -0.508 OA
ATOM     27  H   UNL     1      17.189 -60.223   7.873  1.00  0.00     0.293 HD
ENDBRANCH   8  26
TORSDOF 6
ENDMDL
MODEL 6
REMARK VINA RESULT:    -7.292      1.992      7.236
REMARK INTER + INTRA:          -9.105
REMARK INTER:                  -9.181
REMARK INTRA:                   0.076
REMARK UNBOUND:                -0.320
REMARK SMILES O=c1c(O)c(-c2ccc(O)c(O)c2)oc2cc(O)cc(O)c12
REMARK SMILES IDX 5 1 3 2 2 3 1 4 22 5 20 6 19 7 17 8 16 9 15 10 14 11 6 12
REMARK SMILES IDX 7 13 8 14 9 15 13 16 11 17 10 18 12 20 4 22 21 24 18 26
REMARK H PARENT 10 19 12 21 4 23 21 25 18 27
REMARK Flexibility Score: inf
ROOT
ATOM      1  C   UNL     1      20.288 -57.643   3.554  1.00  0.00     0.180 A 
ATOM      2  C   UNL     1      20.858 -58.926   3.506  1.00  0.00     0.208 A 
ATOM      3  C   UNL     1      20.151 -60.006   4.059  1.00  0.00     0.238 A 
ATOM      4  O   UNL     1      20.641 -61.162   3.964  1.00  0.00    -0.285 OA
ATOM      5  C   UNL     1      18.891 -59.787   4.666  1.00  0.00     0.111 A 
ATOM      6  C   UNL     1      18.106 -60.801   5.292  1.00  0.00     0.134 A 
ATOM      7  C   UNL     1      16.816 -60.495   5.745  1.00  0.00     0.093 A 
ATOM      8  C   UNL     1      16.311 -59.196   5.654  1.00  0.00     0.123 A 
ATOM      9  C   UNL     1      17.092 -58.186   5.098  1.00  0.00     0.094 A 
ATOM     10  C   UNL     1      18.368 -58.469   4.604  1.00  0.00     0.146 A 
ATOM     11  O   UNL     1      19.076 -57.479   4.073  1.00  0.00    -0.452 OA
ENDROOT
BRANCH   1  12
ATOM     12  C   UNL     1      20.983 -56.451   3.016  1.00  0.00     0.025 A 
ATOM     13  C   UNL     1      21.054 -55.252   3.747  1.00  0.00     0.016 A 
ATOM     14  C   UNL     1      21.695 -54.134   3.209  1.00  0.00     0.051 A 
ATOM     15  C   UNL     1      22.261 -54.190   1.930  1.00  0.00     0.157 A 
ATOM     16  C   UNL     1      21.534 -56.496   1.725  1.00  0.00     0.062 A 
ATOM     17  C   UNL     1      22.176 -55.378   1.183  1.00  0.00     0.158 A 
BRANCH  15  18
ATOM     18  O   UNL     1      22.901 -53.072   1.396  1.00  0.00    -0.504 OA
ATOM     19  H   UNL     1      23.911 -53.015   1.341  1.00  0.00     0.293 HD
ENDBRANCH  15  18
BRANCH  17  20
ATOM     20  O   UNL     1      22.724 -55.464  -0.097  1.00  0.00    -0.504 OA
ATOM     21  H   UNL     1      22.244 -55.106  -0.913  1.00  0.00     0.293 HD
ENDBRANCH  17  20
ENDBRANCH   1  12
BRANCH   2  22
ATOM     22  O   UNL     1      22.092 -59.125   2.882  1.00  0.00    -0.502 OA
ATOM     23  H   UNL     1      22.189 -59.193   1.876  1.00  0.00     0.293 HD
ENDBRANCH   2  22
BRANCH   6  24
ATOM     24  O   UNL     1      18.552 -62.106   5.517  1.00  0.00    -0.507 OA
ATOM     25  H   UNL     1      19.384 -62.508   5.111  1.00  0.00     0.293 HD
ENDBRANCH   6  24
BRANCH   8  26
ATOM     26  O   UNL     1      15.033 -58.896   6.121  1.00  0.00    -0.508 OA
ATOM     27  H   UNL     1      14.423 -58.255   5.625  1.00  0.00     0.293 HD
ENDBRANCH   8  26
TORSDOF 6
ENDMDL
MODEL 7
REMARK VINA RESULT:    -7.287      2.738      7.326
REMARK INTER + INTRA:          -9.099
REMARK INTER:                  -9.570
REMARK INTRA:                   0.471
REMARK UNBOUND:                -0.320
REMARK SMILES O=c1c(O)c(-c2ccc(O)c(O)c2)oc2cc(O)cc(O)c12
REMARK SMILES IDX 5 1 3 2 2 3 1 4 22 5 20 6 19 7 17 8 16 9 15 10 14 11 6 12
REMARK SMILES IDX 7 13 8 14 9 15 13 16 11 17 10 18 12 20 4 22 21 24 18 26
REMARK H PARENT 10 19 12 21 4 23 21 25 18 27
REMARK Flexibility Score: inf
ROOT
ATOM      1  C   UNL     1      19.397 -56.583   3.905  1.00  0.00     0.180 A 
ATOM      2  C   UNL     1      18.182 -56.668   4.608  1.00  0.00     0.208 A 
ATOM      3  C   UNL     1      17.814 -57.895   5.184  1.00  0.00     0.238 A 
ATOM      4  O   UNL     1      16.753 -57.951   5.859  1.00  0.00    -0.285 OA
ATOM      5  C   UNL     1      18.655 -59.024   5.037  1.00  0.00     0.111 A 
ATOM      6  C   UNL     1      18.362 -60.325   5.545  1.00  0.00     0.134 A 
ATOM      7  C   UNL     1      19.327 -61.335   5.453  1.00  0.00     0.093 A 
ATOM      8  C   UNL     1      20.548 -61.109   4.812  1.00  0.00     0.123 A 
ATOM      9  C   UNL     1      20.820 -59.860   4.262  1.00  0.00     0.094 A 
ATOM     10  C   UNL     1      19.892 -58.821   4.369  1.00  0.00     0.146 A 
ATOM     11  O   UNL     1      20.195 -57.642   3.839  1.00  0.00    -0.452 OA
ENDROOT
BRANCH   1  12
ATOM     12  C   UNL     1      19.841 -55.331   3.249  1.00  0.00     0.025 A 
ATOM     13  C   UNL     1      19.108 -54.139   3.377  1.00  0.00     0.016 A 
ATOM     14  C   UNL     1      19.533 -52.976   2.729  1.00  0.00     0.051 A 
ATOM     15  C   UNL     1      20.686 -52.991   1.934  1.00  0.00     0.157 A 
ATOM     16  C   UNL     1      20.984 -55.346   2.434  1.00  0.00     0.062 A 
ATOM     17  C   UNL     1      21.413 -54.184   1.784  1.00  0.00     0.158 A 
BRANCH  15  18
ATOM     18  O   UNL     1      21.109 -51.829   1.290  1.00  0.00    -0.504 OA
ATOM     19  H   UNL     1      21.166 -50.942   1.778  1.00  0.00     0.293 HD
ENDBRANCH  15  18
BRANCH  17  20
ATOM     20  O   UNL     1      22.561 -54.234   0.994  1.00  0.00    -0.504 OA
ATOM     21  H   UNL     1      22.706 -53.604   0.214  1.00  0.00     0.293 HD
ENDBRANCH  17  20
ENDBRANCH   1  12
BRANCH   2  22
ATOM     22  O   UNL     1      17.378 -55.537   4.761  1.00  0.00    -0.502 OA
ATOM     23  H   UNL     1      16.411 -55.511   4.460  1.00  0.00     0.293 HD
ENDBRANCH   2  22
BRANCH   6  24
ATOM     24  O   UNL     1      17.139 -60.681   6.119  1.00  0.00    -0.507 OA
ATOM     25  H   UNL     1      16.953 -60.702   7.110  1.00  0.00     0.293 HD
ENDBRANCH   6  24
BRANCH   8  26
ATOM     26  O   UNL     1      21.497 -62.125   4.711  1.00  0.00    -0.508 OA
ATOM     27  H   UNL     1      21.901 -62.387   3.818  1.00  0.00     0.293 HD
ENDBRANCH   8  26
TORSDOF 6
ENDMDL
MODEL 8
REMARK VINA RESULT:    -7.217      2.681      4.833
REMARK INTER + INTRA:          -9.014
REMARK INTER:                  -8.699
REMARK INTRA:                  -0.316
REMARK UNBOUND:                -0.320
REMARK SMILES O=c1c(O)c(-c2ccc(O)c(O)c2)oc2cc(O)cc(O)c12
REMARK SMILES IDX 5 1 3 2 2 3 1 4 22 5 20 6 19 7 17 8 16 9 15 10 14 11 6 12
REMARK SMILES IDX 7 13 8 14 9 15 13 16 11 17 10 18 12 20 4 22 21 24 18 26
REMARK H PARENT 10 19 12 21 4 23 21 25 18 27
REMARK Flexibility Score: inf
ROOT
ATOM      1  C   UNL     1      19.890 -57.458   3.748  1.00  0.00     0.180 A 
ATOM      2  C   UNL     1      20.805 -57.715   2.712  1.00  0.00     0.208 A 
ATOM      3  C   UNL     1      21.231 -56.650   1.901  1.00  0.00     0.238 A 
ATOM      4  O   UNL     1      22.092 -56.876   1.011  1.00  0.00    -0.285 OA
ATOM      5  C   UNL     1      20.726 -55.347   2.124  1.00  0.00     0.111 A 
ATOM      6  C   UNL     1      21.058 -54.203   1.339  1.00  0.00     0.134 A 
ATOM      7  C   UNL     1      20.600 -52.939   1.731  1.00  0.00     0.093 A 
ATOM      8  C   UNL     1      19.767 -52.788   2.843  1.00  0.00     0.123 A 
ATOM      9  C   UNL     1      19.390 -53.906   3.582  1.00  0.00     0.094 A 
ATOM     10  C   UNL     1      19.860 -55.176   3.237  1.00  0.00     0.146 A 
ATOM     11  O   UNL     1      19.484 -56.214   3.974  1.00  0.00    -0.452 OA
ENDROOT
BRANCH   1  12
ATOM     12  C   UNL     1      19.375 -58.532   4.628  1.00  0.00     0.025 A 
ATOM     13  C   UNL     1      18.143 -59.158   4.374  1.00  0.00     0.016 A 
ATOM     14  C   UNL     1      17.666 -60.152   5.232  1.00  0.00     0.051 A 
ATOM     15  C   UNL     1      18.404 -60.525   6.362  1.00  0.00     0.157 A 
ATOM     16  C   UNL     1      20.101 -58.894   5.774  1.00  0.00     0.062 A 
ATOM     17  C   UNL     1      19.627 -59.889   6.636  1.00  0.00     0.158 A 
BRANCH  15  18
ATOM     18  O   UNL     1      17.926 -61.518   7.216  1.00  0.00    -0.504 OA
ATOM     19  H   UNL     1      18.251 -61.596   8.173  1.00  0.00     0.293 HD
ENDBRANCH  15  18
BRANCH  17  20
ATOM     20  O   UNL     1      20.382 -60.232   7.756  1.00  0.00    -0.504 OA
ATOM     21  H   UNL     1      20.096 -59.983   8.695  1.00  0.00     0.293 HD
ENDBRANCH  17  20
ENDBRANCH   1  12
BRANCH   2  22
ATOM     22  O   UNL     1      21.309 -59.004   2.522  1.00  0.00    -0.502 OA
ATOM     23  H   UNL     1      22.206 -59.179   2.085  1.00  0.00     0.293 HD
ENDBRANCH   2  22
BRANCH   6  24
ATOM     24  O   UNL     1      21.805 -54.257   0.159  1.00  0.00    -0.507 OA
ATOM     25  H   UNL     1      22.595 -53.664  -0.050  1.00  0.00     0.293 HD
ENDBRANCH   6  24
BRANCH   8  26
ATOM     26  O   UNL     1      19.304 -51.529   3.218  1.00  0.00    -0.508 OA
ATOM     27  H   UNL     1      19.351 -51.210   4.180  1.00  0.00     0.293 HD
ENDBRANCH   8  26
TORSDOF 6
ENDMDL
MODEL 9
REMARK VINA RESULT:    -7.199      2.457      7.380
REMARK INTER + INTRA:          -8.993
REMARK INTER:                  -9.215
REMARK INTRA:                   0.222
REMARK UNBOUND:                -0.320
REMARK SMILES O=c1c(O)c(-c2ccc(O)c(O)c2)oc2cc(O)cc(O)c12
REMARK SMILES IDX 5 1 3 2 2 3 1 4 22 5 20 6 19 7 17 8 16 9 15 10 14 11 6 12
REMARK SMILES IDX 7 13 8 14 9 15 13 16 11 17 10 18 12 20 4 22 21 24 18 26
REMARK H PARENT 10 19 12 21 4 23 21 25 18 27
REMARK Flexibility Score: inf
ROOT
ATOM      1  C   UNL     1      20.435 -57.074   3.255  1.00  0.00     0.180 A 
ATOM      2  C   UNL     1      20.891 -58.183   2.521  1.00  0.00     0.208 A 
ATOM      3  C   UNL     1      20.610 -59.475   2.993  1.00  0.00     0.238 A 
ATOM      4  O   UNL     1      20.972 -60.463   2.303  1.00  0.00    -0.285 OA
ATOM      5  C   UNL     1      19.891 -59.643   4.201  1.00  0.00     0.111 A 
ATOM      6  C   UNL     1      19.584 -60.904   4.793  1.00  0.00     0.134 A 
ATOM      7  C   UNL     1      18.755 -60.955   5.921  1.00  0.00     0.093 A 
ATOM      8  C   UNL     1      18.277 -59.785   6.516  1.00  0.00     0.123 A 
ATOM      9  C   UNL     1      18.619 -58.546   5.980  1.00  0.00     0.094 A 
ATOM     10  C   UNL     1      19.414 -58.465   4.834  1.00  0.00     0.146 A 
ATOM     11  O   UNL     1      19.708 -57.264   4.350  1.00  0.00    -0.452 OA
ENDROOT
BRANCH   1  12
ATOM     12  C   UNL     1      20.714 -55.682   2.834  1.00  0.00     0.025 A 
ATOM     13  C   UNL     1      19.749 -54.669   2.971  1.00  0.00     0.016 A 
ATOM     14  C   UNL     1      20.026 -53.368   2.545  1.00  0.00     0.051 A 
ATOM     15  C   UNL     1      21.264 -53.062   1.965  1.00  0.00     0.157 A 
ATOM     16  C   UNL     1      21.946 -55.375   2.233  1.00  0.00     0.062 A 
ATOM     17  C   UNL     1      22.226 -54.073   1.805  1.00  0.00     0.158 A 
BRANCH  15  18
ATOM     18  O   UNL     1      21.538 -51.762   1.542  1.00  0.00    -0.504 OA
ATOM     19  H   UNL     1      21.371 -50.962   2.143  1.00  0.00     0.293 HD
ENDBRANCH  15  18
BRANCH  17  20
ATOM     20  O   UNL     1      23.465 -53.802   1.225  1.00  0.00    -0.504 OA
ATOM     21  H   UNL     1      24.331 -53.871   1.746  1.00  0.00     0.293 HD
ENDBRANCH  17  20
ENDBRANCH   1  12
BRANCH   2  22
ATOM     22  O   UNL     1      21.579 -57.995   1.319  1.00  0.00    -0.502 OA
ATOM     23  H   UNL     1      22.590 -57.948   1.272  1.00  0.00     0.293 HD
ENDBRANCH   2  22
BRANCH   6  24
ATOM     24  O   UNL     1      20.087 -62.125   4.333  1.00  0.00    -0.507 OA
ATOM     25  H   UNL     1      19.935 -63.015   4.784  1.00  0.00     0.293 HD
ENDBRANCH   6  24
BRANCH   8  26
ATOM     26  O   UNL     1      17.465 -59.843   7.647  1.00  0.00    -0.508 OA
ATOM     27  H   UNL     1      16.844 -60.627   7.815  1.00  0.00     0.293 HD
ENDBRANCH   8  26
TORSDOF 6
ENDMDL
