MODEL 1
REMARK VINA RESULT:    -7.083      0.000      0.000
REMARK INTER + INTRA:          -7.083
REMARK INTER:                  -7.083
REMARK INTRA:                   0.000
REMARK UNBOUND:                 0.000
REMARK SMILES C[NH+]1CCN(C2=[NH+]c3ccccc3Oc3ccc(Cl)cc32)CC1
REMARK SMILES IDX 7 1 6 2 21 3 5 4 8 5 9 6 13 7 10 8 12 9 14 10 11 11 15 12
REMARK SMILES IDX 16 13 17 14 18 15 20 16 19 17 4 18 22 19 3 20 23 21 2 22
REMARK SMILES IDX 1 23
REMARK H PARENT 7 24 2 25
REMARK Flexibility Score: inf
ROOT
ATOM      1  N   UNL     1     140.740 134.959 147.526  1.00  0.00    -0.237 N 
ATOM      2  C   UNL     1     139.847 134.019 147.692  1.00  0.00     0.286 C 
ATOM      3  C   UNL     1     138.994 133.493 146.593  1.00  0.00     0.108 A 
ATOM      4  N   UNL     1     139.657 133.487 149.017  1.00  0.00    -0.250 N 
ATOM      5  C   UNL     1     141.082 135.637 146.305  1.00  0.00     0.168 A 
ATOM      6  C   UNL     1     141.508 136.975 146.386  1.00  0.00     0.056 A 
ATOM      7  C   UNL     1     141.194 134.960 145.073  1.00  0.00     0.173 A 
ATOM      8  C   UNL     1     142.024 137.630 145.265  1.00  0.00     0.005 A 
ATOM      9  C   UNL     1     141.745 135.615 143.964  1.00  0.00     0.052 A 
ATOM     10  O   UNL     1     140.767 133.646 144.907  1.00  0.00    -0.452 OA
ATOM     11  C   UNL     1     142.150 136.948 144.056  1.00  0.00     0.004 A 
ATOM     12  C   UNL     1     139.503 133.224 145.307  1.00  0.00     0.143 A 
ATOM     13  C   UNL     1     138.723 132.525 144.377  1.00  0.00     0.049 A 
ATOM     14  C   UNL     1     137.418 132.143 144.689  1.00  0.00     0.024 A 
ATOM     15  C   UNL     1     136.885 132.450 145.942  1.00  0.00     0.042 A 
ATOM     16  C   UNL     1     137.669 133.114 146.889  1.00  0.00     0.041 A 
ATOM     17  Cl  UNL     1     135.242 131.978 146.336  1.00  0.00    -0.084 Cl
ATOM     18  C   UNL     1     139.160 134.349 150.090  1.00  0.00     0.298 C 
ATOM     19  C   UNL     1     139.676 132.040 149.239  1.00  0.00     0.298 C 
ATOM     20  C   UNL     1     139.837 133.978 151.416  1.00  0.00     0.308 C 
ATOM     21  C   UNL     1     140.340 131.725 150.586  1.00  0.00     0.308 C 
ATOM     22  N   UNL     1     139.780 132.526 151.700  1.00  0.00    -0.331 N 
ATOM     23  C   UNL     1     138.426 132.082 152.082  1.00  0.00     0.332 C 
ATOM     24  H   UNL     1     141.251 135.285 148.378  1.00  0.00     0.312 HD
ATOM     25  H   UNL     1     140.393 132.355 152.534  1.00  0.00     0.348 HD
ENDROOT
TORSDOF 0
ENDMDL
MODEL 2
REMARK VINA RESULT:    -6.840      2.220      2.849
REMARK INTER + INTRA:          -6.840
REMARK INTER:                  -6.840
REMARK INTRA:                   0.000
REMARK UNBOUND:                 0.000
REMARK SMILES C[NH+]1CCN(C2=[NH+]c3ccccc3Oc3ccc(Cl)cc32)CC1
REMARK SMILES IDX 7 1 6 2 21 3 5 4 8 5 9 6 13 7 10 8 12 9 14 10 11 11 15 12
REMARK SMILES IDX 16 13 17 14 18 15 20 16 19 17 4 18 22 19 3 20 23 21 2 22
REMARK SMILES IDX 1 23
REMARK H PARENT 7 24 2 25
REMARK Flexibility Score: inf
ROOT
ATOM      1  N   UNL     1     139.775 137.288 148.119  1.00  0.00    -0.237 N 
ATOM      2  C   UNL     1     139.640 136.028 147.803  1.00  0.00     0.286 C 
ATOM      3  C   UNL     1     139.571 135.536 146.400  1.00  0.00     0.108 A 
ATOM      4  N   UNL     1     139.520 135.066 148.869  1.00  0.00    -0.250 N 
ATOM      5  C   UNL     1     139.897 138.409 147.227  1.00  0.00     0.168 A 
ATOM      6  C   UNL     1     139.379 139.648 147.643  1.00  0.00     0.056 A 
ATOM      7  C   UNL     1     140.680 138.357 146.055  1.00  0.00     0.173 A 
ATOM      8  C   UNL     1     139.623 140.809 146.905  1.00  0.00     0.005 A 
ATOM      9  C   UNL     1     140.948 139.532 145.341  1.00  0.00     0.052 A 
ATOM     10  O   UNL     1     141.202 137.164 145.565  1.00  0.00    -0.452 OA
ATOM     11  C   UNL     1     140.414 140.753 145.759  1.00  0.00     0.004 A 
ATOM     12  C   UNL     1     140.415 136.030 145.386  1.00  0.00     0.143 A 
ATOM     13  C   UNL     1     140.468 135.387 144.144  1.00  0.00     0.049 A 
ATOM     14  C   UNL     1     139.646 134.292 143.875  1.00  0.00     0.024 A 
ATOM     15  C   UNL     1     138.768 133.826 144.854  1.00  0.00     0.042 A 
ATOM     16  C   UNL     1     138.735 134.439 146.110  1.00  0.00     0.041 A 
ATOM     17  Cl  UNL     1     137.727 132.455 144.519  1.00  0.00    -0.084 Cl
ATOM     18  C   UNL     1     138.369 135.112 149.771  1.00  0.00     0.298 C 
ATOM     19  C   UNL     1     140.372 133.876 148.886  1.00  0.00     0.298 C 
ATOM     20  C   UNL     1     138.804 134.736 151.194  1.00  0.00     0.308 C 
ATOM     21  C   UNL     1     140.758 133.529 150.330  1.00  0.00     0.308 C 
ATOM     22  N   UNL     1     139.588 133.480 151.238  1.00  0.00    -0.331 N 
ATOM     23  C   UNL     1     138.750 132.288 151.006  1.00  0.00     0.332 C 
ATOM     24  H   UNL     1     139.766 137.526 149.138  1.00  0.00     0.312 HD
ATOM     25  H   UNL     1     139.965 133.390 152.213  1.00  0.00     0.348 HD
ENDROOT
TORSDOF 0
ENDMDL
MODEL 3
REMARK VINA RESULT:    -6.531      2.778      3.930
REMARK INTER + INTRA:          -6.531
REMARK INTER:                  -6.531
REMARK INTRA:                   0.000
REMARK UNBOUND:                 0.000
REMARK SMILES C[NH+]1CCN(C2=[NH+]c3ccccc3Oc3ccc(Cl)cc32)CC1
REMARK SMILES IDX 7 1 6 2 21 3 5 4 8 5 9 6 13 7 10 8 12 9 14 10 11 11 15 12
REMARK SMILES IDX 16 13 17 14 18 15 20 16 19 17 4 18 22 19 3 20 23 21 2 22
REMARK SMILES IDX 1 23
REMARK H PARENT 7 24 2 25
REMARK Flexibility Score: inf
ROOT
ATOM      1  N   UNL     1     140.562 134.311 146.530  1.00  0.00    -0.237 N 
ATOM      2  C   UNL     1     139.560 134.899 147.128  1.00  0.00     0.286 C 
ATOM      3  C   UNL     1     139.317 136.366 147.075  1.00  0.00     0.108 A 
ATOM      4  N   UNL     1     138.658 134.086 147.904  1.00  0.00    -0.250 N 
ATOM      5  C   UNL     1     141.582 134.923 145.722  1.00  0.00     0.168 A 
ATOM      6  C   UNL     1     142.865 134.346 145.724  1.00  0.00     0.056 A 
ATOM      7  C   UNL     1     141.296 135.943 144.792  1.00  0.00     0.173 A 
ATOM      8  C   UNL     1     143.845 134.781 144.829  1.00  0.00     0.005 A 
ATOM      9  C   UNL     1     142.275 136.348 143.875  1.00  0.00     0.052 A 
ATOM     10  O   UNL     1     140.060 136.581 144.748  1.00  0.00    -0.452 OA
ATOM     11  C   UNL     1     143.548 135.776 143.899  1.00  0.00     0.004 A 
ATOM     12  C   UNL     1     139.461 137.111 145.888  1.00  0.00     0.143 A 
ATOM     13  C   UNL     1     139.010 138.436 145.833  1.00  0.00     0.049 A 
ATOM     14  C   UNL     1     138.472 139.050 146.965  1.00  0.00     0.024 A 
ATOM     15  C   UNL     1     138.373 138.337 148.161  1.00  0.00     0.042 A 
ATOM     16  C   UNL     1     138.786 137.003 148.214  1.00  0.00     0.041 A 
ATOM     17  Cl  UNL     1     137.704 139.108 149.587  1.00  0.00    -0.084 Cl
ATOM     18  C   UNL     1     139.144 133.385 149.094  1.00  0.00     0.298 C 
ATOM     19  C   UNL     1     137.213 134.182 147.693  1.00  0.00     0.298 C 
ATOM     20  C   UNL     1     138.452 132.021 149.215  1.00  0.00     0.308 C 
ATOM     21  C   UNL     1     136.568 132.798 147.850  1.00  0.00     0.308 C 
ATOM     22  N   UNL     1     136.978 132.114 149.098  1.00  0.00    -0.331 N 
ATOM     23  C   UNL     1     136.359 132.716 150.295  1.00  0.00     0.332 C 
ATOM     24  H   UNL     1     140.662 133.280 146.673  1.00  0.00     0.312 HD
ATOM     25  H   UNL     1     136.615 131.133 149.040  1.00  0.00     0.348 HD
ENDROOT
TORSDOF 0
ENDMDL
MODEL 4
REMARK VINA RESULT:    -6.507      3.540      6.023
REMARK INTER + INTRA:          -6.507
REMARK INTER:                  -6.507
REMARK INTRA:                   0.000
REMARK UNBOUND:                 0.000
REMARK SMILES C[NH+]1CCN(C2=[NH+]c3ccccc3Oc3ccc(Cl)cc32)CC1
REMARK SMILES IDX 7 1 6 2 21 3 5 4 8 5 9 6 13 7 10 8 12 9 14 10 11 11 15 12
REMARK SMILES IDX 16 13 17 14 18 15 20 16 19 17 4 18 22 19 3 20 23 21 2 22
REMARK SMILES IDX 1 23
REMARK H PARENT 7 24 2 25
REMARK Flexibility Score: inf
ROOT
ATOM      1  N   UNL     1     137.832 135.254 148.119  1.00  0.00    -0.237 N 
ATOM      2  C   UNL     1     138.477 136.049 147.306  1.00  0.00     0.286 C 
ATOM      3  C   UNL     1     139.333 135.565 146.190  1.00  0.00     0.108 A 
ATOM      4  N   UNL     1     138.378 137.470 147.522  1.00  0.00    -0.250 N 
ATOM      5  C   UNL     1     137.801 133.818 148.099  1.00  0.00     0.168 A 
ATOM      6  C   UNL     1     137.661 133.140 149.323  1.00  0.00     0.056 A 
ATOM      7  C   UNL     1     137.706 133.083 146.899  1.00  0.00     0.173 A 
ATOM      8  C   UNL     1     137.444 131.760 149.355  1.00  0.00     0.005 A 
ATOM      9  C   UNL     1     137.454 131.705 146.941  1.00  0.00     0.052 A 
ATOM     10  O   UNL     1     137.863 133.678 145.651  1.00  0.00    -0.452 OA
ATOM     11  C   UNL     1     137.332 131.044 148.165  1.00  0.00     0.004 A 
ATOM     12  C   UNL     1     138.947 134.498 145.354  1.00  0.00     0.143 A 
ATOM     13  C   UNL     1     139.674 134.224 144.188  1.00  0.00     0.049 A 
ATOM     14  C   UNL     1     140.817 134.960 143.875  1.00  0.00     0.024 A 
ATOM     15  C   UNL     1     141.238 135.985 144.724  1.00  0.00     0.042 A 
ATOM     16  C   UNL     1     140.498 136.289 145.869  1.00  0.00     0.041 A 
ATOM     17  Cl  UNL     1     142.679 136.907 144.338  1.00  0.00    -0.084 Cl
ATOM     18  C   UNL     1     138.905 138.064 148.751  1.00  0.00     0.298 C 
ATOM     19  C   UNL     1     138.025 138.360 146.414  1.00  0.00     0.298 C 
ATOM     20  C   UNL     1     138.000 139.217 149.205  1.00  0.00     0.308 C 
ATOM     21  C   UNL     1     137.142 139.507 146.925  1.00  0.00     0.308 C 
ATOM     22  N   UNL     1     137.711 140.179 148.116  1.00  0.00    -0.331 N 
ATOM     23  C   UNL     1     138.880 141.014 147.781  1.00  0.00     0.332 C 
ATOM     24  H   UNL     1     137.297 135.703 148.897  1.00  0.00     0.312 HD
ATOM     25  H   UNL     1     136.974 140.834 148.476  1.00  0.00     0.348 HD
ENDROOT
TORSDOF 0
ENDMDL
MODEL 5
REMARK VINA RESULT:    -6.280      3.425      5.132
REMARK INTER + INTRA:          -6.280
REMARK INTER:                  -6.280
REMARK INTRA:                   0.000
REMARK UNBOUND:                 0.000
REMARK SMILES C[NH+]1CCN(C2=[NH+]c3ccccc3Oc3ccc(Cl)cc32)CC1
REMARK SMILES IDX 7 1 6 2 21 3 5 4 8 5 9 6 13 7 10 8 12 9 14 10 11 11 15 12
REMARK SMILES IDX 16 13 17 14 18 15 20 16 19 17 4 18 22 19 3 20 23 21 2 22
REMARK SMILES IDX 1 23
REMARK H PARENT 7 24 2 25
REMARK Flexibility Score: inf
ROOT
ATOM      1  N   UNL     1     140.232 136.910 146.490  1.00  0.00    -0.237 N 
ATOM      2  C   UNL     1     139.463 136.488 147.459  1.00  0.00     0.286 C 
ATOM      3  C   UNL     1     138.969 137.362 148.557  1.00  0.00     0.108 A 
ATOM      4  N   UNL     1     139.098 135.094 147.482  1.00  0.00    -0.250 N 
ATOM      5  C   UNL     1     140.726 138.244 146.281  1.00  0.00     0.168 A 
ATOM      6  C   UNL     1     141.983 138.397 145.670  1.00  0.00     0.056 A 
ATOM      7  C   UNL     1     139.923 139.385 146.482  1.00  0.00     0.173 A 
ATOM      8  C   UNL     1     142.438 139.659 145.277  1.00  0.00     0.005 A 
ATOM      9  C   UNL     1     140.373 140.641 146.053  1.00  0.00     0.052 A 
ATOM     10  O   UNL     1     138.681 139.317 147.106  1.00  0.00    -0.452 OA
ATOM     11  C   UNL     1     141.630 140.779 145.461  1.00  0.00     0.004 A 
ATOM     12  C   UNL     1     138.500 138.670 148.325  1.00  0.00     0.143 A 
ATOM     13  C   UNL     1     137.843 139.370 149.345  1.00  0.00     0.049 A 
ATOM     14  C   UNL     1     137.700 138.807 150.613  1.00  0.00     0.024 A 
ATOM     15  C   UNL     1     138.207 137.533 150.869  1.00  0.00     0.042 A 
ATOM     16  C   UNL     1     138.831 136.813 149.847  1.00  0.00     0.041 A 
ATOM     17  Cl  UNL     1     138.035 136.824 152.465  1.00  0.00    -0.084 Cl
ATOM     18  C   UNL     1     140.128 134.070 147.659  1.00  0.00     0.298 C 
ATOM     19  C   UNL     1     137.695 134.702 147.620  1.00  0.00     0.298 C 
ATOM     20  C   UNL     1     139.789 132.835 146.814  1.00  0.00     0.308 C 
ATOM     21  C   UNL     1     137.415 133.451 146.777  1.00  0.00     0.308 C 
ATOM     22  N   UNL     1     138.397 132.369 147.016  1.00  0.00    -0.331 N 
ATOM     23  C   UNL     1     138.208 131.723 148.329  1.00  0.00     0.332 C 
ATOM     24  H   UNL     1     140.557 136.198 145.797  1.00  0.00     0.312 HD
ATOM     25  H   UNL     1     138.216 131.630 146.295  1.00  0.00     0.348 HD
ENDROOT
TORSDOF 0
ENDMDL
MODEL 6
REMARK VINA RESULT:    -6.183      3.750      5.902
REMARK INTER + INTRA:          -6.183
REMARK INTER:                  -6.183
REMARK INTRA:                   0.000
REMARK UNBOUND:                 0.000
REMARK SMILES C[NH+]1CCN(C2=[NH+]c3ccccc3Oc3ccc(Cl)cc32)CC1
REMARK SMILES IDX 7 1 6 2 21 3 5 4 8 5 9 6 13 7 10 8 12 9 14 10 11 11 15 12
REMARK SMILES IDX 16 13 17 14 18 15 20 16 19 17 4 18 22 19 3 20 23 21 2 22
REMARK SMILES IDX 1 23
REMARK H PARENT 7 24 2 25
REMARK Flexibility Score: inf
ROOT
ATOM      1  N   UNL     1     135.714 132.881 148.409  1.00  0.00    -0.237 N 
ATOM      2  C   UNL     1     136.141 133.066 149.630  1.00  0.00     0.286 C 
ATOM      3  C   UNL     1     137.578 133.037 150.012  1.00  0.00     0.108 A 
ATOM      4  N   UNL     1     135.164 133.281 150.667  1.00  0.00    -0.250 N 
ATOM      5  C   UNL     1     136.503 132.637 147.232  1.00  0.00     0.168 A 
ATOM      6  C   UNL     1     135.951 131.835 146.217  1.00  0.00     0.056 A 
ATOM      7  C   UNL     1     137.708 133.324 146.977  1.00  0.00     0.173 A 
ATOM      8  C   UNL     1     136.588 131.709 144.980  1.00  0.00     0.005 A 
ATOM      9  C   UNL     1     138.321 133.218 145.722  1.00  0.00     0.052 A 
ATOM     10  O   UNL     1     138.330 134.113 147.941  1.00  0.00    -0.452 OA
ATOM     11  C   UNL     1     137.768 132.407 144.729  1.00  0.00     0.004 A 
ATOM     12  C   UNL     1     138.578 133.648 149.229  1.00  0.00     0.143 A 
ATOM     13  C   UNL     1     139.876 133.787 149.735  1.00  0.00     0.049 A 
ATOM     14  C   UNL     1     140.209 133.272 150.988  1.00  0.00     0.024 A 
ATOM     15  C   UNL     1     139.240 132.619 151.751  1.00  0.00     0.042 A 
ATOM     16  C   UNL     1     137.932 132.508 151.269  1.00  0.00     0.041 A 
ATOM     17  Cl  UNL     1     139.655 131.963 153.323  1.00  0.00    -0.084 Cl
ATOM     18  C   UNL     1     134.211 132.223 151.008  1.00  0.00     0.298 C 
ATOM     19  C   UNL     1     135.295 134.420 151.578  1.00  0.00     0.298 C 
ATOM     20  C   UNL     1     132.851 132.839 151.360  1.00  0.00     0.308 C 
ATOM     21  C   UNL     1     133.908 134.981 151.917  1.00  0.00     0.308 C 
ATOM     22  N   UNL     1     132.958 133.932 152.354  1.00  0.00    -0.331 N 
ATOM     23  C   UNL     1     133.263 133.430 153.707  1.00  0.00     0.332 C 
ATOM     24  H   UNL     1     134.679 132.877 148.262  1.00  0.00     0.312 HD
ATOM     25  H   UNL     1     132.013 134.384 152.412  1.00  0.00     0.348 HD
ENDROOT
TORSDOF 0
ENDMDL
MODEL 7
REMARK VINA RESULT:    -6.163      3.542      4.398
REMARK INTER + INTRA:          -6.163
REMARK INTER:                  -6.163
REMARK INTRA:                   0.000
REMARK UNBOUND:                 0.000
REMARK SMILES C[NH+]1CCN(C2=[NH+]c3ccccc3Oc3ccc(Cl)cc32)CC1
REMARK SMILES IDX 7 1 6 2 21 3 5 4 8 5 9 6 13 7 10 8 12 9 14 10 11 11 15 12
REMARK SMILES IDX 16 13 17 14 18 15 20 16 19 17 4 18 22 19 3 20 23 21 2 22
REMARK SMILES IDX 1 23
REMARK H PARENT 7 24 2 25
REMARK Flexibility Score: inf
ROOT
ATOM      1  N   UNL     1     141.490 135.228 147.603  1.00  0.00    -0.237 N 
ATOM      2  C   UNL     1     140.643 136.097 148.089  1.00  0.00     0.286 C 
ATOM      3  C   UNL     1     140.269 137.357 147.393  1.00  0.00     0.108 A 
ATOM      4  N   UNL     1     140.065 135.835 149.382  1.00  0.00    -0.250 N 
ATOM      5  C   UNL     1     142.191 135.294 146.350  1.00  0.00     0.168 A 
ATOM      6  C   UNL     1     143.470 134.713 146.274  1.00  0.00     0.056 A 
ATOM      7  C   UNL     1     141.572 135.734 145.162  1.00  0.00     0.173 A 
ATOM      8  C   UNL     1     144.125 134.584 145.047  1.00  0.00     0.005 A 
ATOM      9  C   UNL     1     142.222 135.569 143.932  1.00  0.00     0.052 A 
ATOM     10  O   UNL     1     140.321 136.344 145.160  1.00  0.00    -0.452 OA
ATOM     11  C   UNL     1     143.498 135.005 143.875  1.00  0.00     0.004 A 
ATOM     12  C   UNL     1     140.015 137.406 146.008  1.00  0.00     0.143 A 
ATOM     13  C   UNL     1     139.453 138.555 145.438  1.00  0.00     0.049 A 
ATOM     14  C   UNL     1     139.195 139.681 146.220  1.00  0.00     0.024 A 
ATOM     15  C   UNL     1     139.491 139.663 147.583  1.00  0.00     0.042 A 
ATOM     16  C   UNL     1     140.018 138.508 148.167  1.00  0.00     0.041 A 
ATOM     17  Cl  UNL     1     139.176 141.080 148.569  1.00  0.00    -0.084 Cl
ATOM     18  C   UNL     1     140.918 135.786 150.571  1.00  0.00     0.298 C 
ATOM     19  C   UNL     1     138.614 135.905 149.568  1.00  0.00     0.298 C 
ATOM     20  C   UNL     1     140.408 134.708 151.536  1.00  0.00     0.308 C 
ATOM     21  C   UNL     1     138.161 134.825 150.559  1.00  0.00     0.308 C 
ATOM     22  N   UNL     1     138.956 134.825 151.809  1.00  0.00    -0.331 N 
ATOM     23  C   UNL     1     138.640 135.978 152.673  1.00  0.00     0.332 C 
ATOM     24  H   UNL     1     141.715 134.399 148.200  1.00  0.00     0.312 HD
ATOM     25  H   UNL     1     138.678 133.968 152.346  1.00  0.00     0.348 HD
ENDROOT
TORSDOF 0
ENDMDL
MODEL 8
REMARK VINA RESULT:    -6.103      3.005      4.907
REMARK INTER + INTRA:          -6.103
REMARK INTER:                  -6.103
REMARK INTRA:                   0.000
REMARK UNBOUND:                 0.000
REMARK SMILES C[NH+]1CCN(C2=[NH+]c3ccccc3Oc3ccc(Cl)cc32)CC1
REMARK SMILES IDX 7 1 6 2 21 3 5 4 8 5 9 6 13 7 10 8 12 9 14 10 11 11 15 12
REMARK SMILES IDX 16 13 17 14 18 15 20 16 19 17 4 18 22 19 3 20 23 21 2 22
REMARK SMILES IDX 1 23
REMARK H PARENT 7 24 2 25
REMARK Flexibility Score: inf
ROOT
ATOM      1  N   UNL     1     138.171 134.419 147.731  1.00  0.00    -0.237 N 
ATOM      2  C   UNL     1     139.132 134.956 148.436  1.00  0.00     0.286 C 
ATOM      3  C   UNL     1     140.559 134.953 148.016  1.00  0.00     0.108 A 
ATOM      4  N   UNL     1     138.795 135.557 149.701  1.00  0.00    -0.250 N 
ATOM      5  C   UNL     1     138.280 133.759 146.459  1.00  0.00     0.168 A 
ATOM      6  C   UNL     1     137.383 132.714 146.174  1.00  0.00     0.056 A 
ATOM      7  C   UNL     1     139.109 134.245 145.427  1.00  0.00     0.173 A 
ATOM      8  C   UNL     1     137.319 132.156 144.895  1.00  0.00     0.005 A 
ATOM      9  C   UNL     1     139.013 133.702 144.139  1.00  0.00     0.052 A 
ATOM     10  O   UNL     1     140.041 135.256 145.638  1.00  0.00    -0.452 OA
ATOM     11  C   UNL     1     138.127 132.655 143.875  1.00  0.00     0.004 A 
ATOM     12  C   UNL     1     140.954 135.212 146.688  1.00  0.00     0.143 A 
ATOM     13  C   UNL     1     142.306 135.418 146.387  1.00  0.00     0.049 A 
ATOM     14  C   UNL     1     143.279 135.309 147.381  1.00  0.00     0.024 A 
ATOM     15  C   UNL     1     142.904 135.002 148.690  1.00  0.00     0.042 A 
ATOM     16  C   UNL     1     141.554 134.831 149.006  1.00  0.00     0.041 A 
ATOM     17  Cl  UNL     1     144.125 134.857 149.941  1.00  0.00    -0.084 Cl
ATOM     18  C   UNL     1     138.265 134.731 150.787  1.00  0.00     0.298 C 
ATOM     19  C   UNL     1     139.241 136.916 150.013  1.00  0.00     0.298 C 
ATOM     20  C   UNL     1     137.210 135.518 151.576  1.00  0.00     0.308 C 
ATOM     21  C   UNL     1     138.163 137.649 150.822  1.00  0.00     0.308 C 
ATOM     22  N   UNL     1     137.683 136.862 151.981  1.00  0.00    -0.331 N 
ATOM     23  C   UNL     1     138.682 136.799 153.066  1.00  0.00     0.332 C 
ATOM     24  H   UNL     1     137.211 134.438 148.145  1.00  0.00     0.312 HD
ATOM     25  H   UNL     1     136.854 137.371 152.372  1.00  0.00     0.348 HD
ENDROOT
TORSDOF 0
ENDMDL
MODEL 9
REMARK VINA RESULT:    -5.954      2.340      2.941
REMARK INTER + INTRA:          -5.954
REMARK INTER:                  -5.954
REMARK INTRA:                   0.000
REMARK UNBOUND:                 0.000
REMARK SMILES C[NH+]1CCN(C2=[NH+]c3ccccc3Oc3ccc(Cl)cc32)CC1
REMARK SMILES IDX 7 1 6 2 21 3 5 4 8 5 9 6 13 7 10 8 12 9 14 10 11 11 15 12
REMARK SMILES IDX 16 13 17 14 18 15 20 16 19 17 4 18 22 19 3 20 23 21 2 22
REMARK SMILES IDX 1 23
REMARK H PARENT 7 24 2 25
REMARK Flexibility Score: inf
ROOT
ATOM      1  N   UNL     1     140.647 136.882 147.401  1.00  0.00    -0.237 N 
ATOM      2  C   UNL     1     139.690 136.224 147.999  1.00  0.00     0.286 C 
ATOM      3  C   UNL     1     139.061 134.997 147.439  1.00  0.00     0.108 A 
ATOM      4  N   UNL     1     139.195 136.730 149.254  1.00  0.00    -0.250 N 
ATOM      5  C   UNL     1     141.275 136.568 146.146  1.00  0.00     0.168 A 
ATOM      6  C   UNL     1     141.745 137.632 145.355  1.00  0.00     0.056 A 
ATOM      7  C   UNL     1     141.609 135.249 145.780  1.00  0.00     0.173 A 
ATOM      8  C   UNL     1     142.521 137.390 144.219  1.00  0.00     0.005 A 
ATOM      9  C   UNL     1     142.416 135.017 144.658  1.00  0.00     0.052 A 
ATOM     10  O   UNL     1     141.157 134.144 146.496  1.00  0.00    -0.452 OA
ATOM     11  C   UNL     1     142.864 136.083 143.875  1.00  0.00     0.004 A 
ATOM     12  C   UNL     1     139.816 133.976 146.828  1.00  0.00     0.143 A 
ATOM     13  C   UNL     1     139.214 132.750 146.518  1.00  0.00     0.049 A 
ATOM     14  C   UNL     1     137.855 132.547 146.754  1.00  0.00     0.024 A 
ATOM     15  C   UNL     1     137.086 133.569 147.311  1.00  0.00     0.042 A 
ATOM     16  C   UNL     1     137.686 134.783 147.658  1.00  0.00     0.041 A 
ATOM     17  Cl  UNL     1     135.374 133.321 147.603  1.00  0.00    -0.084 Cl
ATOM     18  C   UNL     1     138.529 138.032 149.308  1.00  0.00     0.298 C 
ATOM     19  C   UNL     1     139.090 135.845 150.415  1.00  0.00     0.298 C 
ATOM     20  C   UNL     1     138.890 138.751 150.615  1.00  0.00     0.308 C 
ATOM     21  C   UNL     1     139.436 136.617 151.695  1.00  0.00     0.308 C 
ATOM     22  N   UNL     1     138.697 137.896 151.810  1.00  0.00    -0.331 N 
ATOM     23  C   UNL     1     137.271 137.691 152.126  1.00  0.00     0.332 C 
ATOM     24  H   UNL     1     140.982 137.758 147.863  1.00  0.00     0.312 HD
ATOM     25  H   UNL     1     139.109 138.413 152.624  1.00  0.00     0.348 HD
ENDROOT
TORSDOF 0
ENDMDL
