MODEL 1
REMARK VINA RESULT:    -4.075      0.000      0.000
REMARK INTER + INTRA:          -4.195
REMARK INTER:                  -4.195
REMARK INTRA:                   0.000
REMARK UNBOUND:                 0.000
REMARK SMILES Cc1ccccc1O
REMARK SMILES IDX 1 1 2 2 3 3 4 4 5 5 6 6 7 7 8 8
REMARK H PARENT 8 9
REMARK Flexibility Score: inf
ROOT
ATOM      1  C   UNL     1      19.497  27.445  34.710  1.00  0.00     0.048 C 
ATOM      2  C   UNL     1      18.562  28.492  34.177  1.00  0.00    -0.009 A 
ATOM      3  C   UNL     1      17.712  29.195  35.049  1.00  0.00     0.007 A 
ATOM      4  C   UNL     1      16.840  30.169  34.552  1.00  0.00     0.001 A 
ATOM      5  C   UNL     1      16.810  30.449  33.185  1.00  0.00     0.004 A 
ATOM      6  C   UNL     1      17.650  29.757  32.309  1.00  0.00     0.046 A 
ATOM      7  C   UNL     1      18.527  28.777  32.798  1.00  0.00     0.118 A 
ENDROOT
BRANCH   7   8
ATOM      8  O   UNL     1      19.365  28.089  31.921  1.00  0.00    -0.508 OA
ATOM      9  H   UNL     1      19.120  27.955  30.947  1.00  0.00     0.293 HD
ENDBRANCH   7   8
TORSDOF 1
ENDMDL
MODEL 2
REMARK VINA RESULT:    -4.035     11.090     11.649
REMARK INTER + INTRA:          -4.153
REMARK INTER:                  -4.153
REMARK INTRA:                   0.000
REMARK UNBOUND:                 0.000
REMARK SMILES Cc1ccccc1O
REMARK SMILES IDX 1 1 2 2 3 3 4 4 5 5 6 6 7 7 8 8
REMARK H PARENT 8 9
REMARK Flexibility Score: inf
ROOT
ATOM      1  C   UNL     1      11.221  20.783  35.576  1.00  0.00     0.048 C 
ATOM      2  C   UNL     1      12.337  20.186  36.385  1.00  0.00    -0.009 A 
ATOM      3  C   UNL     1      13.425  19.569  35.744  1.00  0.00     0.007 A 
ATOM      4  C   UNL     1      14.464  19.012  36.496  1.00  0.00     0.001 A 
ATOM      5  C   UNL     1      14.425  19.067  37.891  1.00  0.00     0.004 A 
ATOM      6  C   UNL     1      13.348  19.678  38.538  1.00  0.00     0.046 A 
ATOM      7  C   UNL     1      12.301  20.239  37.791  1.00  0.00     0.118 A 
ENDROOT
BRANCH   7   8
ATOM      8  O   UNL     1      11.228  20.849  38.441  1.00  0.00    -0.508 OA
ATOM      9  H   UNL     1      11.193  21.851  38.581  1.00  0.00     0.293 HD
ENDBRANCH   7   8
TORSDOF 1
ENDMDL
MODEL 3
REMARK VINA RESULT:    -4.026      1.654      3.394
REMARK INTER + INTRA:          -4.144
REMARK INTER:                  -4.144
REMARK INTRA:                   0.000
REMARK UNBOUND:                 0.000
REMARK SMILES Cc1ccccc1O
REMARK SMILES IDX 1 1 2 2 3 3 4 4 5 5 6 6 7 7 8 8
REMARK H PARENT 8 9
REMARK Flexibility Score: inf
ROOT
ATOM      1  C   UNL     1      18.004  29.211  30.928  1.00  0.00     0.048 C 
ATOM      2  C   UNL     1      18.466  28.683  32.256  1.00  0.00    -0.009 A 
ATOM      3  C   UNL     1      19.369  27.607  32.317  1.00  0.00     0.007 A 
ATOM      4  C   UNL     1      19.799  27.115  33.553  1.00  0.00     0.001 A 
ATOM      5  C   UNL     1      19.333  27.692  34.736  1.00  0.00     0.004 A 
ATOM      6  C   UNL     1      18.436  28.762  34.688  1.00  0.00     0.046 A 
ATOM      7  C   UNL     1      17.999  29.262  33.452  1.00  0.00     0.118 A 
ENDROOT
BRANCH   7   8
ATOM      8  O   UNL     1      17.104  30.331  33.408  1.00  0.00    -0.508 OA
ATOM      9  H   UNL     1      16.273  30.305  32.828  1.00  0.00     0.293 HD
ENDBRANCH   7   8
TORSDOF 1
ENDMDL
MODEL 4
REMARK VINA RESULT:    -4.003     11.191     11.539
REMARK INTER + INTRA:          -4.120
REMARK INTER:                  -4.120
REMARK INTRA:                   0.000
REMARK UNBOUND:                 0.000
REMARK SMILES Cc1ccccc1O
REMARK SMILES IDX 1 1 2 2 3 3 4 4 5 5 6 6 7 7 8 8
REMARK H PARENT 8 9
REMARK Flexibility Score: inf
ROOT
ATOM      1  C   UNL     1      11.161  20.925  38.973  1.00  0.00     0.048 C 
ATOM      2  C   UNL     1      12.097  20.340  37.955  1.00  0.00    -0.009 A 
ATOM      3  C   UNL     1      13.341  19.819  38.351  1.00  0.00     0.007 A 
ATOM      4  C   UNL     1      14.213  19.274  37.404  1.00  0.00     0.001 A 
ATOM      5  C   UNL     1      13.851  19.244  36.056  1.00  0.00     0.004 A 
ATOM      6  C   UNL     1      12.617  19.758  35.650  1.00  0.00     0.046 A 
ATOM      7  C   UNL     1      11.736  20.307  36.594  1.00  0.00     0.118 A 
ENDROOT
BRANCH   7   8
ATOM      8  O   UNL     1      10.504  20.819  36.185  1.00  0.00    -0.508 OA
ATOM      9  H   UNL     1      10.262  20.900  35.205  1.00  0.00     0.293 HD
ENDBRANCH   7   8
TORSDOF 1
ENDMDL
MODEL 5
REMARK VINA RESULT:    -3.996     11.196     11.590
REMARK INTER + INTRA:          -4.113
REMARK INTER:                  -4.113
REMARK INTRA:                   0.000
REMARK UNBOUND:                 0.000
REMARK SMILES Cc1ccccc1O
REMARK SMILES IDX 1 1 2 2 3 3 4 4 5 5 6 6 7 7 8 8
REMARK H PARENT 8 9
REMARK Flexibility Score: inf
ROOT
ATOM      1  C   UNL     1      11.275  21.029  39.421  1.00  0.00     0.048 C 
ATOM      2  C   UNL     1      11.913  20.532  38.155  1.00  0.00    -0.009 A 
ATOM      3  C   UNL     1      11.290  20.750  36.914  1.00  0.00     0.007 A 
ATOM      4  C   UNL     1      11.883  20.288  35.735  1.00  0.00     0.001 A 
ATOM      5  C   UNL     1      13.100  19.605  35.786  1.00  0.00     0.004 A 
ATOM      6  C   UNL     1      13.729  19.383  37.013  1.00  0.00     0.046 A 
ATOM      7  C   UNL     1      13.141  19.843  38.201  1.00  0.00     0.118 A 
ENDROOT
BRANCH   7   8
ATOM      8  O   UNL     1      13.771  19.620  39.425  1.00  0.00    -0.508 OA
ATOM      9  H   UNL     1      13.247  19.569  40.291  1.00  0.00     0.293 HD
ENDBRANCH   7   8
TORSDOF 1
ENDMDL
MODEL 6
REMARK VINA RESULT:    -3.964      0.781      2.404
REMARK INTER + INTRA:          -4.080
REMARK INTER:                  -4.080
REMARK INTRA:                   0.000
REMARK UNBOUND:                 0.000
REMARK SMILES Cc1ccccc1O
REMARK SMILES IDX 1 1 2 2 3 3 4 4 5 5 6 6 7 7 8 8
REMARK H PARENT 8 9
REMARK Flexibility Score: inf
ROOT
ATOM      1  C   UNL     1      18.023  29.228  30.747  1.00  0.00     0.048 C 
ATOM      2  C   UNL     1      17.987  29.216  32.248  1.00  0.00    -0.009 A 
ATOM      3  C   UNL     1      17.182  30.133  32.946  1.00  0.00     0.007 A 
ATOM      4  C   UNL     1      17.149  30.123  34.344  1.00  0.00     0.001 A 
ATOM      5  C   UNL     1      17.918  29.199  35.054  1.00  0.00     0.004 A 
ATOM      6  C   UNL     1      18.721  28.282  34.371  1.00  0.00     0.046 A 
ATOM      7  C   UNL     1      18.760  28.286  32.969  1.00  0.00     0.118 A 
ENDROOT
BRANCH   7   8
ATOM      8  O   UNL     1      19.563  27.369  32.290  1.00  0.00    -0.508 OA
ATOM      9  H   UNL     1      19.967  27.584  31.387  1.00  0.00     0.293 HD
ENDBRANCH   7   8
TORSDOF 1
ENDMDL
MODEL 7
REMARK VINA RESULT:    -3.949      1.322      2.916
REMARK INTER + INTRA:          -4.065
REMARK INTER:                  -4.065
REMARK INTRA:                   0.000
REMARK UNBOUND:                 0.000
REMARK SMILES Cc1ccccc1O
REMARK SMILES IDX 1 1 2 2 3 3 4 4 5 5 6 6 7 7 8 8
REMARK H PARENT 8 9
REMARK Flexibility Score: inf
ROOT
ATOM      1  C   UNL     1      17.585  29.701  34.993  1.00  0.00     0.048 C 
ATOM      2  C   UNL     1      18.403  28.743  34.175  1.00  0.00    -0.009 A 
ATOM      3  C   UNL     1      19.183  27.759  34.806  1.00  0.00     0.007 A 
ATOM      4  C   UNL     1      19.945  26.867  34.045  1.00  0.00     0.001 A 
ATOM      5  C   UNL     1      19.935  26.951  32.651  1.00  0.00     0.004 A 
ATOM      6  C   UNL     1      19.163  27.925  32.013  1.00  0.00     0.046 A 
ATOM      7  C   UNL     1      18.396  28.824  32.769  1.00  0.00     0.118 A 
ENDROOT
BRANCH   7   8
ATOM      8  O   UNL     1      17.626  29.796  32.128  1.00  0.00    -0.508 OA
ATOM      9  H   UNL     1      16.902  30.307  32.619  1.00  0.00     0.293 HD
ENDBRANCH   7   8
TORSDOF 1
ENDMDL
MODEL 8
REMARK VINA RESULT:    -3.939      3.600      4.884
REMARK INTER + INTRA:          -4.054
REMARK INTER:                  -4.054
REMARK INTRA:                   0.000
REMARK UNBOUND:                 0.000
REMARK SMILES Cc1ccccc1O
REMARK SMILES IDX 1 1 2 2 3 3 4 4 5 5 6 6 7 7 8 8
REMARK H PARENT 8 9
REMARK Flexibility Score: inf
ROOT
ATOM      1  C   UNL     1      18.008  29.282  31.799  1.00  0.00     0.048 C 
ATOM      2  C   UNL     1      18.119  29.081  30.315  1.00  0.00    -0.009 A 
ATOM      3  C   UNL     1      18.035  27.789  29.767  1.00  0.00     0.007 A 
ATOM      4  C   UNL     1      18.139  27.600  28.386  1.00  0.00     0.001 A 
ATOM      5  C   UNL     1      18.326  28.697  27.542  1.00  0.00     0.004 A 
ATOM      6  C   UNL     1      18.411  29.985  28.076  1.00  0.00     0.046 A 
ATOM      7  C   UNL     1      18.308  30.184  29.461  1.00  0.00     0.118 A 
ENDROOT
BRANCH   7   8
ATOM      8  O   UNL     1      18.392  31.472  29.990  1.00  0.00    -0.508 OA
ATOM      9  H   UNL     1      17.574  32.062  30.082  1.00  0.00     0.293 HD
ENDBRANCH   7   8
TORSDOF 1
ENDMDL
MODEL 9
REMARK VINA RESULT:    -3.922      3.929      5.664
REMARK INTER + INTRA:          -4.037
REMARK INTER:                  -4.037
REMARK INTRA:                   0.000
REMARK UNBOUND:                 0.000
REMARK SMILES Cc1ccccc1O
REMARK SMILES IDX 1 1 2 2 3 3 4 4 5 5 6 6 7 7 8 8
REMARK H PARENT 8 9
REMARK Flexibility Score: inf
ROOT
ATOM      1  C   UNL     1      18.598  31.391  28.060  1.00  0.00     0.048 C 
ATOM      2  C   UNL     1      18.370  29.965  28.473  1.00  0.00    -0.009 A 
ATOM      3  C   UNL     1      18.259  28.954  27.502  1.00  0.00     0.007 A 
ATOM      4  C   UNL     1      18.046  27.627  27.885  1.00  0.00     0.001 A 
ATOM      5  C   UNL     1      17.943  27.298  29.239  1.00  0.00     0.004 A 
ATOM      6  C   UNL     1      18.053  28.293  30.212  1.00  0.00     0.046 A 
ATOM      7  C   UNL     1      18.266  29.628  29.837  1.00  0.00     0.118 A 
ENDROOT
BRANCH   7   8
ATOM      8  O   UNL     1      18.375  30.620  30.812  1.00  0.00    -0.508 OA
ATOM      9  H   UNL     1      19.114  31.312  30.784  1.00  0.00     0.293 HD
ENDBRANCH   7   8
TORSDOF 1
ENDMDL
