MODEL 1
REMARK VINA RESULT:    -3.580      0.000      0.000
REMARK INTER + INTRA:          -4.509
REMARK INTER:                  -4.417
REMARK INTRA:                  -0.092
REMARK UNBOUND:                -0.092
REMARK SMILES CCCCCC(=O)[O-]
REMARK SMILES IDX 4 1 5 2 6 3 7 4 8 5 3 6 2 7 1 8
REMARK H PARENT
REMARK Flexibility Score: inf
ROOT
ATOM      1  C   UNL     1      47.387  34.763 -15.432  1.00  0.00     0.006 C 
ENDROOT
BRANCH   1   2
ATOM      2  C   UNL     1      47.867  34.742 -13.975  1.00  0.00     0.053 C 
BRANCH   2   3
ATOM      3  C   UNL     1      46.708  34.559 -13.046  1.00  0.00     0.041 C 
ATOM      4  O   UNL     1      45.638  34.044 -13.464  1.00  0.00    -0.550 OA
ATOM      5  O   UNL     1      46.827  34.911 -11.708  1.00  0.00    -0.550 OA
ENDBRANCH   2   3
ENDBRANCH   1   2
BRANCH   1   6
ATOM      6  C   UNL     1      48.548  34.804 -16.438  1.00  0.00     0.000 C 
BRANCH   6   7
ATOM      7  C   UNL     1      48.773  36.205 -17.023  1.00  0.00    -0.003 C 
ATOM      8  C   UNL     1      47.460  36.815 -17.508  1.00  0.00     0.004 C 
ENDBRANCH   6   7
ENDBRANCH   1   6
TORSDOF 4
ENDMDL
MODEL 2
REMARK VINA RESULT:    -3.504      3.230      4.499
REMARK INTER + INTRA:          -4.415
REMARK INTER:                  -4.280
REMARK INTRA:                  -0.134
REMARK UNBOUND:                -0.092
REMARK SMILES CCCCCC(=O)[O-]
REMARK SMILES IDX 4 1 5 2 6 3 7 4 8 5 3 6 2 7 1 8
REMARK H PARENT
REMARK Flexibility Score: inf
ROOT
ATOM      1  C   UNL     1      48.147  34.730 -16.251  1.00  0.00     0.006 C 
ENDROOT
BRANCH   1   2
ATOM      2  C   UNL     1      47.436  35.909 -16.928  1.00  0.00     0.053 C 
BRANCH   2   3
ATOM      3  C   UNL     1      48.426  36.960 -17.320  1.00  0.00     0.041 C 
ATOM      4  O   UNL     1      48.051  37.971 -17.970  1.00  0.00    -0.550 OA
ATOM      5  O   UNL     1      49.752  36.849 -16.924  1.00  0.00    -0.550 OA
ENDBRANCH   2   3
ENDBRANCH   1   2
BRANCH   1   6
ATOM      6  C   UNL     1      48.030  34.768 -14.719  1.00  0.00     0.000 C 
BRANCH   6   7
ATOM      7  C   UNL     1      46.670  35.299 -14.244  1.00  0.00    -0.003 C 
ATOM      8  C   UNL     1      45.996  34.312 -13.295  1.00  0.00     0.004 C 
ENDBRANCH   6   7
ENDBRANCH   1   6
TORSDOF 4
ENDMDL
MODEL 3
REMARK VINA RESULT:    -3.500     17.069     17.870
REMARK INTER + INTRA:          -4.410
REMARK INTER:                  -4.224
REMARK INTRA:                  -0.186
REMARK UNBOUND:                -0.092
REMARK SMILES CCCCCC(=O)[O-]
REMARK SMILES IDX 4 1 5 2 6 3 7 4 8 5 3 6 2 7 1 8
REMARK H PARENT
REMARK Flexibility Score: inf
ROOT
ATOM      1  C   UNL     1      38.950  22.787 -24.719  1.00  0.00     0.006 C 
ENDROOT
BRANCH   1   2
ATOM      2  C   UNL     1      40.406  23.055 -25.123  1.00  0.00     0.053 C 
BRANCH   2   3
ATOM      3  C   UNL     1      41.279  23.128 -23.911  1.00  0.00     0.041 C 
ATOM      4  O   UNL     1      41.860  22.095 -23.486  1.00  0.00    -0.550 OA
ATOM      5  O   UNL     1      41.492  24.347 -23.279  1.00  0.00    -0.550 OA
ENDBRANCH   2   3
ENDBRANCH   1   2
BRANCH   1   6
ATOM      6  C   UNL     1      38.504  21.350 -25.035  1.00  0.00     0.000 C 
BRANCH   6   7
ATOM      7  C   UNL     1      38.654  20.408 -23.832  1.00  0.00    -0.003 C 
ATOM      8  C   UNL     1      37.805  20.880 -22.655  1.00  0.00     0.004 C 
ENDBRANCH   6   7
ENDBRANCH   1   6
TORSDOF 4
ENDMDL
MODEL 4
REMARK VINA RESULT:    -3.498     18.333     19.063
REMARK INTER + INTRA:          -4.408
REMARK INTER:                  -4.258
REMARK INTRA:                  -0.150
REMARK UNBOUND:                -0.092
REMARK SMILES CCCCCC(=O)[O-]
REMARK SMILES IDX 4 1 5 2 6 3 7 4 8 5 3 6 2 7 1 8
REMARK H PARENT
REMARK Flexibility Score: inf
ROOT
ATOM      1  C   UNL     1      38.148  19.867 -23.522  1.00  0.00     0.006 C 
ENDROOT
BRANCH   1   2
ATOM      2  C   UNL     1      38.609  21.234 -24.045  1.00  0.00     0.053 C 
BRANCH   2   3
ATOM      3  C   UNL     1      40.075  21.213 -24.339  1.00  0.00     0.041 C 
ATOM      4  O   UNL     1      40.781  20.239 -23.968  1.00  0.00    -0.550 OA
ATOM      5  O   UNL     1      40.654  22.245 -25.067  1.00  0.00    -0.550 OA
ENDBRANCH   2   3
ENDBRANCH   1   2
BRANCH   1   6
ATOM      6  C   UNL     1      37.290  19.978 -22.251  1.00  0.00     0.000 C 
BRANCH   6   7
ATOM      7  C   UNL     1      37.432  21.341 -21.560  1.00  0.00    -0.003 C 
ATOM      8  C   UNL     1      36.079  22.036 -21.432  1.00  0.00     0.004 C 
ENDBRANCH   6   7
ENDBRANCH   1   6
TORSDOF 4
ENDMDL
MODEL 5
REMARK VINA RESULT:    -3.484      1.101      1.269
REMARK INTER + INTRA:          -4.390
REMARK INTER:                  -4.277
REMARK INTRA:                  -0.113
REMARK UNBOUND:                -0.092
REMARK SMILES CCCCCC(=O)[O-]
REMARK SMILES IDX 4 1 5 2 6 3 7 4 8 5 3 6 2 7 1 8
REMARK H PARENT
REMARK Flexibility Score: inf
ROOT
ATOM      1  C   UNL     1      47.677  34.736 -14.833  1.00  0.00     0.006 C 
ENDROOT
BRANCH   1   2
ATOM      2  C   UNL     1      46.691  35.739 -14.221  1.00  0.00     0.053 C 
BRANCH   2   3
ATOM      3  C   UNL     1      45.742  35.041 -13.298  1.00  0.00     0.041 C 
ATOM      4  O   UNL     1      46.042  33.918 -12.813  1.00  0.00    -0.550 OA
ATOM      5  O   UNL     1      44.550  35.653 -12.932  1.00  0.00    -0.550 OA
ENDBRANCH   2   3
ENDBRANCH   1   2
BRANCH   1   6
ATOM      6  C   UNL     1      47.694  34.784 -16.369  1.00  0.00     0.000 C 
BRANCH   6   7
ATOM      7  C   UNL     1      48.483  35.983 -16.913  1.00  0.00    -0.003 C 
ATOM      8  C   UNL     1      47.570  36.945 -17.669  1.00  0.00     0.004 C 
ENDBRANCH   6   7
ENDBRANCH   1   6
TORSDOF 4
ENDMDL
MODEL 6
REMARK VINA RESULT:    -3.478     18.488     19.384
REMARK INTER + INTRA:          -4.384
REMARK INTER:                  -4.307
REMARK INTRA:                  -0.077
REMARK UNBOUND:                -0.092
REMARK SMILES CCCCCC(=O)[O-]
REMARK SMILES IDX 4 1 5 2 6 3 7 4 8 5 3 6 2 7 1 8
REMARK H PARENT
REMARK Flexibility Score: inf
ROOT
ATOM      1  C   UNL     1      37.803  21.619 -23.541  1.00  0.00     0.006 C 
ENDROOT
BRANCH   1   2
ATOM      2  C   UNL     1      38.133  21.975 -24.996  1.00  0.00     0.053 C 
BRANCH   2   3
ATOM      3  C   UNL     1      39.498  22.579 -25.089  1.00  0.00     0.041 C 
ATOM      4  O   UNL     1      39.637  23.831 -25.090  1.00  0.00    -0.550 OA
ATOM      5  O   UNL     1      40.620  21.762 -25.125  1.00  0.00    -0.550 OA
ENDBRANCH   2   3
ENDBRANCH   1   2
BRANCH   1   6
ATOM      6  C   UNL     1      38.129  20.157 -23.199  1.00  0.00     0.000 C 
BRANCH   6   7
ATOM      7  C   UNL     1      37.191  19.576 -22.132  1.00  0.00    -0.003 C 
ATOM      8  C   UNL     1      37.033  18.067 -22.301  1.00  0.00     0.004 C 
ENDBRANCH   6   7
ENDBRANCH   1   6
TORSDOF 4
ENDMDL
MODEL 7
REMARK VINA RESULT:    -3.469      3.120      4.506
REMARK INTER + INTRA:          -4.372
REMARK INTER:                  -4.247
REMARK INTRA:                  -0.126
REMARK UNBOUND:                -0.092
REMARK SMILES CCCCCC(=O)[O-]
REMARK SMILES IDX 4 1 5 2 6 3 7 4 8 5 3 6 2 7 1 8
REMARK H PARENT
REMARK Flexibility Score: inf
ROOT
ATOM      1  C   UNL     1      47.509  35.012 -15.363  1.00  0.00     0.006 C 
ENDROOT
BRANCH   1   2
ATOM      2  C   UNL     1      48.439  34.641 -16.526  1.00  0.00     0.053 C 
BRANCH   2   3
ATOM      3  C   UNL     1      49.300  35.806 -16.898  1.00  0.00     0.041 C 
ATOM      4  O   UNL     1      50.555  35.694 -16.891  1.00  0.00    -0.550 OA
ATOM      5  O   UNL     1      48.718  37.001 -17.301  1.00  0.00    -0.550 OA
ENDBRANCH   2   3
ENDBRANCH   1   2
BRANCH   1   6
ATOM      6  C   UNL     1      48.162  34.793 -13.989  1.00  0.00     0.000 C 
BRANCH   6   7
ATOM      7  C   UNL     1      47.133  34.713 -12.853  1.00  0.00    -0.003 C 
ATOM      8  C   UNL     1      45.754  34.333 -13.386  1.00  0.00     0.004 C 
ENDBRANCH   6   7
ENDBRANCH   1   6
TORSDOF 4
ENDMDL
MODEL 8
REMARK VINA RESULT:    -3.456      1.942      2.224
REMARK INTER + INTRA:          -4.356
REMARK INTER:                  -4.115
REMARK INTRA:                  -0.241
REMARK UNBOUND:                -0.092
REMARK SMILES CCCCCC(=O)[O-]
REMARK SMILES IDX 4 1 5 2 6 3 7 4 8 5 3 6 2 7 1 8
REMARK H PARENT
REMARK Flexibility Score: inf
ROOT
ATOM      1  C   UNL     1      47.477  34.795 -15.278  1.00  0.00     0.006 C 
ENDROOT
BRANCH   1   2
ATOM      2  C   UNL     1      48.075  34.649 -13.872  1.00  0.00     0.053 C 
BRANCH   2   3
ATOM      3  C   UNL     1      48.790  35.902 -13.477  1.00  0.00     0.041 C 
ATOM      4  O   UNL     1      49.934  35.840 -12.955  1.00  0.00    -0.550 OA
ATOM      5  O   UNL     1      48.215  37.141 -13.729  1.00  0.00    -0.550 OA
ENDBRANCH   2   3
ENDBRANCH   1   2
BRANCH   1   6
ATOM      6  C   UNL     1      48.549  34.815 -16.379  1.00  0.00     0.000 C 
BRANCH   6   7
ATOM      7  C   UNL     1      48.557  36.131 -17.170  1.00  0.00    -0.003 C 
ATOM      8  C   UNL     1      47.144  36.687 -17.325  1.00  0.00     0.004 C 
ENDBRANCH   6   7
ENDBRANCH   1   6
TORSDOF 4
ENDMDL
MODEL 9
REMARK VINA RESULT:    -3.453      0.775      1.209
REMARK INTER + INTRA:          -4.352
REMARK INTER:                  -4.262
REMARK INTRA:                  -0.090
REMARK UNBOUND:                -0.092
REMARK SMILES CCCCCC(=O)[O-]
REMARK SMILES IDX 4 1 5 2 6 3 7 4 8 5 3 6 2 7 1 8
REMARK H PARENT
REMARK Flexibility Score: inf
ROOT
ATOM      1  C   UNL     1      47.211  34.950 -15.220  1.00  0.00     0.006 C 
ENDROOT
BRANCH   1   2
ATOM      2  C   UNL     1      47.909  34.605 -13.899  1.00  0.00     0.053 C 
BRANCH   2   3
ATOM      3  C   UNL     1      46.920  34.579 -12.777  1.00  0.00     0.041 C 
ATOM      4  O   UNL     1      45.922  33.813 -12.831  1.00  0.00    -0.550 OA
ATOM      5  O   UNL     1      47.126  35.363 -11.649  1.00  0.00    -0.550 OA
ENDBRANCH   2   3
ENDBRANCH   1   2
BRANCH   1   6
ATOM      6  C   UNL     1      48.105  34.701 -16.445  1.00  0.00     0.000 C 
BRANCH   6   7
ATOM      7  C   UNL     1      48.929  35.937 -16.835  1.00  0.00    -0.003 C 
ATOM      8  C   UNL     1      50.383  35.563 -17.110  1.00  0.00     0.004 C 
ENDBRANCH   6   7
ENDBRANCH   1   6
TORSDOF 4
ENDMDL
