MODEL 1
REMARK VINA RESULT:    -5.585      0.000      0.000
REMARK INTER + INTRA:         -12.207
REMARK INTER:                 -10.483
REMARK INTRA:                  -1.724
REMARK UNBOUND:                -1.724
REMARK SMILES O=C([O-])CCCCCCCCCCCCCCC(=O)[O-]
REMARK SMILES IDX 10 1 9 2 8 3 7 4 6 5 5 6 4 7 2 8 1 9 3 10 11 11 12 12 13 13
REMARK SMILES IDX 14 14 15 15 16 16 17 17 18 18 19 19 20 20
REMARK H PARENT
REMARK Flexibility Score: inf
ROOT
ATOM      1  C   UNL     1      13.380 -21.920  24.139  1.00  0.00     0.000 C 
ENDROOT
BRANCH   1   2
ATOM      2  C   UNL     1      13.352 -22.136  22.617  1.00  0.00     0.000 C 
BRANCH   2   3
ATOM      3  C   UNL     1      12.223 -23.079  22.174  1.00  0.00     0.000 C 
BRANCH   3   4
ATOM      4  C   UNL     1      12.507 -23.661  20.784  1.00  0.00     0.000 C 
BRANCH   4   5
ATOM      5  C   UNL     1      13.603 -22.863  20.064  1.00  0.00     0.000 C 
BRANCH   5   6
ATOM      6  C   UNL     1      14.878 -23.687  19.825  1.00  0.00     0.006 C 
BRANCH   6   7
ATOM      7  C   UNL     1      14.689 -25.175  20.151  1.00  0.00     0.053 C 
BRANCH   7   8
ATOM      8  C   UNL     1      15.432 -25.534  21.399  1.00  0.00     0.041 C 
ATOM      9  O   UNL     1      15.803 -26.720  21.598  1.00  0.00    -0.550 OA
ATOM     10  O   UNL     1      15.756 -24.549  22.324  1.00  0.00    -0.550 OA
ENDBRANCH   7   8
ENDBRANCH   6   7
ENDBRANCH   5   6
ENDBRANCH   4   5
ENDBRANCH   3   4
ENDBRANCH   2   3
ENDBRANCH   1   2
BRANCH   1  11
ATOM     11  C   UNL     1      13.138 -23.222  24.921  1.00  0.00     0.000 C 
BRANCH  11  12
ATOM     12  C   UNL     1      12.419 -22.986  26.260  1.00  0.00     0.000 C 
BRANCH  12  13
ATOM     13  C   UNL     1      11.578 -24.197  26.704  1.00  0.00     0.000 C 
BRANCH  13  14
ATOM     14  C   UNL     1      10.069 -23.957  26.531  1.00  0.00     0.000 C 
BRANCH  14  15
ATOM     15  C   UNL     1       9.765 -22.766  25.607  1.00  0.00     0.000 C 
BRANCH  15  16
ATOM     16  C   UNL     1       9.189 -23.202  24.250  1.00  0.00     0.006 C 
BRANCH  16  17
ATOM     17  C   UNL     1       9.321 -24.713  24.006  1.00  0.00     0.053 C 
BRANCH  17  18
ATOM     18  C   UNL     1       9.058 -25.033  22.569  1.00  0.00     0.041 C 
ATOM     19  O   UNL     1       8.060 -24.541  21.981  1.00  0.00    -0.550 OA
ATOM     20  O   UNL     1       9.952 -25.823  21.859  1.00  0.00    -0.550 OA
ENDBRANCH  17  18
ENDBRANCH  16  17
ENDBRANCH  15  16
ENDBRANCH  14  15
ENDBRANCH  13  14
ENDBRANCH  12  13
ENDBRANCH  11  12
ENDBRANCH   1  11
TORSDOF 15
ENDMDL
MODEL 2
REMARK VINA RESULT:    -5.447      0.651      6.028
REMARK INTER + INTRA:         -11.948
REMARK INTER:                 -10.089
REMARK INTRA:                  -1.859
REMARK UNBOUND:                -1.724
REMARK SMILES O=C([O-])CCCCCCCCCCCCCCC(=O)[O-]
REMARK SMILES IDX 10 1 9 2 8 3 7 4 6 5 5 6 4 7 2 8 1 9 3 10 11 11 12 12 13 13
REMARK SMILES IDX 14 14 15 15 16 16 17 17 18 18 19 19 20 20
REMARK H PARENT
REMARK Flexibility Score: inf
ROOT
ATOM      1  C   UNL     1      13.363 -23.343  24.598  1.00  0.00     0.000 C 
ENDROOT
BRANCH   1   2
ATOM      2  C   UNL     1      12.393 -23.020  25.746  1.00  0.00     0.000 C 
BRANCH   2   3
ATOM      3  C   UNL     1      11.374 -21.933  25.370  1.00  0.00     0.000 C 
BRANCH   3   4
ATOM      4  C   UNL     1       9.938 -22.430  25.577  1.00  0.00     0.000 C 
BRANCH   4   5
ATOM      5  C   UNL     1       9.917 -23.925  25.928  1.00  0.00     0.000 C 
BRANCH   5   6
ATOM      6  C   UNL     1       9.426 -24.800  24.765  1.00  0.00     0.006 C 
BRANCH   6   7
ATOM      7  C   UNL     1       8.814 -23.978  23.623  1.00  0.00     0.053 C 
BRANCH   7   8
ATOM      8  C   UNL     1       8.909 -24.725  22.331  1.00  0.00     0.041 C 
ATOM      9  O   UNL     1       7.983 -24.647  21.482  1.00  0.00    -0.550 OA
ATOM     10  O   UNL     1      10.043 -25.473  22.042  1.00  0.00    -0.550 OA
ENDBRANCH   7   8
ENDBRANCH   6   7
ENDBRANCH   5   6
ENDBRANCH   4   5
ENDBRANCH   3   4
ENDBRANCH   2   3
ENDBRANCH   1   2
BRANCH   1  11
ATOM     11  C   UNL     1      13.995 -22.081  23.989  1.00  0.00     0.000 C 
BRANCH  11  12
ATOM     12  C   UNL     1      13.789 -21.988  22.468  1.00  0.00     0.000 C 
BRANCH  12  13
ATOM     13  C   UNL     1      12.517 -22.716  21.995  1.00  0.00     0.000 C 
BRANCH  13  14
ATOM     14  C   UNL     1      12.729 -23.466  20.670  1.00  0.00     0.000 C 
BRANCH  14  15
ATOM     15  C   UNL     1      14.037 -23.059  19.968  1.00  0.00     0.000 C 
BRANCH  15  16
ATOM     16  C   UNL     1      14.957 -24.259  19.692  1.00  0.00     0.006 C 
BRANCH  16  17
ATOM     17  C   UNL     1      14.555 -25.511  20.484  1.00  0.00     0.053 C 
BRANCH  17  18
ATOM     18  C   UNL     1      15.503 -25.735  21.620  1.00  0.00     0.041 C 
ATOM     19  O   UNL     1      15.837 -24.778  22.366  1.00  0.00    -0.550 OA
ATOM     20  O   UNL     1      15.966 -27.015  21.896  1.00  0.00    -0.550 OA
ENDBRANCH  17  18
ENDBRANCH  16  17
ENDBRANCH  15  16
ENDBRANCH  14  15
ENDBRANCH  13  14
ENDBRANCH  12  13
ENDBRANCH  11  12
ENDBRANCH   1  11
TORSDOF 15
ENDMDL
MODEL 3
REMARK VINA RESULT:    -5.415      2.481      4.565
REMARK INTER + INTRA:         -11.888
REMARK INTER:                  -9.923
REMARK INTRA:                  -1.965
REMARK UNBOUND:                -1.724
REMARK SMILES O=C([O-])CCCCCCCCCCCCCCC(=O)[O-]
REMARK SMILES IDX 10 1 9 2 8 3 7 4 6 5 5 6 4 7 2 8 1 9 3 10 11 11 12 12 13 13
REMARK SMILES IDX 14 14 15 15 16 16 17 17 18 18 19 19 20 20
REMARK H PARENT
REMARK Flexibility Score: inf
ROOT
ATOM      1  C   UNL     1      14.730 -22.605  21.114  1.00  0.00     0.000 C 
ENDROOT
BRANCH   1   2
ATOM      2  C   UNL     1      13.939 -23.439  20.093  1.00  0.00     0.000 C 
BRANCH   2   3
ATOM      3  C   UNL     1      14.193 -24.947  20.238  1.00  0.00     0.000 C 
BRANCH   3   4
ATOM      4  C   UNL     1      12.877 -25.711  20.429  1.00  0.00     0.000 C 
BRANCH   4   5
ATOM      5  C   UNL     1      11.716 -24.747  20.713  1.00  0.00     0.000 C 
BRANCH   5   6
ATOM      6  C   UNL     1      10.664 -25.347  21.659  1.00  0.00     0.006 C 
BRANCH   6   7
ATOM      7  C   UNL     1      10.172 -24.342  22.709  1.00  0.00     0.053 C 
BRANCH   7   8
ATOM      8  C   UNL     1       8.679 -24.257  22.692  1.00  0.00     0.041 C 
ATOM      9  O   UNL     1       8.070 -23.604  23.579  1.00  0.00    -0.550 OA
ATOM     10  O   UNL     1       7.960 -24.861  21.668  1.00  0.00    -0.550 OA
ENDBRANCH   7   8
ENDBRANCH   6   7
ENDBRANCH   5   6
ENDBRANCH   4   5
ENDBRANCH   3   4
ENDBRANCH   2   3
ENDBRANCH   1   2
BRANCH   1  11
ATOM     11  C   UNL     1      13.916 -22.303  22.383  1.00  0.00     0.000 C 
BRANCH  11  12
ATOM     12  C   UNL     1      14.012 -23.424  23.431  1.00  0.00     0.000 C 
BRANCH  12  13
ATOM     13  C   UNL     1      13.240 -23.098  24.723  1.00  0.00     0.000 C 
BRANCH  13  14
ATOM     14  C   UNL     1      12.507 -21.749  24.644  1.00  0.00     0.000 C 
BRANCH  14  15
ATOM     15  C   UNL     1      11.076 -21.825  25.205  1.00  0.00     0.000 C 
BRANCH  15  16
ATOM     16  C   UNL     1      10.982 -22.695  26.469  1.00  0.00     0.006 C 
BRANCH  16  17
ATOM     17  C   UNL     1       9.766 -23.633  26.456  1.00  0.00     0.053 C 
BRANCH  17  18
ATOM     18  C   UNL     1      10.194 -25.044  26.711  1.00  0.00     0.041 C 
ATOM     19  O   UNL     1      11.386 -25.299  27.023  1.00  0.00    -0.550 OA
ATOM     20  O   UNL     1       9.260 -26.070  26.668  1.00  0.00    -0.550 OA
ENDBRANCH  17  18
ENDBRANCH  16  17
ENDBRANCH  15  16
ENDBRANCH  14  15
ENDBRANCH  13  14
ENDBRANCH  12  13
ENDBRANCH  11  12
ENDBRANCH   1  11
TORSDOF 15
ENDMDL
MODEL 4
REMARK VINA RESULT:    -5.411      2.853      5.303
REMARK INTER + INTRA:         -11.880
REMARK INTER:                 -10.009
REMARK INTRA:                  -1.871
REMARK UNBOUND:                -1.724
REMARK SMILES O=C([O-])CCCCCCCCCCCCCCC(=O)[O-]
REMARK SMILES IDX 10 1 9 2 8 3 7 4 6 5 5 6 4 7 2 8 1 9 3 10 11 11 12 12 13 13
REMARK SMILES IDX 14 14 15 15 16 16 17 17 18 18 19 19 20 20
REMARK H PARENT
REMARK Flexibility Score: inf
ROOT
ATOM      1  C   UNL     1      14.466 -23.458  20.071  1.00  0.00     0.000 C 
ENDROOT
BRANCH   1   2
ATOM      2  C   UNL     1      13.091 -22.772  20.013  1.00  0.00     0.000 C 
BRANCH   2   3
ATOM      3  C   UNL     1      12.058 -23.442  20.931  1.00  0.00     0.000 C 
BRANCH   3   4
ATOM      4  C   UNL     1      12.140 -24.970  20.829  1.00  0.00     0.000 C 
BRANCH   4   5
ATOM      5  C   UNL     1      10.876 -25.629  21.401  1.00  0.00     0.000 C 
BRANCH   5   6
ATOM      6  C   UNL     1      10.070 -24.684  22.304  1.00  0.00     0.006 C 
BRANCH   6   7
ATOM      7  C   UNL     1       8.554 -24.867  22.149  1.00  0.00     0.053 C 
BRANCH   7   8
ATOM      8  C   UNL     1       7.818 -23.842  22.953  1.00  0.00     0.041 C 
ATOM      9  O   UNL     1       8.357 -23.322  23.964  1.00  0.00    -0.550 OA
ATOM     10  O   UNL     1       6.553 -23.427  22.558  1.00  0.00    -0.550 OA
ENDBRANCH   7   8
ENDBRANCH   6   7
ENDBRANCH   5   6
ENDBRANCH   4   5
ENDBRANCH   3   4
ENDBRANCH   2   3
ENDBRANCH   1   2
BRANCH   1  11
ATOM     11  C   UNL     1      15.379 -22.853  21.150  1.00  0.00     0.000 C 
BRANCH  11  12
ATOM     12  C   UNL     1      15.356 -23.651  22.464  1.00  0.00     0.000 C 
BRANCH  12  13
ATOM     13  C   UNL     1      15.237 -22.750  23.707  1.00  0.00     0.000 C 
BRANCH  13  14
ATOM     14  C   UNL     1      14.238 -21.598  23.502  1.00  0.00     0.000 C 
BRANCH  14  15
ATOM     15  C   UNL     1      12.885 -21.868  24.183  1.00  0.00     0.000 C 
BRANCH  15  16
ATOM     16  C   UNL     1      12.997 -22.870  25.344  1.00  0.00     0.006 C 
BRANCH  16  17
ATOM     17  C   UNL     1      11.812 -23.845  25.403  1.00  0.00     0.053 C 
BRANCH  17  18
ATOM     18  C   UNL     1      10.801 -23.376  26.401  1.00  0.00     0.041 C 
ATOM     19  O   UNL     1      10.800 -22.179  26.789  1.00  0.00    -0.550 OA
ATOM     20  O   UNL     1       9.818 -24.246  26.854  1.00  0.00    -0.550 OA
ENDBRANCH  17  18
ENDBRANCH  16  17
ENDBRANCH  15  16
ENDBRANCH  14  15
ENDBRANCH  13  14
ENDBRANCH  12  13
ENDBRANCH  11  12
ENDBRANCH   1  11
TORSDOF 15
ENDMDL
MODEL 5
REMARK VINA RESULT:    -5.410      2.154      3.790
REMARK INTER + INTRA:         -11.879
REMARK INTER:                 -10.419
REMARK INTRA:                  -1.460
REMARK UNBOUND:                -1.724
REMARK SMILES O=C([O-])CCCCCCCCCCCCCCC(=O)[O-]
REMARK SMILES IDX 10 1 9 2 8 3 7 4 6 5 5 6 4 7 2 8 1 9 3 10 11 11 12 12 13 13
REMARK SMILES IDX 14 14 15 15 16 16 17 17 18 18 19 19 20 20
REMARK H PARENT
REMARK Flexibility Score: inf
ROOT
ATOM      1  C   UNL     1       8.942 -24.880  21.855  1.00  0.00     0.000 C 
ENDROOT
BRANCH   1   2
ATOM      2  C   UNL     1      10.427 -25.224  22.058  1.00  0.00     0.000 C 
BRANCH   2   3
ATOM      3  C   UNL     1      11.310 -24.741  20.898  1.00  0.00     0.000 C 
BRANCH   3   4
ATOM      4  C   UNL     1      12.131 -23.512  21.306  1.00  0.00     0.000 C 
BRANCH   4   5
ATOM      5  C   UNL     1      12.891 -22.932  20.104  1.00  0.00     0.000 C 
BRANCH   5   6
ATOM      6  C   UNL     1      14.414 -23.084  20.236  1.00  0.00     0.006 C 
BRANCH   6   7
ATOM      7  C   UNL     1      14.816 -24.117  21.297  1.00  0.00     0.053 C 
BRANCH   7   8
ATOM      8  C   UNL     1      15.151 -25.425  20.653  1.00  0.00     0.041 C 
ATOM      9  O   UNL     1      15.517 -26.403  21.355  1.00  0.00    -0.550 OA
ATOM     10  O   UNL     1      15.015 -25.578  19.279  1.00  0.00    -0.550 OA
ENDBRANCH   7   8
ENDBRANCH   6   7
ENDBRANCH   5   6
ENDBRANCH   4   5
ENDBRANCH   3   4
ENDBRANCH   2   3
ENDBRANCH   1   2
BRANCH   1  11
ATOM     11  C   UNL     1       8.339 -24.141  23.061  1.00  0.00     0.000 C 
BRANCH  11  12
ATOM     12  C   UNL     1       9.406 -23.669  24.063  1.00  0.00     0.000 C 
BRANCH  12  13
ATOM     13  C   UNL     1       9.517 -24.589  25.292  1.00  0.00     0.000 C 
BRANCH  13  14
ATOM     14  C   UNL     1      10.079 -23.859  26.523  1.00  0.00     0.000 C 
BRANCH  14  15
ATOM     15  C   UNL     1      11.565 -24.175  26.765  1.00  0.00     0.000 C 
BRANCH  15  16
ATOM     16  C   UNL     1      12.496 -23.065  26.250  1.00  0.00     0.006 C 
BRANCH  16  17
ATOM     17  C   UNL     1      13.098 -23.385  24.875  1.00  0.00     0.053 C 
BRANCH  17  18
ATOM     18  C   UNL     1      13.968 -22.258  24.412  1.00  0.00     0.041 C 
ATOM     19  O   UNL     1      13.453 -21.185  24.005  1.00  0.00    -0.550 OA
ATOM     20  O   UNL     1      15.350 -22.370  24.494  1.00  0.00    -0.550 OA
ENDBRANCH  17  18
ENDBRANCH  16  17
ENDBRANCH  15  16
ENDBRANCH  14  15
ENDBRANCH  13  14
ENDBRANCH  12  13
ENDBRANCH  11  12
ENDBRANCH   1  11
TORSDOF 15
ENDMDL
MODEL 6
REMARK VINA RESULT:    -5.262      2.650      5.099
REMARK INTER + INTRA:         -11.601
REMARK INTER:                  -9.873
REMARK INTRA:                  -1.728
REMARK UNBOUND:                -1.724
REMARK SMILES O=C([O-])CCCCCCCCCCCCCCC(=O)[O-]
REMARK SMILES IDX 10 1 9 2 8 3 7 4 6 5 5 6 4 7 2 8 1 9 3 10 11 11 12 12 13 13
REMARK SMILES IDX 14 14 15 15 16 16 17 17 18 18 19 19 20 20
REMARK H PARENT
REMARK Flexibility Score: inf
ROOT
ATOM      1  C   UNL     1      14.771 -22.618  21.549  1.00  0.00     0.000 C 
ENDROOT
BRANCH   1   2
ATOM      2  C   UNL     1      13.867 -22.091  22.676  1.00  0.00     0.000 C 
BRANCH   2   3
ATOM      3  C   UNL     1      14.245 -22.659  24.052  1.00  0.00     0.000 C 
BRANCH   3   4
ATOM      4  C   UNL     1      13.043 -23.346  24.712  1.00  0.00     0.000 C 
BRANCH   4   5
ATOM      5  C   UNL     1      11.804 -22.441  24.680  1.00  0.00     0.000 C 
BRANCH   5   6
ATOM      6  C   UNL     1      11.154 -22.274  26.063  1.00  0.00     0.006 C 
BRANCH   6   7
ATOM      7  C   UNL     1       9.874 -23.105  26.218  1.00  0.00     0.053 C 
BRANCH   7   8
ATOM      8  C   UNL     1      10.209 -24.529  26.534  1.00  0.00     0.041 C 
ATOM      9  O   UNL     1       9.445 -25.458  26.165  1.00  0.00    -0.550 OA
ATOM     10  O   UNL     1      11.392 -24.834  27.196  1.00  0.00    -0.550 OA
ENDBRANCH   7   8
ENDBRANCH   6   7
ENDBRANCH   5   6
ENDBRANCH   4   5
ENDBRANCH   3   4
ENDBRANCH   2   3
ENDBRANCH   1   2
BRANCH   1  11
ATOM     11  C   UNL     1      14.014 -22.793  20.222  1.00  0.00     0.000 C 
BRANCH  11  12
ATOM     12  C   UNL     1      12.605 -23.379  20.415  1.00  0.00     0.000 C 
BRANCH  12  13
ATOM     13  C   UNL     1      12.626 -24.885  20.736  1.00  0.00     0.000 C 
BRANCH  13  14
ATOM     14  C   UNL     1      11.237 -25.421  21.120  1.00  0.00     0.000 C 
BRANCH  14  15
ATOM     15  C   UNL     1      10.543 -24.548  22.180  1.00  0.00     0.000 C 
BRANCH  15  16
ATOM     16  C   UNL     1       9.175 -25.108  22.603  1.00  0.00     0.006 C 
BRANCH  16  17
ATOM     17  C   UNL     1       8.258 -24.039  23.214  1.00  0.00     0.053 C 
BRANCH  17  18
ATOM     18  C   UNL     1       7.189 -23.653  22.240  1.00  0.00     0.041 C 
ATOM     19  O   UNL     1       7.213 -24.095  21.063  1.00  0.00    -0.550 OA
ATOM     20  O   UNL     1       6.130 -22.855  22.653  1.00  0.00    -0.550 OA
ENDBRANCH  17  18
ENDBRANCH  16  17
ENDBRANCH  15  16
ENDBRANCH  14  15
ENDBRANCH  13  14
ENDBRANCH  12  13
ENDBRANCH  11  12
ENDBRANCH   1  11
TORSDOF 15
ENDMDL
MODEL 7
REMARK VINA RESULT:    -5.154      2.631      4.465
REMARK INTER + INTRA:         -11.396
REMARK INTER:                  -9.617
REMARK INTRA:                  -1.779
REMARK UNBOUND:                -1.724
REMARK SMILES O=C([O-])CCCCCCCCCCCCCCC(=O)[O-]
REMARK SMILES IDX 10 1 9 2 8 3 7 4 6 5 5 6 4 7 2 8 1 9 3 10 11 11 12 12 13 13
REMARK SMILES IDX 14 14 15 15 16 16 17 17 18 18 19 19 20 20
REMARK H PARENT
REMARK Flexibility Score: inf
ROOT
ATOM      1  C   UNL     1      12.794 -23.082  20.388  1.00  0.00     0.000 C 
ENDROOT
BRANCH   1   2
ATOM      2  C   UNL     1      14.300 -23.279  20.154  1.00  0.00     0.000 C 
BRANCH   2   3
ATOM      3  C   UNL     1      14.802 -24.645  20.645  1.00  0.00     0.000 C 
BRANCH   3   4
ATOM      4  C   UNL     1      15.336 -24.553  22.080  1.00  0.00     0.000 C 
BRANCH   4   5
ATOM      5  C   UNL     1      15.925 -23.163  22.360  1.00  0.00     0.000 C 
BRANCH   5   6
ATOM      6  C   UNL     1      15.458 -22.580  23.703  1.00  0.00     0.006 C 
BRANCH   6   7
ATOM      7  C   UNL     1      14.230 -21.670  23.557  1.00  0.00     0.053 C 
BRANCH   7   8
ATOM      8  C   UNL     1      13.012 -22.345  24.104  1.00  0.00     0.041 C 
ATOM      9  O   UNL     1      11.912 -21.735  24.144  1.00  0.00    -0.550 OA
ATOM     10  O   UNL     1      13.081 -23.666  24.529  1.00  0.00    -0.550 OA
ENDBRANCH   7   8
ENDBRANCH   6   7
ENDBRANCH   5   6
ENDBRANCH   4   5
ENDBRANCH   3   4
ENDBRANCH   2   3
ENDBRANCH   1   2
BRANCH   1  11
ATOM     11  C   UNL     1      12.040 -24.417  20.513  1.00  0.00     0.000 C 
BRANCH  11  12
ATOM     12  C   UNL     1      11.230 -24.521  21.816  1.00  0.00     0.000 C 
BRANCH  12  13
ATOM     13  C   UNL     1       9.745 -24.846  21.570  1.00  0.00     0.000 C 
BRANCH  13  14
ATOM     14  C   UNL     1       8.986 -25.144  22.874  1.00  0.00     0.000 C 
BRANCH  14  15
ATOM     15  C   UNL     1       9.246 -24.086  23.960  1.00  0.00     0.000 C 
BRANCH  15  16
ATOM     16  C   UNL     1       9.622 -24.710  25.314  1.00  0.00     0.006 C 
BRANCH  16  17
ATOM     17  C   UNL     1      10.021 -23.662  26.362  1.00  0.00     0.053 C 
BRANCH  17  18
ATOM     18  C   UNL     1      11.211 -24.128  27.139  1.00  0.00     0.041 C 
ATOM     19  O   UNL     1      11.426 -25.358  27.294  1.00  0.00    -0.550 OA
ATOM     20  O   UNL     1      12.120 -23.204  27.638  1.00  0.00    -0.550 OA
ENDBRANCH  17  18
ENDBRANCH  16  17
ENDBRANCH  15  16
ENDBRANCH  14  15
ENDBRANCH  13  14
ENDBRANCH  12  13
ENDBRANCH  11  12
ENDBRANCH   1  11
TORSDOF 15
ENDMDL
MODEL 8
REMARK VINA RESULT:    -5.124      2.490      5.132
REMARK INTER + INTRA:         -11.341
REMARK INTER:                  -9.693
REMARK INTRA:                  -1.648
REMARK UNBOUND:                -1.724
REMARK SMILES O=C([O-])CCCCCCCCCCCCCCC(=O)[O-]
REMARK SMILES IDX 10 1 9 2 8 3 7 4 6 5 5 6 4 7 2 8 1 9 3 10 11 11 12 12 13 13
REMARK SMILES IDX 14 14 15 15 16 16 17 17 18 18 19 19 20 20
REMARK H PARENT
REMARK Flexibility Score: inf
ROOT
ATOM      1  C   UNL     1      15.862 -23.685  22.704  1.00  0.00     0.000 C 
ENDROOT
BRANCH   1   2
ATOM      2  C   UNL     1      15.173 -22.514  23.424  1.00  0.00     0.000 C 
BRANCH   2   3
ATOM      3  C   UNL     1      13.875 -22.936  24.130  1.00  0.00     0.000 C 
BRANCH   3   4
ATOM      4  C   UNL     1      12.954 -21.730  24.354  1.00  0.00     0.000 C 
BRANCH   4   5
ATOM      5  C   UNL     1      11.483 -22.166  24.425  1.00  0.00     0.000 C 
BRANCH   5   6
ATOM      6  C   UNL     1      10.813 -21.776  25.752  1.00  0.00     0.006 C 
BRANCH   6   7
ATOM      7  C   UNL     1      10.201 -22.980  26.481  1.00  0.00     0.053 C 
BRANCH   7   8
ATOM      8  C   UNL     1      11.278 -23.863  27.027  1.00  0.00     0.041 C 
ATOM      9  O   UNL     1      11.190 -25.113  26.919  1.00  0.00    -0.550 OA
ATOM     10  O   UNL     1      12.404 -23.302  27.617  1.00  0.00    -0.550 OA
ENDBRANCH   7   8
ENDBRANCH   6   7
ENDBRANCH   5   6
ENDBRANCH   4   5
ENDBRANCH   3   4
ENDBRANCH   2   3
ENDBRANCH   1   2
BRANCH   1  11
ATOM     11  C   UNL     1      15.318 -23.902  21.282  1.00  0.00     0.000 C 
BRANCH  11  12
ATOM     12  C   UNL     1      14.642 -22.647  20.706  1.00  0.00     0.000 C 
BRANCH  12  13
ATOM     13  C   UNL     1      13.309 -22.959  20.001  1.00  0.00     0.000 C 
BRANCH  13  14
ATOM     14  C   UNL     1      12.235 -23.468  20.977  1.00  0.00     0.000 C 
BRANCH  14  15
ATOM     15  C   UNL     1      11.925 -24.962  20.783  1.00  0.00     0.000 C 
BRANCH  15  16
ATOM     16  C   UNL     1      10.624 -25.391  21.480  1.00  0.00     0.006 C 
BRANCH  16  17
ATOM     17  C   UNL     1      10.245 -24.472  22.650  1.00  0.00     0.053 C 
BRANCH  17  18
ATOM     18  C   UNL     1       8.759 -24.324  22.736  1.00  0.00     0.041 C 
ATOM     19  O   UNL     1       8.238 -23.703  23.698  1.00  0.00    -0.550 OA
ATOM     20  O   UNL     1       7.953 -24.814  21.717  1.00  0.00    -0.550 OA
ENDBRANCH  17  18
ENDBRANCH  16  17
ENDBRANCH  15  16
ENDBRANCH  14  15
ENDBRANCH  13  14
ENDBRANCH  12  13
ENDBRANCH  11  12
ENDBRANCH   1  11
TORSDOF 15
ENDMDL
MODEL 9
REMARK VINA RESULT:    -5.080      2.257      3.551
REMARK INTER + INTRA:         -11.259
REMARK INTER:                  -9.506
REMARK INTRA:                  -1.753
REMARK UNBOUND:                -1.724
REMARK SMILES O=C([O-])CCCCCCCCCCCCCCC(=O)[O-]
REMARK SMILES IDX 10 1 9 2 8 3 7 4 6 5 5 6 4 7 2 8 1 9 3 10 11 11 12 12 13 13
REMARK SMILES IDX 14 14 15 15 16 16 17 17 18 18 19 19 20 20
REMARK H PARENT
REMARK Flexibility Score: inf
ROOT
ATOM      1  C   UNL     1      11.982 -22.616  22.591  1.00  0.00     0.000 C 
ENDROOT
BRANCH   1   2
ATOM      2  C   UNL     1      12.920 -22.193  23.733  1.00  0.00     0.000 C 
BRANCH   2   3
ATOM      3  C   UNL     1      14.290 -21.718  23.227  1.00  0.00     0.000 C 
BRANCH   3   4
ATOM      4  C   UNL     1      15.365 -22.785  23.464  1.00  0.00     0.000 C 
BRANCH   4   5
ATOM      5  C   UNL     1      15.470 -23.738  22.264  1.00  0.00     0.000 C 
BRANCH   5   6
ATOM      6  C   UNL     1      15.291 -23.020  20.918  1.00  0.00     0.006 C 
BRANCH   6   7
ATOM      7  C   UNL     1      14.266 -23.714  20.010  1.00  0.00     0.053 C 
BRANCH   7   8
ATOM      8  C   UNL     1      14.607 -25.162  19.848  1.00  0.00     0.041 C 
ATOM      9  O   UNL     1      13.930 -26.043  20.437  1.00  0.00    -0.550 OA
ATOM     10  O   UNL     1      15.645 -25.540  19.006  1.00  0.00    -0.550 OA
ENDBRANCH   7   8
ENDBRANCH   6   7
ENDBRANCH   5   6
ENDBRANCH   4   5
ENDBRANCH   3   4
ENDBRANCH   2   3
ENDBRANCH   1   2
BRANCH   1  11
ATOM     11  C   UNL     1      11.856 -24.144  22.468  1.00  0.00     0.000 C 
BRANCH  11  12
ATOM     12  C   UNL     1      10.787 -24.572  21.450  1.00  0.00     0.000 C 
BRANCH  12  13
ATOM     13  C   UNL     1       9.715 -25.491  22.065  1.00  0.00     0.000 C 
BRANCH  13  14
ATOM     14  C   UNL     1       8.406 -24.743  22.369  1.00  0.00     0.000 C 
BRANCH  14  15
ATOM     15  C   UNL     1       8.545 -23.780  23.562  1.00  0.00     0.000 C 
BRANCH  15  16
ATOM     16  C   UNL     1       9.295 -24.410  24.746  1.00  0.00     0.006 C 
BRANCH  16  17
ATOM     17  C   UNL     1       9.844 -23.365  25.726  1.00  0.00     0.053 C 
BRANCH  17  18
ATOM     18  C   UNL     1      10.863 -23.983  26.631  1.00  0.00     0.041 C 
ATOM     19  O   UNL     1      10.779 -25.199  26.944  1.00  0.00    -0.550 OA
ATOM     20  O   UNL     1      11.944 -23.232  27.075  1.00  0.00    -0.550 OA
ENDBRANCH  17  18
ENDBRANCH  16  17
ENDBRANCH  15  16
ENDBRANCH  14  15
ENDBRANCH  13  14
ENDBRANCH  12  13
ENDBRANCH  11  12
ENDBRANCH   1  11
TORSDOF 15
ENDMDL
