MODEL 1
REMARK VINA RESULT:    -4.055      0.000      0.000
REMARK INTER + INTRA:          -4.055
REMARK INTER:                  -4.055
REMARK INTRA:                   0.000
REMARK UNBOUND:                 0.000
REMARK SMILES CC1=CC(=O)[C@@H]2C[C@H]1C2(C)C
REMARK SMILES IDX 1 1 2 2 3 3 4 4 5 5 6 6 7 7 8 8 9 9 10 10 11 11
REMARK H PARENT
REMARK Flexibility Score: inf
ROOT
ATOM      1  C   UNL     1      16.156  -6.125  15.358  1.00  0.00     0.040 C 
ATOM      2  C   UNL     1      16.825  -6.663  14.133  1.00  0.00    -0.066 C 
ATOM      3  C   UNL     1      17.953  -6.088  13.631  1.00  0.00     0.047 C 
ATOM      4  C   UNL     1      18.546  -6.737  12.418  1.00  0.00     0.159 C 
ATOM      5  O   UNL     1      19.608  -6.324  11.884  1.00  0.00    -0.295 OA
ATOM      6  C   UNL     1      17.772  -7.939  11.875  1.00  0.00     0.067 C 
ATOM      7  C   UNL     1      16.300  -7.473  11.879  1.00  0.00     0.021 C 
ATOM      8  C   UNL     1      16.264  -7.881  13.369  1.00  0.00     0.022 C 
ATOM      9  C   UNL     1      17.419  -8.879  13.064  1.00  0.00    -0.019 C 
ATOM     10  C   UNL     1      16.897 -10.259  12.590  1.00  0.00     0.012 C 
ATOM     11  C   UNL     1      18.494  -9.116  14.162  1.00  0.00     0.012 C 
ENDROOT
TORSDOF 0
ENDMDL
MODEL 2
REMARK VINA RESULT:    -3.989      1.677      2.885
REMARK INTER + INTRA:          -3.989
REMARK INTER:                  -3.989
REMARK INTRA:                   0.000
REMARK UNBOUND:                 0.000
REMARK SMILES CC1=CC(=O)[C@@H]2C[C@H]1C2(C)C
REMARK SMILES IDX 1 1 2 2 3 3 4 4 5 5 6 6 7 7 8 8 9 9 10 10 11 11
REMARK H PARENT
REMARK Flexibility Score: inf
ROOT
ATOM      1  C   UNL     1      17.228  -6.435  16.501  1.00  0.00     0.040 C 
ATOM      2  C   UNL     1      17.366  -6.757  15.047  1.00  0.00    -0.066 C 
ATOM      3  C   UNL     1      17.705  -8.008  14.627  1.00  0.00     0.047 C 
ATOM      4  C   UNL     1      17.781  -8.213  13.144  1.00  0.00     0.159 C 
ATOM      5  O   UNL     1      18.046  -9.331  12.632  1.00  0.00    -0.295 OA
ATOM      6  C   UNL     1      17.512  -6.968  12.298  1.00  0.00     0.067 C 
ATOM      7  C   UNL     1      18.340  -5.859  12.983  1.00  0.00     0.021 C 
ATOM      8  C   UNL     1      17.149  -5.689  13.954  1.00  0.00     0.022 C 
ATOM      9  C   UNL     1      16.231  -6.269  12.837  1.00  0.00    -0.019 C 
ATOM     10  C   UNL     1      15.708  -5.173  11.875  1.00  0.00     0.012 C 
ATOM     11  C   UNL     1      15.028  -7.158  13.263  1.00  0.00     0.012 C 
ENDROOT
TORSDOF 0
ENDMDL
MODEL 3
REMARK VINA RESULT:    -3.949      1.686      3.168
REMARK INTER + INTRA:          -3.949
REMARK INTER:                  -3.949
REMARK INTRA:                   0.000
REMARK UNBOUND:                 0.000
REMARK SMILES CC1=CC(=O)[C@@H]2C[C@H]1C2(C)C
REMARK SMILES IDX 1 1 2 2 3 3 4 4 5 5 6 6 7 7 8 8 9 9 10 10 11 11
REMARK H PARENT
REMARK Flexibility Score: inf
ROOT
ATOM      1  C   UNL     1      19.481  -5.358  12.240  1.00  0.00     0.040 C 
ATOM      2  C   UNL     1      18.324  -6.254  12.550  1.00  0.00    -0.066 C 
ATOM      3  C   UNL     1      18.467  -7.608  12.587  1.00  0.00     0.047 C 
ATOM      4  C   UNL     1      17.241  -8.395  12.938  1.00  0.00     0.159 C 
ATOM      5  O   UNL     1      17.253  -9.649  13.043  1.00  0.00    -0.295 OA
ATOM      6  C   UNL     1      15.975  -7.568  13.164  1.00  0.00     0.067 C 
ATOM      7  C   UNL     1      15.960  -6.572  11.984  1.00  0.00     0.021 C 
ATOM      8  C   UNL     1      16.913  -5.693  12.825  1.00  0.00     0.022 C 
ATOM      9  C   UNL     1      16.324  -6.372  14.096  1.00  0.00    -0.019 C 
ATOM     10  C   UNL     1      15.061  -5.646  14.622  1.00  0.00     0.012 C 
ATOM     11  C   UNL     1      17.275  -6.628  15.300  1.00  0.00     0.012 C 
ENDROOT
TORSDOF 0
ENDMDL
MODEL 4
REMARK VINA RESULT:    -3.787      2.055      3.576
REMARK INTER + INTRA:          -3.787
REMARK INTER:                  -3.787
REMARK INTRA:                   0.000
REMARK UNBOUND:                 0.000
REMARK SMILES CC1=CC(=O)[C@@H]2C[C@H]1C2(C)C
REMARK SMILES IDX 1 1 2 2 3 3 4 4 5 5 6 6 7 7 8 8 9 9 10 10 11 11
REMARK H PARENT
REMARK Flexibility Score: inf
ROOT
ATOM      1  C   UNL     1      18.123  -9.261  13.003  1.00  0.00     0.040 C 
ATOM      2  C   UNL     1      17.463  -8.046  13.574  1.00  0.00    -0.066 C 
ATOM      3  C   UNL     1      17.681  -7.660  14.862  1.00  0.00     0.047 C 
ATOM      4  C   UNL     1      16.986  -6.409  15.306  1.00  0.00     0.159 C 
ATOM      5  O   UNL     1      17.137  -5.929  16.459  1.00  0.00    -0.295 OA
ATOM      6  C   UNL     1      16.083  -5.755  14.260  1.00  0.00     0.067 C 
ATOM      7  C   UNL     1      15.280  -6.933  13.666  1.00  0.00     0.021 C 
ATOM      8  C   UNL     1      16.493  -7.181  12.741  1.00  0.00     0.022 C 
ATOM      9  C   UNL     1      16.859  -5.678  12.914  1.00  0.00    -0.019 C 
ATOM     10  C   UNL     1      16.149  -4.774  11.875  1.00  0.00     0.012 C 
ATOM     11  C   UNL     1      18.364  -5.288  12.951  1.00  0.00     0.012 C 
ENDROOT
TORSDOF 0
ENDMDL
MODEL 5
REMARK VINA RESULT:    -3.760      1.978      3.003
REMARK INTER + INTRA:          -3.760
REMARK INTER:                  -3.760
REMARK INTRA:                   0.000
REMARK UNBOUND:                 0.000
REMARK SMILES CC1=CC(=O)[C@@H]2C[C@H]1C2(C)C
REMARK SMILES IDX 1 1 2 2 3 3 4 4 5 5 6 6 7 7 8 8 9 9 10 10 11 11
REMARK H PARENT
REMARK Flexibility Score: inf
ROOT
ATOM      1  C   UNL     1      17.001  -6.126  16.370  1.00  0.00     0.040 C 
ATOM      2  C   UNL     1      16.729  -6.405  14.926  1.00  0.00    -0.066 C 
ATOM      3  C   UNL     1      15.555  -6.033  14.342  1.00  0.00     0.047 C 
ATOM      4  C   UNL     1      15.414  -6.341  12.882  1.00  0.00     0.159 C 
ATOM      5  O   UNL     1      14.395  -6.013  12.221  1.00  0.00    -0.295 OA
ATOM      6  C   UNL     1      16.596  -7.078  12.252  1.00  0.00     0.067 C 
ATOM      7  C   UNL     1      16.926  -8.197  13.264  1.00  0.00     0.021 C 
ATOM      8  C   UNL     1      17.750  -7.140  14.033  1.00  0.00     0.022 C 
ATOM      9  C   UNL     1      17.911  -6.371  12.688  1.00  0.00    -0.019 C 
ATOM     10  C   UNL     1      19.138  -6.854  11.875  1.00  0.00     0.012 C 
ATOM     11  C   UNL     1      17.935  -4.817  12.728  1.00  0.00     0.012 C 
ENDROOT
TORSDOF 0
ENDMDL
MODEL 6
REMARK VINA RESULT:    -3.711      1.123      3.194
REMARK INTER + INTRA:          -3.711
REMARK INTER:                  -3.711
REMARK INTRA:                   0.000
REMARK UNBOUND:                 0.000
REMARK SMILES CC1=CC(=O)[C@@H]2C[C@H]1C2(C)C
REMARK SMILES IDX 1 1 2 2 3 3 4 4 5 5 6 6 7 7 8 8 9 9 10 10 11 11
REMARK H PARENT
REMARK Flexibility Score: inf
ROOT
ATOM      1  C   UNL     1      17.379  -9.679  12.584  1.00  0.00     0.040 C 
ATOM      2  C   UNL     1      17.523  -8.236  12.950  1.00  0.00    -0.066 C 
ATOM      3  C   UNL     1      18.507  -7.463  12.410  1.00  0.00     0.047 C 
ATOM      4  C   UNL     1      18.528  -6.025  12.833  1.00  0.00     0.159 C 
ATOM      5  O   UNL     1      19.362  -5.202  12.376  1.00  0.00    -0.295 OA
ATOM      6  C   UNL     1      17.463  -5.629  13.856  1.00  0.00     0.067 C 
ATOM      7  C   UNL     1      17.510  -6.759  14.907  1.00  0.00     0.021 C 
ATOM      8  C   UNL     1      16.580  -7.557  13.965  1.00  0.00     0.022 C 
ATOM      9  C   UNL     1      16.092  -6.195  13.389  1.00  0.00    -0.019 C 
ATOM     10  C   UNL     1      14.905  -5.606  14.192  1.00  0.00     0.012 C 
ATOM     11  C   UNL     1      15.739  -6.122  11.876  1.00  0.00     0.012 C 
ENDROOT
TORSDOF 0
ENDMDL
MODEL 7
REMARK VINA RESULT:    -3.637      1.887      2.806
REMARK INTER + INTRA:          -3.637
REMARK INTER:                  -3.637
REMARK INTRA:                   0.000
REMARK UNBOUND:                 0.000
REMARK SMILES CC1=CC(=O)[C@@H]2C[C@H]1C2(C)C
REMARK SMILES IDX 1 1 2 2 3 3 4 4 5 5 6 6 7 7 8 8 9 9 10 10 11 11
REMARK H PARENT
REMARK Flexibility Score: inf
ROOT
ATOM      1  C   UNL     1      17.767  -4.491  11.875  1.00  0.00     0.040 C 
ATOM      2  C   UNL     1      17.637  -5.723  12.713  1.00  0.00    -0.066 C 
ATOM      3  C   UNL     1      17.666  -5.661  14.073  1.00  0.00     0.047 C 
ATOM      4  C   UNL     1      17.496  -6.961  14.800  1.00  0.00     0.159 C 
ATOM      5  O   UNL     1      17.465  -7.030  16.056  1.00  0.00    -0.295 OA
ATOM      6  C   UNL     1      17.358  -8.196  13.909  1.00  0.00     0.067 C 
ATOM      7  C   UNL     1      18.471  -8.025  12.853  1.00  0.00     0.021 C 
ATOM      8  C   UNL     1      17.482  -7.123  12.081  1.00  0.00     0.022 C 
ATOM      9  C   UNL     1      16.324  -7.886  12.789  1.00  0.00    -0.019 C 
ATOM     10  C   UNL     1      15.894  -9.157  12.015  1.00  0.00     0.012 C 
ATOM     11  C   UNL     1      15.042  -7.089  13.166  1.00  0.00     0.012 C 
ENDROOT
TORSDOF 0
ENDMDL
MODEL 8
REMARK VINA RESULT:    -3.340      1.895      3.116
REMARK INTER + INTRA:          -3.340
REMARK INTER:                  -3.340
REMARK INTRA:                   0.000
REMARK UNBOUND:                 0.000
REMARK SMILES CC1=CC(=O)[C@@H]2C[C@H]1C2(C)C
REMARK SMILES IDX 1 1 2 2 3 3 4 4 5 5 6 6 7 7 8 8 9 9 10 10 11 11
REMARK H PARENT
REMARK Flexibility Score: inf
ROOT
ATOM      1  C   UNL     1      14.379  -7.619  11.983  1.00  0.00     0.040 C 
ATOM      2  C   UNL     1      15.503  -6.973  12.729  1.00  0.00    -0.066 C 
ATOM      3  C   UNL     1      15.477  -6.854  14.086  1.00  0.00     0.047 C 
ATOM      4  C   UNL     1      16.676  -6.215  14.719  1.00  0.00     0.159 C 
ATOM      5  O   UNL     1      16.788  -6.083  15.965  1.00  0.00    -0.295 OA
ATOM      6  C   UNL     1      17.753  -5.737  13.745  1.00  0.00     0.067 C 
ATOM      7  C   UNL     1      16.964  -5.005  12.638  1.00  0.00     0.021 C 
ATOM      8  C   UNL     1      16.736  -6.395  12.001  1.00  0.00     0.022 C 
ATOM      9  C   UNL     1      18.032  -6.872  12.719  1.00  0.00    -0.019 C 
ATOM     10  C   UNL     1      19.305  -6.606  11.876  1.00  0.00     0.012 C 
ATOM     11  C   UNL     1      18.089  -8.338  13.236  1.00  0.00     0.012 C 
ENDROOT
TORSDOF 0
ENDMDL
