MODEL 1
REMARK VINA RESULT:    -5.431      0.000      0.000
REMARK INTER + INTRA:          -6.253
REMARK INTER:                  -5.749
REMARK INTRA:                  -0.504
REMARK UNBOUND:                -0.504
REMARK SMILES CC1=C[C@H]2C(=C(C)CC[C@H]2C(C)C)CC1
REMARK SMILES IDX 1 1 2 2 3 3 4 4 10 5 9 6 8 7 6 8 5 9 14 10 15 11 7 12 11 13
REMARK SMILES IDX 12 14 13 15
REMARK H PARENT
REMARK Flexibility Score: inf
ROOT
ATOM      1  C   UNL     1      29.879   6.515  30.014  1.00  0.00     0.039 C 
ATOM      2  C   UNL     1      30.551   7.750  30.550  1.00  0.00    -0.076 C 
ATOM      3  C   UNL     1      31.211   7.681  31.723  1.00  0.00    -0.020 C 
ATOM      4  C   UNL     1      31.937   8.851  32.345  1.00  0.00     0.041 C 
ATOM      5  C   UNL     1      31.494   9.187  33.818  1.00  0.00     0.003 C 
ATOM      6  C   UNL     1      32.042  10.572  34.296  1.00  0.00     0.009 C 
ATOM      7  C   UNL     1      33.125  11.151  33.381  1.00  0.00     0.031 C 
ATOM      8  C   UNL     1      32.622  11.189  31.954  1.00  0.00    -0.073 C 
ATOM      9  C   UNL     1      32.003  10.087  31.458  1.00  0.00    -0.064 C 
ATOM     10  C   UNL     1      31.627   9.963  29.994  1.00  0.00     0.036 C 
ATOM     11  C   UNL     1      30.412   9.058  29.806  1.00  0.00     0.035 C 
ATOM     12  C   UNL     1      32.832  12.439  31.133  1.00  0.00     0.039 C 
ENDROOT
BRANCH   5  13
ATOM     13  C   UNL     1      29.966   9.082  34.164  1.00  0.00    -0.013 C 
ATOM     14  C   UNL     1      29.146  10.313  33.739  1.00  0.00     0.007 C 
ATOM     15  C   UNL     1      29.678   8.717  35.628  1.00  0.00     0.007 C 
ENDBRANCH   5  13
TORSDOF 1
ENDMDL
MODEL 2
REMARK VINA RESULT:    -5.301      1.288      4.261
REMARK INTER + INTRA:          -6.115
REMARK INTER:                  -5.719
REMARK INTRA:                  -0.397
REMARK UNBOUND:                -0.504
REMARK SMILES CC1=C[C@H]2C(=C(C)CC[C@H]2C(C)C)CC1
REMARK SMILES IDX 1 1 2 2 3 3 4 4 10 5 9 6 8 7 6 8 5 9 14 10 15 11 7 12 11 13
REMARK SMILES IDX 12 14 13 15
REMARK H PARENT
REMARK Flexibility Score: inf
ROOT
ATOM      1  C   UNL     1      33.125  12.365  31.107  1.00  0.00     0.039 C 
ATOM      2  C   UNL     1      32.558  11.425  32.138  1.00  0.00    -0.076 C 
ATOM      3  C   UNL     1      32.829  10.108  32.044  1.00  0.00    -0.020 C 
ATOM      4  C   UNL     1      32.330   9.080  33.032  1.00  0.00     0.041 C 
ATOM      5  C   UNL     1      31.528   7.889  32.386  1.00  0.00     0.003 C 
ATOM      6  C   UNL     1      30.779   7.031  33.460  1.00  0.00     0.009 C 
ATOM      7  C   UNL     1      31.225   7.324  34.895  1.00  0.00     0.031 C 
ATOM      8  C   UNL     1      31.126   8.809  35.169  1.00  0.00    -0.073 C 
ATOM      9  C   UNL     1      31.623   9.671  34.245  1.00  0.00    -0.064 C 
ATOM     10  C   UNL     1      31.732  11.160  34.506  1.00  0.00     0.036 C 
ATOM     11  C   UNL     1      31.639  11.962  33.210  1.00  0.00     0.035 C 
ATOM     12  C   UNL     1      30.491   9.279  36.456  1.00  0.00     0.039 C 
ENDROOT
BRANCH   5  13
ATOM     13  C   UNL     1      30.545   8.222  31.207  1.00  0.00    -0.013 C 
ATOM     14  C   UNL     1      29.481   9.276  31.564  1.00  0.00     0.007 C 
ATOM     15  C   UNL     1      29.894   6.989  30.565  1.00  0.00     0.007 C 
ENDBRANCH   5  13
TORSDOF 1
ENDMDL
MODEL 3
REMARK VINA RESULT:    -5.198      1.485      3.941
REMARK INTER + INTRA:          -6.005
REMARK INTER:                  -5.747
REMARK INTRA:                  -0.259
REMARK UNBOUND:                -0.504
REMARK SMILES CC1=C[C@H]2C(=C(C)CC[C@H]2C(C)C)CC1
REMARK SMILES IDX 1 1 2 2 3 3 4 4 10 5 9 6 8 7 6 8 5 9 14 10 15 11 7 12 11 13
REMARK SMILES IDX 12 14 13 15
REMARK H PARENT
REMARK Flexibility Score: inf
ROOT
ATOM      1  C   UNL     1      31.417   6.985  35.538  1.00  0.00     0.039 C 
ATOM      2  C   UNL     1      31.108   7.390  34.122  1.00  0.00    -0.076 C 
ATOM      3  C   UNL     1      32.072   7.971  33.380  1.00  0.00    -0.020 C 
ATOM      4  C   UNL     1      31.879   8.400  31.945  1.00  0.00     0.041 C 
ATOM      5  C   UNL     1      32.216   9.911  31.663  1.00  0.00     0.003 C 
ATOM      6  C   UNL     1      31.712  10.375  30.256  1.00  0.00     0.009 C 
ATOM      7  C   UNL     1      31.293   9.218  29.344  1.00  0.00     0.031 C 
ATOM      8  C   UNL     1      30.288   8.341  30.059  1.00  0.00    -0.073 C 
ATOM      9  C   UNL     1      30.546   7.975  31.340  1.00  0.00    -0.064 C 
ATOM     10  C   UNL     1      29.696   6.959  32.077  1.00  0.00     0.036 C 
ATOM     11  C   UNL     1      29.708   7.208  33.583  1.00  0.00     0.035 C 
ATOM     12  C   UNL     1      29.045   7.898  29.324  1.00  0.00     0.039 C 
ENDROOT
BRANCH   5  13
ATOM     13  C   UNL     1      31.793  10.969  32.744  1.00  0.00    -0.013 C 
ATOM     14  C   UNL     1      31.180  12.251  32.152  1.00  0.00     0.007 C 
ATOM     15  C   UNL     1      32.898  11.311  33.753  1.00  0.00     0.007 C 
ENDBRANCH   5  13
TORSDOF 1
ENDMDL
MODEL 4
REMARK VINA RESULT:    -5.168      1.619      4.276
REMARK INTER + INTRA:          -5.974
REMARK INTER:                  -5.602
REMARK INTRA:                  -0.372
REMARK UNBOUND:                -0.504
REMARK SMILES CC1=C[C@H]2C(=C(C)CC[C@H]2C(C)C)CC1
REMARK SMILES IDX 1 1 2 2 3 3 4 4 10 5 9 6 8 7 6 8 5 9 14 10 15 11 7 12 11 13
REMARK SMILES IDX 12 14 13 15
REMARK H PARENT
REMARK Flexibility Score: inf
ROOT
ATOM      1  C   UNL     1      31.452   7.331  34.107  1.00  0.00     0.039 C 
ATOM      2  C   UNL     1      31.460   8.284  32.942  1.00  0.00    -0.076 C 
ATOM      3  C   UNL     1      30.387   8.332  32.128  1.00  0.00    -0.020 C 
ATOM      4  C   UNL     1      30.279   9.263  30.942  1.00  0.00     0.041 C 
ATOM      5  C   UNL     1      29.968   8.546  29.576  1.00  0.00     0.003 C 
ATOM      6  C   UNL     1      30.170   9.499  28.351  1.00  0.00     0.009 C 
ATOM      7  C   UNL     1      30.313  10.974  28.741  1.00  0.00     0.031 C 
ATOM      8  C   UNL     1      31.405  11.125  29.778  1.00  0.00    -0.073 C 
ATOM      9  C   UNL     1      31.419  10.266  30.831  1.00  0.00    -0.064 C 
ATOM     10  C   UNL     1      32.357  10.448  32.008  1.00  0.00     0.036 C 
ATOM     11  C   UNL     1      32.694   9.111  32.663  1.00  0.00     0.035 C 
ATOM     12  C   UNL     1      32.428  12.223  29.615  1.00  0.00     0.039 C 
ENDROOT
BRANCH   5  13
ATOM     13  C   UNL     1      30.676   7.173  29.291  1.00  0.00    -0.013 C 
ATOM     14  C   UNL     1      31.513   7.162  27.999  1.00  0.00     0.007 C 
ATOM     15  C   UNL     1      29.736   5.961  29.341  1.00  0.00     0.007 C 
ENDBRANCH   5  13
TORSDOF 1
ENDMDL
MODEL 5
REMARK VINA RESULT:    -5.138      1.337      2.730
REMARK INTER + INTRA:          -5.942
REMARK INTER:                  -5.868
REMARK INTRA:                  -0.074
REMARK UNBOUND:                -0.504
REMARK SMILES CC1=C[C@H]2C(=C(C)CC[C@H]2C(C)C)CC1
REMARK SMILES IDX 1 1 2 2 3 3 4 4 10 5 9 6 8 7 6 8 5 9 14 10 15 11 7 12 11 13
REMARK SMILES IDX 12 14 13 15
REMARK H PARENT
REMARK Flexibility Score: inf
ROOT
ATOM      1  C   UNL     1      30.673   6.611  34.209  1.00  0.00     0.039 C 
ATOM      2  C   UNL     1      30.941   7.638  33.142  1.00  0.00    -0.076 C 
ATOM      3  C   UNL     1      32.013   8.445  33.263  1.00  0.00    -0.020 C 
ATOM      4  C   UNL     1      32.388   9.496  32.245  1.00  0.00     0.041 C 
ATOM      5  C   UNL     1      32.545  10.949  32.831  1.00  0.00     0.003 C 
ATOM      6  C   UNL     1      32.626  12.033  31.706  1.00  0.00     0.009 C 
ATOM      7  C   UNL     1      32.852  11.449  30.309  1.00  0.00     0.031 C 
ATOM      8  C   UNL     1      31.806  10.394  30.020  1.00  0.00    -0.073 C 
ATOM      9  C   UNL     1      31.544   9.466  30.977  1.00  0.00    -0.064 C 
ATOM     10  C   UNL     1      30.650   8.269  30.717  1.00  0.00     0.036 C 
ATOM     11  C   UNL     1      29.967   7.796  31.998  1.00  0.00     0.035 C 
ATOM     12  C   UNL     1      31.101  10.402  28.685  1.00  0.00     0.039 C 
ENDROOT
BRANCH   5  13
ATOM     13  C   UNL     1      31.519  11.410  33.928  1.00  0.00    -0.013 C 
ATOM     14  C   UNL     1      31.764  10.781  35.312  1.00  0.00     0.007 C 
ATOM     15  C   UNL     1      30.049  11.256  33.514  1.00  0.00     0.007 C 
ENDBRANCH   5  13
TORSDOF 1
ENDMDL
MODEL 6
REMARK VINA RESULT:    -5.101      2.316      5.058
REMARK INTER + INTRA:          -5.903
REMARK INTER:                  -5.452
REMARK INTRA:                  -0.451
REMARK UNBOUND:                -0.504
REMARK SMILES CC1=C[C@H]2C(=C(C)CC[C@H]2C(C)C)CC1
REMARK SMILES IDX 1 1 2 2 3 3 4 4 10 5 9 6 8 7 6 8 5 9 14 10 15 11 7 12 11 13
REMARK SMILES IDX 12 14 13 15
REMARK H PARENT
REMARK Flexibility Score: inf
ROOT
ATOM      1  C   UNL     1      32.411  12.237  26.208  1.00  0.00     0.039 C 
ATOM      2  C   UNL     1      32.083  11.455  27.452  1.00  0.00    -0.076 C 
ATOM      3  C   UNL     1      31.849  10.132  27.352  1.00  0.00    -0.020 C 
ATOM      4  C   UNL     1      31.531   9.248  28.535  1.00  0.00     0.041 C 
ATOM      5  C   UNL     1      30.194   8.428  28.397  1.00  0.00     0.003 C 
ATOM      6  C   UNL     1      29.758   7.778  29.753  1.00  0.00     0.009 C 
ATOM      7  C   UNL     1      30.853   7.805  30.824  1.00  0.00     0.031 C 
ATOM      8  C   UNL     1      31.364   9.220  30.998  1.00  0.00    -0.073 C 
ATOM      9  C   UNL     1      31.654   9.943  29.885  1.00  0.00    -0.064 C 
ATOM     10  C   UNL     1      32.337  11.295  29.956  1.00  0.00     0.036 C 
ATOM     11  C   UNL     1      31.949  12.178  28.773  1.00  0.00     0.035 C 
ATOM     12  C   UNL     1      31.541   9.772  32.392  1.00  0.00     0.039 C 
ENDROOT
BRANCH   5  13
ATOM     13  C   UNL     1      28.960   9.145  27.742  1.00  0.00    -0.013 C 
ATOM     14  C   UNL     1      28.480  10.387  28.515  1.00  0.00     0.007 C 
ATOM     15  C   UNL     1      27.782   8.209  27.433  1.00  0.00     0.007 C 
ENDBRANCH   5  13
TORSDOF 1
ENDMDL
MODEL 7
REMARK VINA RESULT:    -5.085      2.076      4.681
REMARK INTER + INTRA:          -5.887
REMARK INTER:                  -5.500
REMARK INTRA:                  -0.387
REMARK UNBOUND:                -0.504
REMARK SMILES CC1=C[C@H]2C(=C(C)CC[C@H]2C(C)C)CC1
REMARK SMILES IDX 1 1 2 2 3 3 4 4 10 5 9 6 8 7 6 8 5 9 14 10 15 11 7 12 11 13
REMARK SMILES IDX 12 14 13 15
REMARK H PARENT
REMARK Flexibility Score: inf
ROOT
ATOM      1  C   UNL     1      27.503   7.103  27.748  1.00  0.00     0.039 C 
ATOM      2  C   UNL     1      28.571   7.570  28.700  1.00  0.00    -0.076 C 
ATOM      3  C   UNL     1      28.795   8.892  28.839  1.00  0.00    -0.020 C 
ATOM      4  C   UNL     1      29.826   9.472  29.778  1.00  0.00     0.041 C 
ATOM      5  C   UNL     1      30.865  10.436  29.094  1.00  0.00     0.003 C 
ATOM      6  C   UNL     1      32.076  10.758  30.031  1.00  0.00     0.009 C 
ATOM      7  C   UNL     1      31.850  10.342  31.487  1.00  0.00     0.031 C 
ATOM      8  C   UNL     1      31.445   8.885  31.546  1.00  0.00    -0.073 C 
ATOM      9  C   UNL     1      30.491   8.445  30.686  1.00  0.00    -0.064 C 
ATOM     10  C   UNL     1      29.892   7.056  30.787  1.00  0.00     0.036 C 
ATOM     11  C   UNL     1      29.421   6.552  29.425  1.00  0.00     0.035 C 
ATOM     12  C   UNL     1      32.104   7.978  32.558  1.00  0.00     0.039 C 
ENDROOT
BRANCH   5  13
ATOM     13  C   UNL     1      31.397  10.045  27.669  1.00  0.00    -0.013 C 
ATOM     14  C   UNL     1      32.029   8.643  27.604  1.00  0.00     0.007 C 
ATOM     15  C   UNL     1      32.330  11.090  27.039  1.00  0.00     0.007 C 
ENDBRANCH   5  13
TORSDOF 1
ENDMDL
MODEL 8
REMARK VINA RESULT:    -4.997      1.691      4.814
REMARK INTER + INTRA:          -5.793
REMARK INTER:                  -5.291
REMARK INTRA:                  -0.502
REMARK UNBOUND:                -0.504
REMARK SMILES CC1=C[C@H]2C(=C(C)CC[C@H]2C(C)C)CC1
REMARK SMILES IDX 1 1 2 2 3 3 4 4 10 5 9 6 8 7 6 8 5 9 14 10 15 11 7 12 11 13
REMARK SMILES IDX 12 14 13 15
REMARK H PARENT
REMARK Flexibility Score: inf
ROOT
ATOM      1  C   UNL     1      33.121  11.126  33.756  1.00  0.00     0.039 C 
ATOM      2  C   UNL     1      32.354  10.320  32.742  1.00  0.00    -0.076 C 
ATOM      3  C   UNL     1      32.288  10.758  31.470  1.00  0.00    -0.020 C 
ATOM      4  C   UNL     1      31.564  10.021  30.368  1.00  0.00     0.041 C 
ATOM      5  C   UNL     1      30.482  10.878  29.610  1.00  0.00     0.003 C 
ATOM      6  C   UNL     1      29.560   9.995  28.704  1.00  0.00     0.009 C 
ATOM      7  C   UNL     1      30.086   8.571  28.499  1.00  0.00     0.031 C 
ATOM      8  C   UNL     1      30.362   7.930  29.842  1.00  0.00    -0.073 C 
ATOM      9  C   UNL     1      31.044   8.648  30.773  1.00  0.00    -0.064 C 
ATOM     10  C   UNL     1      31.524   8.034  32.073  1.00  0.00     0.036 C 
ATOM     11  C   UNL     1      31.613   9.079  33.183  1.00  0.00     0.035 C 
ATOM     12  C   UNL     1      29.883   6.521  30.098  1.00  0.00     0.039 C 
ENDROOT
BRANCH   5  13
ATOM     13  C   UNL     1      29.595  11.856  30.461  1.00  0.00    -0.013 C 
ATOM     14  C   UNL     1      28.583  11.142  31.375  1.00  0.00     0.007 C 
ATOM     15  C   UNL     1      28.905  12.953  29.637  1.00  0.00     0.007 C 
ENDBRANCH   5  13
TORSDOF 1
ENDMDL
MODEL 9
REMARK VINA RESULT:    -4.911      3.648      5.670
REMARK INTER + INTRA:          -5.702
REMARK INTER:                  -5.202
REMARK INTRA:                  -0.501
REMARK UNBOUND:                -0.504
REMARK SMILES CC1=C[C@H]2C(=C(C)CC[C@H]2C(C)C)CC1
REMARK SMILES IDX 1 1 2 2 3 3 4 4 10 5 9 6 8 7 6 8 5 9 14 10 15 11 7 12 11 13
REMARK SMILES IDX 12 14 13 15
REMARK H PARENT
REMARK Flexibility Score: inf
ROOT
ATOM      1  C   UNL     1      30.330   6.483  28.637  1.00  0.00     0.039 C 
ATOM      2  C   UNL     1      30.452   7.739  27.817  1.00  0.00    -0.076 C 
ATOM      3  C   UNL     1      31.631   8.393  27.791  1.00  0.00    -0.020 C 
ATOM      4  C   UNL     1      31.871   9.650  26.989  1.00  0.00     0.041 C 
ATOM      5  C   UNL     1      32.413  10.867  27.828  1.00  0.00     0.003 C 
ATOM      6  C   UNL     1      32.352  12.210  27.026  1.00  0.00     0.009 C 
ATOM      7  C   UNL     1      32.086  12.017  25.530  1.00  0.00     0.031 C 
ATOM      8  C   UNL     1      30.847  11.170  25.335  1.00  0.00    -0.073 C 
ATOM      9  C   UNL     1      30.716  10.038  26.074  1.00  0.00    -0.064 C 
ATOM     10  C   UNL     1      29.607   9.035  25.825  1.00  0.00     0.036 C 
ATOM     11  C   UNL     1      29.238   8.284  27.102  1.00  0.00     0.035 C 
ATOM     12  C   UNL     1      29.811  11.602  24.325  1.00  0.00     0.039 C 
ENDROOT
BRANCH   5  13
ATOM     13  C   UNL     1      31.817  11.089  29.264  1.00  0.00    -0.013 C 
ATOM     14  C   UNL     1      30.487  11.864  29.272  1.00  0.00     0.007 C 
ATOM     15  C   UNL     1      32.808  11.698  30.266  1.00  0.00     0.007 C 
ENDBRANCH   5  13
TORSDOF 1
ENDMDL
