MODEL 1
REMARK VINA RESULT:    -4.701      0.000      0.000
REMARK INTER + INTRA:          -5.010
REMARK INTER:                  -4.976
REMARK INTRA:                  -0.034
REMARK UNBOUND:                -0.034
REMARK SMILES COc1ccc2ccc(=O)oc2c1
REMARK SMILES IDX 3 1 13 2 12 3 6 4 5 5 4 6 7 7 8 8 9 9 10 10 11 11 2 12 1 13
REMARK H PARENT
REMARK Flexibility Score: inf
ROOT
ATOM      1  C   UNL     1      -0.984 -14.406  -6.650  1.00  0.00     0.122 A 
ATOM      2  C   UNL     1      -2.139 -14.745  -7.367  1.00  0.00     0.094 A 
ATOM      3  C   UNL     1      -2.180 -15.908  -8.141  1.00  0.00     0.142 A 
ATOM      4  C   UNL     1      -1.048 -16.750  -8.202  1.00  0.00     0.018 A 
ATOM      5  C   UNL     1       0.109 -16.417  -7.487  1.00  0.00     0.016 A 
ATOM      6  C   UNL     1       0.142 -15.251  -6.716  1.00  0.00     0.047 A 
ATOM      7  C   UNL     1      -1.119 -17.908  -8.984  1.00  0.00     0.019 A 
ATOM      8  C   UNL     1      -2.296 -18.194  -9.676  1.00  0.00     0.094 A 
ATOM      9  C   UNL     1      -3.378 -17.314  -9.569  1.00  0.00     0.336 A 
ATOM     10  O   UNL     1      -4.448 -17.555 -10.186  1.00  0.00    -0.246 OA
ATOM     11  O   UNL     1      -3.283 -16.220  -8.817  1.00  0.00    -0.423 OA
ENDROOT
BRANCH   1  12
ATOM     12  O   UNL     1      -0.995 -13.228  -5.889  1.00  0.00    -0.497 OA
ATOM     13  C   UNL     1      -0.235 -13.030  -4.702  1.00  0.00     0.278 C 
ENDBRANCH   1  12
TORSDOF 1
ENDMDL
MODEL 2
REMARK VINA RESULT:    -4.488      2.538      4.865
REMARK INTER + INTRA:          -4.784
REMARK INTER:                  -4.748
REMARK INTRA:                  -0.036
REMARK UNBOUND:                -0.034
REMARK SMILES COc1ccc2ccc(=O)oc2c1
REMARK SMILES IDX 3 1 13 2 12 3 6 4 5 5 4 6 7 7 8 8 9 9 10 10 11 11 2 12 1 13
REMARK H PARENT
REMARK Flexibility Score: inf
ROOT
ATOM      1  C   UNL     1       0.344 -19.542  -8.314  1.00  0.00     0.122 A 
ATOM      2  C   UNL     1      -0.688 -18.632  -8.580  1.00  0.00     0.094 A 
ATOM      3  C   UNL     1      -0.629 -17.326  -8.085  1.00  0.00     0.142 A 
ATOM      4  C   UNL     1       0.480 -16.918  -7.313  1.00  0.00     0.018 A 
ATOM      5  C   UNL     1       1.514 -17.822  -7.044  1.00  0.00     0.016 A 
ATOM      6  C   UNL     1       1.447 -19.128  -7.541  1.00  0.00     0.047 A 
ATOM      7  C   UNL     1       0.511 -15.604  -6.833  1.00  0.00     0.019 A 
ATOM      8  C   UNL     1      -0.545 -14.743  -7.129  1.00  0.00     0.094 A 
ATOM      9  C   UNL     1      -1.611 -15.216  -7.901  1.00  0.00     0.336 A 
ATOM     10  O   UNL     1      -2.573 -14.453  -8.179  1.00  0.00    -0.246 OA
ATOM     11  O   UNL     1      -1.615 -16.470  -8.345  1.00  0.00    -0.423 OA
ENDROOT
BRANCH   1  12
ATOM     12  O   UNL     1       0.235 -20.841  -8.832  1.00  0.00    -0.497 OA
ATOM     13  C   UNL     1       1.289 -21.799  -8.830  1.00  0.00     0.278 C 
ENDBRANCH   1  12
TORSDOF 1
ENDMDL
MODEL 3
REMARK VINA RESULT:    -4.394      2.690      3.385
REMARK INTER + INTRA:          -4.684
REMARK INTER:                  -4.651
REMARK INTRA:                  -0.034
REMARK UNBOUND:                -0.034
REMARK SMILES COc1ccc2ccc(=O)oc2c1
REMARK SMILES IDX 3 1 13 2 12 3 6 4 5 5 4 6 7 7 8 8 9 9 10 10 11 11 2 12 1 13
REMARK H PARENT
REMARK Flexibility Score: inf
ROOT
ATOM      1  C   UNL     1      -0.167 -14.329  -6.014  1.00  0.00     0.122 A 
ATOM      2  C   UNL     1       0.696 -15.430  -5.935  1.00  0.00     0.094 A 
ATOM      3  C   UNL     1       0.543 -16.517  -6.802  1.00  0.00     0.142 A 
ATOM      4  C   UNL     1      -0.488 -16.506  -7.766  1.00  0.00     0.018 A 
ATOM      5  C   UNL     1      -1.353 -15.408  -7.851  1.00  0.00     0.016 A 
ATOM      6  C   UNL     1      -1.194 -14.325  -6.979  1.00  0.00     0.047 A 
ATOM      7  C   UNL     1      -0.615 -17.607  -8.619  1.00  0.00     0.019 A 
ATOM      8  C   UNL     1       0.273 -18.675  -8.494  1.00  0.00     0.094 A 
ATOM      9  C   UNL     1       1.271 -18.617  -7.515  1.00  0.00     0.336 A 
ATOM     10  O   UNL     1       2.082 -19.571  -7.387  1.00  0.00    -0.246 OA
ATOM     11  O   UNL     1       1.369 -17.557  -6.717  1.00  0.00    -0.423 OA
ENDROOT
BRANCH   1  12
ATOM     12  O   UNL     1       0.029 -13.265  -5.122  1.00  0.00    -0.497 OA
ATOM     13  C   UNL     1      -1.014 -12.440  -4.612  1.00  0.00     0.278 C 
ENDBRANCH   1  12
TORSDOF 1
ENDMDL
MODEL 4
REMARK VINA RESULT:    -4.356      2.818      4.638
REMARK INTER + INTRA:          -4.645
REMARK INTER:                  -4.602
REMARK INTRA:                  -0.043
REMARK UNBOUND:                -0.034
REMARK SMILES COc1ccc2ccc(=O)oc2c1
REMARK SMILES IDX 3 1 13 2 12 3 6 4 5 5 4 6 7 7 8 8 9 9 10 10 11 11 2 12 1 13
REMARK H PARENT
REMARK Flexibility Score: inf
ROOT
ATOM      1  C   UNL     1       1.850 -18.470  -6.681  1.00  0.00     0.122 A 
ATOM      2  C   UNL     1       0.673 -18.103  -7.346  1.00  0.00     0.094 A 
ATOM      3  C   UNL     1       0.155 -16.811  -7.214  1.00  0.00     0.142 A 
ATOM      4  C   UNL     1       0.823 -15.866  -6.405  1.00  0.00     0.018 A 
ATOM      5  C   UNL     1       2.000 -16.227  -5.738  1.00  0.00     0.016 A 
ATOM      6  C   UNL     1       2.511 -17.522  -5.874  1.00  0.00     0.047 A 
ATOM      7  C   UNL     1       0.280 -14.582  -6.293  1.00  0.00     0.019 A 
ATOM      8  C   UNL     1      -0.894 -14.273  -6.978  1.00  0.00     0.094 A 
ATOM      9  C   UNL     1      -1.502 -15.260  -7.763  1.00  0.00     0.336 A 
ATOM     10  O   UNL     1      -2.562 -15.001  -8.389  1.00  0.00    -0.246 OA
ATOM     11  O   UNL     1      -0.965 -16.474  -7.851  1.00  0.00    -0.423 OA
ENDROOT
BRANCH   1  12
ATOM     12  O   UNL     1       2.327 -19.778  -6.846  1.00  0.00    -0.497 OA
ATOM     13  C   UNL     1       1.814 -20.708  -7.794  1.00  0.00     0.278 C 
ENDBRANCH   1  12
TORSDOF 1
ENDMDL
MODEL 5
REMARK VINA RESULT:    -4.326      2.384      4.752
REMARK INTER + INTRA:          -4.613
REMARK INTER:                  -4.570
REMARK INTRA:                  -0.043
REMARK UNBOUND:                -0.034
REMARK SMILES COc1ccc2ccc(=O)oc2c1
REMARK SMILES IDX 3 1 13 2 12 3 6 4 5 5 4 6 7 7 8 8 9 9 10 10 11 11 2 12 1 13
REMARK H PARENT
REMARK Flexibility Score: inf
ROOT
ATOM      1  C   UNL     1      -2.430 -15.969  -8.239  1.00  0.00     0.122 A 
ATOM      2  C   UNL     1      -1.520 -17.011  -8.014  1.00  0.00     0.094 A 
ATOM      3  C   UNL     1      -0.376 -16.801  -7.238  1.00  0.00     0.142 A 
ATOM      4  C   UNL     1      -0.135 -15.529  -6.673  1.00  0.00     0.018 A 
ATOM      5  C   UNL     1      -1.041 -14.484  -6.894  1.00  0.00     0.016 A 
ATOM      6  C   UNL     1      -2.182 -14.703  -7.673  1.00  0.00     0.047 A 
ATOM      7  C   UNL     1       1.017 -15.350  -5.901  1.00  0.00     0.019 A 
ATOM      8  C   UNL     1       1.886 -16.423  -5.711  1.00  0.00     0.094 A 
ATOM      9  C   UNL     1       1.584 -17.656  -6.300  1.00  0.00     0.336 A 
ATOM     10  O   UNL     1       2.356 -18.636  -6.141  1.00  0.00    -0.246 OA
ATOM     11  O   UNL     1       0.481 -17.798  -7.031  1.00  0.00    -0.423 OA
ENDROOT
BRANCH   1  12
ATOM     12  O   UNL     1      -3.561 -16.232  -9.026  1.00  0.00    -0.497 OA
ATOM     13  C   UNL     1      -3.762 -17.428  -9.771  1.00  0.00     0.278 C 
ENDBRANCH   1  12
TORSDOF 1
ENDMDL
MODEL 6
REMARK VINA RESULT:    -4.315      1.009      4.729
REMARK INTER + INTRA:          -4.601
REMARK INTER:                  -4.565
REMARK INTRA:                  -0.036
REMARK UNBOUND:                -0.034
REMARK SMILES COc1ccc2ccc(=O)oc2c1
REMARK SMILES IDX 3 1 13 2 12 3 6 4 5 5 4 6 7 7 8 8 9 9 10 10 11 11 2 12 1 13
REMARK H PARENT
REMARK Flexibility Score: inf
ROOT
ATOM      1  C   UNL     1      -3.038 -17.420  -9.124  1.00  0.00     0.122 A 
ATOM      2  C   UNL     1      -3.093 -16.285  -8.305  1.00  0.00     0.094 A 
ATOM      3  C   UNL     1      -1.932 -15.778  -7.713  1.00  0.00     0.142 A 
ATOM      4  C   UNL     1      -0.693 -16.414  -7.943  1.00  0.00     0.018 A 
ATOM      5  C   UNL     1      -0.631 -17.549  -8.760  1.00  0.00     0.016 A 
ATOM      6  C   UNL     1      -1.798 -18.050  -9.348  1.00  0.00     0.047 A 
ATOM      7  C   UNL     1       0.451 -15.883  -7.338  1.00  0.00     0.019 A 
ATOM      8  C   UNL     1       0.336 -14.750  -6.532  1.00  0.00     0.094 A 
ATOM      9  C   UNL     1      -0.925 -14.172  -6.350  1.00  0.00     0.336 A 
ATOM     10  O   UNL     1      -1.050 -13.150  -5.627  1.00  0.00    -0.246 OA
ATOM     11  O   UNL     1      -1.997 -14.698  -6.938  1.00  0.00    -0.423 OA
ENDROOT
BRANCH   1  12
ATOM     12  O   UNL     1      -4.231 -17.888  -9.693  1.00  0.00    -0.497 OA
ATOM     13  C   UNL     1      -5.061 -17.126 -10.564  1.00  0.00     0.278 C 
ENDBRANCH   1  12
TORSDOF 1
ENDMDL
MODEL 7
REMARK VINA RESULT:    -4.153     13.250     14.020
REMARK INTER + INTRA:          -4.430
REMARK INTER:                  -4.396
REMARK INTRA:                  -0.033
REMARK UNBOUND:                -0.034
REMARK SMILES COc1ccc2ccc(=O)oc2c1
REMARK SMILES IDX 3 1 13 2 12 3 6 4 5 5 4 6 7 7 8 8 9 9 10 10 11 11 2 12 1 13
REMARK H PARENT
REMARK Flexibility Score: inf
ROOT
ATOM      1  C   UNL     1      12.449 -16.544  -6.024  1.00  0.00     0.122 A 
ATOM      2  C   UNL     1      13.053 -16.761  -7.269  1.00  0.00     0.094 A 
ATOM      3  C   UNL     1      12.431 -17.561  -8.232  1.00  0.00     0.142 A 
ATOM      4  C   UNL     1      11.182 -18.156  -7.949  1.00  0.00     0.018 A 
ATOM      5  C   UNL     1      10.573 -17.943  -6.706  1.00  0.00     0.016 A 
ATOM      6  C   UNL     1      11.203 -17.141  -5.748  1.00  0.00     0.047 A 
ATOM      7  C   UNL     1      10.584 -18.951  -8.932  1.00  0.00     0.019 A 
ATOM      8  C   UNL     1      11.232 -19.132 -10.153  1.00  0.00     0.094 A 
ATOM      9  C   UNL     1      12.468 -18.511 -10.364  1.00  0.00     0.336 A 
ATOM     10  O   UNL     1      13.069 -18.662 -11.460  1.00  0.00    -0.246 OA
ATOM     11  O   UNL     1      13.015 -17.760  -9.412  1.00  0.00    -0.423 OA
ENDROOT
BRANCH   1  12
ATOM     12  O   UNL     1      13.115 -15.733  -5.094  1.00  0.00    -0.497 OA
ATOM     13  C   UNL     1      12.662 -14.450  -4.675  1.00  0.00     0.278 C 
ENDBRANCH   1  12
TORSDOF 1
ENDMDL
MODEL 8
REMARK VINA RESULT:    -4.112      2.919      5.128
REMARK INTER + INTRA:          -4.387
REMARK INTER:                  -4.344
REMARK INTRA:                  -0.043
REMARK UNBOUND:                -0.034
REMARK SMILES COc1ccc2ccc(=O)oc2c1
REMARK SMILES IDX 3 1 13 2 12 3 6 4 5 5 4 6 7 7 8 8 9 9 10 10 11 11 2 12 1 13
REMARK H PARENT
REMARK Flexibility Score: inf
ROOT
ATOM      1  C   UNL     1       1.556 -18.680  -6.912  1.00  0.00     0.122 A 
ATOM      2  C   UNL     1       1.491 -17.554  -6.081  1.00  0.00     0.094 A 
ATOM      3  C   UNL     1       0.693 -16.459  -6.428  1.00  0.00     0.142 A 
ATOM      4  C   UNL     1      -0.056 -16.488  -7.624  1.00  0.00     0.018 A 
ATOM      5  C   UNL     1       0.004 -17.611  -8.459  1.00  0.00     0.016 A 
ATOM      6  C   UNL     1       0.806 -18.702  -8.105  1.00  0.00     0.047 A 
ATOM      7  C   UNL     1      -0.846 -15.379  -7.943  1.00  0.00     0.019 A 
ATOM      8  C   UNL     1      -0.872 -14.286  -7.078  1.00  0.00     0.094 A 
ATOM      9  C   UNL     1      -0.104 -14.327  -5.909  1.00  0.00     0.336 A 
ATOM     10  O   UNL     1      -0.113 -13.350  -5.116  1.00  0.00    -0.246 OA
ATOM     11  O   UNL     1       0.639 -15.395  -5.630  1.00  0.00    -0.423 OA
ENDROOT
BRANCH   1  12
ATOM     12  O   UNL     1       2.372 -19.750  -6.519  1.00  0.00    -0.497 OA
ATOM     13  C   UNL     1       2.935 -19.898  -5.220  1.00  0.00     0.278 C 
ENDBRANCH   1  12
TORSDOF 1
ENDMDL
MODEL 9
REMARK VINA RESULT:    -4.087     13.194     14.811
REMARK INTER + INTRA:          -4.360
REMARK INTER:                  -4.318
REMARK INTRA:                  -0.042
REMARK UNBOUND:                -0.034
REMARK SMILES COc1ccc2ccc(=O)oc2c1
REMARK SMILES IDX 3 1 13 2 12 3 6 4 5 5 4 6 7 7 8 8 9 9 10 10 11 11 2 12 1 13
REMARK H PARENT
REMARK Flexibility Score: inf
ROOT
ATOM      1  C   UNL     1      12.572 -18.490 -10.235  1.00  0.00     0.122 A 
ATOM      2  C   UNL     1      13.121 -17.692  -9.222  1.00  0.00     0.094 A 
ATOM      3  C   UNL     1      12.422 -17.472  -8.032  1.00  0.00     0.142 A 
ATOM      4  C   UNL     1      11.151 -18.060  -7.846  1.00  0.00     0.018 A 
ATOM      5  C   UNL     1      10.597 -18.859  -8.854  1.00  0.00     0.016 A 
ATOM      6  C   UNL     1      11.304 -19.073 -10.042  1.00  0.00     0.047 A 
ATOM      7  C   UNL     1      10.476 -17.822  -6.645  1.00  0.00     0.019 A 
ATOM      8  C   UNL     1      11.072 -17.019  -5.673  1.00  0.00     0.094 A 
ATOM      9  C   UNL     1      12.333 -16.470  -5.925  1.00  0.00     0.336 A 
ATOM     10  O   UNL     1      12.887 -15.742  -5.061  1.00  0.00    -0.246 OA
ATOM     11  O   UNL     1      12.954 -16.712  -7.077  1.00  0.00    -0.423 OA
ENDROOT
BRANCH   1  12
ATOM     12  O   UNL     1      13.315 -18.679 -11.409  1.00  0.00    -0.497 OA
ATOM     13  C   UNL     1      14.726 -18.512 -11.505  1.00  0.00     0.278 C 
ENDBRANCH   1  12
TORSDOF 1
ENDMDL
