MODEL 1
REMARK VINA RESULT:    -3.466      0.000      0.000
REMARK INTER + INTRA:          -5.409
REMARK INTER:                  -4.782
REMARK INTRA:                  -0.626
REMARK UNBOUND:                -0.626
REMARK SMILES OC[C@@H](O)[C@@H](O)[C@@H](O)CO
REMARK SMILES IDX 5 1 3 2 2 3 1 4 4 6 7 8 9 9 10 10 8 12 6 14
REMARK H PARENT 1 5 4 7 10 11 8 13 6 15
REMARK Flexibility Score: inf
ROOT
ATOM      1  C   UNL     1      -5.734   4.402  21.837  1.00  0.00     0.176 C 
ENDROOT
BRANCH   1   2
ATOM      2  C   UNL     1      -4.652   3.493  22.486  1.00  0.00     0.171 C 
BRANCH   2   3
ATOM      3  C   UNL     1      -3.308   3.624  21.745  1.00  0.00     0.190 C 
BRANCH   3   4
ATOM      4  O   UNL     1      -2.511   4.613  22.340  1.00  0.00    -0.394 OA
ATOM      5  H   UNL     1      -2.752   4.630  23.303  1.00  0.00     0.210 HD
ENDBRANCH   3   4
ENDBRANCH   2   3
BRANCH   2   6
ATOM      6  O   UNL     1      -4.466   3.861  23.828  1.00  0.00    -0.388 OA
ATOM      7  H   UNL     1      -3.488   3.961  23.970  1.00  0.00     0.211 HD
ENDBRANCH   2   6
ENDBRANCH   1   2
BRANCH   1   8
ATOM      8  C   UNL     1      -5.354   4.980  20.441  1.00  0.00     0.171 C 
BRANCH   8   9
ATOM      9  C   UNL     1      -5.208   6.517  20.386  1.00  0.00     0.190 C 
BRANCH   9  10
ATOM     10  O   UNL     1      -4.132   6.947  21.176  1.00  0.00    -0.394 OA
ATOM     11  H   UNL     1      -3.703   6.132  21.547  1.00  0.00     0.210 HD
ENDBRANCH   9  10
ENDBRANCH   8   9
BRANCH   8  12
ATOM     12  O   UNL     1      -6.231   4.521  19.440  1.00  0.00    -0.388 OA
ATOM     13  H   UNL     1      -6.460   5.292  18.859  1.00  0.00     0.211 HD
ENDBRANCH   8  12
ENDBRANCH   1   8
BRANCH   1  14
ATOM     14  O   UNL     1      -6.064   5.462  22.701  1.00  0.00    -0.388 OA
ATOM     15  H   UNL     1      -6.522   6.159  22.161  1.00  0.00     0.211 HD
ENDBRANCH   1  14
TORSDOF 9
ENDMDL
MODEL 2
REMARK VINA RESULT:    -3.459      1.315      2.762
REMARK INTER + INTRA:          -5.400
REMARK INTER:                  -4.919
REMARK INTRA:                  -0.480
REMARK UNBOUND:                -0.626
REMARK SMILES OC[C@@H](O)[C@@H](O)[C@@H](O)CO
REMARK SMILES IDX 5 1 3 2 2 3 1 4 4 6 7 8 9 9 10 10 8 12 6 14
REMARK H PARENT 1 5 4 7 10 11 8 13 6 15
REMARK Flexibility Score: inf
ROOT
ATOM      1  C   UNL     1      -5.606   4.861  20.404  1.00  0.00     0.176 C 
ENDROOT
BRANCH   1   2
ATOM      2  C   UNL     1      -5.778   4.476  21.901  1.00  0.00     0.171 C 
BRANCH   2   3
ATOM      3  C   UNL     1      -4.488   3.844  22.457  1.00  0.00     0.190 C 
BRANCH   3   4
ATOM      4  O   UNL     1      -4.513   3.822  23.860  1.00  0.00    -0.394 OA
ATOM      5  H   UNL     1      -5.207   3.161  24.119  1.00  0.00     0.210 HD
ENDBRANCH   3   4
ENDBRANCH   2   3
BRANCH   2   6
ATOM      6  O   UNL     1      -6.081   5.621  22.655  1.00  0.00    -0.388 OA
ATOM      7  H   UNL     1      -6.571   6.242  22.056  1.00  0.00     0.211 HD
ENDBRANCH   2   6
ENDBRANCH   1   2
BRANCH   1   8
ATOM      8  C   UNL     1      -6.401   6.124  19.957  1.00  0.00     0.171 C 
BRANCH   8   9
ATOM      9  C   UNL     1      -6.690   6.213  18.442  1.00  0.00     0.190 C 
BRANCH   9  10
ATOM     10  O   UNL     1      -7.798   5.425  18.096  1.00  0.00    -0.394 OA
ATOM     11  H   UNL     1      -8.586   6.028  18.078  1.00  0.00     0.210 HD
ENDBRANCH   9  10
ENDBRANCH   8   9
BRANCH   8  12
ATOM     12  O   UNL     1      -5.793   7.304  20.424  1.00  0.00    -0.388 OA
ATOM     13  H   UNL     1      -5.355   7.099  21.290  1.00  0.00     0.211 HD
ENDBRANCH   8  12
ENDBRANCH   1   8
BRANCH   1  14
ATOM     14  O   UNL     1      -5.958   3.778  19.578  1.00  0.00    -0.388 OA
ATOM     15  H   UNL     1      -5.531   3.923  18.693  1.00  0.00     0.211 HD
ENDBRANCH   1  14
TORSDOF 9
ENDMDL
MODEL 3
REMARK VINA RESULT:    -3.438      8.432     10.447
REMARK INTER + INTRA:          -5.370
REMARK INTER:                  -4.706
REMARK INTRA:                  -0.665
REMARK UNBOUND:                -0.626
REMARK SMILES OC[C@@H](O)[C@@H](O)[C@@H](O)CO
REMARK SMILES IDX 5 1 3 2 2 3 1 4 4 6 7 8 9 9 10 10 8 12 6 14
REMARK H PARENT 1 5 4 7 10 11 8 13 6 15
REMARK Flexibility Score: inf
ROOT
ATOM      1  C   UNL     1       0.941  -2.798  22.656  1.00  0.00     0.176 C 
ENDROOT
BRANCH   1   2
ATOM      2  C   UNL     1       0.070  -2.464  21.412  1.00  0.00     0.171 C 
BRANCH   2   3
ATOM      3  C   UNL     1      -0.380  -0.991  21.435  1.00  0.00     0.190 C 
BRANCH   3   4
ATOM      4  O   UNL     1       0.268  -0.292  22.464  1.00  0.00    -0.394 OA
ATOM      5  H   UNL     1       0.210   0.672  22.232  1.00  0.00     0.210 HD
ENDBRANCH   3   4
ENDBRANCH   2   3
BRANCH   2   6
ATOM      6  O   UNL     1       0.808  -2.692  20.239  1.00  0.00    -0.388 OA
ATOM      7  H   UNL     1       1.767  -2.576  20.472  1.00  0.00     0.211 HD
ENDBRANCH   2   6
ENDBRANCH   1   2
BRANCH   1   8
ATOM      8  C   UNL     1       1.755  -4.122  22.551  1.00  0.00     0.171 C 
BRANCH   8   9
ATOM      9  C   UNL     1       1.819  -4.955  23.850  1.00  0.00     0.190 C 
BRANCH   9  10
ATOM     10  O   UNL     1       2.666  -4.353  24.792  1.00  0.00    -0.394 OA
ATOM     11  H   UNL     1       2.083  -3.915  25.465  1.00  0.00     0.210 HD
ENDBRANCH   9  10
ENDBRANCH   8   9
BRANCH   8  12
ATOM     12  O   UNL     1       3.044  -3.892  22.036  1.00  0.00    -0.388 OA
ATOM     13  H   UNL     1       3.675  -4.487  22.517  1.00  0.00     0.211 HD
ENDBRANCH   8  12
ENDBRANCH   1   8
BRANCH   1  14
ATOM     14  O   UNL     1       0.143  -2.837  23.814  1.00  0.00    -0.388 OA
ATOM     15  H   UNL     1      -0.786  -3.044  23.533  1.00  0.00     0.211 HD
ENDBRANCH   1  14
TORSDOF 9
ENDMDL
MODEL 4
REMARK VINA RESULT:    -3.437      0.745      3.708
REMARK INTER + INTRA:          -5.369
REMARK INTER:                  -4.748
REMARK INTRA:                  -0.621
REMARK UNBOUND:                -0.626
REMARK SMILES OC[C@@H](O)[C@@H](O)[C@@H](O)CO
REMARK SMILES IDX 5 1 3 2 2 3 1 4 4 6 7 8 9 9 10 10 8 12 6 14
REMARK H PARENT 1 5 4 7 10 11 8 13 6 15
REMARK Flexibility Score: inf
ROOT
ATOM      1  C   UNL     1      -4.180   4.946  20.667  1.00  0.00     0.176 C 
ENDROOT
BRANCH   1   2
ATOM      2  C   UNL     1      -5.730   4.821  20.667  1.00  0.00     0.171 C 
BRANCH   2   3
ATOM      3  C   UNL     1      -6.383   6.077  21.273  1.00  0.00     0.190 C 
BRANCH   3   4
ATOM      4  O   UNL     1      -6.367   6.015  22.675  1.00  0.00    -0.394 OA
ATOM      5  H   UNL     1      -5.572   5.475  22.925  1.00  0.00     0.210 HD
ENDBRANCH   3   4
ENDBRANCH   2   3
BRANCH   2   6
ATOM      6  O   UNL     1      -6.194   4.661  19.351  1.00  0.00    -0.388 OA
ATOM      7  H   UNL     1      -6.958   5.285  19.234  1.00  0.00     0.211 HD
ENDBRANCH   2   6
ENDBRANCH   1   2
BRANCH   1   8
ATOM      8  C   UNL     1      -3.440   3.936  21.595  1.00  0.00     0.171 C 
BRANCH   8   9
ATOM      9  C   UNL     1      -4.349   3.158  22.571  1.00  0.00     0.190 C 
BRANCH   9  10
ATOM     10  O   UNL     1      -4.502   3.856  23.779  1.00  0.00    -0.394 OA
ATOM     11  H   UNL     1      -5.188   4.555  23.622  1.00  0.00     0.210 HD
ENDBRANCH   9  10
ENDBRANCH   8   9
BRANCH   8  12
ATOM     12  O   UNL     1      -2.377   4.554  22.278  1.00  0.00    -0.388 OA
ATOM     13  H   UNL     1      -2.155   3.994  23.067  1.00  0.00     0.211 HD
ENDBRANCH   8  12
ENDBRANCH   1   8
BRANCH   1  14
ATOM     14  O   UNL     1      -3.796   6.255  21.010  1.00  0.00    -0.388 OA
ATOM     15  H   UNL     1      -3.685   6.767  20.167  1.00  0.00     0.211 HD
ENDBRANCH   1  14
TORSDOF 9
ENDMDL
MODEL 5
REMARK VINA RESULT:    -3.329     13.182     14.450
REMARK INTER + INTRA:          -5.220
REMARK INTER:                  -4.492
REMARK INTRA:                  -0.727
REMARK UNBOUND:                -0.626
REMARK SMILES OC[C@@H](O)[C@@H](O)[C@@H](O)CO
REMARK SMILES IDX 5 1 3 2 2 3 1 4 4 6 7 8 9 9 10 10 8 12 6 14
REMARK H PARENT 1 5 4 7 10 11 8 13 6 15
REMARK Flexibility Score: inf
ROOT
ATOM      1  C   UNL     1       4.250  -5.462  18.685  1.00  0.00     0.176 C 
ENDROOT
BRANCH   1   2
ATOM      2  C   UNL     1       5.804  -5.398  18.678  1.00  0.00     0.171 C 
BRANCH   2   3
ATOM      3  C   UNL     1       6.310  -4.463  17.564  1.00  0.00     0.190 C 
BRANCH   3   4
ATOM      4  O   UNL     1       5.587  -3.261  17.560  1.00  0.00    -0.394 OA
ATOM      5  H   UNL     1       5.839  -2.777  18.390  1.00  0.00     0.210 HD
ENDBRANCH   3   4
ENDBRANCH   2   3
BRANCH   2   6
ATOM      6  O   UNL     1       6.265  -4.917  19.915  1.00  0.00    -0.388 OA
ATOM      7  H   UNL     1       7.005  -5.513  20.201  1.00  0.00     0.211 HD
ENDBRANCH   2   6
ENDBRANCH   1   2
BRANCH   1   8
ATOM      8  C   UNL     1       3.640  -6.490  19.684  1.00  0.00     0.171 C 
BRANCH   8   9
ATOM      9  C   UNL     1       2.991  -5.873  20.943  1.00  0.00     0.190 C 
BRANCH   9  10
ATOM     10  O   UNL     1       3.735  -4.777  21.405  1.00  0.00    -0.394 OA
ATOM     11  H   UNL     1       4.201  -4.392  20.617  1.00  0.00     0.210 HD
ENDBRANCH   9  10
ENDBRANCH   8   9
BRANCH   8  12
ATOM     12  O   UNL     1       4.574  -7.482  20.033  1.00  0.00    -0.388 OA
ATOM     13  H   UNL     1       4.218  -7.974  20.818  1.00  0.00     0.211 HD
ENDBRANCH   8  12
ENDBRANCH   1   8
BRANCH   1  14
ATOM     14  O   UNL     1       3.767  -5.734  17.392  1.00  0.00    -0.388 OA
ATOM     15  H   UNL     1       4.079  -6.642  17.139  1.00  0.00     0.211 HD
ENDBRANCH   1  14
TORSDOF 9
ENDMDL
MODEL 6
REMARK VINA RESULT:    -3.310     12.838     14.558
REMARK INTER + INTRA:          -5.194
REMARK INTER:                  -4.445
REMARK INTRA:                  -0.749
REMARK UNBOUND:                -0.626
REMARK SMILES OC[C@@H](O)[C@@H](O)[C@@H](O)CO
REMARK SMILES IDX 5 1 3 2 2 3 1 4 4 6 7 8 9 9 10 10 8 12 6 14
REMARK H PARENT 1 5 4 7 10 11 8 13 6 15
REMARK Flexibility Score: inf
ROOT
ATOM      1  C   UNL     1       4.376  -5.409  17.834  1.00  0.00     0.176 C 
ENDROOT
BRANCH   1   2
ATOM      2  C   UNL     1       3.063  -5.546  18.655  1.00  0.00     0.171 C 
BRANCH   2   3
ATOM      3  C   UNL     1       3.364  -5.942  20.112  1.00  0.00     0.190 C 
BRANCH   3   4
ATOM      4  O   UNL     1       3.966  -4.877  20.799  1.00  0.00    -0.394 OA
ATOM      5  H   UNL     1       3.351  -4.101  20.713  1.00  0.00     0.210 HD
ENDBRANCH   3   4
ENDBRANCH   2   3
BRANCH   2   6
ATOM      6  O   UNL     1       2.370  -4.324  18.652  1.00  0.00    -0.388 OA
ATOM      7  H   UNL     1       1.409  -4.534  18.789  1.00  0.00     0.211 HD
ENDBRANCH   2   6
ENDBRANCH   1   2
BRANCH   1   8
ATOM      8  C   UNL     1       5.507  -6.404  18.233  1.00  0.00     0.171 C 
BRANCH   8   9
ATOM      9  C   UNL     1       6.835  -5.746  18.666  1.00  0.00     0.190 C 
BRANCH   9  10
ATOM     10  O   UNL     1       6.672  -5.021  19.856  1.00  0.00    -0.394 OA
ATOM     11  H   UNL     1       6.846  -4.068  19.638  1.00  0.00     0.210 HD
ENDBRANCH   9  10
ENDBRANCH   8   9
BRANCH   8  12
ATOM     12  O   UNL     1       5.723  -7.364  17.228  1.00  0.00    -0.388 OA
ATOM     13  H   UNL     1       5.408  -8.240  17.570  1.00  0.00     0.211 HD
ENDBRANCH   8  12
ENDBRANCH   1   8
BRANCH   1  14
ATOM     14  O   UNL     1       4.869  -4.094  17.917  1.00  0.00    -0.388 OA
ATOM     15  H   UNL     1       4.330  -3.613  18.599  1.00  0.00     0.211 HD
ENDBRANCH   1  14
TORSDOF 9
ENDMDL
MODEL 7
REMARK VINA RESULT:    -3.275      8.866     10.344
REMARK INTER + INTRA:          -5.145
REMARK INTER:                  -4.646
REMARK INTRA:                  -0.499
REMARK UNBOUND:                -0.626
REMARK SMILES OC[C@@H](O)[C@@H](O)[C@@H](O)CO
REMARK SMILES IDX 5 1 3 2 2 3 1 4 4 6 7 8 9 9 10 10 8 12 6 14
REMARK H PARENT 1 5 4 7 10 11 8 13 6 15
REMARK Flexibility Score: inf
ROOT
ATOM      1  C   UNL     1       0.857  -3.512  22.923  1.00  0.00     0.176 C 
ENDROOT
BRANCH   1   2
ATOM      2  C   UNL     1       2.281  -3.752  23.500  1.00  0.00     0.171 C 
BRANCH   2   3
ATOM      3  C   UNL     1       2.375  -5.134  24.172  1.00  0.00     0.190 C 
BRANCH   3   4
ATOM      4  O   UNL     1       3.218  -5.082  25.293  1.00  0.00    -0.394 OA
ATOM      5  H   UNL     1       2.673  -5.376  26.070  1.00  0.00     0.210 HD
ENDBRANCH   3   4
ENDBRANCH   2   3
BRANCH   2   6
ATOM      6  O   UNL     1       3.230  -3.686  22.467  1.00  0.00    -0.388 OA
ATOM      7  H   UNL     1       3.779  -2.874  22.628  1.00  0.00     0.211 HD
ENDBRANCH   2   6
ENDBRANCH   1   2
BRANCH   1   8
ATOM      8  C   UNL     1       0.816  -2.691  21.598  1.00  0.00     0.171 C 
BRANCH   8   9
ATOM      9  C   UNL     1      -0.494  -1.910  21.353  1.00  0.00     0.190 C 
BRANCH   9  10
ATOM     10  O   UNL     1      -0.471  -0.673  22.013  1.00  0.00    -0.394 OA
ATOM     11  H   UNL     1      -0.608  -0.858  22.979  1.00  0.00     0.210 HD
ENDBRANCH   9  10
ENDBRANCH   8   9
BRANCH   8  12
ATOM     12  O   UNL     1       1.140  -3.493  20.489  1.00  0.00    -0.388 OA
ATOM     13  H   UNL     1       1.793  -4.178  20.788  1.00  0.00     0.211 HD
ENDBRANCH   8  12
ENDBRANCH   1   8
BRANCH   1  14
ATOM     14  O   UNL     1       0.041  -2.883  23.880  1.00  0.00    -0.388 OA
ATOM     15  H   UNL     1      -0.133  -1.957  23.567  1.00  0.00     0.211 HD
ENDBRANCH   1  14
TORSDOF 9
ENDMDL
MODEL 8
REMARK VINA RESULT:    -3.242      1.700      3.263
REMARK INTER + INTRA:          -5.100
REMARK INTER:                  -4.320
REMARK INTRA:                  -0.780
REMARK UNBOUND:                -0.626
REMARK SMILES OC[C@@H](O)[C@@H](O)[C@@H](O)CO
REMARK SMILES IDX 5 1 3 2 2 3 1 4 4 6 7 8 9 9 10 10 8 12 6 14
REMARK H PARENT 1 5 4 7 10 11 8 13 6 15
REMARK Flexibility Score: inf
ROOT
ATOM      1  C   UNL     1      -3.636   3.926  21.606  1.00  0.00     0.176 C 
ENDROOT
BRANCH   1   2
ATOM      2  C   UNL     1      -3.627   2.987  20.367  1.00  0.00     0.171 C 
BRANCH   2   3
ATOM      3  C   UNL     1      -3.360   3.783  19.076  1.00  0.00     0.190 C 
BRANCH   3   4
ATOM      4  O   UNL     1      -4.512   4.476  18.675  1.00  0.00    -0.394 OA
ATOM      5  H   UNL     1      -4.570   4.381  17.688  1.00  0.00     0.210 HD
ENDBRANCH   3   4
ENDBRANCH   2   3
BRANCH   2   6
ATOM      6  O   UNL     1      -2.624   2.015  20.514  1.00  0.00    -0.388 OA
ATOM      7  H   UNL     1      -2.110   2.248  21.331  1.00  0.00     0.211 HD
ENDBRANCH   2   6
ENDBRANCH   1   2
BRANCH   1   8
ATOM      8  C   UNL     1      -4.917   3.836  22.489  1.00  0.00     0.171 C 
BRANCH   8   9
ATOM      9  C   UNL     1      -5.980   4.922  22.212  1.00  0.00     0.190 C 
BRANCH   9  10
ATOM     10  O   UNL     1      -6.407   4.877  20.876  1.00  0.00    -0.394 OA
ATOM     11  H   UNL     1      -6.008   5.663  20.419  1.00  0.00     0.210 HD
ENDBRANCH   9  10
ENDBRANCH   8   9
BRANCH   8  12
ATOM     12  O   UNL     1      -4.593   3.784  23.857  1.00  0.00    -0.388 OA
ATOM     13  H   UNL     1      -3.830   3.160  23.967  1.00  0.00     0.211 HD
ENDBRANCH   8  12
ENDBRANCH   1   8
BRANCH   1  14
ATOM     14  O   UNL     1      -3.443   5.262  21.208  1.00  0.00    -0.388 OA
ATOM     15  H   UNL     1      -4.315   5.729  21.290  1.00  0.00     0.211 HD
ENDBRANCH   1  14
TORSDOF 9
ENDMDL
MODEL 9
REMARK VINA RESULT:    -3.230     13.139     14.366
REMARK INTER + INTRA:          -5.084
REMARK INTER:                  -4.386
REMARK INTRA:                  -0.698
REMARK UNBOUND:                -0.626
REMARK SMILES OC[C@@H](O)[C@@H](O)[C@@H](O)CO
REMARK SMILES IDX 5 1 3 2 2 3 1 4 4 6 7 8 9 9 10 10 8 12 6 14
REMARK H PARENT 1 5 4 7 10 11 8 13 6 15
REMARK Flexibility Score: inf
ROOT
ATOM      1  C   UNL     1       3.996  -5.516  17.971  1.00  0.00     0.176 C 
ENDROOT
BRANCH   1   2
ATOM      2  C   UNL     1       3.779  -6.450  19.196  1.00  0.00     0.171 C 
BRANCH   2   3
ATOM      3  C   UNL     1       3.239  -5.658  20.402  1.00  0.00     0.190 C 
BRANCH   3   4
ATOM      4  O   UNL     1       4.202  -4.752  20.869  1.00  0.00    -0.394 OA
ATOM      5  H   UNL     1       4.978  -5.293  21.171  1.00  0.00     0.210 HD
ENDBRANCH   3   4
ENDBRANCH   2   3
BRANCH   2   6
ATOM      6  O   UNL     1       2.858  -7.457  18.868  1.00  0.00    -0.388 OA
ATOM      7  H   UNL     1       3.069  -8.242  19.438  1.00  0.00     0.211 HD
ENDBRANCH   2   6
ENDBRANCH   1   2
BRANCH   1   8
ATOM      8  C   UNL     1       5.451  -4.985  17.801  1.00  0.00     0.171 C 
BRANCH   8   9
ATOM      9  C   UNL     1       6.545  -5.846  18.469  1.00  0.00     0.190 C 
BRANCH   9  10
ATOM     10  O   UNL     1       6.901  -5.324  19.721  1.00  0.00    -0.394 OA
ATOM     11  H   UNL     1       6.272  -5.711  20.384  1.00  0.00     0.210 HD
ENDBRANCH   9  10
ENDBRANCH   8   9
BRANCH   8  12
ATOM     12  O   UNL     1       5.555  -3.639  18.200  1.00  0.00    -0.388 OA
ATOM     13  H   UNL     1       5.419  -3.072  17.397  1.00  0.00     0.211 HD
ENDBRANCH   8  12
ENDBRANCH   1   8
BRANCH   1  14
ATOM     14  O   UNL     1       3.110  -4.425  18.026  1.00  0.00    -0.388 OA
ATOM     15  H   UNL     1       2.309  -4.712  18.537  1.00  0.00     0.211 HD
ENDBRANCH   1  14
TORSDOF 9
ENDMDL
