MODEL 1
REMARK VINA RESULT:   140.328      0.000      0.000
REMARK INTER + INTRA:         154.825
REMARK INTER:                 152.633
REMARK INTRA:                   2.192
REMARK UNBOUND:                 2.192
REMARK SMILES CC1(C)CC[C@]2(C(=O)[O-])CC[C@@]3(C)C(=CC[C@@H]4[C@@]5(C)CC[C@@H](O)C(C)(C)[C@H]5CC[C@@]43C)[C@H]2C1
REMARK SMILES IDX 6 1 5 2 10 3 32 4 4 5 11 6 14 7 33 8 2 9 12 10 15 11 1 12
REMARK SMILES IDX 3 13 13 14 30 15 16 16 17 17 29 18 31 19 18 20 28 21 27 22
REMARK SMILES IDX 20 23 19 24 24 25 21 26 22 27 25 28 26 29 7 30 8 31 9 32
REMARK SMILES IDX 23 33
REMARK H PARENT 23 34
REMARK Flexibility Score: inf
ROOT
ATOM      1  C   UNL     1      -5.017   6.471   1.926  1.00  0.00     0.017 C 
ATOM      2  C   UNL     1      -4.320   7.814   2.358  1.00  0.00     0.014 C 
ATOM      3  C   UNL     1      -5.335   5.598   3.175  1.00  0.00     0.014 C 
ATOM      4  C   UNL     1      -4.010   5.649   1.072  1.00  0.00     0.028 C 
ATOM      5  C   UNL     1      -3.104   8.239   1.490  1.00  0.00     0.007 C 
ATOM      6  C   UNL     1      -5.869   4.156   2.890  1.00  0.00     0.013 C 
ATOM      7  C   UNL     1      -4.271   4.133   0.973  1.00  0.00    -0.064 C 
ATOM      8  C   UNL     1      -3.605   6.353  -0.243  1.00  0.00     0.015 C 
ATOM      9  C   UNL     1      -3.193   7.860  -0.023  1.00  0.00    -0.035 C 
ATOM     10  C   UNL     1      -5.588   3.513   1.467  1.00  0.00    -0.006 C 
ATOM     11  C   UNL     1      -3.162   3.391   0.827  1.00  0.00    -0.027 C 
ATOM     12  C   UNL     1      -1.799   8.089  -0.652  1.00  0.00     0.011 C 
ATOM     13  C   UNL     1      -4.178   8.820  -0.732  1.00  0.00     0.011 C 
ATOM     14  C   UNL     1      -6.744   3.932   0.495  1.00  0.00     0.017 C 
ATOM     15  C   UNL     1      -5.552   1.880   1.542  1.00  0.00    -0.020 C 
ATOM     16  C   UNL     1      -3.012   1.976   1.250  1.00  0.00     0.032 C 
ATOM     17  C   UNL     1      -4.168   1.371   2.115  1.00  0.00     0.006 C 
ATOM     18  C   UNL     1      -5.683   1.197   0.139  1.00  0.00     0.008 C 
ATOM     19  C   UNL     1      -6.777   1.451   2.423  1.00  0.00     0.012 C 
ATOM     20  C   UNL     1      -3.954  -0.224   2.227  1.00  0.00    -0.025 C 
ATOM     21  C   UNL     1      -5.555  -0.339   0.164  1.00  0.00     0.005 C 
ATOM     22  C   UNL     1      -4.280  -0.932   0.842  1.00  0.00     0.003 C 
ATOM     23  C   UNL     1      -4.794  -0.866   3.379  1.00  0.00     0.010 C 
ATOM     24  C   UNL     1      -2.451  -0.445   2.629  1.00  0.00     0.012 C 
ATOM     25  C   UNL     1      -4.321  -2.530   0.893  1.00  0.00    -0.006 C 
ATOM     26  C   UNL     1      -4.726  -2.401   3.443  1.00  0.00     0.033 C 
ATOM     27  C   UNL     1      -5.142  -3.055   2.117  1.00  0.00     0.120 C 
ATOM     28  C   UNL     1      -2.881  -3.125   0.936  1.00  0.00     0.014 C 
ATOM     29  C   UNL     1      -4.944  -3.124  -0.407  1.00  0.00     0.014 C 
ENDROOT
BRANCH   1  30
ATOM     30  C   UNL     1      -6.323   6.871   1.246  1.00  0.00     0.048 C 
ATOM     31  O   UNL     1      -6.431   7.931   0.572  1.00  0.00    -0.550 OA
ATOM     32  O   UNL     1      -7.453   6.077   1.411  1.00  0.00    -0.550 OA
ENDBRANCH   1  30
BRANCH  27  33
ATOM     33  O   UNL     1      -6.520  -2.844   1.922  1.00  0.00    -0.393 OA
ATOM     34  H   UNL     1      -6.648  -2.533   0.987  1.00  0.00     0.210 HD
ENDBRANCH  27  33
TORSDOF 2
ENDMDL
