MODEL 1
REMARK VINA RESULT:    -7.265      0.000      0.000
REMARK INTER + INTRA:          -9.356
REMARK INTER:                  -8.963
REMARK INTRA:                  -0.393
REMARK UNBOUND:                -0.393
REMARK SMILES COc1cc(-c2oc3cc(O)cc(O)c3c(=O)c2O)ccc1O
REMARK SMILES IDX 6 1 18 2 16 3 17 4 15 5 13 6 12 7 10 8 9 9 8 10 7 11 5 12
REMARK SMILES IDX 3 13 22 14 4 15 21 16 20 17 2 18 1 19 23 20 19 22 14 24
REMARK SMILES IDX 11 26
REMARK H PARENT 23 21 19 23 14 25 11 27
REMARK Flexibility Score: inf
ROOT
ATOM      1  C   UNL     1       3.269 -11.725 -40.137  1.00  0.00     0.180 A 
ATOM      2  C   UNL     1       2.984 -11.415 -41.482  1.00  0.00     0.208 A 
ATOM      3  C   UNL     1       4.037 -11.395 -42.410  1.00  0.00     0.238 A 
ATOM      4  O   UNL     1       3.794 -11.129 -43.618  1.00  0.00    -0.285 OA
ATOM      5  C   UNL     1       5.352 -11.663 -41.978  1.00  0.00     0.111 A 
ATOM      6  C   UNL     1       6.469 -11.657 -42.849  1.00  0.00     0.134 A 
ATOM      7  C   UNL     1       7.749 -11.926 -42.340  1.00  0.00     0.093 A 
ATOM      8  C   UNL     1       7.932 -12.196 -40.979  1.00  0.00     0.123 A 
ATOM      9  C   UNL     1       6.835 -12.203 -40.118  1.00  0.00     0.094 A 
ATOM     10  C   UNL     1       5.551 -11.940 -40.605  1.00  0.00     0.146 A 
ATOM     11  O   UNL     1       4.524 -11.958 -39.764  1.00  0.00    -0.452 OA
ENDROOT
BRANCH   1  12
ATOM     12  C   UNL     1       2.211 -11.785 -39.103  1.00  0.00     0.025 A 
ATOM     13  C   UNL     1       0.559 -13.093 -37.861  1.00  0.00     0.161 A 
ATOM     14  C   UNL     1       0.154 -11.932 -37.190  1.00  0.00     0.157 A 
ATOM     15  C   UNL     1       1.586 -13.012 -38.824  1.00  0.00     0.062 A 
ATOM     16  C   UNL     1       0.761 -10.704 -37.480  1.00  0.00     0.051 A 
ATOM     17  C   UNL     1       1.777 -10.629 -38.434  1.00  0.00     0.016 A 
BRANCH  13  18
ATOM     18  O   UNL     1      -0.078 -14.304 -37.549  1.00  0.00    -0.493 OA
ATOM     19  C   UNL     1      -0.917 -15.028 -38.443  1.00  0.00     0.278 C 
ENDBRANCH  13  18
BRANCH  14  20
ATOM     20  O   UNL     1      -0.859 -12.007 -36.235  1.00  0.00    -0.504 OA
ATOM     21  H   UNL     1      -1.795 -12.312 -36.477  1.00  0.00     0.293 HD
ENDBRANCH  14  20
ENDBRANCH   1  12
BRANCH   2  22
ATOM     22  O   UNL     1       1.680 -11.105 -41.874  1.00  0.00    -0.502 OA
ATOM     23  H   UNL     1       0.868 -11.518 -41.430  1.00  0.00     0.293 HD
ENDBRANCH   2  22
BRANCH   6  24
ATOM     24  O   UNL     1       6.318 -11.390 -44.209  1.00  0.00    -0.507 OA
ATOM     25  H   UNL     1       5.713 -11.951 -44.799  1.00  0.00     0.293 HD
ENDBRANCH   6  24
BRANCH   8  26
ATOM     26  O   UNL     1       9.204 -12.461 -40.473  1.00  0.00    -0.508 OA
ATOM     27  H   UNL     1      10.005 -12.569 -41.084  1.00  0.00     0.293 HD
ENDBRANCH   8  26
TORSDOF 6
ENDMDL
MODEL 2
REMARK VINA RESULT:    -7.074      1.628      3.453
REMARK INTER + INTRA:          -9.121
REMARK INTER:                  -8.792
REMARK INTRA:                  -0.329
REMARK UNBOUND:                -0.393
REMARK SMILES COc1cc(-c2oc3cc(O)cc(O)c3c(=O)c2O)ccc1O
REMARK SMILES IDX 6 1 18 2 16 3 17 4 15 5 13 6 12 7 10 8 9 9 8 10 7 11 5 12
REMARK SMILES IDX 3 13 22 14 4 15 21 16 20 17 2 18 1 19 23 20 19 22 14 24
REMARK SMILES IDX 11 26
REMARK H PARENT 23 21 19 23 14 25 11 27
REMARK Flexibility Score: inf
ROOT
ATOM      1  C   UNL     1       2.790 -11.397 -40.749  1.00  0.00     0.180 A 
ATOM      2  C   UNL     1       4.117 -11.863 -40.834  1.00  0.00     0.208 A 
ATOM      3  C   UNL     1       4.828 -11.670 -42.029  1.00  0.00     0.238 A 
ATOM      4  O   UNL     1       6.020 -12.073 -42.113  1.00  0.00    -0.285 OA
ATOM      5  C   UNL     1       4.199 -11.037 -43.120  1.00  0.00     0.111 A 
ATOM      6  C   UNL     1       4.844 -10.808 -44.359  1.00  0.00     0.134 A 
ATOM      7  C   UNL     1       4.147 -10.177 -45.401  1.00  0.00     0.093 A 
ATOM      8  C   UNL     1       2.817  -9.775 -45.227  1.00  0.00     0.123 A 
ATOM      9  C   UNL     1       2.178  -9.998 -44.007  1.00  0.00     0.094 A 
ATOM     10  C   UNL     1       2.857 -10.622 -42.955  1.00  0.00     0.146 A 
ATOM     11  O   UNL     1       2.225 -10.818 -41.804  1.00  0.00    -0.452 OA
ENDROOT
BRANCH   1  12
ATOM     12  C   UNL     1       1.981 -11.547 -39.519  1.00  0.00     0.025 A 
ATOM     13  C   UNL     1       0.652 -12.971 -38.039  1.00  0.00     0.161 A 
ATOM     14  C   UNL     1       0.388 -11.864 -37.222  1.00  0.00     0.157 A 
ATOM     15  C   UNL     1       1.445 -12.804 -39.192  1.00  0.00     0.062 A 
ATOM     16  C   UNL     1       0.905 -10.605 -37.554  1.00  0.00     0.051 A 
ATOM     17  C   UNL     1       1.690 -10.446 -38.697  1.00  0.00     0.016 A 
BRANCH  13  18
ATOM     18  O   UNL     1       0.110 -14.214 -37.677  1.00  0.00    -0.493 OA
ATOM     19  C   UNL     1      -1.056 -14.786 -38.260  1.00  0.00     0.278 C 
ENDBRANCH  13  18
BRANCH  14  20
ATOM     20  O   UNL     1      -0.393 -12.022 -36.078  1.00  0.00    -0.504 OA
ATOM     21  H   UNL     1      -0.080 -12.583 -35.295  1.00  0.00     0.293 HD
ENDBRANCH  14  20
ENDBRANCH   1  12
BRANCH   2  22
ATOM     22  O   UNL     1       4.700 -12.532 -39.756  1.00  0.00    -0.502 OA
ATOM     23  H   UNL     1       5.448 -13.205 -39.875  1.00  0.00     0.293 HD
ENDBRANCH   2  22
BRANCH   6  24
ATOM     24  O   UNL     1       6.167 -11.199 -44.563  1.00  0.00    -0.507 OA
ATOM     25  H   UNL     1       6.495 -12.126 -44.316  1.00  0.00     0.293 HD
ENDBRANCH   6  24
BRANCH   8  26
ATOM     26  O   UNL     1       2.124  -9.150 -46.262  1.00  0.00    -0.508 OA
ATOM     27  H   UNL     1       1.163  -9.390 -46.476  1.00  0.00     0.293 HD
ENDBRANCH   8  26
TORSDOF 6
ENDMDL
MODEL 3
REMARK VINA RESULT:    -7.065      0.798      2.065
REMARK INTER + INTRA:          -9.110
REMARK INTER:                  -8.712
REMARK INTRA:                  -0.398
REMARK UNBOUND:                -0.393
REMARK SMILES COc1cc(-c2oc3cc(O)cc(O)c3c(=O)c2O)ccc1O
REMARK SMILES IDX 6 1 18 2 16 3 17 4 15 5 13 6 12 7 10 8 9 9 8 10 7 11 5 12
REMARK SMILES IDX 3 13 22 14 4 15 21 16 20 17 2 18 1 19 23 20 19 22 14 24
REMARK SMILES IDX 11 26
REMARK H PARENT 23 21 19 23 14 25 11 27
REMARK Flexibility Score: inf
ROOT
ATOM      1  C   UNL     1       3.303 -11.752 -40.289  1.00  0.00     0.180 A 
ATOM      2  C   UNL     1       3.023 -11.365 -41.614  1.00  0.00     0.208 A 
ATOM      3  C   UNL     1       4.075 -11.311 -42.541  1.00  0.00     0.238 A 
ATOM      4  O   UNL     1       3.835 -10.977 -43.733  1.00  0.00    -0.285 OA
ATOM      5  C   UNL     1       5.386 -11.624 -42.127  1.00  0.00     0.111 A 
ATOM      6  C   UNL     1       6.502 -11.590 -42.998  1.00  0.00     0.134 A 
ATOM      7  C   UNL     1       7.777 -11.906 -42.506  1.00  0.00     0.093 A 
ATOM      8  C   UNL     1       7.957 -12.252 -41.162  1.00  0.00     0.123 A 
ATOM      9  C   UNL     1       6.860 -12.288 -40.300  1.00  0.00     0.094 A 
ATOM     10  C   UNL     1       5.580 -11.978 -40.772  1.00  0.00     0.146 A 
ATOM     11  O   UNL     1       4.554 -12.024 -39.931  1.00  0.00    -0.452 OA
ENDROOT
BRANCH   1  12
ATOM     12  C   UNL     1       2.245 -11.850 -39.258  1.00  0.00     0.025 A 
ATOM     13  C   UNL     1       0.991 -10.816 -37.430  1.00  0.00     0.161 A 
ATOM     14  C   UNL     1       0.285 -12.012 -37.247  1.00  0.00     0.157 A 
ATOM     15  C   UNL     1       1.977 -10.743 -38.435  1.00  0.00     0.062 A 
ATOM     16  C   UNL     1       0.562 -13.123 -38.052  1.00  0.00     0.051 A 
ATOM     17  C   UNL     1       1.539 -13.046 -39.046  1.00  0.00     0.016 A 
BRANCH  13  18
ATOM     18  O   UNL     1       0.689  -9.726 -36.598  1.00  0.00    -0.493 OA
ATOM     19  C   UNL     1       1.491  -8.555 -36.481  1.00  0.00     0.278 C 
ENDBRANCH  13  18
BRANCH  14  20
ATOM     20  O   UNL     1      -0.693 -12.089 -36.256  1.00  0.00    -0.504 OA
ATOM     21  H   UNL     1      -0.621 -12.747 -35.489  1.00  0.00     0.293 HD
ENDBRANCH  14  20
ENDBRANCH   1  12
BRANCH   2  22
ATOM     22  O   UNL     1       1.723 -11.013 -41.987  1.00  0.00    -0.502 OA
ATOM     23  H   UNL     1       0.957 -10.988 -41.325  1.00  0.00     0.293 HD
ENDBRANCH   2  22
BRANCH   6  24
ATOM     24  O   UNL     1       6.354 -11.247 -44.342  1.00  0.00    -0.507 OA
ATOM     25  H   UNL     1       6.999 -11.578 -45.051  1.00  0.00     0.293 HD
ENDBRANCH   6  24
BRANCH   8  26
ATOM     26  O   UNL     1       9.225 -12.565 -40.673  1.00  0.00    -0.508 OA
ATOM     27  H   UNL     1      10.040 -12.021 -40.929  1.00  0.00     0.293 HD
ENDBRANCH   8  26
TORSDOF 6
ENDMDL
MODEL 4
REMARK VINA RESULT:    -6.948      3.708      7.088
REMARK INTER + INTRA:          -8.966
REMARK INTER:                  -8.596
REMARK INTRA:                  -0.370
REMARK UNBOUND:                -0.393
REMARK SMILES COc1cc(-c2oc3cc(O)cc(O)c3c(=O)c2O)ccc1O
REMARK SMILES IDX 6 1 18 2 16 3 17 4 15 5 13 6 12 7 10 8 9 9 8 10 7 11 5 12
REMARK SMILES IDX 3 13 22 14 4 15 21 16 20 17 2 18 1 19 23 20 19 22 14 24
REMARK SMILES IDX 11 26
REMARK H PARENT 23 21 19 23 14 25 11 27
REMARK Flexibility Score: inf
ROOT
ATOM      1  C   UNL     1       2.091  -9.329 -40.921  1.00  0.00     0.180 A 
ATOM      2  C   UNL     1       2.785 -10.433 -41.454  1.00  0.00     0.208 A 
ATOM      3  C   UNL     1       2.651 -11.683 -40.831  1.00  0.00     0.238 A 
ATOM      4  O   UNL     1       3.258 -12.681 -41.306  1.00  0.00    -0.285 OA
ATOM      5  C   UNL     1       1.847 -11.805 -39.679  1.00  0.00     0.111 A 
ATOM      6  C   UNL     1       1.663 -13.029 -38.989  1.00  0.00     0.134 A 
ATOM      7  C   UNL     1       0.853 -13.066 -37.845  1.00  0.00     0.093 A 
ATOM      8  C   UNL     1       0.227 -11.906 -37.376  1.00  0.00     0.123 A 
ATOM      9  C   UNL     1       0.405 -10.698 -38.053  1.00  0.00     0.094 A 
ATOM     10  C   UNL     1       1.206 -10.640 -39.198  1.00  0.00     0.146 A 
ATOM     11  O   UNL     1       1.354  -9.479 -39.824  1.00  0.00    -0.452 OA
ENDROOT
BRANCH   1  12
ATOM     12  C   UNL     1       2.167  -7.983 -41.532  1.00  0.00     0.025 A 
ATOM     13  C   UNL     1       3.349  -5.856 -41.789  1.00  0.00     0.161 A 
ATOM     14  C   UNL     1       2.322  -5.395 -42.622  1.00  0.00     0.157 A 
ATOM     15  C   UNL     1       3.262  -7.151 -41.240  1.00  0.00     0.062 A 
ATOM     16  C   UNL     1       1.220  -6.212 -42.901  1.00  0.00     0.051 A 
ATOM     17  C   UNL     1       1.139  -7.494 -42.354  1.00  0.00     0.016 A 
BRANCH  13  18
ATOM     18  O   UNL     1       4.433  -5.005 -41.528  1.00  0.00    -0.493 OA
ATOM     19  C   UNL     1       5.801  -5.393 -41.610  1.00  0.00     0.278 C 
ENDBRANCH  13  18
BRANCH  14  20
ATOM     20  O   UNL     1       2.403  -4.115 -43.171  1.00  0.00    -0.504 OA
ATOM     21  H   UNL     1       3.289  -3.634 -43.268  1.00  0.00     0.293 HD
ENDBRANCH  14  20
ENDBRANCH   1  12
BRANCH   2  22
ATOM     22  O   UNL     1       3.614 -10.275 -42.567  1.00  0.00    -0.502 OA
ATOM     23  H   UNL     1       4.405  -9.640 -42.569  1.00  0.00     0.293 HD
ENDBRANCH   2  22
BRANCH   6  24
ATOM     24  O   UNL     1       2.275 -14.201 -39.432  1.00  0.00    -0.507 OA
ATOM     25  H   UNL     1       2.441 -14.984 -38.810  1.00  0.00     0.293 HD
ENDBRANCH   6  24
BRANCH   8  26
ATOM     26  O   UNL     1      -0.576 -11.942 -36.238  1.00  0.00    -0.508 OA
ATOM     27  H   UNL     1      -0.179 -11.893 -35.307  1.00  0.00     0.293 HD
ENDBRANCH   8  26
TORSDOF 6
ENDMDL
MODEL 5
REMARK VINA RESULT:    -6.912      4.210      6.039
REMARK INTER + INTRA:          -8.921
REMARK INTER:                  -8.611
REMARK INTRA:                  -0.311
REMARK UNBOUND:                -0.393
REMARK SMILES COc1cc(-c2oc3cc(O)cc(O)c3c(=O)c2O)ccc1O
REMARK SMILES IDX 6 1 18 2 16 3 17 4 15 5 13 6 12 7 10 8 9 9 8 10 7 11 5 12
REMARK SMILES IDX 3 13 22 14 4 15 21 16 20 17 2 18 1 19 23 20 19 22 14 24
REMARK SMILES IDX 11 26
REMARK H PARENT 23 21 19 23 14 25 11 27
REMARK Flexibility Score: inf
ROOT
ATOM      1  C   UNL     1       1.508  -8.717 -39.716  1.00  0.00     0.180 A 
ATOM      2  C   UNL     1       2.780  -8.116 -39.777  1.00  0.00     0.208 A 
ATOM      3  C   UNL     1       2.954  -6.976 -40.578  1.00  0.00     0.238 A 
ATOM      4  O   UNL     1       4.085  -6.422 -40.631  1.00  0.00    -0.285 OA
ATOM      5  C   UNL     1       1.865  -6.471 -41.317  1.00  0.00     0.111 A 
ATOM      6  C   UNL     1       1.958  -5.331 -42.151  1.00  0.00     0.134 A 
ATOM      7  C   UNL     1       0.829  -4.895 -42.862  1.00  0.00     0.093 A 
ATOM      8  C   UNL     1      -0.387  -5.580 -42.757  1.00  0.00     0.123 A 
ATOM      9  C   UNL     1      -0.484  -6.704 -41.936  1.00  0.00     0.094 A 
ATOM     10  C   UNL     1       0.629  -7.152 -41.217  1.00  0.00     0.146 A 
ATOM     11  O   UNL     1       0.508  -8.222 -40.440  1.00  0.00    -0.452 OA
ENDROOT
BRANCH   1  12
ATOM     12  C   UNL     1       1.241  -9.910 -38.881  1.00  0.00     0.025 A 
ATOM     13  C   UNL     1       0.829 -12.316 -38.725  1.00  0.00     0.161 A 
ATOM     14  C   UNL     1       0.673 -12.192 -37.338  1.00  0.00     0.157 A 
ATOM     15  C   UNL     1       1.106 -11.167 -39.493  1.00  0.00     0.062 A 
ATOM     16  C   UNL     1       0.787 -10.938 -36.726  1.00  0.00     0.051 A 
ATOM     17  C   UNL     1       1.062  -9.803 -37.492  1.00  0.00     0.016 A 
BRANCH  13  18
ATOM     18  O   UNL     1       0.701 -13.589 -39.302  1.00  0.00    -0.493 OA
ATOM     19  C   UNL     1      -0.539 -14.187 -39.667  1.00  0.00     0.278 C 
ENDBRANCH  13  18
BRANCH  14  20
ATOM     20  O   UNL     1       0.401 -13.325 -36.572  1.00  0.00    -0.504 OA
ATOM     21  H   UNL     1       0.301 -13.273 -35.565  1.00  0.00     0.293 HD
ENDBRANCH  14  20
ENDBRANCH   1  12
BRANCH   2  22
ATOM     22  O   UNL     1       3.854  -8.665 -39.073  1.00  0.00    -0.502 OA
ATOM     23  H   UNL     1       4.506  -8.095 -38.545  1.00  0.00     0.293 HD
ENDBRANCH   2  22
BRANCH   6  24
ATOM     24  O   UNL     1       3.156  -4.629 -42.277  1.00  0.00    -0.507 OA
ATOM     25  H   UNL     1       3.875  -4.914 -42.932  1.00  0.00     0.293 HD
ENDBRANCH   6  24
BRANCH   8  26
ATOM     26  O   UNL     1      -1.508  -5.149 -43.464  1.00  0.00    -0.508 OA
ATOM     27  H   UNL     1      -1.462  -4.941 -44.455  1.00  0.00     0.293 HD
ENDBRANCH   8  26
TORSDOF 6
ENDMDL
MODEL 6
REMARK VINA RESULT:    -6.906      5.166      6.815
REMARK INTER + INTRA:          -8.914
REMARK INTER:                  -8.518
REMARK INTRA:                  -0.396
REMARK UNBOUND:                -0.393
REMARK SMILES COc1cc(-c2oc3cc(O)cc(O)c3c(=O)c2O)ccc1O
REMARK SMILES IDX 6 1 18 2 16 3 17 4 15 5 13 6 12 7 10 8 9 9 8 10 7 11 5 12
REMARK SMILES IDX 3 13 22 14 4 15 21 16 20 17 2 18 1 19 23 20 19 22 14 24
REMARK SMILES IDX 11 26
REMARK H PARENT 23 21 19 23 14 25 11 27
REMARK Flexibility Score: inf
ROOT
ATOM      1  C   UNL     1       7.015  -8.456 -40.922  1.00  0.00     0.180 A 
ATOM      2  C   UNL     1       6.280  -7.481 -41.624  1.00  0.00     0.208 A 
ATOM      3  C   UNL     1       6.456  -6.129 -41.292  1.00  0.00     0.238 A 
ATOM      4  O   UNL     1       5.812  -5.246 -41.921  1.00  0.00    -0.285 OA
ATOM      5  C   UNL     1       7.343  -5.776 -40.254  1.00  0.00     0.111 A 
ATOM      6  C   UNL     1       7.574  -4.438 -39.855  1.00  0.00     0.134 A 
ATOM      7  C   UNL     1       8.467  -4.169 -38.807  1.00  0.00     0.093 A 
ATOM      8  C   UNL     1       9.130  -5.212 -38.150  1.00  0.00     0.123 A 
ATOM      9  C   UNL     1       8.907  -6.533 -38.541  1.00  0.00     0.094 A 
ATOM     10  C   UNL     1       8.022  -6.822 -39.585  1.00  0.00     0.146 A 
ATOM     11  O   UNL     1       7.832  -8.087 -39.939  1.00  0.00    -0.452 OA
ENDROOT
BRANCH   1  12
ATOM     12  C   UNL     1       6.898  -9.900 -41.227  1.00  0.00     0.025 A 
ATOM     13  C   UNL     1       5.784 -12.044 -40.845  1.00  0.00     0.161 A 
ATOM     14  C   UNL     1       6.679 -12.659 -41.730  1.00  0.00     0.157 A 
ATOM     15  C   UNL     1       5.903 -10.663 -40.592  1.00  0.00     0.062 A 
ATOM     16  C   UNL     1       7.684 -11.907 -42.350  1.00  0.00     0.051 A 
ATOM     17  C   UNL     1       7.798 -10.539 -42.095  1.00  0.00     0.016 A 
BRANCH  13  18
ATOM     18  O   UNL     1       4.795 -12.833 -40.238  1.00  0.00    -0.493 OA
ATOM     19  C   UNL     1       3.425 -12.851 -40.629  1.00  0.00     0.278 C 
ENDBRANCH  13  18
BRANCH  14  20
ATOM     20  O   UNL     1       6.565 -14.024 -41.987  1.00  0.00    -0.504 OA
ATOM     21  H   UNL     1       5.741 -14.548 -41.717  1.00  0.00     0.293 HD
ENDBRANCH  14  20
ENDBRANCH   1  12
BRANCH   2  22
ATOM     22  O   UNL     1       5.371  -7.861 -42.614  1.00  0.00    -0.502 OA
ATOM     23  H   UNL     1       5.653  -8.369 -43.444  1.00  0.00     0.293 HD
ENDBRANCH   2  22
BRANCH   6  24
ATOM     24  O   UNL     1       6.927  -3.377 -40.489  1.00  0.00    -0.507 OA
ATOM     25  H   UNL     1       5.982  -3.465 -40.845  1.00  0.00     0.293 HD
ENDBRANCH   6  24
BRANCH   8  26
ATOM     26  O   UNL     1      10.016  -4.946 -37.108  1.00  0.00    -0.508 OA
ATOM     27  H   UNL     1       9.761  -5.106 -36.141  1.00  0.00     0.293 HD
ENDBRANCH   8  26
TORSDOF 6
ENDMDL
MODEL 7
REMARK VINA RESULT:    -6.845      6.451      8.314
REMARK INTER + INTRA:          -8.839
REMARK INTER:                  -8.497
REMARK INTRA:                  -0.342
REMARK UNBOUND:                -0.393
REMARK SMILES COc1cc(-c2oc3cc(O)cc(O)c3c(=O)c2O)ccc1O
REMARK SMILES IDX 6 1 18 2 16 3 17 4 15 5 13 6 12 7 10 8 9 9 8 10 7 11 5 12
REMARK SMILES IDX 3 13 22 14 4 15 21 16 20 17 2 18 1 19 23 20 19 22 14 24
REMARK SMILES IDX 11 26
REMARK H PARENT 23 21 19 23 14 25 11 27
REMARK Flexibility Score: inf
ROOT
ATOM      1  C   UNL     1       6.019  -6.526 -41.615  1.00  0.00     0.180 A 
ATOM      2  C   UNL     1       4.740  -6.017 -41.912  1.00  0.00     0.208 A 
ATOM      3  C   UNL     1       4.021  -6.573 -42.981  1.00  0.00     0.238 A 
ATOM      4  O   UNL     1       2.870  -6.133 -43.251  1.00  0.00    -0.285 OA
ATOM      5  C   UNL     1       4.596  -7.609 -43.745  1.00  0.00     0.111 A 
ATOM      6  C   UNL     1       3.940  -8.220 -44.841  1.00  0.00     0.134 A 
ATOM      7  C   UNL     1       4.584  -9.241 -45.556  1.00  0.00     0.093 A 
ATOM      8  C   UNL     1       5.871  -9.659 -45.199  1.00  0.00     0.123 A 
ATOM      9  C   UNL     1       6.522  -9.060 -44.119  1.00  0.00     0.094 A 
ATOM     10  C   UNL     1       5.895  -8.043 -43.391  1.00  0.00     0.146 A 
ATOM     11  O   UNL     1       6.536  -7.494 -42.366  1.00  0.00    -0.452 OA
ENDROOT
BRANCH   1  12
ATOM     12  C   UNL     1       6.831  -6.005 -40.492  1.00  0.00     0.025 A 
ATOM     13  C   UNL     1       8.298  -4.268 -39.589  1.00  0.00     0.161 A 
ATOM     14  C   UNL     1       8.434  -5.007 -38.407  1.00  0.00     0.157 A 
ATOM     15  C   UNL     1       7.499  -4.777 -40.633  1.00  0.00     0.062 A 
ATOM     16  C   UNL     1       7.787  -6.241 -38.270  1.00  0.00     0.051 A 
ATOM     17  C   UNL     1       6.996  -6.741 -39.307  1.00  0.00     0.016 A 
BRANCH  13  18
ATOM     18  O   UNL     1       8.968  -3.039 -39.692  1.00  0.00    -0.493 OA
ATOM     19  C   UNL     1       9.962  -2.742 -40.668  1.00  0.00     0.278 C 
ENDBRANCH  13  18
BRANCH  14  20
ATOM     20  O   UNL     1       9.221  -4.508 -37.370  1.00  0.00    -0.504 OA
ATOM     21  H   UNL     1       9.909  -3.781 -37.528  1.00  0.00     0.293 HD
ENDBRANCH  14  20
ENDBRANCH   1  12
BRANCH   2  22
ATOM     22  O   UNL     1       4.213  -4.957 -41.171  1.00  0.00    -0.502 OA
ATOM     23  H   UNL     1       3.238  -4.918 -40.897  1.00  0.00     0.293 HD
ENDBRANCH   2  22
BRANCH   6  24
ATOM     24  O   UNL     1       2.658  -7.824 -45.222  1.00  0.00    -0.507 OA
ATOM     25  H   UNL     1       2.196  -7.030 -44.794  1.00  0.00     0.293 HD
ENDBRANCH   6  24
BRANCH   8  26
ATOM     26  O   UNL     1       6.512 -10.671 -45.910  1.00  0.00    -0.508 OA
ATOM     27  H   UNL     1       7.521 -10.712 -45.981  1.00  0.00     0.293 HD
ENDBRANCH   8  26
TORSDOF 6
ENDMDL
MODEL 8
REMARK VINA RESULT:    -6.739      5.401      8.226
REMARK INTER + INTRA:          -8.709
REMARK INTER:                  -8.359
REMARK INTRA:                  -0.349
REMARK UNBOUND:                -0.393
REMARK SMILES COc1cc(-c2oc3cc(O)cc(O)c3c(=O)c2O)ccc1O
REMARK SMILES IDX 6 1 18 2 16 3 17 4 15 5 13 6 12 7 10 8 9 9 8 10 7 11 5 12
REMARK SMILES IDX 3 13 22 14 4 15 21 16 20 17 2 18 1 19 23 20 19 22 14 24
REMARK SMILES IDX 11 26
REMARK H PARENT 23 21 19 23 14 25 11 27
REMARK Flexibility Score: inf
ROOT
ATOM      1  C   UNL     1       8.807  -8.538 -40.747  1.00  0.00     0.180 A 
ATOM      2  C   UNL     1      10.206  -8.417 -40.635  1.00  0.00     0.208 A 
ATOM      3  C   UNL     1      10.758  -7.155 -40.367  1.00  0.00     0.238 A 
ATOM      4  O   UNL     1      12.008  -7.036 -40.254  1.00  0.00    -0.285 OA
ATOM      5  C   UNL     1       9.910  -6.037 -40.236  1.00  0.00     0.111 A 
ATOM      6  C   UNL     1      10.387  -4.730 -39.970  1.00  0.00     0.134 A 
ATOM      7  C   UNL     1       9.478  -3.667 -39.861  1.00  0.00     0.093 A 
ATOM      8  C   UNL     1       8.104  -3.885 -40.016  1.00  0.00     0.123 A 
ATOM      9  C   UNL     1       7.629  -5.170 -40.277  1.00  0.00     0.094 A 
ATOM     10  C   UNL     1       8.519  -6.245 -40.387  1.00  0.00     0.146 A 
ATOM     11  O   UNL     1       8.039  -7.458 -40.632  1.00  0.00    -0.452 OA
ENDROOT
BRANCH   1  12
ATOM     12  C   UNL     1       8.148  -9.837 -41.010  1.00  0.00     0.025 A 
ATOM     13  C   UNL     1       6.955 -11.313 -42.554  1.00  0.00     0.161 A 
ATOM     14  C   UNL     1       6.835 -12.268 -41.536  1.00  0.00     0.157 A 
ATOM     15  C   UNL     1       7.608 -10.094 -42.282  1.00  0.00     0.062 A 
ATOM     16  C   UNL     1       7.354 -12.009 -40.262  1.00  0.00     0.051 A 
ATOM     17  C   UNL     1       8.000 -10.800 -39.998  1.00  0.00     0.016 A 
BRANCH  13  18
ATOM     18  O   UNL     1       6.415 -11.607 -43.815  1.00  0.00    -0.493 OA
ATOM     19  C   UNL     1       6.247 -10.656 -44.862  1.00  0.00     0.278 C 
ENDBRANCH  13  18
BRANCH  14  20
ATOM     20  O   UNL     1       6.192 -13.478 -41.799  1.00  0.00    -0.504 OA
ATOM     21  H   UNL     1       6.431 -14.041 -42.607  1.00  0.00     0.293 HD
ENDBRANCH  14  20
ENDBRANCH   1  12
BRANCH   2  22
ATOM     22  O   UNL     1      11.027  -9.532 -40.819  1.00  0.00    -0.502 OA
ATOM     23  H   UNL     1      11.832  -9.518 -41.435  1.00  0.00     0.293 HD
ENDBRANCH   2  22
BRANCH   6  24
ATOM     24  O   UNL     1      11.750  -4.482 -39.812  1.00  0.00    -0.507 OA
ATOM     25  H   UNL     1      12.096  -3.581 -39.502  1.00  0.00     0.293 HD
ENDBRANCH   6  24
BRANCH   8  26
ATOM     26  O   UNL     1       7.201  -2.828 -39.910  1.00  0.00    -0.508 OA
ATOM     27  H   UNL     1       7.510  -1.864 -39.927  1.00  0.00     0.293 HD
ENDBRANCH   8  26
TORSDOF 6
ENDMDL
MODEL 9
REMARK VINA RESULT:    -6.732      4.508      8.680
REMARK INTER + INTRA:          -8.699
REMARK INTER:                  -8.314
REMARK INTRA:                  -0.386
REMARK UNBOUND:                -0.393
REMARK SMILES COc1cc(-c2oc3cc(O)cc(O)c3c(=O)c2O)ccc1O
REMARK SMILES IDX 6 1 18 2 16 3 17 4 15 5 13 6 12 7 10 8 9 9 8 10 7 11 5 12
REMARK SMILES IDX 3 13 22 14 4 15 21 16 20 17 2 18 1 19 23 20 19 22 14 24
REMARK SMILES IDX 11 26
REMARK H PARENT 23 21 19 23 14 25 11 27
REMARK Flexibility Score: inf
ROOT
ATOM      1  C   UNL     1       1.834  -8.166 -43.570  1.00  0.00     0.180 A 
ATOM      2  C   UNL     1       1.638  -6.844 -43.123  1.00  0.00     0.208 A 
ATOM      3  C   UNL     1       0.449  -6.525 -42.449  1.00  0.00     0.238 A 
ATOM      4  O   UNL     1       0.267  -5.348 -42.035  1.00  0.00    -0.285 OA
ATOM      5  C   UNL     1      -0.529  -7.522 -42.251  1.00  0.00     0.111 A 
ATOM      6  C   UNL     1      -1.755  -7.282 -41.586  1.00  0.00     0.134 A 
ATOM      7  C   UNL     1      -2.681  -8.325 -41.436  1.00  0.00     0.093 A 
ATOM      8  C   UNL     1      -2.405  -9.601 -41.941  1.00  0.00     0.123 A 
ATOM      9  C   UNL     1      -1.197  -9.843 -42.597  1.00  0.00     0.094 A 
ATOM     10  C   UNL     1      -0.260  -8.816 -42.754  1.00  0.00     0.146 A 
ATOM     11  O   UNL     1       0.883  -9.075 -43.378  1.00  0.00    -0.452 OA
ENDROOT
BRANCH   1  12
ATOM     12  C   UNL     1       3.068  -8.583 -44.271  1.00  0.00     0.025 A 
ATOM     13  C   UNL     1       5.317  -9.543 -44.176  1.00  0.00     0.161 A 
ATOM     14  C   UNL     1       5.456  -9.336 -45.554  1.00  0.00     0.157 A 
ATOM     15  C   UNL     1       4.121  -9.157 -43.537  1.00  0.00     0.062 A 
ATOM     16  C   UNL     1       4.418  -8.747 -46.286  1.00  0.00     0.051 A 
ATOM     17  C   UNL     1       3.235  -8.367 -45.649  1.00  0.00     0.016 A 
BRANCH  13  18
ATOM     18  O   UNL     1       6.382 -10.129 -43.476  1.00  0.00    -0.493 OA
ATOM     19  C   UNL     1       6.447 -11.504 -43.110  1.00  0.00     0.278 C 
ENDBRANCH  13  18
BRANCH  14  20
ATOM     20  O   UNL     1       6.636  -9.717 -46.192  1.00  0.00    -0.504 OA
ATOM     21  H   UNL     1       7.338 -10.275 -45.720  1.00  0.00     0.293 HD
ENDBRANCH  14  20
ENDBRANCH   1  12
BRANCH   2  22
ATOM     22  O   UNL     1       2.601  -5.864 -43.375  1.00  0.00    -0.502 OA
ATOM     23  H   UNL     1       2.801  -5.118 -42.718  1.00  0.00     0.293 HD
ENDBRANCH   2  22
BRANCH   6  24
ATOM     24  O   UNL     1      -2.060  -6.021 -41.073  1.00  0.00    -0.507 OA
ATOM     25  H   UNL     1      -2.641  -5.905 -40.251  1.00  0.00     0.293 HD
ENDBRANCH   6  24
BRANCH   8  26
ATOM     26  O   UNL     1      -3.325 -10.637 -41.794  1.00  0.00    -0.508 OA
ATOM     27  H   UNL     1      -4.020 -10.628 -41.057  1.00  0.00     0.293 HD
ENDBRANCH   8  26
TORSDOF 6
ENDMDL
