MODEL 1
REMARK VINA RESULT:    -5.327      0.000      0.000
REMARK INTER + INTRA:          -7.029
REMARK INTER:                  -7.508
REMARK INTRA:                   0.479
REMARK UNBOUND:                 0.479
REMARK SMILES CC1=CCC(=C(C)C)C(=O)CC(C)=CCC1
REMARK SMILES IDX 12 1 14 2 13 3 15 4 16 5 2 6 1 7 3 8 11 10 9 11 10 12 5 13
REMARK SMILES IDX 6 14 7 15 8 16 4 17
REMARK H PARENT
REMARK Flexibility Score: 60.00
ROOT
ATOM      1  C   UNL     1      -7.653  34.292  23.143  1.00  0.00    -0.070 C 
ATOM      2  C   UNL     1      -7.709  35.153  24.185  1.00  0.00    -0.027 C 
ATOM      3  C   UNL     1      -7.905  34.835  21.759  1.00  0.00     0.039 C 
ENDROOT
BRANCH   2   4
ATOM      4  C   UNL     1      -7.629  34.758  25.638  1.00  0.00     0.032 C 
BRANCH   4   5
ATOM      5  C   UNL     1      -8.990  34.235  26.110  1.00  0.00     0.034 C 
BRANCH   5   6
ATOM      6  C   UNL     1      -8.896  32.862  26.745  1.00  0.00    -0.077 C 
ATOM      7  C   UNL     1      -8.250  32.736  28.102  1.00  0.00     0.039 C 
ATOM      8  C   UNL     1      -9.425  31.741  26.192  1.00  0.00    -0.023 CG0
ATOM      9  G   UNL     1     -10.065  31.603  24.823  1.00  0.00     0.000 G0
ENDBRANCH   5   6
ENDBRANCH   4   5
ENDBRANCH   2   4
BRANCH   1  10
ATOM     10  C   UNL     1      -7.329  32.819  23.295  1.00  0.00     0.111 C 
BRANCH  10  11
ATOM     11  C   UNL     1      -8.464  31.942  22.823  1.00  0.00     0.163 C 
ATOM     12  O   UNL     1      -8.770  32.007  21.602  1.00  0.00    -0.294 OA
BRANCH  11  13
ATOM     13  C   UNL     1      -9.216  30.997  23.715  1.00  0.00    -0.002 C 
ATOM     14  C   UNL     1      -9.005  29.648  23.635  1.00  0.00    -0.069 C 
ATOM     15  C   UNL     1      -9.561  28.687  24.661  1.00  0.00     0.039 C 
ATOM     16  C   UNL     1      -8.242  29.035  22.482  1.00  0.00     0.039 C 
BRANCH  13  17
ATOM     17  C   UNL     1     -10.076  31.597  24.822  1.00  0.00     0.066 CG0
ATOM     18  G   UNL     1      -9.422  31.738  26.185  1.00  0.00     0.000 G0
ENDBRANCH  13  17
ENDBRANCH  11  13
ENDBRANCH  10  11
ENDBRANCH   1  10
TORSDOF 0
ENDMDL
MODEL 2
REMARK VINA RESULT:    -4.755      1.829      3.877
REMARK INTER + INTRA:          -6.222
REMARK INTER:                  -6.903
REMARK INTRA:                   0.682
REMARK UNBOUND:                 0.479
REMARK SMILES CC1=CCC(=C(C)C)C(=O)CC(C)=CCC1
REMARK SMILES IDX 12 1 14 2 13 3 15 4 16 5 2 6 1 7 3 8 11 10 9 11 10 12 5 13
REMARK SMILES IDX 6 14 7 15 8 16 4 17
REMARK H PARENT
REMARK Flexibility Score: 60.00
ROOT
ATOM      1  C   UNL     1      -7.568  30.667  22.587  1.00  0.00    -0.070 C 
ATOM      2  C   UNL     1      -7.221  31.699  21.783  1.00  0.00    -0.027 C 
ATOM      3  C   UNL     1      -6.466  29.917  23.292  1.00  0.00     0.039 C 
ENDROOT
BRANCH   2   4
ATOM      4  C   UNL     1      -8.173  32.459  20.894  1.00  0.00     0.032 C 
BRANCH   4   5
ATOM      5  C   UNL     1      -9.247  33.143  21.748  1.00  0.00     0.034 C 
BRANCH   5   6
ATOM      6  C   UNL     1      -8.656  33.933  22.898  1.00  0.00    -0.077 C 
ATOM      7  C   UNL     1      -7.685  35.046  22.588  1.00  0.00     0.039 C 
ATOM      8  C   UNL     1      -9.004  33.745  24.196  1.00  0.00    -0.023 CG0
ATOM      9  G   UNL     1      -9.906  32.662  24.761  1.00  0.00     0.000 G0
ENDBRANCH   5   6
ENDBRANCH   4   5
ENDBRANCH   2   4
BRANCH   1  10
ATOM     10  C   UNL     1      -9.002  30.244  22.829  1.00  0.00     0.111 C 
BRANCH  10  11
ATOM     11  C   UNL     1      -9.330  30.180  24.302  1.00  0.00     0.163 C 
ATOM     12  O   UNL     1      -9.655  29.055  24.769  1.00  0.00    -0.294 OA
BRANCH  11  13
ATOM     13  C   UNL     1      -9.269  31.363  25.223  1.00  0.00    -0.002 C 
ATOM     14  C   UNL     1      -8.509  31.321  26.361  1.00  0.00    -0.069 C 
ATOM     15  C   UNL     1      -8.234  32.556  27.188  1.00  0.00     0.039 C 
ATOM     16  C   UNL     1      -7.941  30.021  26.882  1.00  0.00     0.039 C 
BRANCH  13  17
ATOM     17  C   UNL     1      -9.925  32.660  24.761  1.00  0.00     0.066 CG0
ATOM     18  G   UNL     1      -8.999  33.728  24.208  1.00  0.00     0.000 G0
ENDBRANCH  13  17
ENDBRANCH  11  13
ENDBRANCH  10  11
ENDBRANCH   1  10
TORSDOF 0
ENDMDL
MODEL 3
REMARK VINA RESULT:    -4.420      1.359      1.772
REMARK INTER + INTRA:          -5.750
REMARK INTER:                  -7.268
REMARK INTRA:                   1.518
REMARK UNBOUND:                 0.479
REMARK SMILES CC1=CCC(=C(C)C)C(=O)CC(C)=CCC1
REMARK SMILES IDX 12 1 14 2 13 3 15 4 16 5 2 6 1 7 3 8 11 10 9 11 10 12 5 13
REMARK SMILES IDX 6 14 7 15 8 16 4 17
REMARK H PARENT
REMARK Flexibility Score: 60.00
ROOT
ATOM      1  C   UNL     1      -8.004  33.672  21.558  1.00  0.00    -0.070 C 
ATOM      2  C   UNL     1      -7.376  34.605  22.311  1.00  0.00    -0.027 C 
ATOM      3  C   UNL     1      -7.276  33.121  20.358  1.00  0.00     0.039 C 
ENDROOT
BRANCH   2   4
ATOM      4  C   UNL     1      -8.008  35.364  23.450  1.00  0.00     0.032 C 
BRANCH   4   5
ATOM      5  C   UNL     1      -9.201  34.576  24.001  1.00  0.00     0.034 C 
BRANCH   5   6
ATOM      6  C   UNL     1      -8.911  33.958  25.355  1.00  0.00    -0.077 C 
ATOM      7  C   UNL     1      -8.268  34.814  26.417  1.00  0.00     0.039 C 
ATOM      8  C   UNL     1      -9.264  32.692  25.694  1.00  0.00    -0.023 CG0
ATOM      9  G   UNL     1      -9.863  31.629  24.790  1.00  0.00     0.000 G0
ENDBRANCH   5   6
ENDBRANCH   4   5
ENDBRANCH   2   4
BRANCH   1  10
ATOM     10  C   UNL     1      -9.388  33.141  21.872  1.00  0.00     0.111 C 
BRANCH  10  11
ATOM     11  C   UNL     1      -9.359  31.679  22.246  1.00  0.00     0.163 C 
ATOM     12  O   UNL     1      -9.641  30.849  21.340  1.00  0.00    -0.294 OA
BRANCH  11  13
ATOM     13  C   UNL     1      -8.996  31.173  23.612  1.00  0.00    -0.002 C 
ATOM     14  C   UNL     1      -7.838  30.470  23.809  1.00  0.00    -0.069 C 
ATOM     15  C   UNL     1      -7.323  30.146  25.193  1.00  0.00     0.039 C 
ATOM     16  C   UNL     1      -7.034  29.933  22.647  1.00  0.00     0.039 C 
BRANCH  13  17
ATOM     17  C   UNL     1      -9.857  31.620  24.788  1.00  0.00     0.066 CG0
ATOM     18  G   UNL     1      -9.266  32.685  25.693  1.00  0.00     0.000 G0
ENDBRANCH  13  17
ENDBRANCH  11  13
ENDBRANCH  10  11
ENDBRANCH   1  10
TORSDOF 0
ENDMDL
MODEL 4
REMARK VINA RESULT:    -3.563      1.637      2.446
REMARK INTER + INTRA:          -4.542
REMARK INTER:                  -5.938
REMARK INTRA:                   1.396
REMARK UNBOUND:                 0.479
REMARK SMILES CC1=CCC(=C(C)C)C(=O)CC(C)=CCC1
REMARK SMILES IDX 12 1 14 2 13 3 15 4 16 5 2 6 1 7 3 8 11 10 9 11 10 12 5 13
REMARK SMILES IDX 6 14 7 15 8 16 4 17
REMARK H PARENT
REMARK Flexibility Score: 60.00
ROOT
ATOM      1  C   UNL     1      -8.216  34.305  25.088  1.00  0.00    -0.070 C 
ATOM      2  C   UNL     1      -9.079  33.976  26.078  1.00  0.00    -0.027 C 
ATOM      3  C   UNL     1      -7.860  35.760  24.912  1.00  0.00     0.039 C 
ENDROOT
BRANCH   2   4
ATOM      4  C   UNL     1      -9.654  32.600  26.300  1.00  0.00     0.032 C 
BRANCH   4   5
ATOM      5  C   UNL     1      -8.674  31.753  27.119  1.00  0.00     0.034 C 
BRANCH   5   6
ATOM      6  C   UNL     1      -8.868  30.266  26.898  1.00  0.00    -0.077 C 
ATOM      7  C   UNL     1      -9.613  29.471  27.942  1.00  0.00     0.039 C 
ATOM      8  C   UNL     1      -8.471  29.616  25.775  1.00  0.00    -0.023 CG0
ATOM      9  G   UNL     1      -7.661  30.179  24.621  1.00  0.00     0.000 G0
ENDBRANCH   5   6
ENDBRANCH   4   5
ENDBRANCH   2   4
BRANCH   1  10
ATOM     10  C   UNL     1      -7.579  33.286  24.165  1.00  0.00     0.111 C 
BRANCH  10  11
ATOM     11  C   UNL     1      -8.600  32.342  23.578  1.00  0.00     0.163 C 
ATOM     12  O   UNL     1      -9.668  32.850  23.141  1.00  0.00    -0.294 OA
BRANCH  11  13
ATOM     13  C   UNL     1      -8.400  30.858  23.470  1.00  0.00    -0.002 C 
ATOM     14  C   UNL     1      -8.740  30.191  22.324  1.00  0.00    -0.069 C 
ATOM     15  C   UNL     1      -8.345  28.752  22.087  1.00  0.00     0.039 C 
ATOM     16  C   UNL     1      -9.577  30.846  21.249  1.00  0.00     0.039 C 
BRANCH  13  17
ATOM     17  C   UNL     1      -7.647  30.158  24.595  1.00  0.00     0.066 CG0
ATOM     18  G   UNL     1      -8.487  29.623  25.741  1.00  0.00     0.000 G0
ENDBRANCH  13  17
ENDBRANCH  11  13
ENDBRANCH  10  11
ENDBRANCH   1  10
TORSDOF 0
ENDMDL
MODEL 5
REMARK VINA RESULT:    -2.424     17.236     19.579
REMARK INTER + INTRA:          -2.937
REMARK INTER:                  -5.285
REMARK INTRA:                   2.348
REMARK UNBOUND:                 0.479
REMARK SMILES CC1=CCC(=C(C)C)C(=O)CC(C)=CCC1
REMARK SMILES IDX 12 1 14 2 13 3 15 4 16 5 2 6 1 7 3 8 11 10 9 11 10 12 5 13
REMARK SMILES IDX 6 14 7 15 8 16 4 17
REMARK H PARENT
REMARK Flexibility Score: 60.00
ROOT
ATOM      1  C   UNL     1       2.302  45.234  20.346  1.00  0.00    -0.070 C 
ATOM      2  C   UNL     1       1.146  45.921  20.492  1.00  0.00    -0.027 C 
ATOM      3  C   UNL     1       2.219  43.745  20.122  1.00  0.00     0.039 C 
ENDROOT
BRANCH   2   4
ATOM      4  C   UNL     1       1.048  47.379  20.866  1.00  0.00     0.032 C 
BRANCH   4   5
ATOM      5  C   UNL     1      -0.072  48.048  20.061  1.00  0.00     0.034 C 
BRANCH   5   6
ATOM      6  C   UNL     1       0.022  47.749  18.578  1.00  0.00    -0.077 C 
ATOM      7  C   UNL     1      -1.250  47.476  17.814  1.00  0.00     0.039 C 
ATOM      8  C   UNL     1       1.183  47.783  17.877  1.00  0.00    -0.023 CG0
ATOM      9  G   UNL     1       2.586  47.976  18.426  1.00  0.00     0.000 G0
ENDBRANCH   5   6
ENDBRANCH   4   5
ENDBRANCH   2   4
BRANCH   1  10
ATOM     10  C   UNL     1       3.669  45.887  20.375  1.00  0.00     0.111 C 
BRANCH  10  11
ATOM     11  C   UNL     1       4.240  46.062  18.988  1.00  0.00     0.163 C 
ATOM     12  O   UNL     1       5.211  45.323  18.670  1.00  0.00    -0.294 OA
BRANCH  11  13
ATOM     13  C   UNL     1       3.704  47.038  17.982  1.00  0.00    -0.002 C 
ATOM     14  C   UNL     1       4.072  46.954  16.666  1.00  0.00    -0.069 C 
ATOM     15  C   UNL     1       3.384  47.760  15.588  1.00  0.00     0.039 C 
ATOM     16  C   UNL     1       5.226  46.083  16.224  1.00  0.00     0.039 C 
BRANCH  13  17
ATOM     17  C   UNL     1       2.610  47.998  18.435  1.00  0.00     0.066 CG0
ATOM     18  G   UNL     1       1.224  47.765  17.859  1.00  0.00     0.000 G0
ENDBRANCH  13  17
ENDBRANCH  11  13
ENDBRANCH  10  11
ENDBRANCH   1  10
TORSDOF 0
ENDMDL
