MODEL 1
REMARK VINA RESULT:    -2.740      0.000      0.000
REMARK INTER + INTRA:          -3.595
REMARK INTER:                  -3.381
REMARK INTRA:                  -0.214
REMARK UNBOUND:                -0.214
REMARK SMILES CCCCCC(=O)[O-]
REMARK SMILES IDX 4 1 5 2 6 3 7 4 8 5 3 6 2 7 1 8
REMARK H PARENT
REMARK Flexibility Score: inf
ROOT
ATOM      1  C   UNL     1      12.899 -16.194  -3.204  1.00  0.00     0.006 C 
ENDROOT
BRANCH   1   2
ATOM      2  C   UNL     1      11.966 -15.024  -3.546  1.00  0.00     0.053 C 
BRANCH   2   3
ATOM      3  C   UNL     1      11.723 -14.141  -2.361  1.00  0.00     0.041 C 
ATOM      4  O   UNL     1      10.671 -14.271  -1.680  1.00  0.00    -0.550 OA
ATOM      5  O   UNL     1      12.673 -13.200  -1.986  1.00  0.00    -0.550 OA
ENDBRANCH   2   3
ENDBRANCH   1   2
BRANCH   1   6
ATOM      6  C   UNL     1      12.256 -17.557  -3.507  1.00  0.00     0.000 C 
BRANCH   6   7
ATOM      7  C   UNL     1      10.776 -17.615  -3.098  1.00  0.00    -0.003 C 
ATOM      8  C   UNL     1      10.585 -17.883  -1.605  1.00  0.00     0.004 C 
ENDBRANCH   6   7
ENDBRANCH   1   6
TORSDOF 4
ENDMDL
MODEL 2
REMARK VINA RESULT:    -2.685     22.306     23.117
REMARK INTER + INTRA:          -3.526
REMARK INTER:                  -3.467
REMARK INTRA:                  -0.060
REMARK UNBOUND:                -0.214
REMARK SMILES CCCCCC(=O)[O-]
REMARK SMILES IDX 4 1 5 2 6 3 7 4 8 5 3 6 2 7 1 8
REMARK H PARENT
REMARK Flexibility Score: inf
ROOT
ATOM      1  C   UNL     1      -4.396 -11.670  14.475  1.00  0.00     0.006 C 
ENDROOT
BRANCH   1   2
ATOM      2  C   UNL     1      -2.973 -11.133  14.682  1.00  0.00     0.053 C 
BRANCH   2   3
ATOM      3  C   UNL     1      -2.864  -9.688  14.305  1.00  0.00     0.041 C 
ATOM      4  O   UNL     1      -2.078  -9.331  13.387  1.00  0.00    -0.550 OA
ATOM      5  O   UNL     1      -3.655  -8.739  14.939  1.00  0.00    -0.550 OA
ENDBRANCH   2   3
ENDBRANCH   1   2
BRANCH   1   6
ATOM      6  C   UNL     1      -4.457 -13.204  14.574  1.00  0.00     0.000 C 
BRANCH   6   7
ATOM      7  C   UNL     1      -4.240 -13.891  13.217  1.00  0.00    -0.003 C 
ATOM      8  C   UNL     1      -4.072 -15.406  13.343  1.00  0.00     0.004 C 
ENDBRANCH   6   7
ENDBRANCH   1   6
TORSDOF 4
ENDMDL
MODEL 3
REMARK VINA RESULT:    -2.616      1.250      2.075
REMARK INTER + INTRA:          -3.442
REMARK INTER:                  -3.356
REMARK INTRA:                  -0.086
REMARK UNBOUND:                -0.214
REMARK SMILES CCCCCC(=O)[O-]
REMARK SMILES IDX 4 1 5 2 6 3 7 4 8 5 3 6 2 7 1 8
REMARK H PARENT
REMARK Flexibility Score: inf
ROOT
ATOM      1  C   UNL     1      10.755 -16.924  -2.588  1.00  0.00     0.006 C 
ENDROOT
BRANCH   1   2
ATOM      2  C   UNL     1      11.462 -15.675  -3.131  1.00  0.00     0.053 C 
BRANCH   2   3
ATOM      3  C   UNL     1      11.455 -14.555  -2.135  1.00  0.00     0.041 C 
ATOM      4  O   UNL     1      12.477 -13.833  -1.989  1.00  0.00    -0.550 OA
ATOM      5  O   UNL     1      10.311 -14.287  -1.396  1.00  0.00    -0.550 OA
ENDBRANCH   2   3
ENDBRANCH   1   2
BRANCH   1   6
ATOM      6  C   UNL     1      11.704 -17.822  -1.776  1.00  0.00     0.000 C 
BRANCH   6   7
ATOM      7  C   UNL     1      10.955 -18.731  -0.790  1.00  0.00    -0.003 C 
ATOM      8  C   UNL     1      11.821 -19.155   0.397  1.00  0.00     0.004 C 
ENDBRANCH   6   7
ENDBRANCH   1   6
TORSDOF 4
ENDMDL
MODEL 4
REMARK VINA RESULT:    -2.558      9.656     11.306
REMARK INTER + INTRA:          -3.370
REMARK INTER:                  -3.132
REMARK INTRA:                  -0.238
REMARK UNBOUND:                -0.214
REMARK SMILES CCCCCC(=O)[O-]
REMARK SMILES IDX 4 1 5 2 6 3 7 4 8 5 3 6 2 7 1 8
REMARK H PARENT
REMARK Flexibility Score: inf
ROOT
ATOM      1  C   UNL     1       1.804 -18.688   3.207  1.00  0.00     0.006 C 
ENDROOT
BRANCH   1   2
ATOM      2  C   UNL     1       3.073 -17.964   2.738  1.00  0.00     0.053 C 
BRANCH   2   3
ATOM      3  C   UNL     1       4.034 -18.901   2.072  1.00  0.00     0.041 C 
ATOM      4  O   UNL     1       5.103 -19.228   2.651  1.00  0.00    -0.550 OA
ATOM      5  O   UNL     1       3.733 -19.440   0.828  1.00  0.00    -0.550 OA
ENDBRANCH   2   3
ENDBRANCH   1   2
BRANCH   1   6
ATOM      6  C   UNL     1       1.962 -19.286   4.615  1.00  0.00     0.000 C 
BRANCH   6   7
ATOM      7  C   UNL     1       2.740 -18.361   5.563  1.00  0.00    -0.003 C 
ATOM      8  C   UNL     1       3.917 -19.064   6.240  1.00  0.00     0.004 C 
ENDBRANCH   6   7
ENDBRANCH   1   6
TORSDOF 4
ENDMDL
MODEL 5
REMARK VINA RESULT:    -2.526     10.406     11.971
REMARK INTER + INTRA:          -3.330
REMARK INTER:                  -3.205
REMARK INTRA:                  -0.125
REMARK UNBOUND:                -0.214
REMARK SMILES CCCCCC(=O)[O-]
REMARK SMILES IDX 4 1 5 2 6 3 7 4 8 5 3 6 2 7 1 8
REMARK H PARENT
REMARK Flexibility Score: inf
ROOT
ATOM      1  C   UNL     1       2.223 -18.771   3.946  1.00  0.00     0.006 C 
ENDROOT
BRANCH   1   2
ATOM      2  C   UNL     1       3.017 -18.914   5.251  1.00  0.00     0.053 C 
BRANCH   2   3
ATOM      3  C   UNL     1       2.457 -18.050   6.340  1.00  0.00     0.041 C 
ATOM      4  O   UNL     1       1.704 -18.548   7.219  1.00  0.00    -0.550 OA
ATOM      5  O   UNL     1       2.795 -16.705   6.406  1.00  0.00    -0.550 OA
ENDBRANCH   2   3
ENDBRANCH   1   2
BRANCH   1   6
ATOM      6  C   UNL     1       2.867 -17.759   2.983  1.00  0.00     0.000 C 
BRANCH   6   7
ATOM      7  C   UNL     1       3.939 -18.397   2.087  1.00  0.00    -0.003 C 
ATOM      8  C   UNL     1       3.387 -19.528   1.219  1.00  0.00     0.004 C 
ENDBRANCH   6   7
ENDBRANCH   1   6
TORSDOF 4
ENDMDL
MODEL 6
REMARK VINA RESULT:    -2.484      9.879     11.110
REMARK INTER + INTRA:          -3.279
REMARK INTER:                  -3.131
REMARK INTRA:                  -0.148
REMARK UNBOUND:                -0.214
REMARK SMILES CCCCCC(=O)[O-]
REMARK SMILES IDX 4 1 5 2 6 3 7 4 8 5 3 6 2 7 1 8
REMARK H PARENT
REMARK Flexibility Score: inf
ROOT
ATOM      1  C   UNL     1       2.783 -17.908   2.943  1.00  0.00     0.006 C 
ENDROOT
BRANCH   1   2
ATOM      2  C   UNL     1       3.853 -18.692   2.170  1.00  0.00     0.053 C 
BRANCH   2   3
ATOM      3  C   UNL     1       3.243 -19.666   1.210  1.00  0.00     0.041 C 
ATOM      4  O   UNL     1       2.223 -20.327   1.541  1.00  0.00    -0.550 OA
ATOM      5  O   UNL     1       3.779 -19.819  -0.062  1.00  0.00    -0.550 OA
ENDBRANCH   2   3
ENDBRANCH   1   2
BRANCH   1   6
ATOM      6  C   UNL     1       2.741 -18.295   4.430  1.00  0.00     0.000 C 
BRANCH   6   7
ATOM      7  C   UNL     1       3.751 -19.397   4.782  1.00  0.00    -0.003 C 
ATOM      8  C   UNL     1       4.243 -19.310   6.227  1.00  0.00     0.004 C 
ENDBRANCH   6   7
ENDBRANCH   1   6
TORSDOF 4
ENDMDL
MODEL 7
REMARK VINA RESULT:    -2.477     10.414     11.323
REMARK INTER + INTRA:          -3.270
REMARK INTER:                  -3.083
REMARK INTRA:                  -0.186
REMARK UNBOUND:                -0.214
REMARK SMILES CCCCCC(=O)[O-]
REMARK SMILES IDX 4 1 5 2 6 3 7 4 8 5 3 6 2 7 1 8
REMARK H PARENT
REMARK Flexibility Score: inf
ROOT
ATOM      1  C   UNL     1       2.791 -17.766   3.039  1.00  0.00     0.006 C 
ENDROOT
BRANCH   1   2
ATOM      2  C   UNL     1       2.262 -18.731   4.108  1.00  0.00     0.053 C 
BRANCH   2   3
ATOM      3  C   UNL     1       2.990 -18.576   5.408  1.00  0.00     0.041 C 
ATOM      4  O   UNL     1       3.824 -19.446   5.774  1.00  0.00    -0.550 OA
ATOM      5  O   UNL     1       2.776 -17.454   6.197  1.00  0.00    -0.550 OA
ENDBRANCH   2   3
ENDBRANCH   1   2
BRANCH   1   6
ATOM      6  C   UNL     1       3.925 -18.386   2.207  1.00  0.00     0.000 C 
BRANCH   6   7
ATOM      7  C   UNL     1       3.714 -19.886   1.948  1.00  0.00    -0.003 C 
ATOM      8  C   UNL     1       3.229 -20.178   0.528  1.00  0.00     0.004 C 
ENDBRANCH   6   7
ENDBRANCH   1   6
TORSDOF 4
ENDMDL
MODEL 8
REMARK VINA RESULT:    -2.476      9.879     11.556
REMARK INTER + INTRA:          -3.268
REMARK INTER:                  -3.095
REMARK INTRA:                  -0.173
REMARK UNBOUND:                -0.214
REMARK SMILES CCCCCC(=O)[O-]
REMARK SMILES IDX 4 1 5 2 6 3 7 4 8 5 3 6 2 7 1 8
REMARK H PARENT
REMARK Flexibility Score: inf
ROOT
ATOM      1  C   UNL     1       2.540 -18.413   4.043  1.00  0.00     0.006 C 
ENDROOT
BRANCH   1   2
ATOM      2  C   UNL     1       3.147 -17.898   2.731  1.00  0.00     0.053 C 
BRANCH   2   3
ATOM      3  C   UNL     1       4.072 -18.901   2.114  1.00  0.00     0.041 C 
ATOM      4  O   UNL     1       5.151 -19.204   2.688  1.00  0.00    -0.550 OA
ATOM      5  O   UNL     1       3.726 -19.529   0.924  1.00  0.00    -0.550 OA
ENDBRANCH   2   3
ENDBRANCH   1   2
BRANCH   1   6
ATOM      6  C   UNL     1       1.628 -19.631   3.822  1.00  0.00     0.000 C 
BRANCH   6   7
ATOM      7  C   UNL     1       0.467 -19.331   2.862  1.00  0.00    -0.003 C 
ATOM      8  C   UNL     1      -0.834 -20.020   3.275  1.00  0.00     0.004 C 
ENDBRANCH   6   7
ENDBRANCH   1   6
TORSDOF 4
ENDMDL
MODEL 9
REMARK VINA RESULT:    -2.350      8.504      9.679
REMARK INTER + INTRA:          -3.113
REMARK INTER:                  -2.889
REMARK INTRA:                  -0.224
REMARK UNBOUND:                -0.214
REMARK SMILES CCCCCC(=O)[O-]
REMARK SMILES IDX 4 1 5 2 6 3 7 4 8 5 3 6 2 7 1 8
REMARK H PARENT
REMARK Flexibility Score: inf
ROOT
ATOM      1  C   UNL     1       8.967 -14.982   6.577  1.00  0.00     0.006 C 
ENDROOT
BRANCH   1   2
ATOM      2  C   UNL     1       9.355 -16.341   5.980  1.00  0.00     0.053 C 
BRANCH   2   3
ATOM      3  C   UNL     1      10.193 -16.188   4.747  1.00  0.00     0.041 C 
ATOM      4  O   UNL     1       9.908 -16.835   3.705  1.00  0.00    -0.550 OA
ATOM      5  O   UNL     1      11.264 -15.305   4.739  1.00  0.00    -0.550 OA
ENDBRANCH   2   3
ENDBRANCH   1   2
BRANCH   1   6
ATOM      6  C   UNL     1       9.402 -14.849   8.047  1.00  0.00     0.000 C 
BRANCH   6   7
ATOM      7  C   UNL     1      10.779 -15.475   8.313  1.00  0.00    -0.003 C 
ATOM      8  C   UNL     1      11.922 -14.470   8.172  1.00  0.00     0.004 C 
ENDBRANCH   6   7
ENDBRANCH   1   6
TORSDOF 4
ENDMDL
