MODEL 1
REMARK VINA RESULT:    -1.839      0.000      0.000
REMARK INTER + INTRA:          -2.255
REMARK INTER:                  -2.001
REMARK INTRA:                  -0.254
REMARK UNBOUND:                -0.254
REMARK SMILES CC(=O)[C@H]1CC[C@H]2[C@H]3CC=C4C[C@H](O)CC[C@]4(C)[C@@H]3CC[C@@]12C
REMARK SMILES IDX 4 1 5 2 6 3 7 4 22 5 21 6 20 7 19 8 8 9 9 10 10 11 11 12
REMARK SMILES IDX 17 13 16 14 15 15 13 16 12 17 18 18 23 19 2 20 1 21 3 22
REMARK SMILES IDX 14 23
REMARK H PARENT 14 24
REMARK Flexibility Score: inf
ROOT
ATOM      1  C   UNL     1      92.366  27.563   7.872  1.00  0.00     0.062 C 
ATOM      2  C   UNL     1      92.757  29.049   7.875  1.00  0.00     0.012 C 
ATOM      3  C   UNL     1      92.572  29.530   9.299  1.00  0.00     0.005 C 
ATOM      4  C   UNL     1      92.927  28.324  10.169  1.00  0.00    -0.001 C 
ATOM      5  C   UNL     1      92.493  27.062   9.360  1.00  0.00    -0.020 C 
ATOM      6  C   UNL     1      91.196  26.408   9.961  1.00  0.00     0.008 C 
ATOM      7  C   UNL     1      90.190  27.427  10.519  1.00  0.00     0.005 C 
ATOM      8  C   UNL     1      90.792  28.339  11.630  1.00  0.00     0.003 C 
ATOM      9  C   UNL     1      92.339  28.358  11.602  1.00  0.00     0.000 C 
ATOM     10  C   UNL     1      92.821  29.557  12.423  1.00  0.00     0.031 C 
ATOM     11  C   UNL     1      92.274  29.476  13.822  1.00  0.00    -0.027 C 
ATOM     12  C   UNL     1      91.113  28.846  14.134  1.00  0.00    -0.065 C 
ATOM     13  C   UNL     1      90.256  28.093  13.094  1.00  0.00    -0.008 C 
ATOM     14  C   UNL     1      90.288  26.578  13.480  1.00  0.00     0.014 C 
ATOM     15  C   UNL     1      89.975  26.310  14.969  1.00  0.00     0.033 C 
ATOM     16  C   UNL     1      90.868  27.128  15.918  1.00  0.00     0.118 C 
ATOM     17  C   UNL     1      90.784  28.628  15.595  1.00  0.00     0.063 C 
ATOM     18  C   UNL     1      88.801  28.628  13.164  1.00  0.00     0.016 C 
ATOM     19  C   UNL     1      93.617  25.997   9.433  1.00  0.00     0.012 C 
ENDROOT
BRANCH   1  20
ATOM     20  C   UNL     1      91.024  27.325   7.195  1.00  0.00     0.133 C 
ATOM     21  C   UNL     1      90.721  26.009   6.542  1.00  0.00     0.088 C 
ATOM     22  O   UNL     1      90.176  28.205   7.163  1.00  0.00    -0.300 OA
ENDBRANCH   1  20
BRANCH  16  23
ATOM     23  O   UNL     1      92.196  26.680  15.815  1.00  0.00    -0.393 OA
ATOM     24  H   UNL     1      92.758  27.333  16.307  1.00  0.00     0.210 HD
ENDBRANCH  16  23
TORSDOF 2
ENDMDL
MODEL 2
REMARK VINA RESULT:    -1.825      4.840      6.276
REMARK INTER + INTRA:          -2.239
REMARK INTER:                  -1.994
REMARK INTRA:                  -0.245
REMARK UNBOUND:                -0.254
REMARK SMILES CC(=O)[C@H]1CC[C@H]2[C@H]3CC=C4C[C@H](O)CC[C@]4(C)[C@@H]3CC[C@@]12C
REMARK SMILES IDX 4 1 5 2 6 3 7 4 22 5 21 6 20 7 19 8 8 9 9 10 10 11 11 12
REMARK SMILES IDX 17 13 16 14 15 15 13 16 12 17 18 18 23 19 2 20 1 21 3 22
REMARK SMILES IDX 14 23
REMARK H PARENT 14 24
REMARK Flexibility Score: inf
ROOT
ATOM      1  C   UNL     1      93.652  33.537  14.193  1.00  0.00     0.062 C 
ATOM      2  C   UNL     1      94.054  34.022  15.595  1.00  0.00     0.012 C 
ATOM      3  C   UNL     1      93.710  32.894  16.544  1.00  0.00     0.005 C 
ATOM      4  C   UNL     1      93.950  31.616  15.739  1.00  0.00    -0.001 C 
ATOM      5  C   UNL     1      93.601  31.964  14.258  1.00  0.00    -0.020 C 
ATOM      6  C   UNL     1      92.236  31.318  13.819  1.00  0.00     0.008 C 
ATOM      7  C   UNL     1      91.182  31.277  14.936  1.00  0.00     0.005 C 
ATOM      8  C   UNL     1      91.660  30.506  16.202  1.00  0.00     0.003 C 
ATOM      9  C   UNL     1      93.200  30.365  16.261  1.00  0.00     0.000 C 
ATOM     10  C   UNL     1      93.595  29.978  17.689  1.00  0.00     0.031 C 
ATOM     11  C   UNL     1      92.888  28.713  18.092  1.00  0.00    -0.027 C 
ATOM     12  C   UNL     1      91.693  28.329  17.577  1.00  0.00    -0.065 C 
ATOM     13  C   UNL     1      90.955  29.119  16.475  1.00  0.00    -0.008 C 
ATOM     14  C   UNL     1      90.928  28.218  15.199  1.00  0.00     0.014 C 
ATOM     15  C   UNL     1      90.442  26.776  15.468  1.00  0.00     0.033 C 
ATOM     16  C   UNL     1      91.226  26.088  16.598  1.00  0.00     0.118 C 
ATOM     17  C   UNL     1      91.195  26.932  17.883  1.00  0.00     0.063 C 
ATOM     18  C   UNL     1      89.507  29.408  16.953  1.00  0.00     0.016 C 
ATOM     19  C   UNL     1      94.698  31.391  13.326  1.00  0.00     0.012 C 
ENDROOT
BRANCH   1  20
ATOM     20  C   UNL     1      92.395  34.230  13.686  1.00  0.00     0.133 C 
ATOM     21  C   UNL     1      91.446  34.887  14.645  1.00  0.00     0.088 C 
ATOM     22  O   UNL     1      92.133  34.252  12.493  1.00  0.00    -0.300 OA
ENDBRANCH   1  20
BRANCH  16  23
ATOM     23  O   UNL     1      92.553  25.875  16.186  1.00  0.00    -0.393 OA
ATOM     24  H   UNL     1      92.988  26.767  16.149  1.00  0.00     0.210 HD
ENDBRANCH  16  23
TORSDOF 2
ENDMDL
MODEL 3
REMARK VINA RESULT:    -1.739      3.080      4.164
REMARK INTER + INTRA:          -2.146
REMARK INTER:                  -1.891
REMARK INTRA:                  -0.255
REMARK UNBOUND:                -0.254
REMARK SMILES CC(=O)[C@H]1CC[C@H]2[C@H]3CC=C4C[C@H](O)CC[C@]4(C)[C@@H]3CC[C@@]12C
REMARK SMILES IDX 4 1 5 2 6 3 7 4 22 5 21 6 20 7 19 8 8 9 9 10 10 11 11 12
REMARK SMILES IDX 17 13 16 14 15 15 13 16 12 17 18 18 23 19 2 20 1 21 3 22
REMARK SMILES IDX 14 23
REMARK H PARENT 14 24
REMARK Flexibility Score: inf
ROOT
ATOM      1  C   UNL     1      91.754  32.134  11.250  1.00  0.00     0.062 C 
ATOM      2  C   UNL     1      92.406  33.165  12.184  1.00  0.00     0.012 C 
ATOM      3  C   UNL     1      92.512  32.497  13.539  1.00  0.00     0.005 C 
ATOM      4  C   UNL     1      92.759  31.020  13.230  1.00  0.00    -0.001 C 
ATOM      5  C   UNL     1      91.993  30.720  11.903  1.00  0.00    -0.020 C 
ATOM      6  C   UNL     1      90.695  29.873  12.164  1.00  0.00     0.008 C 
ATOM      7  C   UNL     1      89.980  30.224  13.478  1.00  0.00     0.005 C 
ATOM      8  C   UNL     1      90.887  30.058  14.734  1.00  0.00     0.003 C 
ATOM      9  C   UNL     1      92.392  30.044  14.376  1.00  0.00     0.000 C 
ATOM     10  C   UNL     1      93.194  30.289  15.657  1.00  0.00     0.031 C 
ATOM     11  C   UNL     1      92.842  29.255  16.690  1.00  0.00    -0.027 C 
ATOM     12  C   UNL     1      91.641  28.626  16.737  1.00  0.00    -0.065 C 
ATOM     13  C   UNL     1      90.524  28.860  15.697  1.00  0.00    -0.008 C 
ATOM     14  C   UNL     1      90.332  27.521  14.915  1.00  0.00     0.014 C 
ATOM     15  C   UNL     1      90.186  26.283  15.829  1.00  0.00     0.033 C 
ATOM     16  C   UNL     1      91.336  26.157  16.842  1.00  0.00     0.118 C 
ATOM     17  C   UNL     1      91.484  27.444  17.670  1.00  0.00     0.063 C 
ATOM     18  C   UNL     1      89.215  29.231  16.444  1.00  0.00     0.016 C 
ATOM     19  C   UNL     1      92.902  29.886  10.966  1.00  0.00     0.012 C 
ENDROOT
BRANCH   1  20
ATOM     20  C   UNL     1      90.310  32.488  10.925  1.00  0.00     0.133 C 
ATOM     21  C   UNL     1      89.701  32.086   9.614  1.00  0.00     0.088 C 
ATOM     22  O   UNL     1      89.626  33.115  11.722  1.00  0.00    -0.300 OA
ENDBRANCH   1  20
BRANCH  16  23
ATOM     23  O   UNL     1      92.533  25.875  16.160  1.00  0.00    -0.393 OA
ATOM     24  H   UNL     1      92.290  25.703  15.213  1.00  0.00     0.210 HD
ENDBRANCH  16  23
TORSDOF 2
ENDMDL
MODEL 4
REMARK VINA RESULT:    -1.700      1.568      2.063
REMARK INTER + INTRA:          -2.104
REMARK INTER:                  -1.861
REMARK INTRA:                  -0.243
REMARK UNBOUND:                -0.254
REMARK SMILES CC(=O)[C@H]1CC[C@H]2[C@H]3CC=C4C[C@H](O)CC[C@]4(C)[C@@H]3CC[C@@]12C
REMARK SMILES IDX 4 1 5 2 6 3 7 4 22 5 21 6 20 7 19 8 8 9 9 10 10 11 11 12
REMARK SMILES IDX 17 13 16 14 15 15 13 16 12 17 18 18 23 19 2 20 1 21 3 22
REMARK SMILES IDX 14 23
REMARK H PARENT 14 24
REMARK Flexibility Score: inf
ROOT
ATOM      1  C   UNL     1      91.897  29.811   9.090  1.00  0.00     0.062 C 
ATOM      2  C   UNL     1      92.305  31.213   9.566  1.00  0.00     0.012 C 
ATOM      3  C   UNL     1      92.255  31.174  11.079  1.00  0.00     0.005 C 
ATOM      4  C   UNL     1      92.671  29.751  11.449  1.00  0.00    -0.001 C 
ATOM      5  C   UNL     1      92.151  28.833  10.299  1.00  0.00    -0.020 C 
ATOM      6  C   UNL     1      90.905  27.989  10.752  1.00  0.00     0.008 C 
ATOM      7  C   UNL     1      89.966  28.736  11.712  1.00  0.00     0.005 C 
ATOM      8  C   UNL     1      90.677  29.224  13.010  1.00  0.00     0.003 C 
ATOM      9  C   UNL     1      92.215  29.281  12.854  1.00  0.00     0.000 C 
ATOM     10  C   UNL     1      92.784  30.136  13.989  1.00  0.00     0.031 C 
ATOM     11  C   UNL     1      92.364  29.571  15.318  1.00  0.00    -0.027 C 
ATOM     12  C   UNL     1      91.228  28.851  15.497  1.00  0.00    -0.065 C 
ATOM     13  C   UNL     1      90.271  28.482  14.343  1.00  0.00    -0.008 C 
ATOM     14  C   UNL     1      90.319  26.928  14.182  1.00  0.00     0.014 C 
ATOM     15  C   UNL     1      90.138  26.160  15.511  1.00  0.00     0.033 C 
ATOM     16  C   UNL     1      91.122  26.621  16.600  1.00  0.00     0.118 C 
ATOM     17  C   UNL     1      91.029  28.140  16.819  1.00  0.00     0.063 C 
ATOM     18  C   UNL     1      88.835  28.933  14.720  1.00  0.00     0.016 C 
ATOM     19  C   UNL     1      93.263  27.829   9.903  1.00  0.00     0.012 C 
ENDROOT
BRANCH   1  20
ATOM     20  C   UNL     1      90.496  29.793   8.494  1.00  0.00     0.133 C 
ATOM     21  C   UNL     1      89.513  30.878   8.822  1.00  0.00     0.088 C 
ATOM     22  O   UNL     1      90.146  28.889   7.749  1.00  0.00    -0.300 OA
ENDBRANCH   1  20
BRANCH  16  23
ATOM     23  O   UNL     1      92.430  26.260  16.232  1.00  0.00    -0.393 OA
ATOM     24  H   UNL     1      92.681  25.479  16.791  1.00  0.00     0.210 HD
ENDBRANCH  16  23
TORSDOF 2
ENDMDL
MODEL 5
REMARK VINA RESULT:    -1.690      2.966      6.823
REMARK INTER + INTRA:          -2.092
REMARK INTER:                  -1.848
REMARK INTRA:                  -0.245
REMARK UNBOUND:                -0.254
REMARK SMILES CC(=O)[C@H]1CC[C@H]2[C@H]3CC=C4C[C@H](O)CC[C@]4(C)[C@@H]3CC[C@@]12C
REMARK SMILES IDX 4 1 5 2 6 3 7 4 22 5 21 6 20 7 19 8 8 9 9 10 10 11 11 12
REMARK SMILES IDX 17 13 16 14 15 15 13 16 12 17 18 18 23 19 2 20 1 21 3 22
REMARK SMILES IDX 14 23
REMARK H PARENT 14 24
REMARK Flexibility Score: inf
ROOT
ATOM      1  C   UNL     1      92.893  32.316  14.922  1.00  0.00     0.062 C 
ATOM      2  C   UNL     1      91.667  31.505  15.367  1.00  0.00     0.012 C 
ATOM      3  C   UNL     1      91.426  30.478  14.281  1.00  0.00     0.005 C 
ATOM      4  C   UNL     1      92.819  30.122  13.762  1.00  0.00    -0.001 C 
ATOM      5  C   UNL     1      93.675  31.420  13.889  1.00  0.00    -0.020 C 
ATOM      6  C   UNL     1      93.933  32.082  12.487  1.00  0.00     0.008 C 
ATOM      7  C   UNL     1      92.749  31.956  11.515  1.00  0.00     0.005 C 
ATOM      8  C   UNL     1      92.329  30.480  11.247  1.00  0.00     0.003 C 
ATOM      9  C   UNL     1      92.848  29.512  12.337  1.00  0.00     0.000 C 
ATOM     10  C   UNL     1      92.069  28.199  12.227  1.00  0.00     0.031 C 
ATOM     11  C   UNL     1      92.212  27.631  10.842  1.00  0.00    -0.027 C 
ATOM     12  C   UNL     1      92.442  28.393   9.743  1.00  0.00    -0.065 C 
ATOM     13  C   UNL     1      92.641  29.923   9.803  1.00  0.00    -0.008 C 
ATOM     14  C   UNL     1      94.114  30.215   9.370  1.00  0.00     0.014 C 
ATOM     15  C   UNL     1      94.528  29.509   8.060  1.00  0.00     0.033 C 
ATOM     16  C   UNL     1      94.266  27.993   8.096  1.00  0.00     0.118 C 
ATOM     17  C   UNL     1      92.799  27.696   8.447  1.00  0.00     0.063 C 
ATOM     18  C   UNL     1      91.653  30.594   8.811  1.00  0.00     0.016 C 
ATOM     19  C   UNL     1      95.060  31.063  14.486  1.00  0.00     0.012 C 
ENDROOT
BRANCH   1  20
ATOM     20  C   UNL     1      92.516  33.713  14.450  1.00  0.00     0.133 C 
ATOM     21  C   UNL     1      91.115  34.017  14.006  1.00  0.00     0.088 C 
ATOM     22  O   UNL     1      93.350  34.606  14.413  1.00  0.00    -0.300 OA
ENDBRANCH   1  20
BRANCH  16  23
ATOM     23  O   UNL     1      95.124  27.392   9.034  1.00  0.00    -0.393 OA
ATOM     24  H   UNL     1      95.037  27.911   9.876  1.00  0.00     0.210 HD
ENDBRANCH  16  23
TORSDOF 2
ENDMDL
MODEL 6
REMARK VINA RESULT:    -1.682      3.459      5.009
REMARK INTER + INTRA:          -2.084
REMARK INTER:                  -1.839
REMARK INTRA:                  -0.245
REMARK UNBOUND:                -0.254
REMARK SMILES CC(=O)[C@H]1CC[C@H]2[C@H]3CC=C4C[C@H](O)CC[C@]4(C)[C@@H]3CC[C@@]12C
REMARK SMILES IDX 4 1 5 2 6 3 7 4 22 5 21 6 20 7 19 8 8 9 9 10 10 11 11 12
REMARK SMILES IDX 17 13 16 14 15 15 13 16 12 17 18 18 23 19 2 20 1 21 3 22
REMARK SMILES IDX 14 23
REMARK H PARENT 14 24
REMARK Flexibility Score: inf
ROOT
ATOM      1  C   UNL     1      93.531  32.784  10.196  1.00  0.00     0.062 C 
ATOM      2  C   UNL     1      94.880  33.334  10.683  1.00  0.00     0.012 C 
ATOM      3  C   UNL     1      95.037  32.857  12.111  1.00  0.00     0.005 C 
ATOM      4  C   UNL     1      94.361  31.486  12.144  1.00  0.00    -0.001 C 
ATOM      5  C   UNL     1      93.183  31.559  11.123  1.00  0.00    -0.020 C 
ATOM      6  C   UNL     1      91.792  31.642  11.851  1.00  0.00     0.008 C 
ATOM      7  C   UNL     1      91.820  32.462  13.151  1.00  0.00     0.005 C 
ATOM      8  C   UNL     1      92.844  31.923  14.194  1.00  0.00     0.003 C 
ATOM      9  C   UNL     1      93.917  31.011  13.551  1.00  0.00     0.000 C 
ATOM     10  C   UNL     1      95.081  30.869  14.535  1.00  0.00     0.031 C 
ATOM     11  C   UNL     1      94.582  30.329  15.846  1.00  0.00    -0.027 C 
ATOM     12  C   UNL     1      93.316  30.513  16.296  1.00  0.00    -0.065 C 
ATOM     13  C   UNL     1      92.229  31.249  15.482  1.00  0.00    -0.008 C 
ATOM     14  C   UNL     1      91.130  30.197  15.123  1.00  0.00     0.014 C 
ATOM     15  C   UNL     1      90.651  29.362  16.331  1.00  0.00     0.033 C 
ATOM     16  C   UNL     1      91.812  28.692  17.086  1.00  0.00     0.118 C 
ATOM     17  C   UNL     1      92.863  29.730  17.511  1.00  0.00     0.063 C 
ATOM     18  C   UNL     1      91.621  32.373  16.363  1.00  0.00     0.016 C 
ATOM     19  C   UNL     1      93.171  30.270  10.263  1.00  0.00     0.012 C 
ENDROOT
BRANCH   1  20
ATOM     20  C   UNL     1      92.471  33.872  10.094  1.00  0.00     0.133 C 
ATOM     21  C   UNL     1      92.620  35.157  10.856  1.00  0.00     0.088 C 
ATOM     22  O   UNL     1      91.478  33.713   9.401  1.00  0.00    -0.300 OA
ENDBRANCH   1  20
BRANCH  16  23
ATOM     23  O   UNL     1      92.398  27.711  16.268  1.00  0.00    -0.393 OA
ATOM     24  H   UNL     1      92.595  28.144  15.396  1.00  0.00     0.210 HD
ENDBRANCH  16  23
TORSDOF 2
ENDMDL
MODEL 7
REMARK VINA RESULT:    -1.681      2.339      6.223
REMARK INTER + INTRA:          -2.082
REMARK INTER:                  -1.827
REMARK INTRA:                  -0.256
REMARK UNBOUND:                -0.254
REMARK SMILES CC(=O)[C@H]1CC[C@H]2[C@H]3CC=C4C[C@H](O)CC[C@]4(C)[C@@H]3CC[C@@]12C
REMARK SMILES IDX 4 1 5 2 6 3 7 4 22 5 21 6 20 7 19 8 8 9 9 10 10 11 11 12
REMARK SMILES IDX 17 13 16 14 15 15 13 16 12 17 18 18 23 19 2 20 1 21 3 22
REMARK SMILES IDX 14 23
REMARK H PARENT 14 24
REMARK Flexibility Score: inf
ROOT
ATOM      1  C   UNL     1      90.167  30.165  14.900  1.00  0.00     0.062 C 
ATOM      2  C   UNL     1      89.583  28.790  15.260  1.00  0.00     0.012 C 
ATOM      3  C   UNL     1      90.025  27.845  14.163  1.00  0.00     0.005 C 
ATOM      4  C   UNL     1      91.406  28.348  13.745  1.00  0.00    -0.001 C 
ATOM      5  C   UNL     1      91.377  29.898  13.927  1.00  0.00    -0.020 C 
ATOM      6  C   UNL     1      91.303  30.642  12.544  1.00  0.00     0.008 C 
ATOM      7  C   UNL     1      90.454  29.911  11.492  1.00  0.00     0.005 C 
ATOM      8  C   UNL     1      90.952  28.463  11.200  1.00  0.00     0.003 C 
ATOM      9  C   UNL     1      91.858  27.913  12.328  1.00  0.00     0.000 C 
ATOM     10  C   UNL     1      91.957  26.393  12.167  1.00  0.00     0.031 C 
ATOM     11  C   UNL     1      92.477  26.054  10.798  1.00  0.00    -0.027 C 
ATOM     12  C   UNL     1      92.306  26.854   9.715  1.00  0.00    -0.065 C 
ATOM     13  C   UNL     1      91.608  28.229   9.784  1.00  0.00    -0.008 C 
ATOM     14  C   UNL     1      92.687  29.311   9.454  1.00  0.00     0.014 C 
ATOM     15  C   UNL     1      93.504  29.006   8.179  1.00  0.00     0.033 C 
ATOM     16  C   UNL     1      94.135  27.604   8.202  1.00  0.00     0.118 C 
ATOM     17  C   UNL     1      93.070  26.524   8.450  1.00  0.00     0.063 C 
ATOM     18  C   UNL     1      90.476  28.268   8.723  1.00  0.00     0.016 C 
ATOM     19  C   UNL     1      92.685  30.355  14.621  1.00  0.00     0.012 C 
ENDROOT
BRANCH   1  20
ATOM     20  C   UNL     1      89.101  31.127  14.397  1.00  0.00     0.133 C 
ATOM     21  C   UNL     1      89.265  32.609  14.571  1.00  0.00     0.088 C 
ATOM     22  O   UNL     1      88.088  30.709  13.854  1.00  0.00    -0.300 OA
ENDBRANCH   1  20
BRANCH  16  23
ATOM     23  O   UNL     1      95.124  27.551   9.200  1.00  0.00    -0.393 OA
ATOM     24  H   UNL     1      95.999  27.653   8.742  1.00  0.00     0.210 HD
ENDBRANCH  16  23
TORSDOF 2
ENDMDL
MODEL 8
REMARK VINA RESULT:    -1.657      1.876      3.097
REMARK INTER + INTRA:          -2.057
REMARK INTER:                  -1.803
REMARK INTRA:                  -0.254
REMARK UNBOUND:                -0.254
REMARK SMILES CC(=O)[C@H]1CC[C@H]2[C@H]3CC=C4C[C@H](O)CC[C@]4(C)[C@@H]3CC[C@@]12C
REMARK SMILES IDX 4 1 5 2 6 3 7 4 22 5 21 6 20 7 19 8 8 9 9 10 10 11 11 12
REMARK SMILES IDX 17 13 16 14 15 15 13 16 12 17 18 18 23 19 2 20 1 21 3 22
REMARK SMILES IDX 14 23
REMARK H PARENT 14 24
REMARK Flexibility Score: inf
ROOT
ATOM      1  C   UNL     1      93.371  28.243   7.631  1.00  0.00     0.062 C 
ATOM      2  C   UNL     1      94.396  27.185   8.069  1.00  0.00     0.012 C 
ATOM      3  C   UNL     1      94.019  26.794   9.482  1.00  0.00     0.005 C 
ATOM      4  C   UNL     1      92.494  26.894   9.523  1.00  0.00    -0.001 C 
ATOM      5  C   UNL     1      92.109  28.055   8.554  1.00  0.00    -0.020 C 
ATOM      6  C   UNL     1      91.656  29.338   9.342  1.00  0.00     0.008 C 
ATOM      7  C   UNL     1      92.427  29.566  10.651  1.00  0.00     0.005 C 
ATOM      8  C   UNL     1      92.323  28.368  11.642  1.00  0.00     0.003 C 
ATOM      9  C   UNL     1      91.889  27.059  10.940  1.00  0.00     0.000 C 
ATOM     10  C   UNL     1      92.205  25.886  11.871  1.00  0.00     0.031 C 
ATOM     11  C   UNL     1      91.518  26.080  13.195  1.00  0.00    -0.027 C 
ATOM     12  C   UNL     1      91.206  27.300  13.701  1.00  0.00    -0.065 C 
ATOM     13  C   UNL     1      91.469  28.620  12.945  1.00  0.00    -0.008 C 
ATOM     14  C   UNL     1      90.076  29.250  12.617  1.00  0.00     0.014 C 
ATOM     15  C   UNL     1      89.124  29.319  13.832  1.00  0.00     0.033 C 
ATOM     16  C   UNL     1      88.951  27.957  14.527  1.00  0.00     0.118 C 
ATOM     17  C   UNL     1      90.313  27.364  14.922  1.00  0.00     0.063 C 
ATOM     18  C   UNL     1      92.277  29.571  13.867  1.00  0.00     0.016 C 
ATOM     19  C   UNL     1      90.911  27.612   7.677  1.00  0.00     0.012 C 
ENDROOT
BRANCH   1  20
ATOM     20  C   UNL     1      93.972  29.641   7.592  1.00  0.00     0.133 C 
ATOM     21  C   UNL     1      93.422  30.683   6.661  1.00  0.00     0.088 C 
ATOM     22  O   UNL     1      94.918  29.935   8.307  1.00  0.00    -0.300 OA
ENDBRANCH   1  20
BRANCH  16  23
ATOM     23  O   UNL     1      88.266  27.078  13.670  1.00  0.00    -0.393 OA
ATOM     24  H   UNL     1      88.282  27.488  12.766  1.00  0.00     0.210 HD
ENDBRANCH  16  23
TORSDOF 2
ENDMDL
