MODEL 1
REMARK VINA RESULT:    -2.965      0.000      0.000
REMARK INTER + INTRA:          -3.321
REMARK INTER:                  -3.224
REMARK INTRA:                  -0.096
REMARK UNBOUND:                -0.096
REMARK SMILES C=C(C)[C@H]1CC=C(C)[C@H](O)C1
REMARK SMILES IDX 8 1 7 2 6 3 5 4 4 5 11 6 9 7 10 8 2 10 1 11 3 12
REMARK H PARENT 10 9
REMARK Flexibility Score: inf
ROOT
ATOM      1  C   UNL     1      35.212 -32.032 -12.125  1.00  0.00     0.042 C 
ATOM      2  C   UNL     1      36.037 -33.172 -11.596  1.00  0.00    -0.049 C 
ATOM      3  C   UNL     1      37.379 -33.134 -11.748  1.00  0.00    -0.025 C 
ATOM      4  C   UNL     1      38.292 -34.253 -11.314  1.00  0.00     0.035 C 
ATOM      5  C   UNL     1      37.652 -35.142 -10.235  1.00  0.00     0.021 C 
ATOM      6  C   UNL     1      36.225 -35.527 -10.654  1.00  0.00     0.044 C 
ATOM      7  C   UNL     1      35.348 -34.270 -10.802  1.00  0.00     0.140 C 
ENDROOT
BRANCH   7   8
ATOM      8  O   UNL     1      35.013 -33.764  -9.535  1.00  0.00    -0.389 OA
ATOM      9  H   UNL     1      35.537 -34.283  -8.871  1.00  0.00     0.211 HD
ENDBRANCH   7   8
BRANCH   5  10
ATOM     10  C   UNL     1      38.503 -36.373  -9.953  1.00  0.00    -0.077 C 
ATOM     11  C   UNL     1      39.080 -37.039 -10.967  1.00  0.00     0.008 C 
ATOM     12  C   UNL     1      38.713 -36.880  -8.548  1.00  0.00     0.039 C 
ENDBRANCH   5  10
TORSDOF 2
ENDMDL
MODEL 2
REMARK VINA RESULT:    -2.900      2.071      3.864
REMARK INTER + INTRA:          -3.251
REMARK INTER:                  -3.154
REMARK INTRA:                  -0.097
REMARK UNBOUND:                -0.096
REMARK SMILES C=C(C)[C@H]1CC=C(C)[C@H](O)C1
REMARK SMILES IDX 8 1 7 2 6 3 5 4 4 5 11 6 9 7 10 8 2 10 1 11 3 12
REMARK H PARENT 10 9
REMARK Flexibility Score: inf
ROOT
ATOM      1  C   UNL     1      39.099 -33.048 -10.908  1.00  0.00     0.042 C 
ATOM      2  C   UNL     1      37.767 -33.724 -11.087  1.00  0.00    -0.049 C 
ATOM      3  C   UNL     1      36.858 -33.166 -11.915  1.00  0.00    -0.025 C 
ATOM      4  C   UNL     1      35.470 -33.724 -12.114  1.00  0.00     0.035 C 
ATOM      5  C   UNL     1      35.384 -35.215 -11.747  1.00  0.00     0.021 C 
ATOM      6  C   UNL     1      36.044 -35.455 -10.380  1.00  0.00     0.044 C 
ATOM      7  C   UNL     1      37.535 -35.072 -10.425  1.00  0.00     0.140 C 
ENDROOT
BRANCH   7   8
ATOM      8  O   UNL     1      38.261 -36.048 -11.129  1.00  0.00    -0.389 OA
ATOM      9  H   UNL     1      39.034 -36.298 -10.559  1.00  0.00     0.211 HD
ENDBRANCH   7   8
BRANCH   5  10
ATOM     10  C   UNL     1      33.944 -35.709 -11.767  1.00  0.00    -0.077 C 
ATOM     11  C   UNL     1      32.952 -34.877 -12.125  1.00  0.00     0.008 C 
ATOM     12  C   UNL     1      33.591 -37.124 -11.380  1.00  0.00     0.039 C 
ENDBRANCH   5  10
TORSDOF 2
ENDMDL
MODEL 3
REMARK VINA RESULT:    -2.827      1.752      2.833
REMARK INTER + INTRA:          -3.171
REMARK INTER:                  -3.080
REMARK INTRA:                  -0.091
REMARK UNBOUND:                -0.096
REMARK SMILES C=C(C)[C@H]1CC=C(C)[C@H](O)C1
REMARK SMILES IDX 8 1 7 2 6 3 5 4 4 5 11 6 9 7 10 8 2 10 1 11 3 12
REMARK H PARENT 10 9
REMARK Flexibility Score: inf
ROOT
ATOM      1  C   UNL     1      32.828 -36.353 -11.784  1.00  0.00     0.042 C 
ATOM      2  C   UNL     1      34.252 -36.001 -11.451  1.00  0.00    -0.049 C 
ATOM      3  C   UNL     1      35.218 -36.923 -11.658  1.00  0.00    -0.025 C 
ATOM      4  C   UNL     1      36.665 -36.698 -11.297  1.00  0.00     0.035 C 
ATOM      5  C   UNL     1      37.016 -35.204 -11.200  1.00  0.00     0.021 C 
ATOM      6  C   UNL     1      35.963 -34.474 -10.353  1.00  0.00     0.044 C 
ATOM      7  C   UNL     1      34.573 -34.584 -11.007  1.00  0.00     0.140 C 
ENDROOT
BRANCH   7   8
ATOM      8  O   UNL     1      34.497 -33.736 -12.124  1.00  0.00    -0.389 OA
ATOM      9  H   UNL     1      34.257 -34.305 -12.901  1.00  0.00     0.211 HD
ENDBRANCH   7   8
BRANCH   5  10
ATOM     10  C   UNL     1      38.420 -34.999 -10.647  1.00  0.00    -0.077 C 
ATOM     11  C   UNL     1      39.110 -33.888 -10.956  1.00  0.00     0.008 C 
ATOM     12  C   UNL     1      39.073 -36.026  -9.756  1.00  0.00     0.039 C 
ENDBRANCH   5  10
TORSDOF 2
ENDMDL
MODEL 4
REMARK VINA RESULT:    -2.460      1.992      3.357
REMARK INTER + INTRA:          -2.772
REMARK INTER:                  -2.678
REMARK INTRA:                  -0.093
REMARK UNBOUND:                -0.096
REMARK SMILES C=C(C)[C@H]1CC=C(C)[C@H](O)C1
REMARK SMILES IDX 8 1 7 2 6 3 5 4 4 5 11 6 9 7 10 8 2 10 1 11 3 12
REMARK H PARENT 10 9
REMARK Flexibility Score: inf
ROOT
ATOM      1  C   UNL     1      32.904 -36.585 -11.754  1.00  0.00     0.042 C 
ATOM      2  C   UNL     1      34.238 -35.899 -11.636  1.00  0.00    -0.049 C 
ATOM      3  C   UNL     1      34.288 -34.551 -11.708  1.00  0.00    -0.025 C 
ATOM      4  C   UNL     1      35.577 -33.768 -11.668  1.00  0.00     0.035 C 
ATOM      5  C   UNL     1      36.719 -34.560 -11.009  1.00  0.00     0.021 C 
ATOM      6  C   UNL     1      36.779 -35.978 -11.598  1.00  0.00     0.044 C 
ATOM      7  C   UNL     1      35.467 -36.735 -11.320  1.00  0.00     0.140 C 
ENDROOT
BRANCH   7   8
ATOM      8  O   UNL     1      35.411 -37.122  -9.971  1.00  0.00    -0.389 OA
ATOM      9  H   UNL     1      34.583 -37.658  -9.860  1.00  0.00     0.211 HD
ENDBRANCH   7   8
BRANCH   5  10
ATOM     10  C   UNL     1      38.051 -33.837 -11.153  1.00  0.00    -0.077 C 
ATOM     11  C   UNL     1      39.125 -34.260 -10.466  1.00  0.00     0.008 C 
ATOM     12  C   UNL     1      38.200 -32.634 -12.051  1.00  0.00     0.039 C 
ENDBRANCH   5  10
TORSDOF 2
ENDMDL
MODEL 5
REMARK VINA RESULT:    -1.997      1.817      2.535
REMARK INTER + INTRA:          -2.269
REMARK INTER:                  -2.183
REMARK INTRA:                  -0.085
REMARK UNBOUND:                -0.096
REMARK SMILES C=C(C)[C@H]1CC=C(C)[C@H](O)C1
REMARK SMILES IDX 8 1 7 2 6 3 5 4 4 5 11 6 9 7 10 8 2 10 1 11 3 12
REMARK H PARENT 10 9
REMARK Flexibility Score: inf
ROOT
ATOM      1  C   UNL     1      32.739 -34.648 -12.042  1.00  0.00     0.042 C 
ATOM      2  C   UNL     1      34.080 -35.143 -11.573  1.00  0.00    -0.049 C 
ATOM      3  C   UNL     1      35.000 -34.244 -11.159  1.00  0.00    -0.025 C 
ATOM      4  C   UNL     1      36.395 -34.627 -10.731  1.00  0.00     0.035 C 
ATOM      5  C   UNL     1      36.487 -36.100 -10.296  1.00  0.00     0.021 C 
ATOM      6  C   UNL     1      35.805 -36.997 -11.340  1.00  0.00     0.044 C 
ATOM      7  C   UNL     1      34.312 -36.641 -11.465  1.00  0.00     0.140 C 
ENDROOT
BRANCH   7   8
ATOM      8  O   UNL     1      33.607 -37.125 -10.350  1.00  0.00    -0.389 OA
ATOM      9  H   UNL     1      34.267 -37.587  -9.771  1.00  0.00     0.211 HD
ENDBRANCH   7   8
BRANCH   5  10
ATOM     10  C   UNL     1      37.931 -36.518 -10.057  1.00  0.00    -0.077 C 
ATOM     11  C   UNL     1      38.493 -36.342  -8.849  1.00  0.00     0.008 C 
ATOM     12  C   UNL     1      38.768 -37.124 -11.157  1.00  0.00     0.039 C 
ENDBRANCH   5  10
TORSDOF 2
ENDMDL
MODEL 6
REMARK VINA RESULT:    -0.700      1.526      2.022
REMARK INTER + INTRA:          -0.857
REMARK INTER:                  -0.769
REMARK INTRA:                  -0.088
REMARK UNBOUND:                -0.096
REMARK SMILES C=C(C)[C@H]1CC=C(C)[C@H](O)C1
REMARK SMILES IDX 8 1 7 2 6 3 5 4 4 5 11 6 9 7 10 8 2 10 1 11 3 12
REMARK H PARENT 10 9
REMARK Flexibility Score: inf
ROOT
ATOM      1  C   UNL     1      35.388 -31.720 -12.072  1.00  0.00     0.042 C 
ATOM      2  C   UNL     1      36.047 -32.933 -11.474  1.00  0.00    -0.049 C 
ATOM      3  C   UNL     1      35.449 -34.136 -11.611  1.00  0.00    -0.025 C 
ATOM      4  C   UNL     1      35.990 -35.402 -10.994  1.00  0.00     0.035 C 
ATOM      5  C   UNL     1      37.495 -35.305 -10.690  1.00  0.00     0.021 C 
ATOM      6  C   UNL     1      37.796 -33.988  -9.959  1.00  0.00     0.044 C 
ATOM      7  C   UNL     1      37.421 -32.783 -10.841  1.00  0.00     0.140 C 
ENDROOT
BRANCH   7   8
ATOM      8  O   UNL     1      38.370 -32.621 -11.864  1.00  0.00    -0.389 OA
ATOM      9  H   UNL     1      38.882 -33.469 -11.918  1.00  0.00     0.211 HD
ENDBRANCH   7   8
BRANCH   5  10
ATOM     10  C   UNL     1      37.978 -36.510  -9.894  1.00  0.00    -0.077 C 
ATOM     11  C   UNL     1      39.124 -37.125 -10.232  1.00  0.00     0.008 C 
ATOM     12  C   UNL     1      37.192 -37.048  -8.725  1.00  0.00     0.039 C 
ENDBRANCH   5  10
TORSDOF 2
ENDMDL
