MODEL 1
REMARK VINA RESULT:     6.826      0.000      0.000
REMARK INTER + INTRA:           8.057
REMARK INTER:                   8.223
REMARK INTRA:                  -0.166
REMARK UNBOUND:                -0.166
REMARK SMILES Oc1cc(O)c2c(c1)O[C@@H](c1ccc(O)c(O)c1)[C@H](O)C2
REMARK SMILES IDX 21 1 19 2 10 3 9 4 7 5 8 6 2 7 3 8 4 9 6 10 20 11 11 13
REMARK SMILES IDX 18 14 12 15 16 16 13 17 14 18 17 19 15 21 5 23 1 25
REMARK H PARENT 20 12 17 20 15 22 5 24 1 26
REMARK Flexibility Score: inf
ROOT
ATOM      1  C   UNL     1      36.294  -2.710  24.454  1.00  0.00     0.079 C 
ATOM      2  C   UNL     1      36.184  -2.109  25.867  1.00  0.00     0.164 C 
ATOM      3  C   UNL     1      34.905  -1.261  26.006  1.00  0.00     0.232 C 
ATOM      4  O   UNL     1      34.830  -0.290  24.958  1.00  0.00    -0.482 OA
ATOM      5  C   UNL     1      35.352  -0.501  23.674  1.00  0.00     0.131 A 
ATOM      6  C   UNL     1      35.143   0.472  22.692  1.00  0.00     0.093 A 
ATOM      7  C   UNL     1      35.626   0.281  21.397  1.00  0.00     0.122 A 
ATOM      8  C   UNL     1      36.306  -0.899  21.075  1.00  0.00     0.092 A 
ATOM      9  C   UNL     1      36.517  -1.888  22.042  1.00  0.00     0.126 A 
ATOM     10  C   UNL     1      36.074  -1.676  23.370  1.00  0.00     0.039 A 
ENDROOT
BRANCH   2  11
ATOM     11  O   UNL     1      37.299  -1.293  26.125  1.00  0.00    -0.389 OA
ATOM     12  H   UNL     1      37.523  -1.405  27.086  1.00  0.00     0.211 HD
ENDBRANCH   2  11
BRANCH   3  13
ATOM     13  C   UNL     1      33.657  -2.125  26.064  1.00  0.00    -0.001 A 
ATOM     14  C   UNL     1      32.363  -1.570  26.056  1.00  0.00     0.057 A 
ATOM     15  C   UNL     1      33.795  -3.525  26.074  1.00  0.00     0.012 A 
ATOM     16  C   UNL     1      31.232  -2.399  26.079  1.00  0.00     0.157 A 
ATOM     17  C   UNL     1      32.668  -4.349  26.096  1.00  0.00     0.050 A 
ATOM     18  C   UNL     1      31.384  -3.790  26.101  1.00  0.00     0.157 A 
BRANCH  16  19
ATOM     19  O   UNL     1      29.952  -1.845  26.079  1.00  0.00    -0.504 OA
ATOM     20  H   UNL     1      29.776  -0.917  26.446  1.00  0.00     0.293 HD
ENDBRANCH  16  19
BRANCH  18  21
ATOM     21  O   UNL     1      30.257  -4.609  26.125  1.00  0.00    -0.504 OA
ATOM     22  H   UNL     1      29.342  -4.245  26.364  1.00  0.00     0.293 HD
ENDBRANCH  18  21
ENDBRANCH   3  13
BRANCH   9  23
ATOM     23  O   UNL     1      37.153  -3.067  21.648  1.00  0.00    -0.507 OA
ATOM     24  H   UNL     1      38.138  -3.123  21.433  1.00  0.00     0.293 HD
ENDBRANCH   9  23
BRANCH   7  25
ATOM     25  O   UNL     1      35.418   1.267  20.436  1.00  0.00    -0.508 OA
ATOM     26  H   UNL     1      34.850   2.084  20.628  1.00  0.00     0.293 HD
ENDBRANCH   7  25
TORSDOF 6
ENDMDL
MODEL 2
REMARK VINA RESULT:     6.834     21.598     23.495
REMARK INTER + INTRA:           8.067
REMARK INTER:                   8.300
REMARK INTRA:                  -0.233
REMARK UNBOUND:                -0.166
REMARK SMILES Oc1cc(O)c2c(c1)O[C@@H](c1ccc(O)c(O)c1)[C@H](O)C2
REMARK SMILES IDX 21 1 19 2 10 3 9 4 7 5 8 6 2 7 3 8 4 9 6 10 20 11 11 13
REMARK SMILES IDX 18 14 12 15 16 16 13 17 14 18 17 19 15 21 5 23 1 25
REMARK H PARENT 20 12 17 20 15 22 5 24 1 26
REMARK Flexibility Score: inf
ROOT
ATOM      1  C   UNL     1      21.260   7.708   9.592  1.00  0.00     0.079 C 
ATOM      2  C   UNL     1      20.239   6.562   9.467  1.00  0.00     0.164 C 
ATOM      3  C   UNL     1      20.056   6.148   7.994  1.00  0.00     0.232 C 
ATOM      4  O   UNL     1      19.750   7.287   7.185  1.00  0.00    -0.482 OA
ATOM      5  C   UNL     1      20.227   8.576   7.459  1.00  0.00     0.131 A 
ATOM      6  C   UNL     1      19.949   9.605   6.554  1.00  0.00     0.093 A 
ATOM      7  C   UNL     1      20.431  10.894   6.782  1.00  0.00     0.122 A 
ATOM      8  C   UNL     1      21.214  11.154   7.912  1.00  0.00     0.092 A 
ATOM      9  C   UNL     1      21.511  10.135   8.825  1.00  0.00     0.126 A 
ATOM     10  C   UNL     1      20.980   8.838   8.624  1.00  0.00     0.039 A 
ENDROOT
BRANCH   2  11
ATOM     11  O   UNL     1      18.996   6.976   9.978  1.00  0.00    -0.389 OA
ATOM     12  H   UNL     1      18.787   6.381  10.745  1.00  0.00     0.211 HD
ENDBRANCH   2  11
BRANCH   3  13
ATOM     13  C   UNL     1      21.263   5.391   7.467  1.00  0.00    -0.001 A 
ATOM     14  C   UNL     1      21.459   4.021   7.727  1.00  0.00     0.057 A 
ATOM     15  C   UNL     1      22.189   6.065   6.650  1.00  0.00     0.012 A 
ATOM     16  C   UNL     1      22.568   3.345   7.198  1.00  0.00     0.157 A 
ATOM     17  C   UNL     1      23.294   5.391   6.124  1.00  0.00     0.050 A 
ATOM     18  C   UNL     1      23.488   4.031   6.398  1.00  0.00     0.157 A 
BRANCH  16  19
ATOM     19  O   UNL     1      22.761   1.991   7.465  1.00  0.00    -0.504 OA
ATOM     20  H   UNL     1      23.166   1.367   6.777  1.00  0.00     0.293 HD
ENDBRANCH  16  19
BRANCH  18  21
ATOM     21  O   UNL     1      24.589   3.356   5.875  1.00  0.00    -0.504 OA
ATOM     22  H   UNL     1      25.345   3.036   6.469  1.00  0.00     0.293 HD
ENDBRANCH  18  21
ENDBRANCH   3  13
BRANCH   9  23
ATOM     23  O   UNL     1      22.343  10.441   9.904  1.00  0.00    -0.507 OA
ATOM     24  H   UNL     1      22.827   9.743  10.450  1.00  0.00     0.293 HD
ENDBRANCH   9  23
BRANCH   7  25
ATOM     25  O   UNL     1      20.134  11.908   5.875  1.00  0.00    -0.508 OA
ATOM     26  H   UNL     1      20.852  12.529   5.519  1.00  0.00     0.293 HD
ENDBRANCH   7  25
TORSDOF 6
ENDMDL
MODEL 3
REMARK VINA RESULT:     8.659     21.764     23.963
REMARK INTER + INTRA:          10.266
REMARK INTER:                  10.526
REMARK INTRA:                  -0.260
REMARK UNBOUND:                -0.166
REMARK SMILES Oc1cc(O)c2c(c1)O[C@@H](c1ccc(O)c(O)c1)[C@H](O)C2
REMARK SMILES IDX 21 1 19 2 10 3 9 4 7 5 8 6 2 7 3 8 4 9 6 10 20 11 11 13
REMARK SMILES IDX 18 14 12 15 16 16 13 17 14 18 17 19 15 21 5 23 1 25
REMARK H PARENT 20 12 17 20 15 22 5 24 1 26
REMARK Flexibility Score: inf
ROOT
ATOM      1  C   UNL     1      21.377   7.555   8.772  1.00  0.00     0.079 C 
ATOM      2  C   UNL     1      20.916   6.275   8.050  1.00  0.00     0.164 C 
ATOM      3  C   UNL     1      21.297   6.319   6.558  1.00  0.00     0.232 C 
ATOM      4  O   UNL     1      20.823   7.526   5.954  1.00  0.00    -0.482 OA
ATOM      5  C   UNL     1      20.707   8.740   6.646  1.00  0.00     0.131 A 
ATOM      6  C   UNL     1      20.325   9.884   5.941  1.00  0.00     0.093 A 
ATOM      7  C   UNL     1      20.225  11.114   6.594  1.00  0.00     0.122 A 
ATOM      8  C   UNL     1      20.528  11.204   7.957  1.00  0.00     0.092 A 
ATOM      9  C   UNL     1      20.921  10.070   8.677  1.00  0.00     0.126 A 
ATOM     10  C   UNL     1      20.974   8.812   8.030  1.00  0.00     0.039 A 
ENDROOT
BRANCH   2  11
ATOM     11  O   UNL     1      19.520   6.146   8.158  1.00  0.00    -0.389 OA
ATOM     12  H   UNL     1      19.258   6.558   9.023  1.00  0.00     0.211 HD
ENDBRANCH   2  11
BRANCH   3  13
ATOM     13  C   UNL     1      22.790   6.133   6.350  1.00  0.00    -0.001 A 
ATOM     14  C   UNL     1      23.665   7.226   6.195  1.00  0.00     0.057 A 
ATOM     15  C   UNL     1      23.325   4.832   6.364  1.00  0.00     0.012 A 
ATOM     16  C   UNL     1      25.043   7.019   6.036  1.00  0.00     0.157 A 
ATOM     17  C   UNL     1      24.698   4.627   6.206  1.00  0.00     0.050 A 
ATOM     18  C   UNL     1      25.559   5.718   6.040  1.00  0.00     0.157 A 
BRANCH  16  19
ATOM     19  O   UNL     1      25.904   8.103   5.875  1.00  0.00    -0.504 OA
ATOM     20  H   UNL     1      25.865   8.908   6.489  1.00  0.00     0.293 HD
ENDBRANCH  16  19
BRANCH  18  21
ATOM     21  O   UNL     1      26.930   5.517   5.881  1.00  0.00    -0.504 OA
ATOM     22  H   UNL     1      27.574   6.296   5.808  1.00  0.00     0.293 HD
ENDBRANCH  18  21
ENDBRANCH   3  13
BRANCH   9  23
ATOM     23  O   UNL     1      21.265  10.233  10.021  1.00  0.00    -0.507 OA
ATOM     24  H   UNL     1      22.109  10.694  10.329  1.00  0.00     0.293 HD
ENDBRANCH   9  23
BRANCH   7  25
ATOM     25  O   UNL     1      19.832  12.241   5.877  1.00  0.00    -0.508 OA
ATOM     26  H   UNL     1      20.258  13.147   6.037  1.00  0.00     0.293 HD
ENDBRANCH   7  25
TORSDOF 6
ENDMDL
