MODEL 1
REMARK VINA RESULT:    -6.501      0.000      0.000
REMARK INTER + INTRA:          -7.948
REMARK INTER:                  -7.641
REMARK INTRA:                  -0.307
REMARK UNBOUND:                -0.307
REMARK SMILES Oc1ccc(-c2[o+]c3cc(O)cc(O)c3cc2O)cc1
REMARK SMILES IDX 6 1 7 2 8 3 9 4 10 5 12 6 13 7 15 8 16 9 17 10 5 11 4 12
REMARK SMILES IDX 3 13 2 14 19 15 20 16 1 17 18 19 11 21 14 23
REMARK H PARENT 1 18 18 20 11 22 14 24
REMARK Flexibility Score: inf
ROOT
ATOM      1  C   UNL     1       7.984  -7.495  42.660  1.00  0.00     0.401 A 
ATOM      2  O   UNL     1       7.612  -8.155  41.566  1.00  0.00    -0.202 OA
ATOM      3  C   UNL     1       7.252  -9.435  41.571  1.00  0.00     0.368 A 
ATOM      4  C   UNL     1       6.879 -10.041  40.370  1.00  0.00     0.162 A 
ATOM      5  C   UNL     1       6.499 -11.384  40.345  1.00  0.00     0.128 A 
ATOM      6  C   UNL     1       6.493 -12.127  41.530  1.00  0.00     0.093 A 
ATOM      7  C   UNL     1       6.862 -11.543  42.748  1.00  0.00     0.136 A 
ATOM      8  C   UNL     1       7.246 -10.177  42.777  1.00  0.00     0.125 A 
ATOM      9  C   UNL     1       7.619  -9.504  43.952  1.00  0.00     0.078 A 
ATOM     10  C   UNL     1       7.981  -8.155  43.904  1.00  0.00     0.223 A 
ENDROOT
BRANCH   1  11
ATOM     11  C   UNL     1       8.373  -6.074  42.522  1.00  0.00     0.084 A 
ATOM     12  C   UNL     1       9.703  -5.748  42.209  1.00  0.00     0.022 A 
ATOM     13  C   UNL     1      10.097  -4.411  42.095  1.00  0.00     0.047 A 
ATOM     14  C   UNL     1       9.172  -3.384  42.304  1.00  0.00     0.115 A 
ATOM     15  C   UNL     1       7.451  -5.035  42.751  1.00  0.00     0.022 A 
ATOM     16  C   UNL     1       7.848  -3.700  42.636  1.00  0.00     0.047 A 
BRANCH  14  17
ATOM     17  O   UNL     1       9.579  -2.057  42.186  1.00  0.00    -0.508 OA
ATOM     18  H   UNL     1      10.458  -1.810  41.745  1.00  0.00     0.293 HD
ENDBRANCH  14  17
ENDBRANCH   1  11
BRANCH  10  19
ATOM     19  O   UNL     1       8.303  -7.474  45.078  1.00  0.00    -0.500 OA
ATOM     20  H   UNL     1       7.792  -7.628  45.939  1.00  0.00     0.294 HD
ENDBRANCH  10  19
BRANCH   5  21
ATOM     21  O   UNL     1       6.131 -11.970  39.137  1.00  0.00    -0.507 OA
ATOM     22  H   UNL     1       5.343 -12.604  39.074  1.00  0.00     0.293 HD
ENDBRANCH   5  21
BRANCH   7  23
ATOM     23  O   UNL     1       6.832 -12.353  43.887  1.00  0.00    -0.507 OA
ATOM     24  H   UNL     1       7.311 -12.142  44.750  1.00  0.00     0.293 HD
ENDBRANCH   7  23
TORSDOF 5
ENDMDL
MODEL 2
REMARK VINA RESULT:    -6.199      1.872      3.901
REMARK INTER + INTRA:          -7.594
REMARK INTER:                  -7.280
REMARK INTRA:                  -0.314
REMARK UNBOUND:                -0.307
REMARK SMILES Oc1ccc(-c2[o+]c3cc(O)cc(O)c3cc2O)cc1
REMARK SMILES IDX 6 1 7 2 8 3 9 4 10 5 12 6 13 7 15 8 16 9 17 10 5 11 4 12
REMARK SMILES IDX 3 13 2 14 19 15 20 16 1 17 18 19 11 21 14 23
REMARK H PARENT 1 18 18 20 11 22 14 24
REMARK Flexibility Score: inf
ROOT
ATOM      1  C   UNL     1       8.887  -4.956  42.178  1.00  0.00     0.401 A 
ATOM      2  O   UNL     1       8.861  -5.845  43.167  1.00  0.00    -0.202 OA
ATOM      3  C   UNL     1       8.365  -7.070  43.035  1.00  0.00     0.368 A 
ATOM      4  C   UNL     1       8.379  -7.932  44.135  1.00  0.00     0.162 A 
ATOM      5  C   UNL     1       7.862  -9.224  44.026  1.00  0.00     0.128 A 
ATOM      6  C   UNL     1       7.324  -9.657  42.810  1.00  0.00     0.093 A 
ATOM      7  C   UNL     1       7.297  -8.814  41.693  1.00  0.00     0.136 A 
ATOM      8  C   UNL     1       7.825  -7.500  41.799  1.00  0.00     0.125 A 
ATOM      9  C   UNL     1       7.853  -6.591  40.730  1.00  0.00     0.078 A 
ATOM     10  C   UNL     1       8.394  -5.314  40.909  1.00  0.00     0.223 A 
ENDROOT
BRANCH   1  11
ATOM     11  C   UNL     1       9.458  -3.618  42.453  1.00  0.00     0.084 A 
ATOM     12  C   UNL     1       8.622  -2.594  42.930  1.00  0.00     0.022 A 
ATOM     13  C   UNL     1       9.136  -1.318  43.176  1.00  0.00     0.047 A 
ATOM     14  C   UNL     1      10.486  -1.043  42.938  1.00  0.00     0.115 A 
ATOM     15  C   UNL     1      10.812  -3.331  42.196  1.00  0.00     0.022 A 
ATOM     16  C   UNL     1      11.322  -2.053  42.444  1.00  0.00     0.047 A 
BRANCH  14  17
ATOM     17  O   UNL     1      10.984   0.234  43.189  1.00  0.00    -0.508 OA
ATOM     18  H   UNL     1      11.622   0.411  43.957  1.00  0.00     0.293 HD
ENDBRANCH  14  17
ENDBRANCH   1  11
BRANCH  10  19
ATOM     19  O   UNL     1       8.467  -4.428  39.834  1.00  0.00    -0.500 OA
ATOM     20  H   UNL     1       8.993  -4.649  38.997  1.00  0.00     0.294 HD
ENDBRANCH  10  19
BRANCH   5  21
ATOM     21  O   UNL     1       7.885 -10.067  45.133  1.00  0.00    -0.507 OA
ATOM     22  H   UNL     1       7.146 -10.739  45.304  1.00  0.00     0.293 HD
ENDBRANCH   5  21
BRANCH   7  23
ATOM     23  O   UNL     1       6.741  -9.321  40.515  1.00  0.00    -0.507 OA
ATOM     24  H   UNL     1       7.178  -9.265  39.607  1.00  0.00     0.293 HD
ENDBRANCH   7  23
TORSDOF 5
ENDMDL
MODEL 3
REMARK VINA RESULT:    -6.037      1.856      7.388
REMARK INTER + INTRA:          -7.403
REMARK INTER:                  -7.098
REMARK INTRA:                  -0.305
REMARK UNBOUND:                -0.307
REMARK SMILES Oc1ccc(-c2[o+]c3cc(O)cc(O)c3cc2O)cc1
REMARK SMILES IDX 6 1 7 2 8 3 9 4 10 5 12 6 13 7 15 8 16 9 17 10 5 11 4 12
REMARK SMILES IDX 3 13 2 14 19 15 20 16 1 17 18 19 11 21 14 23
REMARK H PARENT 1 18 18 20 11 22 14 24
REMARK Flexibility Score: inf
ROOT
ATOM      1  C   UNL     1       8.449  -5.720  42.676  1.00  0.00     0.401 A 
ATOM      2  O   UNL     1       9.682  -5.372  42.318  1.00  0.00    -0.202 OA
ATOM      3  C   UNL     1      10.082  -4.109  42.208  1.00  0.00     0.368 A 
ATOM      4  C   UNL     1      11.397  -3.844  41.822  1.00  0.00     0.162 A 
ATOM      5  C   UNL     1      11.844  -2.528  41.696  1.00  0.00     0.128 A 
ATOM      6  C   UNL     1      10.968  -1.468  41.954  1.00  0.00     0.093 A 
ATOM      7  C   UNL     1       9.644  -1.707  42.343  1.00  0.00     0.136 A 
ATOM      8  C   UNL     1       9.188  -3.044  42.475  1.00  0.00     0.125 A 
ATOM      9  C   UNL     1       7.883  -3.379  42.871  1.00  0.00     0.078 A 
ATOM     10  C   UNL     1       7.506  -4.721  42.984  1.00  0.00     0.223 A 
ENDROOT
BRANCH   1  11
ATOM     11  C   UNL     1       8.123  -7.162  42.752  1.00  0.00     0.084 A 
ATOM     12  C   UNL     1       7.695  -7.837  41.597  1.00  0.00     0.022 A 
ATOM     13  C   UNL     1       7.362  -9.193  41.651  1.00  0.00     0.047 A 
ATOM     14  C   UNL     1       7.438  -9.890  42.860  1.00  0.00     0.115 A 
ATOM     15  C   UNL     1       8.178  -7.863  43.972  1.00  0.00     0.022 A 
ATOM     16  C   UNL     1       7.844  -9.220  44.022  1.00  0.00     0.047 A 
BRANCH  14  17
ATOM     17  O   UNL     1       7.103 -11.242  42.899  1.00  0.00    -0.508 OA
ATOM     18  H   UNL     1       6.147 -11.554  42.770  1.00  0.00     0.293 HD
ENDBRANCH  14  17
ENDBRANCH   1  11
BRANCH  10  19
ATOM     19  O   UNL     1       6.226  -5.054  43.426  1.00  0.00    -0.500 OA
ATOM     20  H   UNL     1       5.401  -4.589  43.065  1.00  0.00     0.294 HD
ENDBRANCH  10  19
BRANCH   5  21
ATOM     21  O   UNL     1      13.159  -2.283  41.310  1.00  0.00    -0.507 OA
ATOM     22  H   UNL     1      13.938  -2.762  41.748  1.00  0.00     0.293 HD
ENDBRANCH   5  21
BRANCH   7  23
ATOM     23  O   UNL     1       8.832  -0.595  42.581  1.00  0.00    -0.507 OA
ATOM     24  H   UNL     1       8.853  -0.043  43.426  1.00  0.00     0.293 HD
ENDBRANCH   7  23
TORSDOF 5
ENDMDL
MODEL 4
REMARK VINA RESULT:    -6.020      1.969      6.994
REMARK INTER + INTRA:          -7.383
REMARK INTER:                  -7.117
REMARK INTRA:                  -0.266
REMARK UNBOUND:                -0.307
REMARK SMILES Oc1ccc(-c2[o+]c3cc(O)cc(O)c3cc2O)cc1
REMARK SMILES IDX 6 1 7 2 8 3 9 4 10 5 12 6 13 7 15 8 16 9 17 10 5 11 4 12
REMARK SMILES IDX 3 13 2 14 19 15 20 16 1 17 18 19 11 21 14 23
REMARK H PARENT 1 18 18 20 11 22 14 24
REMARK Flexibility Score: inf
ROOT
ATOM      1  C   UNL     1       7.194 -11.030  41.823  1.00  0.00     0.401 A 
ATOM      2  O   UNL     1       7.921 -10.064  41.268  1.00  0.00    -0.202 OA
ATOM      3  C   UNL     1       8.274  -8.955  41.909  1.00  0.00     0.368 A 
ATOM      4  C   UNL     1       9.037  -7.996  41.239  1.00  0.00     0.162 A 
ATOM      5  C   UNL     1       9.420  -6.820  41.886  1.00  0.00     0.128 A 
ATOM      6  C   UNL     1       9.035  -6.600  43.213  1.00  0.00     0.093 A 
ATOM      7  C   UNL     1       8.270  -7.545  43.907  1.00  0.00     0.136 A 
ATOM      8  C   UNL     1       7.882  -8.744  43.253  1.00  0.00     0.125 A 
ATOM      9  C   UNL     1       7.127  -9.752  43.873  1.00  0.00     0.078 A 
ATOM     10  C   UNL     1       6.786 -10.909  43.165  1.00  0.00     0.223 A 
ENDROOT
BRANCH   1  11
ATOM     11  C   UNL     1       6.857 -12.214  41.001  1.00  0.00     0.084 A 
ATOM     12  C   UNL     1       7.869 -13.124  40.652  1.00  0.00     0.022 A 
ATOM     13  C   UNL     1       7.577 -14.238  39.858  1.00  0.00     0.047 A 
ATOM     14  C   UNL     1       6.277 -14.449  39.392  1.00  0.00     0.115 A 
ATOM     15  C   UNL     1       5.554 -12.421  40.511  1.00  0.00     0.022 A 
ATOM     16  C   UNL     1       5.266 -13.535  39.717  1.00  0.00     0.047 A 
BRANCH  14  17
ATOM     17  O   UNL     1       6.001 -15.563  38.602  1.00  0.00    -0.508 OA
ATOM     18  H   UNL     1       6.627 -15.853  37.859  1.00  0.00     0.293 HD
ENDBRANCH  14  17
ENDBRANCH   1  11
BRANCH  10  19
ATOM     19  O   UNL     1       6.080 -11.933  43.796  1.00  0.00    -0.500 OA
ATOM     20  H   UNL     1       6.528 -12.565  44.448  1.00  0.00     0.294 HD
ENDBRANCH  10  19
BRANCH   5  21
ATOM     21  O   UNL     1      10.180  -5.876  41.201  1.00  0.00    -0.507 OA
ATOM     22  H   UNL     1       9.939  -5.580  40.262  1.00  0.00     0.293 HD
ENDBRANCH   5  21
BRANCH   7  23
ATOM     23  O   UNL     1       7.925  -7.250  45.229  1.00  0.00    -0.507 OA
ATOM     24  H   UNL     1       7.279  -6.524  45.501  1.00  0.00     0.293 HD
ENDBRANCH   7  23
TORSDOF 5
ENDMDL
MODEL 5
REMARK VINA RESULT:    -5.917      2.290      6.953
REMARK INTER + INTRA:          -7.262
REMARK INTER:                  -6.977
REMARK INTRA:                  -0.285
REMARK UNBOUND:                -0.307
REMARK SMILES Oc1ccc(-c2[o+]c3cc(O)cc(O)c3cc2O)cc1
REMARK SMILES IDX 6 1 7 2 8 3 9 4 10 5 12 6 13 7 15 8 16 9 17 10 5 11 4 12
REMARK SMILES IDX 3 13 2 14 19 15 20 16 1 17 18 19 11 21 14 23
REMARK H PARENT 1 18 18 20 11 22 14 24
REMARK Flexibility Score: inf
ROOT
ATOM      1  C   UNL     1       8.588  -6.458  41.731  1.00  0.00     0.401 A 
ATOM      2  O   UNL     1       9.723  -6.438  41.037  1.00  0.00    -0.202 OA
ATOM      3  C   UNL     1      10.225  -5.336  40.489  1.00  0.00     0.368 A 
ATOM      4  C   UNL     1      11.423  -5.417  39.776  1.00  0.00     0.162 A 
ATOM      5  C   UNL     1      11.972  -4.277  39.188  1.00  0.00     0.128 A 
ATOM      6  C   UNL     1      11.319  -3.046  39.313  1.00  0.00     0.093 A 
ATOM      7  C   UNL     1      10.117  -2.938  40.023  1.00  0.00     0.136 A 
ATOM      8  C   UNL     1       9.557  -4.095  40.625  1.00  0.00     0.125 A 
ATOM      9  C   UNL     1       8.365  -4.080  41.366  1.00  0.00     0.078 A 
ATOM     10  C   UNL     1       7.876  -5.261  41.934  1.00  0.00     0.223 A 
ENDROOT
BRANCH   1  11
ATOM     11  C   UNL     1       8.127  -7.752  42.282  1.00  0.00     0.084 A 
ATOM     12  C   UNL     1       7.429  -8.647  41.454  1.00  0.00     0.022 A 
ATOM     13  C   UNL     1       6.967  -9.866  41.960  1.00  0.00     0.047 A 
ATOM     14  C   UNL     1       7.182 -10.200  43.300  1.00  0.00     0.115 A 
ATOM     15  C   UNL     1       8.324  -8.085  43.636  1.00  0.00     0.022 A 
ATOM     16  C   UNL     1       7.859  -9.304  44.138  1.00  0.00     0.047 A 
BRANCH  14  17
ATOM     17  O   UNL     1       6.716 -11.418  43.790  1.00  0.00    -0.508 OA
ATOM     18  H   UNL     1       7.193 -11.904  44.541  1.00  0.00     0.293 HD
ENDBRANCH  14  17
ENDBRANCH   1  11
BRANCH  10  19
ATOM     19  O   UNL     1       6.719  -5.236  42.712  1.00  0.00    -0.500 OA
ATOM     20  H   UNL     1       6.163  -6.070  42.866  1.00  0.00     0.294 HD
ENDBRANCH  10  19
BRANCH   5  21
ATOM     21  O   UNL     1      13.167  -4.377  38.480  1.00  0.00    -0.507 OA
ATOM     22  H   UNL     1      13.214  -4.178  37.487  1.00  0.00     0.293 HD
ENDBRANCH   5  21
BRANCH   7  23
ATOM     23  O   UNL     1       9.525  -1.674  40.101  1.00  0.00    -0.507 OA
ATOM     24  H   UNL     1       8.601  -1.455  39.760  1.00  0.00     0.293 HD
ENDBRANCH   7  23
TORSDOF 5
ENDMDL
MODEL 6
REMARK VINA RESULT:    -5.899      1.782      7.197
REMARK INTER + INTRA:          -7.241
REMARK INTER:                  -7.103
REMARK INTRA:                  -0.139
REMARK UNBOUND:                -0.307
REMARK SMILES Oc1ccc(-c2[o+]c3cc(O)cc(O)c3cc2O)cc1
REMARK SMILES IDX 6 1 7 2 8 3 9 4 10 5 12 6 13 7 15 8 16 9 17 10 5 11 4 12
REMARK SMILES IDX 3 13 2 14 19 15 20 16 1 17 18 19 11 21 14 23
REMARK H PARENT 1 18 18 20 11 22 14 24
REMARK Flexibility Score: inf
ROOT
ATOM      1  C   UNL     1       8.818  -6.993  41.988  1.00  0.00     0.401 A 
ATOM      2  O   UNL     1       8.450  -5.826  42.513  1.00  0.00    -0.202 OA
ATOM      3  C   UNL     1       9.002  -4.666  42.174  1.00  0.00     0.368 A 
ATOM      4  C   UNL     1       8.548  -3.494  42.783  1.00  0.00     0.162 A 
ATOM      5  C   UNL     1       9.112  -2.261  42.449  1.00  0.00     0.128 A 
ATOM      6  C   UNL     1      10.138  -2.200  41.501  1.00  0.00     0.093 A 
ATOM      7  C   UNL     1      10.610  -3.360  40.875  1.00  0.00     0.136 A 
ATOM      8  C   UNL     1      10.037  -4.615  41.210  1.00  0.00     0.125 A 
ATOM      9  C   UNL     1      10.438  -5.827  40.626  1.00  0.00     0.078 A 
ATOM     10  C   UNL     1       9.823  -7.025  41.004  1.00  0.00     0.223 A 
ENDROOT
BRANCH   1  11
ATOM     11  C   UNL     1       8.132  -8.218  42.456  1.00  0.00     0.084 A 
ATOM     12  C   UNL     1       7.346  -8.957  41.556  1.00  0.00     0.022 A 
ATOM     13  C   UNL     1       6.673 -10.106  41.982  1.00  0.00     0.047 A 
ATOM     14  C   UNL     1       6.764 -10.524  43.313  1.00  0.00     0.115 A 
ATOM     15  C   UNL     1       8.204  -8.632  43.800  1.00  0.00     0.022 A 
ATOM     16  C   UNL     1       7.529  -9.781  44.222  1.00  0.00     0.047 A 
BRANCH  14  17
ATOM     17  O   UNL     1       6.088 -11.671  43.723  1.00  0.00    -0.508 OA
ATOM     18  H   UNL     1       6.229 -12.562  43.259  1.00  0.00     0.293 HD
ENDBRANCH  14  17
ENDBRANCH   1  11
BRANCH  10  19
ATOM     19  O   UNL     1      10.186  -8.223  40.387  1.00  0.00    -0.500 OA
ATOM     20  H   UNL     1       9.660  -9.077  40.533  1.00  0.00     0.294 HD
ENDBRANCH  10  19
BRANCH   5  21
ATOM     21  O   UNL     1       8.647  -1.104  43.068  1.00  0.00    -0.507 OA
ATOM     22  H   UNL     1       8.830  -0.186  42.681  1.00  0.00     0.293 HD
ENDBRANCH   5  21
BRANCH   7  23
ATOM     23  O   UNL     1      11.639  -3.215  39.940  1.00  0.00    -0.507 OA
ATOM     24  H   UNL     1      11.504  -3.200  38.940  1.00  0.00     0.293 HD
ENDBRANCH   7  23
TORSDOF 5
ENDMDL
MODEL 7
REMARK VINA RESULT:    -5.888      5.977      9.941
REMARK INTER + INTRA:          -7.228
REMARK INTER:                  -6.936
REMARK INTRA:                  -0.291
REMARK UNBOUND:                -0.307
REMARK SMILES Oc1ccc(-c2[o+]c3cc(O)cc(O)c3cc2O)cc1
REMARK SMILES IDX 6 1 7 2 8 3 9 4 10 5 12 6 13 7 15 8 16 9 17 10 5 11 4 12
REMARK SMILES IDX 3 13 2 14 19 15 20 16 1 17 18 19 11 21 14 23
REMARK H PARENT 1 18 18 20 11 22 14 24
REMARK Flexibility Score: inf
ROOT
ATOM      1  C   UNL     1      10.245  -1.072  43.280  1.00  0.00     0.401 A 
ATOM      2  O   UNL     1       9.640  -0.688  44.402  1.00  0.00    -0.202 OA
ATOM      3  C   UNL     1      10.287  -0.169  45.440  1.00  0.00     0.368 A 
ATOM      4  C   UNL     1       9.564   0.201  46.576  1.00  0.00     0.162 A 
ATOM      5  C   UNL     1      10.218   0.746  47.682  1.00  0.00     0.128 A 
ATOM      6  C   UNL     1      11.606   0.921  47.654  1.00  0.00     0.093 A 
ATOM      7  C   UNL     1      12.354   0.558  46.528  1.00  0.00     0.136 A 
ATOM      8  C   UNL     1      11.692   0.006  45.400  1.00  0.00     0.125 A 
ATOM      9  C   UNL     1      12.358  -0.374  44.223  1.00  0.00     0.078 A 
ATOM     10  C   UNL     1      11.637  -0.907  43.150  1.00  0.00     0.223 A 
ENDROOT
BRANCH   1  11
ATOM     11  C   UNL     1       9.414  -1.645  42.198  1.00  0.00     0.084 A 
ATOM     12  C   UNL     1       9.073  -3.007  42.237  1.00  0.00     0.022 A 
ATOM     13  C   UNL     1       8.306  -3.575  41.214  1.00  0.00     0.047 A 
ATOM     14  C   UNL     1       7.884  -2.794  40.134  1.00  0.00     0.115 A 
ATOM     15  C   UNL     1       9.002  -0.868  41.099  1.00  0.00     0.022 A 
ATOM     16  C   UNL     1       8.236  -1.440  40.078  1.00  0.00     0.047 A 
BRANCH  14  17
ATOM     17  O   UNL     1       7.120  -3.373  39.123  1.00  0.00    -0.508 OA
ATOM     18  H   UNL     1       6.227  -2.982  38.845  1.00  0.00     0.293 HD
ENDBRANCH  14  17
ENDBRANCH   1  11
BRANCH  10  19
ATOM     19  O   UNL     1      12.291  -1.238  41.963  1.00  0.00    -0.500 OA
ATOM     20  H   UNL     1      12.175  -2.144  41.526  1.00  0.00     0.294 HD
ENDBRANCH  10  19
BRANCH   5  21
ATOM     21  O   UNL     1       9.480   1.109  48.806  1.00  0.00    -0.507 OA
ATOM     22  H   UNL     1       9.432   0.514  49.624  1.00  0.00     0.293 HD
ENDBRANCH   5  21
BRANCH   7  23
ATOM     23  O   UNL     1      13.736   0.762  46.579  1.00  0.00    -0.507 OA
ATOM     24  H   UNL     1      14.223   1.496  46.087  1.00  0.00     0.293 HD
ENDBRANCH   7  23
TORSDOF 5
ENDMDL
MODEL 8
REMARK VINA RESULT:    -5.709      6.110      7.966
REMARK INTER + INTRA:          -7.018
REMARK INTER:                  -6.989
REMARK INTRA:                  -0.029
REMARK UNBOUND:                -0.307
REMARK SMILES Oc1ccc(-c2[o+]c3cc(O)cc(O)c3cc2O)cc1
REMARK SMILES IDX 6 1 7 2 8 3 9 4 10 5 12 6 13 7 15 8 16 9 17 10 5 11 4 12
REMARK SMILES IDX 3 13 2 14 19 15 20 16 1 17 18 19 11 21 14 23
REMARK H PARENT 1 18 18 20 11 22 14 24
REMARK Flexibility Score: inf
ROOT
ATOM      1  C   UNL     1       8.201  -2.335  39.673  1.00  0.00     0.401 A 
ATOM      2  O   UNL     1       7.369  -1.586  38.954  1.00  0.00    -0.202 OA
ATOM      3  C   UNL     1       7.072  -1.837  37.683  1.00  0.00     0.368 A 
ATOM      4  C   UNL     1       6.189  -0.990  37.011  1.00  0.00     0.162 A 
ATOM      5  C   UNL     1       5.861  -1.228  35.675  1.00  0.00     0.128 A 
ATOM      6  C   UNL     1       6.421  -2.320  35.006  1.00  0.00     0.093 A 
ATOM      7  C   UNL     1       7.309  -3.185  35.657  1.00  0.00     0.136 A 
ATOM      8  C   UNL     1       7.643  -2.948  37.016  1.00  0.00     0.125 A 
ATOM      9  C   UNL     1       8.513  -3.768  37.752  1.00  0.00     0.078 A 
ATOM     10  C   UNL     1       8.790  -3.473  39.091  1.00  0.00     0.223 A 
ENDROOT
BRANCH   1  11
ATOM     11  C   UNL     1       8.459  -1.945  41.077  1.00  0.00     0.084 A 
ATOM     12  C   UNL     1       8.934  -0.653  41.359  1.00  0.00     0.022 A 
ATOM     13  C   UNL     1       9.204  -0.270  42.677  1.00  0.00     0.047 A 
ATOM     14  C   UNL     1       9.018  -1.175  43.726  1.00  0.00     0.115 A 
ATOM     15  C   UNL     1       8.292  -2.858  42.136  1.00  0.00     0.022 A 
ATOM     16  C   UNL     1       8.564  -2.471  43.451  1.00  0.00     0.047 A 
BRANCH  14  17
ATOM     17  O   UNL     1       9.291  -0.778  45.033  1.00  0.00    -0.508 OA
ATOM     18  H   UNL     1       8.870  -1.248  45.827  1.00  0.00     0.293 HD
ENDBRANCH  14  17
ENDBRANCH   1  11
BRANCH  10  19
ATOM     19  O   UNL     1       9.614  -4.316  39.836  1.00  0.00    -0.500 OA
ATOM     20  H   UNL     1       9.980  -5.179  39.453  1.00  0.00     0.294 HD
ENDBRANCH  10  19
BRANCH   5  21
ATOM     21  O   UNL     1       4.978  -0.372  35.022  1.00  0.00    -0.507 OA
ATOM     22  H   UNL     1       5.186   0.613  34.902  1.00  0.00     0.293 HD
ENDBRANCH   5  21
BRANCH   7  23
ATOM     23  O   UNL     1       7.828  -4.253  34.918  1.00  0.00    -0.507 OA
ATOM     24  H   UNL     1       7.715  -4.365  33.921  1.00  0.00     0.293 HD
ENDBRANCH   7  23
TORSDOF 5
ENDMDL
