MODEL 1
REMARK VINA RESULT:    15.502      0.000      0.000
REMARK INTER + INTRA:          34.322
REMARK INTER:                  35.440
REMARK INTRA:                  -1.118
REMARK UNBOUND:                -1.118
REMARK SMILES CCCCCCCCCCCCCCCCCCCCCCCC(=O)[O-]
REMARK SMILES IDX 13 1 14 2 15 3 16 4 17 5 18 6 19 7 20 8 21 9 22 10 23 11
REMARK SMILES IDX 24 12 25 13 26 14 12 15 11 16 10 17 9 18 8 19 7 20 6 21 5 22
REMARK SMILES IDX 4 23 3 24 2 25 1 26
REMARK H PARENT
REMARK Flexibility Score: inf
ROOT
ATOM      1  C   UNL     1     -13.450  58.132  -4.275  1.00  0.00     0.000 C 
ENDROOT
BRANCH   1   2
ATOM      2  C   UNL     1     -12.405  58.936  -3.485  1.00  0.00     0.000 C 
BRANCH   2   3
ATOM      3  C   UNL     1     -11.171  58.096  -3.109  1.00  0.00     0.000 C 
BRANCH   3   4
ATOM      4  C   UNL     1     -11.383  56.594  -3.360  1.00  0.00     0.000 C 
BRANCH   4   5
ATOM      5  C   UNL     1     -10.627  56.089  -4.599  1.00  0.00     0.000 C 
BRANCH   5   6
ATOM      6  C   UNL     1     -10.256  54.610  -4.449  1.00  0.00     0.000 C 
BRANCH   6   7
ATOM      7  C   UNL     1      -8.947  54.448  -3.660  1.00  0.00     0.000 C 
BRANCH   7   8
ATOM      8  C   UNL     1      -8.333  53.041  -3.810  1.00  0.00     0.000 C 
BRANCH   8   9
ATOM      9  C   UNL     1      -8.570  52.114  -2.602  1.00  0.00     0.000 C 
BRANCH   9  10
ATOM     10  C   UNL     1      -8.452  50.612  -2.929  1.00  0.00     0.006 C 
BRANCH  10  11
ATOM     11  C   UNL     1      -9.290  49.743  -1.981  1.00  0.00     0.053 C 
BRANCH  11  12
ATOM     12  C   UNL     1     -10.413  49.088  -2.721  1.00  0.00     0.041 C 
ATOM     13  O   UNL     1     -11.567  49.046  -2.215  1.00  0.00    -0.550 OA
ATOM     14  O   UNL     1     -10.196  48.566  -3.992  1.00  0.00    -0.550 OA
ENDBRANCH  11  12
ENDBRANCH  10  11
ENDBRANCH   9  10
ENDBRANCH   8   9
ENDBRANCH   7   8
ENDBRANCH   6   7
ENDBRANCH   5   6
ENDBRANCH   4   5
ENDBRANCH   3   4
ENDBRANCH   2   3
ENDBRANCH   1   2
BRANCH   1  15
ATOM     15  C   UNL     1     -14.646  58.994  -4.719  1.00  0.00     0.000 C 
BRANCH  15  16
ATOM     16  C   UNL     1     -14.880  60.199  -3.792  1.00  0.00     0.000 C 
BRANCH  16  17
ATOM     17  C   UNL     1     -16.145  60.044  -2.930  1.00  0.00     0.000 C 
BRANCH  17  18
ATOM     18  C   UNL     1     -17.314  60.910  -3.429  1.00  0.00    -0.000 C 
BRANCH  18  19
ATOM     19  C   UNL     1     -18.677  60.194  -3.531  1.00  0.00    -0.000 C 
BRANCH  19  20
ATOM     20  C   UNL     1     -18.691  58.711  -3.101  1.00  0.00    -0.000 C 
BRANCH  20  21
ATOM     21  C   UNL     1     -18.416  58.475  -1.598  1.00  0.00    -0.000 C 
BRANCH  21  22
ATOM     22  C   UNL     1     -17.266  57.488  -1.321  1.00  0.00    -0.000 C 
BRANCH  22  23
ATOM     23  C   UNL     1     -17.410  56.120  -2.010  1.00  0.00    -0.000 C 
BRANCH  23  24
ATOM     24  C   UNL     1     -16.479  55.963  -3.220  1.00  0.00    -0.000 C 
BRANCH  24  25
ATOM     25  C   UNL     1     -17.028  54.920  -4.203  1.00  0.00    -0.003 C 
ATOM     26  C   UNL     1     -17.149  55.500  -5.610  1.00  0.00     0.004 C 
ENDBRANCH  24  25
ENDBRANCH  23  24
ENDBRANCH  22  23
ENDBRANCH  21  22
ENDBRANCH  20  21
ENDBRANCH  19  20
ENDBRANCH  18  19
ENDBRANCH  17  18
ENDBRANCH  16  17
ENDBRANCH  15  16
ENDBRANCH   1  15
TORSDOF 22
ENDMDL
MODEL 2
REMARK VINA RESULT:    15.658      2.487      8.809
REMARK INTER + INTRA:          34.678
REMARK INTER:                  35.685
REMARK INTRA:                  -1.007
REMARK UNBOUND:                -1.118
REMARK SMILES CCCCCCCCCCCCCCCCCCCCCCCC(=O)[O-]
REMARK SMILES IDX 13 1 14 2 15 3 16 4 17 5 18 6 19 7 20 8 21 9 22 10 23 11
REMARK SMILES IDX 24 12 25 13 26 14 12 15 11 16 10 17 9 18 8 19 7 20 6 21 5 22
REMARK SMILES IDX 4 23 3 24 2 25 1 26
REMARK H PARENT
REMARK Flexibility Score: inf
ROOT
ATOM      1  C   UNL     1     -13.521  58.187  -4.312  1.00  0.00     0.000 C 
ENDROOT
BRANCH   1   2
ATOM      2  C   UNL     1     -14.546  59.249  -4.745  1.00  0.00     0.000 C 
BRANCH   2   3
ATOM      3  C   UNL     1     -14.861  60.259  -3.628  1.00  0.00     0.000 C 
BRANCH   3   4
ATOM      4  C   UNL     1     -16.258  60.049  -3.022  1.00  0.00     0.000 C 
BRANCH   4   5
ATOM      5  C   UNL     1     -17.292  61.051  -3.557  1.00  0.00     0.000 C 
BRANCH   5   6
ATOM      6  C   UNL     1     -18.719  60.560  -3.293  1.00  0.00     0.000 C 
BRANCH   6   7
ATOM      7  C   UNL     1     -18.786  59.025  -3.311  1.00  0.00     0.000 C 
BRANCH   7   8
ATOM      8  C   UNL     1     -18.611  58.406  -1.908  1.00  0.00     0.000 C 
BRANCH   8   9
ATOM      9  C   UNL     1     -17.887  57.045  -1.903  1.00  0.00     0.000 C 
BRANCH   9  10
ATOM     10  C   UNL     1     -16.561  57.037  -2.690  1.00  0.00     0.006 C 
BRANCH  10  11
ATOM     11  C   UNL     1     -16.128  55.617  -3.085  1.00  0.00     0.053 C 
BRANCH  11  12
ATOM     12  C   UNL     1     -17.060  55.048  -4.107  1.00  0.00     0.041 C 
ATOM     13  O   UNL     1     -17.777  54.050  -3.826  1.00  0.00    -0.550 OA
ATOM     14  O   UNL     1     -17.172  55.649  -5.356  1.00  0.00    -0.550 OA
ENDBRANCH  11  12
ENDBRANCH  10  11
ENDBRANCH   9  10
ENDBRANCH   8   9
ENDBRANCH   7   8
ENDBRANCH   6   7
ENDBRANCH   5   6
ENDBRANCH   4   5
ENDBRANCH   3   4
ENDBRANCH   2   3
ENDBRANCH   1   2
BRANCH   1  15
ATOM     15  C   UNL     1     -12.457  58.751  -3.352  1.00  0.00     0.000 C 
BRANCH  15  16
ATOM     16  C   UNL     1     -11.129  57.978  -3.426  1.00  0.00     0.000 C 
BRANCH  16  17
ATOM     17  C   UNL     1     -11.330  56.453  -3.387  1.00  0.00     0.000 C 
BRANCH  17  18
ATOM     18  C   UNL     1     -10.696  55.739  -4.593  1.00  0.00    -0.000 C 
BRANCH  18  19
ATOM     19  C   UNL     1     -10.179  54.311  -4.324  1.00  0.00    -0.000 C 
BRANCH  19  20
ATOM     20  C   UNL     1      -8.788  54.214  -3.661  1.00  0.00    -0.000 C 
BRANCH  20  21
ATOM     21  C   UNL     1      -8.233  52.776  -3.538  1.00  0.00    -0.000 C 
BRANCH  21  22
ATOM     22  C   UNL     1      -9.142  51.823  -2.738  1.00  0.00    -0.000 C 
BRANCH  22  23
ATOM     23  C   UNL     1      -8.606  50.388  -2.596  1.00  0.00    -0.000 C 
BRANCH  23  24
ATOM     24  C   UNL     1      -9.596  49.452  -1.889  1.00  0.00    -0.000 C 
BRANCH  24  25
ATOM     25  C   UNL     1     -10.775  49.103  -2.808  1.00  0.00    -0.003 C 
ATOM     26  C   UNL     1     -10.287  48.677  -4.190  1.00  0.00     0.004 C 
ENDBRANCH  24  25
ENDBRANCH  23  24
ENDBRANCH  22  23
ENDBRANCH  21  22
ENDBRANCH  20  21
ENDBRANCH  19  20
ENDBRANCH  18  19
ENDBRANCH  17  18
ENDBRANCH  16  17
ENDBRANCH  15  16
ENDBRANCH   1  15
TORSDOF 22
ENDMDL
MODEL 3
REMARK VINA RESULT:    15.838      2.518      9.130
REMARK INTER + INTRA:          35.090
REMARK INTER:                  36.265
REMARK INTRA:                  -1.175
REMARK UNBOUND:                -1.118
REMARK SMILES CCCCCCCCCCCCCCCCCCCCCCCC(=O)[O-]
REMARK SMILES IDX 13 1 14 2 15 3 16 4 17 5 18 6 19 7 20 8 21 9 22 10 23 11
REMARK SMILES IDX 24 12 25 13 26 14 12 15 11 16 10 17 9 18 8 19 7 20 6 21 5 22
REMARK SMILES IDX 4 23 3 24 2 25 1 26
REMARK H PARENT
REMARK Flexibility Score: inf
ROOT
ATOM      1  C   UNL     1     -12.079  58.576  -3.537  1.00  0.00     0.000 C 
ENDROOT
BRANCH   1   2
ATOM      2  C   UNL     1     -13.525  58.080  -3.699  1.00  0.00     0.000 C 
BRANCH   2   3
ATOM      3  C   UNL     1     -14.383  59.025  -4.559  1.00  0.00     0.000 C 
BRANCH   3   4
ATOM      4  C   UNL     1     -14.836  60.275  -3.788  1.00  0.00     0.000 C 
BRANCH   4   5
ATOM      5  C   UNL     1     -16.138  60.048  -3.006  1.00  0.00     0.000 C 
BRANCH   5   6
ATOM      6  C   UNL     1     -17.316  60.755  -3.684  1.00  0.00     0.000 C 
BRANCH   6   7
ATOM      7  C   UNL     1     -18.657  60.213  -3.165  1.00  0.00     0.000 C 
BRANCH   7   8
ATOM      8  C   UNL     1     -18.677  58.674  -3.066  1.00  0.00     0.000 C 
BRANCH   8   9
ATOM      9  C   UNL     1     -18.074  58.117  -1.761  1.00  0.00     0.000 C 
BRANCH   9  10
ATOM     10  C   UNL     1     -17.551  56.671  -1.878  1.00  0.00     0.006 C 
BRANCH  10  11
ATOM     11  C   UNL     1     -16.618  56.486  -3.083  1.00  0.00     0.053 C 
BRANCH  11  12
ATOM     12  C   UNL     1     -17.102  55.372  -3.958  1.00  0.00     0.041 C 
ATOM     13  O   UNL     1     -17.583  54.326  -3.445  1.00  0.00    -0.550 OA
ATOM     14  O   UNL     1     -17.064  55.509  -5.341  1.00  0.00    -0.550 OA
ENDBRANCH  11  12
ENDBRANCH  10  11
ENDBRANCH   9  10
ENDBRANCH   8   9
ENDBRANCH   7   8
ENDBRANCH   6   7
ENDBRANCH   5   6
ENDBRANCH   4   5
ENDBRANCH   3   4
ENDBRANCH   2   3
ENDBRANCH   1   2
BRANCH   1  15
ATOM     15  C   UNL     1     -11.075  57.421  -3.364  1.00  0.00     0.000 C 
BRANCH  15  16
ATOM     16  C   UNL     1     -11.576  56.107  -3.988  1.00  0.00     0.000 C 
BRANCH  16  17
ATOM     17  C   UNL     1     -10.483  55.382  -4.793  1.00  0.00     0.000 C 
BRANCH  17  18
ATOM     18  C   UNL     1     -10.080  54.035  -4.168  1.00  0.00    -0.000 C 
BRANCH  18  19
ATOM     19  C   UNL     1      -8.585  53.885  -3.818  1.00  0.00    -0.000 C 
BRANCH  19  20
ATOM     20  C   UNL     1      -8.244  52.796  -2.778  1.00  0.00    -0.000 C 
BRANCH  20  21
ATOM     21  C   UNL     1      -8.694  51.370  -3.170  1.00  0.00    -0.000 C 
BRANCH  21  22
ATOM     22  C   UNL     1      -8.261  50.282  -2.168  1.00  0.00    -0.000 C 
BRANCH  22  23
ATOM     23  C   UNL     1      -9.282  49.149  -1.966  1.00  0.00    -0.000 C 
BRANCH  23  24
ATOM     24  C   UNL     1     -10.221  48.974  -3.167  1.00  0.00    -0.000 C 
BRANCH  24  25
ATOM     25  C   UNL     1     -11.684  49.188  -2.755  1.00  0.00    -0.003 C 
ATOM     26  C   UNL     1     -11.840  49.153  -1.237  1.00  0.00     0.004 C 
ENDBRANCH  24  25
ENDBRANCH  23  24
ENDBRANCH  22  23
ENDBRANCH  21  22
ENDBRANCH  20  21
ENDBRANCH  19  20
ENDBRANCH  18  19
ENDBRANCH  17  18
ENDBRANCH  16  17
ENDBRANCH  15  16
ENDBRANCH   1  15
TORSDOF 22
ENDMDL
MODEL 4
REMARK VINA RESULT:    16.110      0.632      1.525
REMARK INTER + INTRA:          35.712
REMARK INTER:                  37.099
REMARK INTRA:                  -1.387
REMARK UNBOUND:                -1.118
REMARK SMILES CCCCCCCCCCCCCCCCCCCCCCCC(=O)[O-]
REMARK SMILES IDX 13 1 14 2 15 3 16 4 17 5 18 6 19 7 20 8 21 9 22 10 23 11
REMARK SMILES IDX 24 12 25 13 26 14 12 15 11 16 10 17 9 18 8 19 7 20 6 21 5 22
REMARK SMILES IDX 4 23 3 24 2 25 1 26
REMARK H PARENT
REMARK Flexibility Score: inf
ROOT
ATOM      1  C   UNL     1     -12.343  58.950  -3.395  1.00  0.00     0.000 C 
ENDROOT
BRANCH   1   2
ATOM      2  C   UNL     1     -11.097  58.050  -3.385  1.00  0.00     0.000 C 
BRANCH   2   3
ATOM      3  C   UNL     1     -11.445  56.554  -3.497  1.00  0.00     0.000 C 
BRANCH   3   4
ATOM      4  C   UNL     1     -10.908  55.921  -4.791  1.00  0.00     0.000 C 
BRANCH   4   5
ATOM      5  C   UNL     1     -10.354  54.506  -4.571  1.00  0.00     0.000 C 
BRANCH   5   6
ATOM      6  C   UNL     1      -9.131  54.534  -3.647  1.00  0.00     0.000 C 
BRANCH   6   7
ATOM      7  C   UNL     1      -8.220  53.324  -3.904  1.00  0.00     0.000 C 
BRANCH   7   8
ATOM      8  C   UNL     1      -8.208  52.328  -2.725  1.00  0.00     0.000 C 
BRANCH   8   9
ATOM      9  C   UNL     1      -8.709  50.916  -3.085  1.00  0.00     0.000 C 
BRANCH   9  10
ATOM     10  C   UNL     1      -8.777  49.949  -1.886  1.00  0.00     0.006 C 
BRANCH  10  11
ATOM     11  C   UNL     1     -10.080  49.137  -1.867  1.00  0.00     0.053 C 
BRANCH  11  12
ATOM     12  C   UNL     1     -10.601  48.945  -3.256  1.00  0.00     0.041 C 
ATOM     13  O   UNL     1     -10.138  48.028  -3.986  1.00  0.00    -0.550 OA
ATOM     14  O   UNL     1     -11.632  49.750  -3.729  1.00  0.00    -0.550 OA
ENDBRANCH  11  12
ENDBRANCH  10  11
ENDBRANCH   9  10
ENDBRANCH   8   9
ENDBRANCH   7   8
ENDBRANCH   6   7
ENDBRANCH   5   6
ENDBRANCH   4   5
ENDBRANCH   3   4
ENDBRANCH   2   3
ENDBRANCH   1   2
BRANCH   1  15
ATOM     15  C   UNL     1     -13.599  58.215  -3.899  1.00  0.00     0.000 C 
BRANCH  15  16
ATOM     16  C   UNL     1     -14.565  59.147  -4.650  1.00  0.00     0.000 C 
BRANCH  16  17
ATOM     17  C   UNL     1     -14.923  60.405  -3.839  1.00  0.00     0.000 C 
BRANCH  17  18
ATOM     18  C   UNL     1     -16.150  60.199  -2.934  1.00  0.00    -0.000 C 
BRANCH  18  19
ATOM     19  C   UNL     1     -17.438  60.918  -3.386  1.00  0.00    -0.000 C 
BRANCH  19  20
ATOM     20  C   UNL     1     -18.754  60.143  -3.162  1.00  0.00    -0.000 C 
BRANCH  20  21
ATOM     21  C   UNL     1     -18.655  58.622  -3.416  1.00  0.00    -0.000 C 
BRANCH  21  22
ATOM     22  C   UNL     1     -18.930  57.761  -2.167  1.00  0.00    -0.000 C 
BRANCH  22  23
ATOM     23  C   UNL     1     -17.672  57.218  -1.468  1.00  0.00    -0.000 C 
BRANCH  23  24
ATOM     24  C   UNL     1     -16.487  57.045  -2.428  1.00  0.00    -0.000 C 
BRANCH  24  25
ATOM     25  C   UNL     1     -16.429  55.613  -2.978  1.00  0.00    -0.003 C 
ATOM     26  C   UNL     1     -17.228  55.488  -4.272  1.00  0.00     0.004 C 
ENDBRANCH  24  25
ENDBRANCH  23  24
ENDBRANCH  22  23
ENDBRANCH  21  22
ENDBRANCH  20  21
ENDBRANCH  19  20
ENDBRANCH  18  19
ENDBRANCH  17  18
ENDBRANCH  16  17
ENDBRANCH  15  16
ENDBRANCH   1  15
TORSDOF 22
ENDMDL
MODEL 5
REMARK VINA RESULT:    16.314      0.952      1.857
REMARK INTER + INTRA:          36.178
REMARK INTER:                  35.997
REMARK INTRA:                   0.182
REMARK UNBOUND:                -1.118
REMARK SMILES CCCCCCCCCCCCCCCCCCCCCCCC(=O)[O-]
REMARK SMILES IDX 13 1 14 2 15 3 16 4 17 5 18 6 19 7 20 8 21 9 22 10 23 11
REMARK SMILES IDX 24 12 25 13 26 14 12 15 11 16 10 17 9 18 8 19 7 20 6 21 5 22
REMARK SMILES IDX 4 23 3 24 2 25 1 26
REMARK H PARENT
REMARK Flexibility Score: inf
ROOT
ATOM      1  C   UNL     1     -12.115  58.285  -3.314  1.00  0.00     0.000 C 
ENDROOT
BRANCH   1   2
ATOM      2  C   UNL     1     -10.983  57.378  -3.823  1.00  0.00     0.000 C 
BRANCH   2   3
ATOM      3  C   UNL     1     -11.415  55.906  -3.953  1.00  0.00     0.000 C 
BRANCH   3   4
ATOM      4  C   UNL     1     -10.323  55.026  -4.583  1.00  0.00     0.000 C 
BRANCH   4   5
ATOM      5  C   UNL     1      -9.100  54.857  -3.670  1.00  0.00     0.000 C 
BRANCH   5   6
ATOM      6  C   UNL     1      -8.390  53.526  -3.945  1.00  0.00     0.000 C 
BRANCH   6   7
ATOM      7  C   UNL     1      -8.549  52.563  -2.758  1.00  0.00     0.000 C 
BRANCH   7   8
ATOM      8  C   UNL     1      -8.231  51.100  -3.134  1.00  0.00     0.000 C 
BRANCH   8   9
ATOM      9  C   UNL     1      -9.074  50.056  -2.376  1.00  0.00     0.000 C 
BRANCH   9  10
ATOM     10  C   UNL     1      -9.823  49.068  -3.292  1.00  0.00     0.006 C 
BRANCH  10  11
ATOM     11  C   UNL     1     -11.314  48.963  -2.937  1.00  0.00     0.053 C 
BRANCH  11  12
ATOM     12  C   UNL     1     -11.514  49.098  -1.461  1.00  0.00     0.041 C 
ATOM     13  O   UNL     1     -12.678  49.167  -0.982  1.00  0.00    -0.550 OA
ATOM     14  O   UNL     1     -10.416  49.100  -0.608  1.00  0.00    -0.550 OA
ENDBRANCH  11  12
ENDBRANCH  10  11
ENDBRANCH   9  10
ENDBRANCH   8   9
ENDBRANCH   7   8
ENDBRANCH   6   7
ENDBRANCH   5   6
ENDBRANCH   4   5
ENDBRANCH   3   4
ENDBRANCH   2   3
ENDBRANCH   1   2
BRANCH   1  15
ATOM     15  C   UNL     1     -13.506  57.803  -3.765  1.00  0.00     0.000 C 
BRANCH  15  16
ATOM     16  C   UNL     1     -14.245  58.849  -4.617  1.00  0.00     0.000 C 
BRANCH  16  17
ATOM     17  C   UNL     1     -14.641  60.096  -3.807  1.00  0.00     0.000 C 
BRANCH  17  18
ATOM     18  C   UNL     1     -15.924  59.887  -2.984  1.00  0.00    -0.000 C 
BRANCH  18  19
ATOM     19  C   UNL     1     -17.137  60.737  -3.416  1.00  0.00    -0.000 C 
BRANCH  19  20
ATOM     20  C   UNL     1     -18.514  60.046  -3.308  1.00  0.00    -0.000 C 
BRANCH  20  21
ATOM     21  C   UNL     1     -18.450  58.518  -3.086  1.00  0.00    -0.000 C 
BRANCH  21  22
ATOM     22  C   UNL     1     -17.768  58.106  -1.767  1.00  0.00    -0.000 C 
BRANCH  22  23
ATOM     23  C   UNL     1     -17.348  56.629  -1.691  1.00  0.00    -0.000 C 
BRANCH  23  24
ATOM     24  C   UNL     1     -16.522  56.183  -2.905  1.00  0.00    -0.000 C 
BRANCH  24  25
ATOM     25  C   UNL     1     -17.326  55.223  -3.794  1.00  0.00    -0.003 C 
ATOM     26  C   UNL     1     -16.932  55.370  -5.260  1.00  0.00     0.004 C 
ENDBRANCH  24  25
ENDBRANCH  23  24
ENDBRANCH  22  23
ENDBRANCH  21  22
ENDBRANCH  20  21
ENDBRANCH  19  20
ENDBRANCH  18  19
ENDBRANCH  17  18
ENDBRANCH  16  17
ENDBRANCH  15  16
ENDBRANCH   1  15
TORSDOF 22
ENDMDL
MODEL 6
REMARK VINA RESULT:    16.498      2.436      9.123
REMARK INTER + INTRA:          36.597
REMARK INTER:                  37.853
REMARK INTRA:                  -1.256
REMARK UNBOUND:                -1.118
REMARK SMILES CCCCCCCCCCCCCCCCCCCCCCCC(=O)[O-]
REMARK SMILES IDX 13 1 14 2 15 3 16 4 17 5 18 6 19 7 20 8 21 9 22 10 23 11
REMARK SMILES IDX 24 12 25 13 26 14 12 15 11 16 10 17 9 18 8 19 7 20 6 21 5 22
REMARK SMILES IDX 4 23 3 24 2 25 1 26
REMARK H PARENT
REMARK Flexibility Score: inf
ROOT
ATOM      1  C   UNL     1     -12.081  57.810  -2.987  1.00  0.00     0.000 C 
ENDROOT
BRANCH   1   2
ATOM      2  C   UNL     1     -12.784  58.463  -4.188  1.00  0.00     0.000 C 
BRANCH   2   3
ATOM      3  C   UNL     1     -14.318  58.411  -4.077  1.00  0.00     0.000 C 
BRANCH   3   4
ATOM      4  C   UNL     1     -14.960  59.807  -4.124  1.00  0.00     0.000 C 
BRANCH   4   5
ATOM      5  C   UNL     1     -15.993  60.021  -3.008  1.00  0.00     0.000 C 
BRANCH   5   6
ATOM      6  C   UNL     1     -17.007  61.102  -3.399  1.00  0.00     0.000 C 
BRANCH   6   7
ATOM      7  C   UNL     1     -18.444  60.561  -3.325  1.00  0.00     0.000 C 
BRANCH   7   8
ATOM      8  C   UNL     1     -18.499  59.020  -3.312  1.00  0.00     0.000 C 
BRANCH   8   9
ATOM      9  C   UNL     1     -18.651  58.404  -1.908  1.00  0.00     0.000 C 
BRANCH   9  10
ATOM     10  C   UNL     1     -17.518  57.432  -1.522  1.00  0.00     0.006 C 
BRANCH  10  11
ATOM     11  C   UNL     1     -17.722  56.033  -2.122  1.00  0.00     0.053 C 
BRANCH  11  12
ATOM     12  C   UNL     1     -16.645  55.724  -3.113  1.00  0.00     0.041 C 
ATOM     13  O   UNL     1     -16.929  55.574  -4.332  1.00  0.00    -0.550 OA
ATOM     14  O   UNL     1     -15.320  55.646  -2.698  1.00  0.00    -0.550 OA
ENDBRANCH  11  12
ENDBRANCH  10  11
ENDBRANCH   9  10
ENDBRANCH   8   9
ENDBRANCH   7   8
ENDBRANCH   6   7
ENDBRANCH   5   6
ENDBRANCH   4   5
ENDBRANCH   3   4
ENDBRANCH   2   3
ENDBRANCH   1   2
BRANCH   1  15
ATOM     15  C   UNL     1     -10.901  56.914  -3.409  1.00  0.00     0.000 C 
BRANCH  15  16
ATOM     16  C   UNL     1     -10.906  56.606  -4.916  1.00  0.00     0.000 C 
BRANCH  16  17
ATOM     17  C   UNL     1     -10.602  55.127  -5.216  1.00  0.00     0.000 C 
BRANCH  17  18
ATOM     18  C   UNL     1     -10.154  54.347  -3.968  1.00  0.00    -0.000 C 
BRANCH  18  19
ATOM     19  C   UNL     1      -8.681  53.887  -3.963  1.00  0.00    -0.000 C 
BRANCH  19  20
ATOM     20  C   UNL     1      -8.302  52.860  -2.875  1.00  0.00    -0.000 C 
BRANCH  20  21
ATOM     21  C   UNL     1      -8.533  51.385  -3.275  1.00  0.00    -0.000 C 
BRANCH  21  22
ATOM     22  C   UNL     1      -9.003  50.490  -2.112  1.00  0.00    -0.000 C 
BRANCH  22  23
ATOM     23  C   UNL     1      -9.434  49.072  -2.523  1.00  0.00    -0.000 C 
BRANCH  23  24
ATOM     24  C   UNL     1     -10.939  48.966  -2.805  1.00  0.00    -0.000 C 
BRANCH  24  25
ATOM     25  C   UNL     1     -11.755  49.640  -1.693  1.00  0.00    -0.003 C 
ATOM     26  C   UNL     1     -12.516  48.609  -0.866  1.00  0.00     0.004 C 
ENDBRANCH  24  25
ENDBRANCH  23  24
ENDBRANCH  22  23
ENDBRANCH  21  22
ENDBRANCH  20  21
ENDBRANCH  19  20
ENDBRANCH  18  19
ENDBRANCH  17  18
ENDBRANCH  16  17
ENDBRANCH  15  16
ENDBRANCH   1  15
TORSDOF 22
ENDMDL
MODEL 7
REMARK VINA RESULT:    17.355      1.205      2.794
REMARK INTER + INTRA:          38.558
REMARK INTER:                  39.206
REMARK INTRA:                  -0.648
REMARK UNBOUND:                -1.118
REMARK SMILES CCCCCCCCCCCCCCCCCCCCCCCC(=O)[O-]
REMARK SMILES IDX 13 1 14 2 15 3 16 4 17 5 18 6 19 7 20 8 21 9 22 10 23 11
REMARK SMILES IDX 24 12 25 13 26 14 12 15 11 16 10 17 9 18 8 19 7 20 6 21 5 22
REMARK SMILES IDX 4 23 3 24 2 25 1 26
REMARK H PARENT
REMARK Flexibility Score: inf
ROOT
ATOM      1  C   UNL     1     -10.847  57.317  -3.377  1.00  0.00     0.000 C 
ENDROOT
BRANCH   1   2
ATOM      2  C   UNL     1     -11.483  56.100  -4.068  1.00  0.00     0.000 C 
BRANCH   2   3
ATOM      3  C   UNL     1     -10.457  55.254  -4.843  1.00  0.00     0.000 C 
BRANCH   3   4
ATOM      4  C   UNL     1     -10.030  53.994  -4.072  1.00  0.00     0.000 C 
BRANCH   4   5
ATOM      5  C   UNL     1      -8.549  54.022  -3.667  1.00  0.00     0.000 C 
BRANCH   5   6
ATOM      6  C   UNL     1      -8.194  52.807  -2.804  1.00  0.00     0.000 C 
BRANCH   6   7
ATOM      7  C   UNL     1      -8.662  51.503  -3.469  1.00  0.00     0.000 C 
BRANCH   7   8
ATOM      8  C   UNL     1      -8.872  50.360  -2.454  1.00  0.00     0.000 C 
BRANCH   8   9
ATOM      9  C   UNL     1      -9.042  48.968  -3.094  1.00  0.00     0.000 C 
BRANCH   9  10
ATOM     10  C   UNL     1     -10.509  48.520  -3.243  1.00  0.00     0.006 C 
BRANCH  10  11
ATOM     11  C   UNL     1     -11.489  49.519  -2.610  1.00  0.00     0.053 C 
BRANCH  11  12
ATOM     12  C   UNL     1     -11.813  49.119  -1.205  1.00  0.00     0.041 C 
ATOM     13  O   UNL     1     -10.910  49.100  -0.326  1.00  0.00    -0.550 OA
ATOM     14  O   UNL     1     -13.124  48.811  -0.855  1.00  0.00    -0.550 OA
ENDBRANCH  11  12
ENDBRANCH  10  11
ENDBRANCH   9  10
ENDBRANCH   8   9
ENDBRANCH   7   8
ENDBRANCH   6   7
ENDBRANCH   5   6
ENDBRANCH   4   5
ENDBRANCH   3   4
ENDBRANCH   2   3
ENDBRANCH   1   2
BRANCH   1  15
ATOM     15  C   UNL     1     -11.799  58.526  -3.318  1.00  0.00     0.000 C 
BRANCH  15  16
ATOM     16  C   UNL     1     -13.117  58.276  -4.071  1.00  0.00     0.000 C 
BRANCH  16  17
ATOM     17  C   UNL     1     -13.958  59.555  -4.230  1.00  0.00     0.000 C 
BRANCH  17  18
ATOM     18  C   UNL     1     -15.449  59.327  -3.929  1.00  0.00    -0.000 C 
BRANCH  18  19
ATOM     19  C   UNL     1     -16.108  60.371  -3.003  1.00  0.00    -0.000 C 
BRANCH  19  20
ATOM     20  C   UNL     1     -17.477  60.912  -3.468  1.00  0.00    -0.000 C 
BRANCH  20  21
ATOM     21  C   UNL     1     -18.693  60.111  -2.952  1.00  0.00    -0.000 C 
BRANCH  21  22
ATOM     22  C   UNL     1     -18.692  58.629  -3.377  1.00  0.00    -0.000 C 
BRANCH  22  23
ATOM     23  C   UNL     1     -18.750  57.624  -2.215  1.00  0.00    -0.000 C 
BRANCH  23  24
ATOM     24  C   UNL     1     -17.364  57.304  -1.636  1.00  0.00    -0.000 C 
BRANCH  24  25
ATOM     25  C   UNL     1     -16.417  56.792  -2.730  1.00  0.00    -0.003 C 
ATOM     26  C   UNL     1     -16.955  55.517  -3.373  1.00  0.00     0.004 C 
ENDBRANCH  24  25
ENDBRANCH  23  24
ENDBRANCH  22  23
ENDBRANCH  21  22
ENDBRANCH  20  21
ENDBRANCH  19  20
ENDBRANCH  18  19
ENDBRANCH  17  18
ENDBRANCH  16  17
ENDBRANCH  15  16
ENDBRANCH   1  15
TORSDOF 22
ENDMDL
