MODEL 1
REMARK VINA RESULT:    -5.306      0.000      0.000
REMARK INTER + INTRA:          -5.659
REMARK INTER:                  -5.617
REMARK INTRA:                  -0.043
REMARK UNBOUND:                -0.043
REMARK SMILES COc1ccc2ccc(=O)oc2c1
REMARK SMILES IDX 3 1 13 2 12 3 6 4 5 5 4 6 7 7 8 8 9 9 10 10 11 11 2 12 1 13
REMARK H PARENT
REMARK Flexibility Score: inf
ROOT
ATOM      1  C   UNL     1      21.875   1.631 -22.370  1.00  0.00     0.122 A 
ATOM      2  C   UNL     1      21.377   1.617 -21.061  1.00  0.00     0.094 A 
ATOM      3  C   UNL     1      20.877   0.436 -20.503  1.00  0.00     0.142 A 
ATOM      4  C   UNL     1      20.874  -0.753 -21.264  1.00  0.00     0.018 A 
ATOM      5  C   UNL     1      21.371  -0.745 -22.574  1.00  0.00     0.016 A 
ATOM      6  C   UNL     1      21.869   0.440 -23.125  1.00  0.00     0.047 A 
ATOM      7  C   UNL     1      20.367  -1.918 -20.679  1.00  0.00     0.019 A 
ATOM      8  C   UNL     1      19.884  -1.873 -19.372  1.00  0.00     0.094 A 
ATOM      9  C   UNL     1      19.919  -0.658 -18.678  1.00  0.00     0.336 A 
ATOM     10  O   UNL     1      19.487  -0.597 -17.497  1.00  0.00    -0.246 OA
ATOM     11  O   UNL     1      20.406   0.436 -19.259  1.00  0.00    -0.423 OA
ENDROOT
BRANCH   1  12
ATOM     12  O   UNL     1      22.365   2.841 -22.883  1.00  0.00    -0.497 OA
ATOM     13  C   UNL     1      22.625   4.002 -22.099  1.00  0.00     0.278 C 
ENDBRANCH   1  12
TORSDOF 1
ENDMDL
MODEL 2
REMARK VINA RESULT:    -5.124      1.029      4.675
REMARK INTER + INTRA:          -5.466
REMARK INTER:                  -5.433
REMARK INTRA:                  -0.033
REMARK UNBOUND:                -0.043
REMARK SMILES COc1ccc2ccc(=O)oc2c1
REMARK SMILES IDX 3 1 13 2 12 3 6 4 5 5 4 6 7 7 8 8 9 9 10 10 11 11 2 12 1 13
REMARK H PARENT
REMARK Flexibility Score: inf
ROOT
ATOM      1  C   UNL     1      19.974  -0.797 -18.624  1.00  0.00     0.122 A 
ATOM      2  C   UNL     1      20.466   0.383 -19.196  1.00  0.00     0.094 A 
ATOM      3  C   UNL     1      20.918   0.397 -20.519  1.00  0.00     0.142 A 
ATOM      4  C   UNL     1      20.878  -0.787 -21.286  1.00  0.00     0.018 A 
ATOM      5  C   UNL     1      20.387  -1.971 -20.720  1.00  0.00     0.016 A 
ATOM      6  C   UNL     1      19.938  -1.977 -19.395  1.00  0.00     0.047 A 
ATOM      7  C   UNL     1      21.337  -0.742 -22.608  1.00  0.00     0.019 A 
ATOM      8  C   UNL     1      21.816   0.461 -23.125  1.00  0.00     0.094 A 
ATOM      9  C   UNL     1      21.825   1.595 -22.305  1.00  0.00     0.336 A 
ATOM     10  O   UNL     1      22.253   2.691 -22.754  1.00  0.00    -0.246 OA
ATOM     11  O   UNL     1      21.383   1.524 -21.052  1.00  0.00    -0.423 OA
ENDROOT
BRANCH   1  12
ATOM     12  O   UNL     1      19.534  -0.758 -17.292  1.00  0.00    -0.497 OA
ATOM     13  C   UNL     1      18.170  -0.856 -16.892  1.00  0.00     0.278 C 
ENDBRANCH   1  12
TORSDOF 1
ENDMDL
MODEL 3
REMARK VINA RESULT:    -4.835     15.444     18.586
REMARK INTER + INTRA:          -5.160
REMARK INTER:                  -5.125
REMARK INTRA:                  -0.035
REMARK UNBOUND:                -0.043
REMARK SMILES COc1ccc2ccc(=O)oc2c1
REMARK SMILES IDX 3 1 13 2 12 3 6 4 5 5 4 6 7 7 8 8 9 9 10 10 11 11 2 12 1 13
REMARK H PARENT
REMARK Flexibility Score: inf
ROOT
ATOM      1  C   UNL     1       8.340  -6.122  -6.747  1.00  0.00     0.122 A 
ATOM      2  C   UNL     1       9.685  -6.221  -7.125  1.00  0.00     0.094 A 
ATOM      3  C   UNL     1      10.067  -6.020  -8.455  1.00  0.00     0.142 A 
ATOM      4  C   UNL     1       9.090  -5.713  -9.426  1.00  0.00     0.018 A 
ATOM      5  C   UNL     1       7.743  -5.612  -9.054  1.00  0.00     0.016 A 
ATOM      6  C   UNL     1       7.369  -5.816  -7.722  1.00  0.00     0.047 A 
ATOM      7  C   UNL     1       9.502  -5.516 -10.749  1.00  0.00     0.019 A 
ATOM      8  C   UNL     1      10.855  -5.628 -11.067  1.00  0.00     0.094 A 
ATOM      9  C   UNL     1      11.767  -5.935 -10.051  1.00  0.00     0.336 A 
ATOM     10  O   UNL     1      12.993  -6.040 -10.319  1.00  0.00    -0.246 OA
ATOM     11  O   UNL     1      11.348  -6.117  -8.802  1.00  0.00    -0.423 OA
ENDROOT
BRANCH   1  12
ATOM     12  O   UNL     1       8.009  -6.334  -5.400  1.00  0.00    -0.497 OA
ATOM     13  C   UNL     1       8.375  -5.463  -4.335  1.00  0.00     0.278 C 
ENDBRANCH   1  12
TORSDOF 1
ENDMDL
MODEL 4
REMARK VINA RESULT:    -4.830     15.351     17.826
REMARK INTER + INTRA:          -5.156
REMARK INTER:                  -5.114
REMARK INTRA:                  -0.041
REMARK UNBOUND:                -0.043
REMARK SMILES COc1ccc2ccc(=O)oc2c1
REMARK SMILES IDX 3 1 13 2 12 3 6 4 5 5 4 6 7 7 8 8 9 9 10 10 11 11 2 12 1 13
REMARK H PARENT
REMARK Flexibility Score: inf
ROOT
ATOM      1  C   UNL     1      13.887   3.176  -7.385  1.00  0.00     0.122 A 
ATOM      2  C   UNL     1      12.763   2.629  -6.754  1.00  0.00     0.094 A 
ATOM      3  C   UNL     1      12.429   3.001  -5.448  1.00  0.00     0.142 A 
ATOM      4  C   UNL     1      13.230   3.937  -4.758  1.00  0.00     0.018 A 
ATOM      5  C   UNL     1      14.356   4.488  -5.385  1.00  0.00     0.016 A 
ATOM      6  C   UNL     1      14.684   4.110  -6.691  1.00  0.00     0.047 A 
ATOM      7  C   UNL     1      12.870   4.290  -3.453  1.00  0.00     0.019 A 
ATOM      8  C   UNL     1      11.740   3.713  -2.875  1.00  0.00     0.094 A 
ATOM      9  C   UNL     1      10.994   2.793  -3.619  1.00  0.00     0.336 A 
ATOM     10  O   UNL     1       9.970   2.261  -3.115  1.00  0.00    -0.246 OA
ATOM     11  O   UNL     1      11.358   2.475  -4.859  1.00  0.00    -0.423 OA
ENDROOT
BRANCH   1  12
ATOM     12  O   UNL     1      14.179   2.769  -8.695  1.00  0.00    -0.497 OA
ATOM     13  C   UNL     1      13.847   1.494  -9.235  1.00  0.00     0.278 C 
ENDBRANCH   1  12
TORSDOF 1
ENDMDL
MODEL 5
REMARK VINA RESULT:    -4.817     15.053     17.761
REMARK INTER + INTRA:          -5.141
REMARK INTER:                  -5.108
REMARK INTRA:                  -0.033
REMARK UNBOUND:                -0.043
REMARK SMILES COc1ccc2ccc(=O)oc2c1
REMARK SMILES IDX 3 1 13 2 12 3 6 4 5 5 4 6 7 7 8 8 9 9 10 10 11 11 2 12 1 13
REMARK H PARENT
REMARK Flexibility Score: inf
ROOT
ATOM      1  C   UNL     1      11.500  -6.058 -10.046  1.00  0.00     0.122 A 
ATOM      2  C   UNL     1      11.132  -6.365  -8.731  1.00  0.00     0.094 A 
ATOM      3  C   UNL     1       9.821  -6.156  -8.292  1.00  0.00     0.142 A 
ATOM      4  C   UNL     1       8.859  -5.631  -9.182  1.00  0.00     0.018 A 
ATOM      5  C   UNL     1       9.221  -5.322 -10.499  1.00  0.00     0.016 A 
ATOM      6  C   UNL     1      10.535  -5.533 -10.930  1.00  0.00     0.047 A 
ATOM      7  C   UNL     1       7.555  -5.433  -8.714  1.00  0.00     0.019 A 
ATOM      8  C   UNL     1       7.245  -5.757  -7.394  1.00  0.00     0.094 A 
ATOM      9  C   UNL     1       8.251  -6.274  -6.569  1.00  0.00     0.336 A 
ATOM     10  O   UNL     1       7.991  -6.572  -5.374  1.00  0.00    -0.246 OA
ATOM     11  O   UNL     1       9.483  -6.452  -7.039  1.00  0.00    -0.423 OA
ENDROOT
BRANCH   1  12
ATOM     12  O   UNL     1      12.828  -6.285 -10.436  1.00  0.00    -0.497 OA
ATOM     13  C   UNL     1      13.765  -5.258 -10.743  1.00  0.00     0.278 C 
ENDBRANCH   1  12
TORSDOF 1
ENDMDL
MODEL 6
REMARK VINA RESULT:    -4.778     16.717     19.140
REMARK INTER + INTRA:          -5.100
REMARK INTER:                  -5.061
REMARK INTRA:                  -0.039
REMARK UNBOUND:                -0.043
REMARK SMILES COc1ccc2ccc(=O)oc2c1
REMARK SMILES IDX 3 1 13 2 12 3 6 4 5 5 4 6 7 7 8 8 9 9 10 10 11 11 2 12 1 13
REMARK H PARENT
REMARK Flexibility Score: inf
ROOT
ATOM      1  C   UNL     1       8.279  -6.107 -10.702  1.00  0.00     0.122 A 
ATOM      2  C   UNL     1       8.298  -5.406  -9.490  1.00  0.00     0.094 A 
ATOM      3  C   UNL     1       8.160  -6.082  -8.274  1.00  0.00     0.142 A 
ATOM      4  C   UNL     1       8.002  -7.485  -8.266  1.00  0.00     0.018 A 
ATOM      5  C   UNL     1       7.982  -8.192  -9.475  1.00  0.00     0.016 A 
ATOM      6  C   UNL     1       8.119  -7.508 -10.688  1.00  0.00     0.047 A 
ATOM      7  C   UNL     1       7.867  -8.134  -7.034  1.00  0.00     0.019 A 
ATOM      8  C   UNL     1       7.893  -7.384  -5.859  1.00  0.00     0.094 A 
ATOM      9  C   UNL     1       8.054  -5.997  -5.945  1.00  0.00     0.336 A 
ATOM     10  O   UNL     1       8.080  -5.302  -4.895  1.00  0.00    -0.246 OA
ATOM     11  O   UNL     1       8.180  -5.404  -7.130  1.00  0.00    -0.423 OA
ENDROOT
BRANCH   1  12
ATOM     12  O   UNL     1       8.420  -5.381 -11.894  1.00  0.00    -0.497 OA
ATOM     13  C   UNL     1       7.741  -4.163 -12.180  1.00  0.00     0.278 C 
ENDBRANCH   1  12
TORSDOF 1
ENDMDL
MODEL 7
REMARK VINA RESULT:    -4.776     19.197     20.328
REMARK INTER + INTRA:          -5.098
REMARK INTER:                  -5.067
REMARK INTRA:                  -0.032
REMARK UNBOUND:                -0.043
REMARK SMILES COc1ccc2ccc(=O)oc2c1
REMARK SMILES IDX 3 1 13 2 12 3 6 4 5 5 4 6 7 7 8 8 9 9 10 10 11 11 2 12 1 13
REMARK H PARENT
REMARK Flexibility Score: inf
ROOT
ATOM      1  C   UNL     1       4.986   6.731  -9.960  1.00  0.00     0.122 A 
ATOM      2  C   UNL     1       6.091   5.885  -9.808  1.00  0.00     0.094 A 
ATOM      3  C   UNL     1       6.099   4.896  -8.820  1.00  0.00     0.142 A 
ATOM      4  C   UNL     1       4.984   4.747  -7.968  1.00  0.00     0.018 A 
ATOM      5  C   UNL     1       3.875   5.590  -8.115  1.00  0.00     0.016 A 
ATOM      6  C   UNL     1       3.875   6.578  -9.106  1.00  0.00     0.047 A 
ATOM      7  C   UNL     1       5.021   3.748  -6.989  1.00  0.00     0.019 A 
ATOM      8  C   UNL     1       6.149   2.934  -6.884  1.00  0.00     0.094 A 
ATOM      9  C   UNL     1       7.217   3.140  -7.764  1.00  0.00     0.336 A 
ATOM     10  O   UNL     1       8.244   2.416  -7.685  1.00  0.00    -0.246 OA
ATOM     11  O   UNL     1       7.156   4.098  -8.686  1.00  0.00    -0.423 OA
ENDROOT
BRANCH   1  12
ATOM     12  O   UNL     1       5.028   7.708 -10.966  1.00  0.00    -0.497 OA
ATOM     13  C   UNL     1       4.020   7.889 -11.956  1.00  0.00     0.278 C 
ENDBRANCH   1  12
TORSDOF 1
ENDMDL
MODEL 8
REMARK VINA RESULT:    -4.737     17.147     19.389
REMARK INTER + INTRA:          -5.057
REMARK INTER:                  -5.016
REMARK INTRA:                  -0.041
REMARK UNBOUND:                -0.043
REMARK SMILES COc1ccc2ccc(=O)oc2c1
REMARK SMILES IDX 3 1 13 2 12 3 6 4 5 5 4 6 7 7 8 8 9 9 10 10 11 11 2 12 1 13
REMARK H PARENT
REMARK Flexibility Score: inf
ROOT
ATOM      1  C   UNL     1       8.051  -6.803  -6.721  1.00  0.00     0.122 A 
ATOM      2  C   UNL     1       7.952  -5.748  -7.637  1.00  0.00     0.094 A 
ATOM      3  C   UNL     1       8.038  -5.990  -9.011  1.00  0.00     0.142 A 
ATOM      4  C   UNL     1       8.225  -7.308  -9.482  1.00  0.00     0.018 A 
ATOM      5  C   UNL     1       8.325  -8.367  -8.570  1.00  0.00     0.016 A 
ATOM      6  C   UNL     1       8.238  -8.117  -7.196  1.00  0.00     0.047 A 
ATOM      7  C   UNL     1       8.307  -7.519 -10.862  1.00  0.00     0.019 A 
ATOM      8  C   UNL     1       8.202  -6.431 -11.728  1.00  0.00     0.094 A 
ATOM      9  C   UNL     1       8.016  -5.152 -11.190  1.00  0.00     0.336 A 
ATOM     10  O   UNL     1       7.919  -4.157 -11.955  1.00  0.00    -0.246 OA
ATOM     11  O   UNL     1       7.942  -4.980  -9.872  1.00  0.00    -0.423 OA
ENDROOT
BRANCH   1  12
ATOM     12  O   UNL     1       7.959  -6.506  -5.353  1.00  0.00    -0.497 OA
ATOM     13  C   UNL     1       8.401  -5.288  -4.761  1.00  0.00     0.278 C 
ENDBRANCH   1  12
TORSDOF 1
ENDMDL
MODEL 9
REMARK VINA RESULT:    -4.669     16.028     18.780
REMARK INTER + INTRA:          -4.985
REMARK INTER:                  -4.941
REMARK INTRA:                  -0.043
REMARK UNBOUND:                -0.043
REMARK SMILES COc1ccc2ccc(=O)oc2c1
REMARK SMILES IDX 3 1 13 2 12 3 6 4 5 5 4 6 7 7 8 8 9 9 10 10 11 11 2 12 1 13
REMARK H PARENT
REMARK Flexibility Score: inf
ROOT
ATOM      1  C   UNL     1      11.351  -7.353  -9.384  1.00  0.00     0.122 A 
ATOM      2  C   UNL     1      10.836  -6.426  -8.469  1.00  0.00     0.094 A 
ATOM      3  C   UNL     1       9.791  -6.780  -7.610  1.00  0.00     0.142 A 
ATOM      4  C   UNL     1       9.250  -8.083  -7.663  1.00  0.00     0.018 A 
ATOM      5  C   UNL     1       9.762  -9.015  -8.576  1.00  0.00     0.016 A 
ATOM      6  C   UNL     1      10.806  -8.652  -9.433  1.00  0.00     0.047 A 
ATOM      7  C   UNL     1       8.206  -8.408  -6.791  1.00  0.00     0.019 A 
ATOM      8  C   UNL     1       7.733  -7.444  -5.901  1.00  0.00     0.094 A 
ATOM      9  C   UNL     1       8.318  -6.173  -5.905  1.00  0.00     0.336 A 
ATOM     10  O   UNL     1       7.905  -5.289  -5.109  1.00  0.00    -0.246 OA
ATOM     11  O   UNL     1       9.310  -5.890  -6.745  1.00  0.00    -0.423 OA
ENDROOT
BRANCH   1  12
ATOM     12  O   UNL     1      12.399  -6.947 -10.225  1.00  0.00    -0.497 OA
ATOM     13  C   UNL     1      13.025  -5.670 -10.171  1.00  0.00     0.278 C 
ENDBRANCH   1  12
TORSDOF 1
ENDMDL
