MODEL 1
REMARK VINA RESULT:    -4.815      0.000      0.000
REMARK INTER + INTRA:          -5.097
REMARK INTER:                  -5.097
REMARK INTRA:                   0.000
REMARK UNBOUND:                 0.000
REMARK SMILES O=c1ccc2cc(O)c(O)cc2o1
REMARK SMILES IDX 4 1 3 2 2 3 1 4 13 5 12 6 11 7 9 8 7 9 6 10 5 11 8 12 10 14
REMARK H PARENT 8 13 10 15
REMARK Flexibility Score: inf
ROOT
ATOM      1  C   UNL     1      32.261  -7.943 -29.322  1.00  0.00     0.019 A 
ATOM      2  C   UNL     1      33.343  -7.991 -30.201  1.00  0.00     0.094 A 
ATOM      3  C   UNL     1      33.101  -7.962 -31.579  1.00  0.00     0.336 A 
ATOM      4  O   UNL     1      34.064  -8.004 -32.387  1.00  0.00    -0.246 OA
ATOM      5  O   UNL     1      31.856  -7.890 -32.042  1.00  0.00    -0.423 OA
ATOM      6  C   UNL     1      30.795  -7.842 -31.239  1.00  0.00     0.142 A 
ATOM      7  C   UNL     1      29.509  -7.767 -31.783  1.00  0.00     0.098 A 
ATOM      8  C   UNL     1      28.388  -7.716 -30.942  1.00  0.00     0.161 A 
ATOM      9  C   UNL     1      28.554  -7.742 -29.549  1.00  0.00     0.158 A 
ATOM     10  C   UNL     1      29.842  -7.817 -28.997  1.00  0.00     0.062 A 
ATOM     11  C   UNL     1      30.963  -7.868 -29.837  1.00  0.00     0.022 A 
ENDROOT
BRANCH   9  12
ATOM     12  O   UNL     1      27.435  -7.691 -28.720  1.00  0.00    -0.504 OA
ATOM     13  H   UNL     1      26.510  -7.917 -29.065  1.00  0.00     0.293 HD
ENDBRANCH   9  12
BRANCH   8  14
ATOM     14  O   UNL     1      27.106  -7.641 -31.481  1.00  0.00    -0.504 OA
ATOM     15  H   UNL     1      26.485  -6.870 -31.266  1.00  0.00     0.293 HD
ENDBRANCH   8  14
TORSDOF 2
ENDMDL
MODEL 2
REMARK VINA RESULT:    -4.661      3.042      4.043
REMARK INTER + INTRA:          -4.933
REMARK INTER:                  -4.933
REMARK INTRA:                   0.000
REMARK UNBOUND:                 0.000
REMARK SMILES O=c1ccc2cc(O)c(O)cc2o1
REMARK SMILES IDX 4 1 3 2 2 3 1 4 13 5 12 6 11 7 9 8 7 9 6 10 5 11 8 12 10 14
REMARK H PARENT 8 13 10 15
REMARK Flexibility Score: inf
ROOT
ATOM      1  C   UNL     1      31.086  -4.927 -31.386  1.00  0.00     0.019 A 
ATOM      2  C   UNL     1      31.140  -3.719 -30.691  1.00  0.00     0.094 A 
ATOM      3  C   UNL     1      30.109  -3.401 -29.801  1.00  0.00     0.336 A 
ATOM      4  O   UNL     1      30.141  -2.316 -29.165  1.00  0.00    -0.246 OA
ATOM      5  O   UNL     1      29.092  -4.240 -29.622  1.00  0.00    -0.423 OA
ATOM      6  C   UNL     1      29.001  -5.402 -30.264  1.00  0.00     0.142 A 
ATOM      7  C   UNL     1      27.908  -6.244 -30.035  1.00  0.00     0.098 A 
ATOM      8  C   UNL     1      27.807  -7.470 -30.710  1.00  0.00     0.161 A 
ATOM      9  C   UNL     1      28.805  -7.855 -31.618  1.00  0.00     0.158 A 
ATOM     10  C   UNL     1      29.904  -7.015 -31.852  1.00  0.00     0.062 A 
ATOM     11  C   UNL     1      30.005  -5.789 -31.178  1.00  0.00     0.022 A 
ENDROOT
BRANCH   9  12
ATOM     12  O   UNL     1      28.697  -9.074 -32.284  1.00  0.00    -0.504 OA
ATOM     13  H   UNL     1      28.194  -9.856 -31.881  1.00  0.00     0.293 HD
ENDBRANCH   9  12
BRANCH   8  14
ATOM     14  O   UNL     1      26.720  -8.311 -30.484  1.00  0.00    -0.504 OA
ATOM     15  H   UNL     1      26.314  -8.865 -31.229  1.00  0.00     0.293 HD
ENDBRANCH   8  14
TORSDOF 2
ENDMDL
MODEL 3
REMARK VINA RESULT:    -4.590      2.956      3.651
REMARK INTER + INTRA:          -4.859
REMARK INTER:                  -4.859
REMARK INTRA:                   0.000
REMARK UNBOUND:                 0.000
REMARK SMILES O=c1ccc2cc(O)c(O)cc2o1
REMARK SMILES IDX 4 1 3 2 2 3 1 4 13 5 12 6 11 7 9 8 7 9 6 10 5 11 8 12 10 14
REMARK H PARENT 8 13 10 15
REMARK Flexibility Score: inf
ROOT
ATOM      1  C   UNL     1      28.676  -4.230 -29.221  1.00  0.00     0.019 A 
ATOM      2  C   UNL     1      29.726  -3.330 -29.398  1.00  0.00     0.094 A 
ATOM      3  C   UNL     1      30.741  -3.640 -30.310  1.00  0.00     0.336 A 
ATOM      4  O   UNL     1      31.696  -2.840 -30.483  1.00  0.00    -0.246 OA
ATOM      5  O   UNL     1      30.702  -4.779 -30.997  1.00  0.00    -0.423 OA
ATOM      6  C   UNL     1      29.719  -5.666 -30.860  1.00  0.00     0.142 A 
ATOM      7  C   UNL     1      29.731  -6.845 -31.610  1.00  0.00     0.098 A 
ATOM      8  C   UNL     1      28.698  -7.783 -31.469  1.00  0.00     0.161 A 
ATOM      9  C   UNL     1      27.647  -7.540 -30.572  1.00  0.00     0.158 A 
ATOM     10  C   UNL     1      27.629  -6.357 -29.816  1.00  0.00     0.062 A 
ATOM     11  C   UNL     1      28.661  -5.419 -29.957  1.00  0.00     0.022 A 
ENDROOT
BRANCH   9  12
ATOM     12  O   UNL     1      26.624  -8.476 -30.437  1.00  0.00    -0.504 OA
ATOM     13  H   UNL     1      26.219  -8.692 -29.534  1.00  0.00     0.293 HD
ENDBRANCH   9  12
BRANCH   8  14
ATOM     14  O   UNL     1      28.708  -8.960 -32.215  1.00  0.00    -0.504 OA
ATOM     15  H   UNL     1      27.889  -9.553 -32.279  1.00  0.00     0.293 HD
ENDBRANCH   8  14
TORSDOF 2
ENDMDL
MODEL 4
REMARK VINA RESULT:    -4.527      1.774      4.894
REMARK INTER + INTRA:          -4.792
REMARK INTER:                  -4.792
REMARK INTRA:                   0.000
REMARK UNBOUND:                 0.000
REMARK SMILES O=c1ccc2cc(O)c(O)cc2o1
REMARK SMILES IDX 4 1 3 2 2 3 1 4 13 5 12 6 11 7 9 8 7 9 6 10 5 11 8 12 10 14
REMARK H PARENT 8 13 10 15
REMARK Flexibility Score: inf
ROOT
ATOM      1  C   UNL     1      28.938  -5.402 -30.734  1.00  0.00     0.019 A 
ATOM      2  C   UNL     1      27.912  -6.125 -30.127  1.00  0.00     0.094 A 
ATOM      3  C   UNL     1      28.022  -7.517 -30.038  1.00  0.00     0.336 A 
ATOM      4  O   UNL     1      27.107  -8.186 -29.494  1.00  0.00    -0.246 OA
ATOM      5  O   UNL     1      29.092  -8.140 -30.526  1.00  0.00    -0.423 OA
ATOM      6  C   UNL     1      30.094  -7.488 -31.113  1.00  0.00     0.142 A 
ATOM      7  C   UNL     1      31.194  -8.197 -31.607  1.00  0.00     0.098 A 
ATOM      8  C   UNL     1      32.252  -7.515 -32.226  1.00  0.00     0.161 A 
ATOM      9  C   UNL     1      32.210  -6.118 -32.352  1.00  0.00     0.158 A 
ATOM     10  C   UNL     1      31.109  -5.403 -31.858  1.00  0.00     0.062 A 
ATOM     11  C   UNL     1      30.051  -6.083 -31.239  1.00  0.00     0.022 A 
ENDROOT
BRANCH   9  12
ATOM     12  O   UNL     1      33.265  -5.450 -32.968  1.00  0.00    -0.504 OA
ATOM     13  H   UNL     1      33.933  -5.938 -33.553  1.00  0.00     0.293 HD
ENDBRANCH   9  12
BRANCH   8  14
ATOM     14  O   UNL     1      33.350  -8.218 -32.720  1.00  0.00    -0.504 OA
ATOM     15  H   UNL     1      33.297  -8.745 -33.584  1.00  0.00     0.293 HD
ENDBRANCH   8  14
TORSDOF 2
ENDMDL
MODEL 5
REMARK VINA RESULT:    -4.458      2.403      2.748
REMARK INTER + INTRA:          -4.719
REMARK INTER:                  -4.719
REMARK INTRA:                   0.000
REMARK UNBOUND:                 0.000
REMARK SMILES O=c1ccc2cc(O)c(O)cc2o1
REMARK SMILES IDX 4 1 3 2 2 3 1 4 13 5 12 6 11 7 9 8 7 9 6 10 5 11 8 12 10 14
REMARK H PARENT 8 13 10 15
REMARK Flexibility Score: inf
ROOT
ATOM      1  C   UNL     1      30.552  -4.285 -30.180  1.00  0.00     0.019 A 
ATOM      2  C   UNL     1      31.921  -4.021 -30.166  1.00  0.00     0.094 A 
ATOM      3  C   UNL     1      32.804  -4.989 -30.658  1.00  0.00     0.336 A 
ATOM      4  O   UNL     1      34.043  -4.769 -30.654  1.00  0.00    -0.246 OA
ATOM      5  O   UNL     1      32.342  -6.144 -31.130  1.00  0.00    -0.423 OA
ATOM      6  C   UNL     1      31.043  -6.437 -31.161  1.00  0.00     0.142 A 
ATOM      7  C   UNL     1      30.616  -7.667 -31.669  1.00  0.00     0.098 A 
ATOM      8  C   UNL     1      29.249  -7.980 -31.704  1.00  0.00     0.161 A 
ATOM      9  C   UNL     1      28.305  -7.058 -31.228  1.00  0.00     0.158 A 
ATOM     10  C   UNL     1      28.728  -5.821 -30.717  1.00  0.00     0.062 A 
ATOM     11  C   UNL     1      30.094  -5.508 -30.681  1.00  0.00     0.022 A 
ENDROOT
BRANCH   9  12
ATOM     12  O   UNL     1      26.950  -7.377 -31.266  1.00  0.00    -0.504 OA
ATOM     13  H   UNL     1      26.431  -7.589 -30.421  1.00  0.00     0.293 HD
ENDBRANCH   9  12
BRANCH   8  14
ATOM     14  O   UNL     1      28.820  -9.205 -32.210  1.00  0.00    -0.504 OA
ATOM     15  H   UNL     1      29.123  -9.540 -33.117  1.00  0.00     0.293 HD
ENDBRANCH   8  14
TORSDOF 2
ENDMDL
MODEL 6
REMARK VINA RESULT:    -4.418     18.734     20.156
REMARK INTER + INTRA:          -4.676
REMARK INTER:                  -4.676
REMARK INTRA:                   0.000
REMARK UNBOUND:                 0.000
REMARK SMILES O=c1ccc2cc(O)c(O)cc2o1
REMARK SMILES IDX 4 1 3 2 2 3 1 4 13 5 12 6 11 7 9 8 7 9 6 10 5 11 8 12 10 14
REMARK H PARENT 8 13 10 15
REMARK Flexibility Score: inf
ROOT
ATOM      1  C   UNL     1      23.520   6.636 -21.866  1.00  0.00     0.019 A 
ATOM      2  C   UNL     1      24.466   7.027 -22.813  1.00  0.00     0.094 A 
ATOM      3  C   UNL     1      25.394   8.019 -22.477  1.00  0.00     0.336 A 
ATOM      4  O   UNL     1      26.255   8.384 -23.318  1.00  0.00    -0.246 OA
ATOM      5  O   UNL     1      25.372   8.579 -21.271  1.00  0.00    -0.423 OA
ATOM      6  C   UNL     1      24.486   8.236 -20.337  1.00  0.00     0.142 A 
ATOM      7  C   UNL     1      24.512   8.860 -19.086  1.00  0.00     0.098 A 
ATOM      8  C   UNL     1      23.581   8.503 -18.100  1.00  0.00     0.161 A 
ATOM      9  C   UNL     1      22.620   7.516 -18.366  1.00  0.00     0.158 A 
ATOM     10  C   UNL     1      22.590   6.886 -19.620  1.00  0.00     0.062 A 
ATOM     11  C   UNL     1      23.520   7.243 -20.606  1.00  0.00     0.022 A 
ENDROOT
BRANCH   9  12
ATOM     12  O   UNL     1      21.699   7.167 -17.381  1.00  0.00    -0.504 OA
ATOM     13  H   UNL     1      21.642   6.222 -17.019  1.00  0.00     0.293 HD
ENDBRANCH   9  12
BRANCH   8  14
ATOM     14  O   UNL     1      23.604   9.123 -16.852  1.00  0.00    -0.504 OA
ATOM     15  H   UNL     1      23.596  10.132 -16.762  1.00  0.00     0.293 HD
ENDBRANCH   8  14
TORSDOF 2
ENDMDL
MODEL 7
REMARK VINA RESULT:    -4.410      1.411      5.125
REMARK INTER + INTRA:          -4.667
REMARK INTER:                  -4.667
REMARK INTRA:                   0.000
REMARK UNBOUND:                 0.000
REMARK SMILES O=c1ccc2cc(O)c(O)cc2o1
REMARK SMILES IDX 4 1 3 2 2 3 1 4 13 5 12 6 11 7 9 8 7 9 6 10 5 11 8 12 10 14
REMARK H PARENT 8 13 10 15
REMARK Flexibility Score: inf
ROOT
ATOM      1  C   UNL     1      27.904  -7.224 -30.998  1.00  0.00     0.019 A 
ATOM      2  C   UNL     1      26.954  -7.031 -29.995  1.00  0.00     0.094 A 
ATOM      3  C   UNL     1      27.345  -7.151 -28.657  1.00  0.00     0.336 A 
ATOM      4  O   UNL     1      26.502  -6.980 -27.739  1.00  0.00    -0.246 OA
ATOM      5  O   UNL     1      28.605  -7.446 -28.348  1.00  0.00    -0.423 OA
ATOM      6  C   UNL     1      29.543  -7.639 -29.273  1.00  0.00     0.142 A 
ATOM      7  C   UNL     1      30.852  -7.946 -28.888  1.00  0.00     0.098 A 
ATOM      8  C   UNL     1      31.844  -8.150 -29.858  1.00  0.00     0.161 A 
ATOM      9  C   UNL     1      31.525  -8.046 -31.221  1.00  0.00     0.158 A 
ATOM     10  C   UNL     1      30.213  -7.737 -31.613  1.00  0.00     0.062 A 
ATOM     11  C   UNL     1      29.221  -7.533 -30.643  1.00  0.00     0.022 A 
ENDROOT
BRANCH   9  12
ATOM     12  O   UNL     1      32.516  -8.250 -32.178  1.00  0.00    -0.504 OA
ATOM     13  H   UNL     1      32.562  -7.690 -33.022  1.00  0.00     0.293 HD
ENDBRANCH   9  12
BRANCH   8  14
ATOM     14  O   UNL     1      33.148  -8.457 -29.478  1.00  0.00    -0.504 OA
ATOM     15  H   UNL     1      33.746  -9.037 -30.055  1.00  0.00     0.293 HD
ENDBRANCH   8  14
TORSDOF 2
ENDMDL
MODEL 8
REMARK VINA RESULT:    -4.348      2.039      2.992
REMARK INTER + INTRA:          -4.602
REMARK INTER:                  -4.602
REMARK INTRA:                   0.000
REMARK UNBOUND:                 0.000
REMARK SMILES O=c1ccc2cc(O)c(O)cc2o1
REMARK SMILES IDX 4 1 3 2 2 3 1 4 13 5 12 6 11 7 9 8 7 9 6 10 5 11 8 12 10 14
REMARK H PARENT 8 13 10 15
REMARK Flexibility Score: inf
ROOT
ATOM      1  C   UNL     1      32.432  -8.156 -30.023  1.00  0.00     0.019 A 
ATOM      2  C   UNL     1      32.994  -7.972 -28.759  1.00  0.00     0.094 A 
ATOM      3  C   UNL     1      32.156  -7.671 -27.680  1.00  0.00     0.336 A 
ATOM      4  O   UNL     1      32.645  -7.502 -26.534  1.00  0.00    -0.246 OA
ATOM      5  O   UNL     1      30.842  -7.562 -27.859  1.00  0.00    -0.423 OA
ATOM      6  C   UNL     1      30.264  -7.729 -29.046  1.00  0.00     0.142 A 
ATOM      7  C   UNL     1      28.877  -7.602 -29.173  1.00  0.00     0.098 A 
ATOM      8  C   UNL     1      28.264  -7.777 -30.422  1.00  0.00     0.161 A 
ATOM      9  C   UNL     1      29.041  -8.081 -31.550  1.00  0.00     0.158 A 
ATOM     10  C   UNL     1      30.433  -8.210 -31.429  1.00  0.00     0.062 A 
ATOM     11  C   UNL     1      31.048  -8.034 -30.180  1.00  0.00     0.022 A 
ENDROOT
BRANCH   9  12
ATOM     12  O   UNL     1      28.424  -8.253 -32.787  1.00  0.00    -0.504 OA
ATOM     13  H   UNL     1      28.236  -9.175 -33.162  1.00  0.00     0.293 HD
ENDBRANCH   9  12
BRANCH   8  14
ATOM     14  O   UNL     1      26.882  -7.652 -30.552  1.00  0.00    -0.504 OA
ATOM     15  H   UNL     1      26.321  -7.205 -29.836  1.00  0.00     0.293 HD
ENDBRANCH   8  14
TORSDOF 2
ENDMDL
MODEL 9
REMARK VINA RESULT:    -4.307      3.391      5.002
REMARK INTER + INTRA:          -4.559
REMARK INTER:                  -4.559
REMARK INTRA:                   0.000
REMARK UNBOUND:                 0.000
REMARK SMILES O=c1ccc2cc(O)c(O)cc2o1
REMARK SMILES IDX 4 1 3 2 2 3 1 4 13 5 12 6 11 7 9 8 7 9 6 10 5 11 8 12 10 14
REMARK H PARENT 8 13 10 15
REMARK Flexibility Score: inf
ROOT
ATOM      1  C   UNL     1      26.720  -4.856 -27.857  1.00  0.00     0.019 A 
ATOM      2  C   UNL     1      27.216  -3.555 -27.929  1.00  0.00     0.094 A 
ATOM      3  C   UNL     1      28.127  -3.231 -28.941  1.00  0.00     0.336 A 
ATOM      4  O   UNL     1      28.585  -2.062 -29.023  1.00  0.00    -0.246 OA
ATOM      5  O   UNL     1      28.511  -4.152 -29.820  1.00  0.00    -0.423 OA
ATOM      6  C   UNL     1      28.063  -5.405 -29.787  1.00  0.00     0.142 A 
ATOM      7  C   UNL     1      28.503  -6.331 -30.739  1.00  0.00     0.098 A 
ATOM      8  C   UNL     1      28.033  -7.652 -30.708  1.00  0.00     0.161 A 
ATOM      9  C   UNL     1      27.118  -8.050 -29.721  1.00  0.00     0.158 A 
ATOM     10  C   UNL     1      26.673  -7.125 -28.764  1.00  0.00     0.062 A 
ATOM     11  C   UNL     1      27.142  -5.804 -28.794  1.00  0.00     0.022 A 
ENDROOT
BRANCH   9  12
ATOM     12  O   UNL     1      26.657  -9.364 -29.698  1.00  0.00    -0.504 OA
ATOM     13  H   UNL     1      26.651  -9.909 -28.843  1.00  0.00     0.293 HD
ENDBRANCH   9  12
BRANCH   8  14
ATOM     14  O   UNL     1      28.470  -8.577 -31.654  1.00  0.00    -0.504 OA
ATOM     15  H   UNL     1      28.298  -8.443 -32.644  1.00  0.00     0.293 HD
ENDBRANCH   8  14
TORSDOF 2
ENDMDL
