MODEL 1
REMARK VINA RESULT:    -3.552      0.000      0.000
REMARK INTER + INTRA:          -5.654
REMARK INTER:                  -5.421
REMARK INTRA:                  -0.233
REMARK UNBOUND:                -0.233
REMARK SMILES CC1=CCC[C@@H](C)C(=O)C[C@@H](C(C)C)C(=O)C1
REMARK SMILES IDX 8 1 9 2 6 3 7 4 5 5 4 6 3 7 2 8 1 9 10 11 11 12 15 13 16 14
REMARK SMILES IDX 17 15 12 17 13 18 14 19
REMARK H PARENT
REMARK Flexibility Score: 70.00
ROOT
ATOM      1  C   UNL     1       2.408  15.355  20.504  1.00  0.00     0.136 C 
ATOM      2  O   UNL     1       2.525  16.182  19.612  1.00  0.00    -0.299 OA
ENDROOT
BRANCH   1   3
ATOM      3  C   UNL     1       1.711  15.767  21.792  1.00  0.00     0.053 C 
ATOM      4  C   UNL     1       0.647  16.848  21.548  1.00  0.00     0.016 C 
BRANCH   3   5
ATOM      5  C   UNL     1       2.722  16.040  22.948  1.00  0.00     0.015 C 
BRANCH   5   6
ATOM      6  C   UNL     1       2.827  15.042  24.123  1.00  0.00     0.028 C 
BRANCH   6   7
ATOM      7  C   UNL     1       4.068  14.185  24.202  1.00  0.00    -0.028 C 
ATOM      8  C   UNL     1       4.149  12.852  23.986  1.00  0.00    -0.070 CG0
ATOM      9  C   UNL     1       5.456  12.169  24.309  1.00  0.00     0.039 C 
ATOM     10  G   UNL     1       3.035  12.020  23.385  1.00  0.00     0.000 G0
ENDBRANCH   6   7
ENDBRANCH   5   6
ENDBRANCH   3   5
ENDBRANCH   1   3
BRANCH   1  11
ATOM     11  C   UNL     1       2.957  13.964  20.280  1.00  0.00     0.087 C 
BRANCH  11  12
ATOM     12  C   UNL     1       2.155  12.876  21.059  1.00  0.00     0.066 C 
BRANCH  12  13
ATOM     13  C   UNL     1       3.132  12.047  21.880  1.00  0.00     0.140 C 
ATOM     14  O   UNL     1       4.077  11.499  21.329  1.00  0.00    -0.299 OA
BRANCH  13  15
ATOM     15  C   UNL     1       3.047  12.012  23.387  1.00  0.00     0.106 CG0
ATOM     16  G   UNL     1       4.155  12.855  23.983  1.00  0.00     0.000 G0
ENDBRANCH  13  15
ENDBRANCH  12  13
BRANCH  12  17
ATOM     17  C   UNL     1       1.268  11.981  20.131  1.00  0.00    -0.006 C 
ATOM     18  C   UNL     1       1.668  12.103  18.650  1.00  0.00     0.008 C 
ATOM     19  C   UNL     1      -0.224  12.344  20.265  1.00  0.00     0.008 C 
ENDBRANCH  12  17
ENDBRANCH  11  12
ENDBRANCH   1  11
TORSDOF 1
ENDMDL
MODEL 2
REMARK VINA RESULT:    -3.461      1.741      2.248
REMARK INTER + INTRA:          -5.514
REMARK INTER:                  -5.300
REMARK INTRA:                  -0.214
REMARK UNBOUND:                -0.233
REMARK SMILES CC1=CCC[C@@H](C)C(=O)C[C@@H](C(C)C)C(=O)C1
REMARK SMILES IDX 8 1 9 2 6 3 7 4 5 5 4 6 3 7 2 8 1 9 10 11 11 12 15 13 16 14
REMARK SMILES IDX 17 15 12 17 13 18 14 19
REMARK H PARENT
REMARK Flexibility Score: 70.00
ROOT
ATOM      1  C   UNL     1       1.638  16.263  20.340  1.00  0.00     0.136 C 
ATOM      2  O   UNL     1       1.548  17.330  19.750  1.00  0.00    -0.299 OA
ENDROOT
BRANCH   1   3
ATOM      3  C   UNL     1       1.373  16.234  21.838  1.00  0.00     0.053 C 
ATOM      4  C   UNL     1       0.214  17.161  22.233  1.00  0.00     0.016 C 
BRANCH   3   5
ATOM      5  C   UNL     1       2.684  16.373  22.671  1.00  0.00     0.015 C 
BRANCH   5   6
ATOM      6  C   UNL     1       3.412  15.103  23.167  1.00  0.00     0.028 C 
BRANCH   6   7
ATOM      7  C   UNL     1       2.565  13.892  23.481  1.00  0.00    -0.028 C 
ATOM      8  C   UNL     1       2.191  12.919  22.620  1.00  0.00    -0.070 CG0
ATOM      9  C   UNL     1       1.185  11.904  23.106  1.00  0.00     0.039 C 
ATOM     10  G   UNL     1       2.764  12.750  21.228  1.00  0.00     0.000 G0
ENDBRANCH   6   7
ENDBRANCH   5   6
ENDBRANCH   3   5
ENDBRANCH   1   3
BRANCH   1  11
ATOM     11  C   UNL     1       2.002  15.026  19.550  1.00  0.00     0.087 C 
BRANCH  11  12
ATOM     12  C   UNL     1       0.933  13.898  19.686  1.00  0.00     0.066 C 
BRANCH  12  13
ATOM     13  C   UNL     1       1.612  12.648  20.225  1.00  0.00     0.140 C 
ATOM     14  O   UNL     1       1.324  11.552  19.762  1.00  0.00    -0.299 OA
BRANCH  13  15
ATOM     15  C   UNL     1       2.747  12.745  21.215  1.00  0.00     0.106 CG0
ATOM     16  G   UNL     1       2.194  12.906  22.616  1.00  0.00     0.000 G0
ENDBRANCH  13  15
ENDBRANCH  12  13
BRANCH  12  17
ATOM     17  C   UNL     1       0.162  13.614  18.354  1.00  0.00    -0.006 C 
ATOM     18  C   UNL     1       0.375  14.725  17.311  1.00  0.00     0.008 C 
ATOM     19  C   UNL     1      -1.351  13.464  18.605  1.00  0.00     0.008 C 
ENDBRANCH  12  17
ENDBRANCH  11  12
ENDBRANCH   1  11
TORSDOF 1
ENDMDL
MODEL 3
REMARK VINA RESULT:    -3.448      4.964      7.316
REMARK INTER + INTRA:          -5.494
REMARK INTER:                  -5.516
REMARK INTRA:                   0.022
REMARK UNBOUND:                -0.233
REMARK SMILES CC1=CCC[C@@H](C)C(=O)C[C@@H](C(C)C)C(=O)C1
REMARK SMILES IDX 8 1 9 2 6 3 7 4 5 5 4 6 3 7 2 8 1 9 10 11 11 12 15 13 16 14
REMARK SMILES IDX 17 15 12 17 13 18 14 19
REMARK H PARENT
REMARK Flexibility Score: 70.00
ROOT
ATOM      1  C   UNL     1       1.218  10.856  19.210  1.00  0.00     0.136 C 
ATOM      2  O   UNL     1       1.309  10.745  20.424  1.00  0.00    -0.299 OA
ENDROOT
BRANCH   1   3
ATOM      3  C   UNL     1       0.886   9.621  18.387  1.00  0.00     0.053 C 
ATOM      4  C   UNL     1       0.449   8.443  19.272  1.00  0.00     0.016 C 
BRANCH   3   5
ATOM      5  C   UNL     1       1.977   9.314  17.317  1.00  0.00     0.015 C 
BRANCH   5   6
ATOM      6  C   UNL     1       1.750   9.743  15.850  1.00  0.00     0.028 C 
BRANCH   6   7
ATOM      7  C   UNL     1       2.737  10.715  15.246  1.00  0.00    -0.028 C 
ATOM      8  C   UNL     1       2.468  11.949  14.763  1.00  0.00    -0.070 CG0
ATOM      9  C   UNL     1       3.574  12.669  14.031  1.00  0.00     0.039 C 
ATOM     10  G   UNL     1       1.154  12.673  14.967  1.00  0.00     0.000 G0
ENDBRANCH   6   7
ENDBRANCH   5   6
ENDBRANCH   3   5
ENDBRANCH   1   3
BRANCH   1  11
ATOM     11  C   UNL     1       1.437  12.218  18.589  1.00  0.00     0.087 C 
BRANCH  11  12
ATOM     12  C   UNL     1       0.385  12.542  17.483  1.00  0.00     0.066 C 
BRANCH  12  13
ATOM     13  C   UNL     1       1.083  13.280  16.350  1.00  0.00     0.140 C 
ATOM     14  O   UNL     1       1.713  14.302  16.587  1.00  0.00    -0.299 OA
BRANCH  13  15
ATOM     15  C   UNL     1       1.144  12.692  14.960  1.00  0.00     0.106 CG0
ATOM     16  G   UNL     1       2.458  11.965  14.768  1.00  0.00     0.000 G0
ENDBRANCH  13  15
ENDBRANCH  12  13
BRANCH  12  17
ATOM     17  C   UNL     1      -0.851  13.337  18.022  1.00  0.00    -0.006 C 
ATOM     18  C   UNL     1      -1.584  14.099  16.903  1.00  0.00     0.008 C 
ATOM     19  C   UNL     1      -0.434  14.349  19.108  1.00  0.00     0.008 C 
ENDBRANCH  12  17
ENDBRANCH  11  12
ENDBRANCH   1  11
TORSDOF 1
ENDMDL
MODEL 4
REMARK VINA RESULT:    -3.410      1.883      4.777
REMARK INTER + INTRA:          -5.436
REMARK INTER:                  -5.043
REMARK INTRA:                  -0.394
REMARK UNBOUND:                -0.233
REMARK SMILES CC1=CCC[C@@H](C)C(=O)C[C@@H](C(C)C)C(=O)C1
REMARK SMILES IDX 8 1 9 2 6 3 7 4 5 5 4 6 3 7 2 8 1 9 10 11 11 12 15 13 16 14
REMARK SMILES IDX 17 15 12 17 13 18 14 19
REMARK H PARENT
REMARK Flexibility Score: 70.00
ROOT
ATOM      1  C   UNL     1       4.076  12.694  22.984  1.00  0.00     0.136 C 
ATOM      2  O   UNL     1       5.152  12.132  23.129  1.00  0.00    -0.299 OA
ENDROOT
BRANCH   1   3
ATOM      3  C   UNL     1       2.868  12.157  23.735  1.00  0.00     0.053 C 
ATOM      4  C   UNL     1       3.026  12.303  25.257  1.00  0.00     0.016 C 
BRANCH   3   5
ATOM      5  C   UNL     1       2.428  10.753  23.218  1.00  0.00     0.015 C 
BRANCH   5   6
ATOM      6  C   UNL     1       1.514  10.648  21.976  1.00  0.00     0.028 C 
BRANCH   6   7
ATOM      7  C   UNL     1       2.154  10.840  20.621  1.00  0.00    -0.028 C 
ATOM      8  C   UNL     1       1.928  11.853  19.754  1.00  0.00    -0.070 CG0
ATOM      9  C   UNL     1       2.533  11.742  18.376  1.00  0.00     0.039 C 
ATOM     10  G   UNL     1       1.164  13.114  20.102  1.00  0.00     0.000 G0
ENDBRANCH   6   7
ENDBRANCH   5   6
ENDBRANCH   3   5
ENDBRANCH   1   3
BRANCH   1  11
ATOM     11  C   UNL     1       4.004  13.896  22.070  1.00  0.00     0.087 C 
BRANCH  11  12
ATOM     12  C   UNL     1       2.547  14.432  21.908  1.00  0.00     0.066 C 
BRANCH  12  13
ATOM     13  C   UNL     1       2.112  14.227  20.464  1.00  0.00     0.140 C 
ATOM     14  O   UNL     1       2.635  14.883  19.573  1.00  0.00    -0.299 OA
BRANCH  13  15
ATOM     15  C   UNL     1       1.156  13.120  20.089  1.00  0.00     0.106 CG0
ATOM     16  G   UNL     1       1.932  11.859  19.769  1.00  0.00     0.000 G0
ENDBRANCH  13  15
ENDBRANCH  12  13
BRANCH  12  17
ATOM     17  C   UNL     1       2.383  15.921  22.360  1.00  0.00    -0.006 C 
ATOM     18  C   UNL     1       2.791  16.131  23.829  1.00  0.00     0.008 C 
ATOM     19  C   UNL     1       0.928  16.401  22.186  1.00  0.00     0.008 C 
ENDBRANCH  12  17
ENDBRANCH  11  12
ENDBRANCH   1  11
TORSDOF 1
ENDMDL
MODEL 5
REMARK VINA RESULT:    -3.342      3.831      6.408
REMARK INTER + INTRA:          -5.333
REMARK INTER:                  -4.788
REMARK INTRA:                  -0.545
REMARK UNBOUND:                -0.233
REMARK SMILES CC1=CCC[C@@H](C)C(=O)C[C@@H](C(C)C)C(=O)C1
REMARK SMILES IDX 8 1 9 2 6 3 7 4 5 5 4 6 3 7 2 8 1 9 10 11 11 12 15 13 16 14
REMARK SMILES IDX 17 15 12 17 13 18 14 19
REMARK H PARENT
REMARK Flexibility Score: 70.00
ROOT
ATOM      1  C   UNL     1       3.122  10.873  17.902  1.00  0.00     0.136 C 
ATOM      2  O   UNL     1       4.253  11.024  17.464  1.00  0.00    -0.299 OA
ENDROOT
BRANCH   1   3
ATOM      3  C   UNL     1       2.083  10.200  17.018  1.00  0.00     0.053 C 
ATOM      4  C   UNL     1       2.404   8.716  16.783  1.00  0.00     0.016 C 
BRANCH   3   5
ATOM      5  C   UNL     1       1.751  11.045  15.750  1.00  0.00     0.015 C 
BRANCH   5   6
ATOM      6  C   UNL     1       1.557  12.573  15.879  1.00  0.00     0.028 C 
BRANCH   6   7
ATOM      7  C   UNL     1       0.210  13.067  16.352  1.00  0.00    -0.028 C 
ATOM      8  C   UNL     1      -0.131  13.406  17.616  1.00  0.00    -0.070 CG0
ATOM      9  C   UNL     1      -1.587  13.691  17.894  1.00  0.00     0.039 C 
ATOM     10  G   UNL     1       0.862  13.579  18.747  1.00  0.00     0.000 G0
ENDBRANCH   6   7
ENDBRANCH   5   6
ENDBRANCH   3   5
ENDBRANCH   1   3
BRANCH   1  11
ATOM     11  C   UNL     1       2.816  11.357  19.301  1.00  0.00     0.087 C 
BRANCH  11  12
ATOM     12  C   UNL     1       1.315  11.162  19.682  1.00  0.00     0.066 C 
BRANCH  12  13
ATOM     13  C   UNL     1       0.664  12.532  19.809  1.00  0.00     0.140 C 
ATOM     14  O   UNL     1       0.071  12.830  20.838  1.00  0.00    -0.299 OA
BRANCH  13  15
ATOM     15  C   UNL     1       0.867  13.591  18.753  1.00  0.00     0.106 CG0
ATOM     16  G   UNL     1      -0.123  13.386  17.625  1.00  0.00     0.000 G0
ENDBRANCH  13  15
ENDBRANCH  12  13
BRANCH  12  17
ATOM     17  C   UNL     1       1.113  10.299  20.971  1.00  0.00    -0.006 C 
ATOM     18  C   UNL     1       2.370  10.275  21.858  1.00  0.00     0.008 C 
ATOM     19  C   UNL     1       0.738   8.846  20.618  1.00  0.00     0.008 C 
ENDBRANCH  12  17
ENDBRANCH  11  12
ENDBRANCH   1  11
TORSDOF 1
ENDMDL
MODEL 6
REMARK VINA RESULT:    -3.261      3.218      6.504
REMARK INTER + INTRA:          -5.210
REMARK INTER:                  -5.140
REMARK INTRA:                  -0.070
REMARK UNBOUND:                -0.233
REMARK SMILES CC1=CCC[C@@H](C)C(=O)C[C@@H](C(C)C)C(=O)C1
REMARK SMILES IDX 8 1 9 2 6 3 7 4 5 5 4 6 3 7 2 8 1 9 10 11 11 12 15 13 16 14
REMARK SMILES IDX 17 15 12 17 13 18 14 19
REMARK H PARENT
REMARK Flexibility Score: 70.00
ROOT
ATOM      1  C   UNL     1       1.728  10.304  19.842  1.00  0.00     0.136 C 
ATOM      2  O   UNL     1       1.587   9.718  20.905  1.00  0.00    -0.299 OA
ENDROOT
BRANCH   1   3
ATOM      3  C   UNL     1       0.915   9.843  18.642  1.00  0.00     0.053 C 
ATOM      4  C   UNL     1      -0.471   9.323  19.054  1.00  0.00     0.016 C 
BRANCH   3   5
ATOM      5  C   UNL     1       1.741   8.927  17.687  1.00  0.00     0.015 C 
BRANCH   5   6
ATOM      6  C   UNL     1       2.945   9.515  16.918  1.00  0.00     0.028 C 
BRANCH   6   7
ATOM      7  C   UNL     1       2.663  10.597  15.902  1.00  0.00    -0.028 C 
ATOM      8  C   UNL     1       2.758  11.933  16.092  1.00  0.00    -0.070 CG0
ATOM      9  C   UNL     1       2.243  12.834  14.997  1.00  0.00     0.039 C 
ATOM     10  G   UNL     1       3.406  12.574  17.302  1.00  0.00     0.000 G0
ENDBRANCH   6   7
ENDBRANCH   5   6
ENDBRANCH   3   5
ENDBRANCH   1   3
BRANCH   1  11
ATOM     11  C   UNL     1       2.698  11.462  19.776  1.00  0.00     0.087 C 
BRANCH  11  12
ATOM     12  C   UNL     1       1.982  12.823  19.510  1.00  0.00     0.066 C 
BRANCH  12  13
ATOM     13  C   UNL     1       2.396  13.329  18.135  1.00  0.00     0.140 C 
ATOM     14  O   UNL     1       1.998  14.419  17.744  1.00  0.00    -0.299 OA
BRANCH  13  15
ATOM     15  C   UNL     1       3.413  12.584  17.305  1.00  0.00     0.106 CG0
ATOM     16  G   UNL     1       2.731  11.940  16.115  1.00  0.00     0.000 G0
ENDBRANCH  13  15
ENDBRANCH  12  13
BRANCH  12  17
ATOM     17  C   UNL     1       2.245  13.887  20.626  1.00  0.00    -0.006 C 
ATOM     18  C   UNL     1       3.666  13.782  21.206  1.00  0.00     0.008 C 
ATOM     19  C   UNL     1       1.235  13.747  21.782  1.00  0.00     0.008 C 
ENDBRANCH  12  17
ENDBRANCH  11  12
ENDBRANCH   1  11
TORSDOF 1
ENDMDL
MODEL 7
REMARK VINA RESULT:    -3.233      1.882      3.833
REMARK INTER + INTRA:          -5.167
REMARK INTER:                  -4.770
REMARK INTRA:                  -0.397
REMARK UNBOUND:                -0.233
REMARK SMILES CC1=CCC[C@@H](C)C(=O)C[C@@H](C(C)C)C(=O)C1
REMARK SMILES IDX 8 1 9 2 6 3 7 4 5 5 4 6 3 7 2 8 1 9 10 11 11 12 15 13 16 14
REMARK SMILES IDX 17 15 12 17 13 18 14 19
REMARK H PARENT
REMARK Flexibility Score: 70.00
ROOT
ATOM      1  C   UNL     1       1.066  12.349  21.136  1.00  0.00     0.136 C 
ATOM      2  O   UNL     1       0.044  12.379  20.465  1.00  0.00    -0.299 OA
ENDROOT
BRANCH   1   3
ATOM      3  C   UNL     1       2.141  11.334  20.781  1.00  0.00     0.053 C 
ATOM      4  C   UNL     1       2.244  11.114  19.263  1.00  0.00     0.016 C 
BRANCH   3   5
ATOM      5  C   UNL     1       2.052  10.049  21.660  1.00  0.00     0.015 C 
BRANCH   5   6
ATOM      6  C   UNL     1       2.529  10.094  23.129  1.00  0.00     0.028 C 
BRANCH   6   7
ATOM      7  C   UNL     1       3.915  10.631  23.397  1.00  0.00    -0.028 C 
ATOM      8  C   UNL     1       4.235  11.871  23.835  1.00  0.00    -0.070 CG0
ATOM      9  C   UNL     1       5.695  12.253  23.848  1.00  0.00     0.039 C 
ATOM     10  G   UNL     1       3.228  12.868  24.370  1.00  0.00     0.000 G0
ENDBRANCH   6   7
ENDBRANCH   5   6
ENDBRANCH   3   5
ENDBRANCH   1   3
BRANCH   1  11
ATOM     11  C   UNL     1       1.209  13.326  22.282  1.00  0.00     0.087 C 
BRANCH  11  12
ATOM     12  C   UNL     1       2.518  14.169  22.182  1.00  0.00     0.066 C 
BRANCH  12  13
ATOM     13  C   UNL     1       3.224  14.131  23.530  1.00  0.00     0.140 C 
ATOM     14  O   UNL     1       3.702  15.157  23.995  1.00  0.00    -0.299 OA
BRANCH  13  15
ATOM     15  C   UNL     1       3.212  12.882  24.380  1.00  0.00     0.106 CG0
ATOM     16  G   UNL     1       4.227  11.891  23.848  1.00  0.00     0.000 G0
ENDBRANCH  13  15
ENDBRANCH  12  13
BRANCH  12  17
ATOM     17  C   UNL     1       2.272  15.635  21.695  1.00  0.00    -0.006 C 
ATOM     18  C   UNL     1       0.886  16.160  22.108  1.00  0.00     0.008 C 
ATOM     19  C   UNL     1       2.398  15.743  20.163  1.00  0.00     0.008 C 
ENDBRANCH  12  17
ENDBRANCH  11  12
ENDBRANCH   1  11
TORSDOF 1
ENDMDL
MODEL 8
REMARK VINA RESULT:    -3.223      2.160      4.543
REMARK INTER + INTRA:          -5.151
REMARK INTER:                  -4.693
REMARK INTRA:                  -0.458
REMARK UNBOUND:                -0.233
REMARK SMILES CC1=CCC[C@@H](C)C(=O)C[C@@H](C(C)C)C(=O)C1
REMARK SMILES IDX 8 1 9 2 6 3 7 4 5 5 4 6 3 7 2 8 1 9 10 11 11 12 15 13 16 14
REMARK SMILES IDX 17 15 12 17 13 18 14 19
REMARK H PARENT
REMARK Flexibility Score: 70.00
ROOT
ATOM      1  C   UNL     1       4.281  12.632  22.080  1.00  0.00     0.136 C 
ATOM      2  O   UNL     1       5.356  12.493  21.516  1.00  0.00    -0.299 OA
ENDROOT
BRANCH   1   3
ATOM      3  C   UNL     1       4.111  12.054  23.477  1.00  0.00     0.053 C 
ATOM      4  C   UNL     1       5.054  12.720  24.492  1.00  0.00     0.016 C 
BRANCH   3   5
ATOM      5  C   UNL     1       4.092  10.495  23.471  1.00  0.00     0.015 C 
BRANCH   5   6
ATOM      6  C   UNL     1       2.954   9.748  22.739  1.00  0.00     0.028 C 
BRANCH   6   7
ATOM      7  C   UNL     1       1.553   9.907  23.280  1.00  0.00    -0.028 C 
ATOM      8  C   UNL     1       0.632  10.819  22.891  1.00  0.00    -0.070 CG0
ATOM      9  C   UNL     1      -0.636  10.920  23.702  1.00  0.00     0.039 C 
ATOM     10  G   UNL     1       0.769  11.692  21.661  1.00  0.00     0.000 G0
ENDBRANCH   6   7
ENDBRANCH   5   6
ENDBRANCH   3   5
ENDBRANCH   1   3
BRANCH   1  11
ATOM     11  C   UNL     1       3.177  13.376  21.363  1.00  0.00     0.087 C 
BRANCH  11  12
ATOM     12  C   UNL     1       2.074  13.888  22.340  1.00  0.00     0.066 C 
BRANCH  12  13
ATOM     13  C   UNL     1       0.775  13.155  22.034  1.00  0.00     0.140 C 
ATOM     14  O   UNL     1      -0.276  13.779  21.978  1.00  0.00    -0.299 OA
BRANCH  13  15
ATOM     15  C   UNL     1       0.779  11.696  21.645  1.00  0.00     0.106 CG0
ATOM     16  G   UNL     1       0.637  10.835  22.883  1.00  0.00     0.000 G0
ENDBRANCH  13  15
ENDBRANCH  12  13
BRANCH  12  17
ATOM     17  C   UNL     1       1.888  15.441  22.303  1.00  0.00    -0.006 C 
ATOM     18  C   UNL     1       2.329  16.047  20.959  1.00  0.00     0.008 C 
ATOM     19  C   UNL     1       2.685  16.126  23.431  1.00  0.00     0.008 C 
ENDBRANCH  12  17
ENDBRANCH  11  12
ENDBRANCH   1  11
TORSDOF 1
ENDMDL
MODEL 9
REMARK VINA RESULT:    -3.108      2.812      4.869
REMARK INTER + INTRA:          -4.975
REMARK INTER:                  -4.403
REMARK INTRA:                  -0.573
REMARK UNBOUND:                -0.233
REMARK SMILES CC1=CCC[C@@H](C)C(=O)C[C@@H](C(C)C)C(=O)C1
REMARK SMILES IDX 8 1 9 2 6 3 7 4 5 5 4 6 3 7 2 8 1 9 10 11 11 12 15 13 16 14
REMARK SMILES IDX 17 15 12 17 13 18 14 19
REMARK H PARENT
REMARK Flexibility Score: 70.00
ROOT
ATOM      1  C   UNL     1      -0.045  10.060  19.823  1.00  0.00     0.136 C 
ATOM      2  O   UNL     1      -1.254  10.019  20.001  1.00  0.00    -0.299 OA
ENDROOT
BRANCH   1   3
ATOM      3  C   UNL     1       0.746   8.763  19.898  1.00  0.00     0.053 C 
ATOM      4  C   UNL     1       0.296   7.754  18.830  1.00  0.00     0.016 C 
BRANCH   3   5
ATOM      5  C   UNL     1       0.855   8.222  21.357  1.00  0.00     0.015 C 
BRANCH   5   6
ATOM      6  C   UNL     1       1.162   9.200  22.513  1.00  0.00     0.028 C 
BRANCH   6   7
ATOM      7  C   UNL     1       2.608   9.563  22.755  1.00  0.00    -0.028 C 
ATOM      8  C   UNL     1       3.232  10.702  22.380  1.00  0.00    -0.070 CG0
ATOM      9  C   UNL     1       4.729  10.770  22.557  1.00  0.00     0.039 C 
ATOM     10  G   UNL     1       2.516  11.930  21.855  1.00  0.00     0.000 G0
ENDBRANCH   6   7
ENDBRANCH   5   6
ENDBRANCH   3   5
ENDBRANCH   1   3
BRANCH   1  11
ATOM     11  C   UNL     1       0.601  11.396  19.533  1.00  0.00     0.087 C 
BRANCH  11  12
ATOM     12  C   UNL     1       2.144  11.279  19.333  1.00  0.00     0.066 C 
BRANCH  12  13
ATOM     13  C   UNL     1       2.837  12.125  20.391  1.00  0.00     0.140 C 
ATOM     14  O   UNL     1       3.556  13.055  20.050  1.00  0.00    -0.299 OA
BRANCH  13  15
ATOM     15  C   UNL     1       2.534  11.939  21.858  1.00  0.00     0.106 CG0
ATOM     16  G   UNL     1       3.238  10.701  22.374  1.00  0.00     0.000 G0
ENDBRANCH  13  15
ENDBRANCH  12  13
BRANCH  12  17
ATOM     17  C   UNL     1       2.609  11.657  17.888  1.00  0.00    -0.006 C 
ATOM     18  C   UNL     1       1.422  11.932  16.948  1.00  0.00     0.008 C 
ATOM     19  C   UNL     1       3.472  10.540  17.268  1.00  0.00     0.008 C 
ENDBRANCH  12  17
ENDBRANCH  11  12
ENDBRANCH   1  11
TORSDOF 1
ENDMDL
