MODEL 1
REMARK VINA RESULT:    -5.255      0.000      0.000
REMARK INTER + INTRA:         -10.156
REMARK INTER:                  -9.096
REMARK INTRA:                  -1.060
REMARK UNBOUND:                -1.060
REMARK SMILES CCCCCCCCCCCCCCO
REMARK SMILES IDX 8 1 7 2 6 3 5 4 4 5 3 6 2 7 1 8 9 9 10 10 11 11 12 12 13 13
REMARK SMILES IDX 14 14 15 15
REMARK H PARENT 15 16
REMARK Flexibility Score: inf
ROOT
ATOM      1  C   UNL     1      -8.260  64.296  39.526  1.00  0.00     0.000 C 
ENDROOT
BRANCH   1   2
ATOM      2  C   UNL     1      -9.003  64.709  38.243  1.00  0.00    -0.000 C 
BRANCH   2   3
ATOM      3  C   UNL     1     -10.196  63.791  37.931  1.00  0.00    -0.000 C 
BRANCH   3   4
ATOM      4  C   UNL     1     -10.122  62.448  38.673  1.00  0.00    -0.000 C 
BRANCH   4   5
ATOM      5  C   UNL     1     -11.521  61.961  39.068  1.00  0.00    -0.000 C 
BRANCH   5   6
ATOM      6  C   UNL     1     -11.440  60.860  40.136  1.00  0.00    -0.000 C 
BRANCH   6   7
ATOM      7  C   UNL     1     -12.640  59.902  40.089  1.00  0.00    -0.003 C 
ATOM      8  C   UNL     1     -13.348  59.907  38.734  1.00  0.00     0.004 C 
ENDBRANCH   6   7
ENDBRANCH   5   6
ENDBRANCH   4   5
ENDBRANCH   3   4
ENDBRANCH   2   3
ENDBRANCH   1   2
BRANCH   1   9
ATOM      9  C   UNL     1      -8.214  65.424  40.570  1.00  0.00     0.000 C 
BRANCH   9  10
ATOM     10  C   UNL     1      -9.306  65.284  41.642  1.00  0.00     0.000 C 
BRANCH  10  11
ATOM     11  C   UNL     1      -9.791  63.832  41.744  1.00  0.00     0.000 C 
BRANCH  11  12
ATOM     12  C   UNL     1      -9.672  63.312  43.182  1.00  0.00     0.002 C 
BRANCH  12  13
ATOM     13  C   UNL     1     -10.128  61.848  43.276  1.00  0.00     0.028 C 
BRANCH  13  14
ATOM     14  C   UNL     1      -9.900  61.267  44.674  1.00  0.00     0.156 C 
BRANCH  14  15
ATOM     15  O   UNL     1      -9.258  60.021  44.596  1.00  0.00    -0.396 OA
ATOM     16  H   UNL     1      -9.752  59.404  45.196  1.00  0.00     0.210 HD
ENDBRANCH  14  15
ENDBRANCH  13  14
ENDBRANCH  12  13
ENDBRANCH  11  12
ENDBRANCH  10  11
ENDBRANCH   9  10
ENDBRANCH   1   9
TORSDOF 13
ENDMDL
MODEL 2
REMARK VINA RESULT:    -5.152      8.883     12.964
REMARK INTER + INTRA:          -9.977
REMARK INTER:                  -8.891
REMARK INTRA:                  -1.086
REMARK UNBOUND:                -1.060
REMARK SMILES CCCCCCCCCCCCCCO
REMARK SMILES IDX 8 1 7 2 6 3 5 4 4 5 3 6 2 7 1 8 9 9 10 10 11 11 12 12 13 13
REMARK SMILES IDX 14 14 15 15
REMARK H PARENT 15 16
REMARK Flexibility Score: inf
ROOT
ATOM      1  C   UNL     1      -6.797  65.079  53.268  1.00  0.00     0.000 C 
ENDROOT
BRANCH   1   2
ATOM      2  C   UNL     1      -8.058  64.216  53.447  1.00  0.00    -0.000 C 
BRANCH   2   3
ATOM      3  C   UNL     1      -7.822  63.012  54.374  1.00  0.00    -0.000 C 
BRANCH   3   4
ATOM      4  C   UNL     1      -7.714  61.685  53.609  1.00  0.00    -0.000 C 
BRANCH   4   5
ATOM      5  C   UNL     1      -6.277  61.151  53.634  1.00  0.00    -0.000 C 
BRANCH   5   6
ATOM      6  C   UNL     1      -5.712  61.157  55.063  1.00  0.00    -0.000 C 
BRANCH   6   7
ATOM      7  C   UNL     1      -6.111  59.906  55.861  1.00  0.00    -0.003 C 
ATOM      8  C   UNL     1      -4.943  59.306  56.643  1.00  0.00     0.004 C 
ENDBRANCH   6   7
ENDBRANCH   5   6
ENDBRANCH   4   5
ENDBRANCH   3   4
ENDBRANCH   2   3
ENDBRANCH   1   2
BRANCH   1   9
ATOM      9  C   UNL     1      -6.463  65.337  51.789  1.00  0.00     0.000 C 
BRANCH   9  10
ATOM     10  C   UNL     1      -6.317  64.039  50.979  1.00  0.00     0.000 C 
BRANCH  10  11
ATOM     11  C   UNL     1      -6.991  64.170  49.608  1.00  0.00     0.000 C 
BRANCH  11  12
ATOM     12  C   UNL     1      -8.484  64.490  49.756  1.00  0.00     0.002 C 
BRANCH  12  13
ATOM     13  C   UNL     1      -9.264  64.060  48.505  1.00  0.00     0.028 C 
BRANCH  13  14
ATOM     14  C   UNL     1      -8.914  62.634  48.074  1.00  0.00     0.156 C 
BRANCH  14  15
ATOM     15  O   UNL     1      -9.426  61.698  48.986  1.00  0.00    -0.396 OA
ATOM     16  H   UNL     1     -10.214  62.119  49.420  1.00  0.00     0.210 HD
ENDBRANCH  14  15
ENDBRANCH  13  14
ENDBRANCH  12  13
ENDBRANCH  11  12
ENDBRANCH  10  11
ENDBRANCH   9  10
ENDBRANCH   1   9
TORSDOF 13
ENDMDL
MODEL 3
REMARK VINA RESULT:    -5.113      3.014      6.330
REMARK INTER + INTRA:          -9.909
REMARK INTER:                  -8.875
REMARK INTRA:                  -1.033
REMARK UNBOUND:                -1.060
REMARK SMILES CCCCCCCCCCCCCCO
REMARK SMILES IDX 8 1 7 2 6 3 5 4 4 5 3 6 2 7 1 8 9 9 10 10 11 11 12 12 13 13
REMARK SMILES IDX 14 14 15 15
REMARK H PARENT 15 16
REMARK Flexibility Score: inf
ROOT
ATOM      1  C   UNL     1     -11.353  61.065  40.711  1.00  0.00     0.000 C 
ENDROOT
BRANCH   1   2
ATOM      2  C   UNL     1     -10.293  61.599  39.732  1.00  0.00    -0.000 C 
BRANCH   2   3
ATOM      3  C   UNL     1     -10.880  62.579  38.703  1.00  0.00    -0.000 C 
BRANCH   3   4
ATOM      4  C   UNL     1      -9.968  63.788  38.447  1.00  0.00    -0.000 C 
BRANCH   4   5
ATOM      5  C   UNL     1      -8.894  63.905  39.534  1.00  0.00    -0.000 C 
BRANCH   5   6
ATOM      6  C   UNL     1      -8.765  65.354  40.027  1.00  0.00    -0.000 C 
BRANCH   6   7
ATOM      7  C   UNL     1      -9.335  65.551  41.440  1.00  0.00    -0.003 C 
ATOM      8  C   UNL     1      -9.677  64.230  42.129  1.00  0.00     0.004 C 
ENDBRANCH   6   7
ENDBRANCH   5   6
ENDBRANCH   4   5
ENDBRANCH   3   4
ENDBRANCH   2   3
ENDBRANCH   1   2
BRANCH   1   9
ATOM      9  C   UNL     1     -12.232  59.968  40.089  1.00  0.00     0.000 C 
BRANCH   9  10
ATOM     10  C   UNL     1     -13.728  60.312  40.129  1.00  0.00     0.000 C 
BRANCH  10  11
ATOM     11  C   UNL     1     -14.306  60.413  38.711  1.00  0.00     0.000 C 
BRANCH  11  12
ATOM     12  C   UNL     1     -14.907  61.801  38.459  1.00  0.00     0.002 C 
BRANCH  12  13
ATOM     13  C   UNL     1     -16.395  61.696  38.091  1.00  0.00     0.028 C 
BRANCH  13  14
ATOM     14  C   UNL     1     -17.057  60.472  38.728  1.00  0.00     0.156 C 
BRANCH  14  15
ATOM     15  O   UNL     1     -17.786  60.837  39.870  1.00  0.00    -0.396 OA
ATOM     16  H   UNL     1     -18.465  61.500  39.579  1.00  0.00     0.210 HD
ENDBRANCH  14  15
ENDBRANCH  13  14
ENDBRANCH  12  13
ENDBRANCH  11  12
ENDBRANCH  10  11
ENDBRANCH   9  10
ENDBRANCH   1   9
TORSDOF 13
ENDMDL
MODEL 4
REMARK VINA RESULT:    -5.106      1.439      2.599
REMARK INTER + INTRA:          -9.897
REMARK INTER:                  -8.798
REMARK INTRA:                  -1.099
REMARK UNBOUND:                -1.060
REMARK SMILES CCCCCCCCCCCCCCO
REMARK SMILES IDX 8 1 7 2 6 3 5 4 4 5 3 6 2 7 1 8 9 9 10 10 11 11 12 12 13 13
REMARK SMILES IDX 14 14 15 15
REMARK H PARENT 15 16
REMARK Flexibility Score: inf
ROOT
ATOM      1  C   UNL     1     -10.275  63.376  38.753  1.00  0.00     0.000 C 
ENDROOT
BRANCH   1   2
ATOM      2  C   UNL     1     -11.522  62.476  38.697  1.00  0.00    -0.000 C 
BRANCH   2   3
ATOM      3  C   UNL     1     -11.444  61.299  39.683  1.00  0.00    -0.000 C 
BRANCH   3   4
ATOM      4  C   UNL     1     -12.828  60.749  40.060  1.00  0.00    -0.000 C 
BRANCH   4   5
ATOM      5  C   UNL     1     -13.606  60.319  38.811  1.00  0.00    -0.000 C 
BRANCH   5   6
ATOM      6  C   UNL     1     -15.121  60.367  39.062  1.00  0.00    -0.000 C 
BRANCH   6   7
ATOM      7  C   UNL     1     -15.847  61.336  38.118  1.00  0.00    -0.003 C 
ATOM      8  C   UNL     1     -15.321  62.768  38.222  1.00  0.00     0.004 C 
ENDBRANCH   6   7
ENDBRANCH   5   6
ENDBRANCH   4   5
ENDBRANCH   3   4
ENDBRANCH   2   3
ENDBRANCH   1   2
BRANCH   1   9
ATOM      9  C   UNL     1      -9.257  62.910  39.807  1.00  0.00     0.000 C 
BRANCH   9  10
ATOM     10  C   UNL     1      -8.987  63.974  40.882  1.00  0.00     0.000 C 
BRANCH  10  11
ATOM     11  C   UNL     1     -10.116  64.003  41.920  1.00  0.00     0.000 C 
BRANCH  11  12
ATOM     12  C   UNL     1      -9.657  63.392  43.250  1.00  0.00     0.002 C 
BRANCH  12  13
ATOM     13  C   UNL     1     -10.062  61.914  43.343  1.00  0.00     0.028 C 
BRANCH  13  14
ATOM     14  C   UNL     1      -9.699  61.305  44.700  1.00  0.00     0.156 C 
BRANCH  14  15
ATOM     15  O   UNL     1      -9.439  59.932  44.576  1.00  0.00    -0.396 OA
ATOM     16  H   UNL     1      -9.393  59.563  45.497  1.00  0.00     0.210 HD
ENDBRANCH  14  15
ENDBRANCH  13  14
ENDBRANCH  12  13
ENDBRANCH  11  12
ENDBRANCH  10  11
ENDBRANCH   9  10
ENDBRANCH   1   9
TORSDOF 13
ENDMDL
MODEL 5
REMARK VINA RESULT:    -5.051     10.080     14.149
REMARK INTER + INTRA:          -9.802
REMARK INTER:                  -8.788
REMARK INTRA:                  -1.014
REMARK UNBOUND:                -1.060
REMARK SMILES CCCCCCCCCCCCCCO
REMARK SMILES IDX 8 1 7 2 6 3 5 4 4 5 3 6 2 7 1 8 9 9 10 10 11 11 12 12 13 13
REMARK SMILES IDX 14 14 15 15
REMARK H PARENT 15 16
REMARK Flexibility Score: inf
ROOT
ATOM      1  C   UNL     1      -7.869  63.289  54.134  1.00  0.00     0.000 C 
ENDROOT
BRANCH   1   2
ATOM      2  C   UNL     1      -7.396  62.049  53.355  1.00  0.00    -0.000 C 
BRANCH   2   3
ATOM      3  C   UNL     1      -5.888  61.792  53.514  1.00  0.00    -0.000 C 
BRANCH   3   4
ATOM      4  C   UNL     1      -5.512  61.319  54.926  1.00  0.00    -0.000 C 
BRANCH   4   5
ATOM      5  C   UNL     1      -6.453  60.204  55.400  1.00  0.00    -0.000 C 
BRANCH   5   6
ATOM      6  C   UNL     1      -5.659  59.018  55.968  1.00  0.00    -0.000 C 
BRANCH   6   7
ATOM      7  C   UNL     1      -4.493  59.461  56.864  1.00  0.00    -0.003 C 
ATOM      8  C   UNL     1      -3.392  58.406  56.967  1.00  0.00     0.004 C 
ENDBRANCH   6   7
ENDBRANCH   5   6
ENDBRANCH   4   5
ENDBRANCH   3   4
ENDBRANCH   2   3
ENDBRANCH   1   2
BRANCH   1   9
ATOM      9  C   UNL     1      -8.005  64.531  53.238  1.00  0.00     0.000 C 
BRANCH   9  10
ATOM     10  C   UNL     1      -6.765  65.436  53.286  1.00  0.00     0.000 C 
BRANCH  10  11
ATOM     11  C   UNL     1      -6.395  65.934  51.884  1.00  0.00     0.000 C 
BRANCH  11  12
ATOM     12  C   UNL     1      -6.035  64.763  50.961  1.00  0.00     0.002 C 
BRANCH  12  13
ATOM     13  C   UNL     1      -6.732  64.901  49.600  1.00  0.00     0.028 C 
BRANCH  13  14
ATOM     14  C   UNL     1      -8.150  64.324  49.621  1.00  0.00     0.156 C 
BRANCH  14  15
ATOM     15  O   UNL     1      -8.121  62.943  49.869  1.00  0.00    -0.396 OA
ATOM     16  H   UNL     1      -7.341  62.772  50.460  1.00  0.00     0.210 HD
ENDBRANCH  14  15
ENDBRANCH  13  14
ENDBRANCH  12  13
ENDBRANCH  11  12
ENDBRANCH  10  11
ENDBRANCH   9  10
ENDBRANCH   1   9
TORSDOF 13
ENDMDL
MODEL 6
REMARK VINA RESULT:    -4.947      2.760      6.213
REMARK INTER + INTRA:          -9.622
REMARK INTER:                  -8.693
REMARK INTRA:                  -0.928
REMARK UNBOUND:                -1.060
REMARK SMILES CCCCCCCCCCCCCCO
REMARK SMILES IDX 8 1 7 2 6 3 5 4 4 5 3 6 2 7 1 8 9 9 10 10 11 11 12 12 13 13
REMARK SMILES IDX 14 14 15 15
REMARK H PARENT 15 16
REMARK Flexibility Score: inf
ROOT
ATOM      1  C   UNL     1     -11.250  61.088  41.016  1.00  0.00     0.000 C 
ENDROOT
BRANCH   1   2
ATOM      2  C   UNL     1     -10.586  61.538  39.703  1.00  0.00    -0.000 C 
BRANCH   2   3
ATOM      3  C   UNL     1     -10.993  62.964  39.294  1.00  0.00    -0.000 C 
BRANCH   3   4
ATOM      4  C   UNL     1     -10.038  63.581  38.262  1.00  0.00    -0.000 C 
BRANCH   4   5
ATOM      5  C   UNL     1      -9.295  64.785  38.853  1.00  0.00    -0.000 C 
BRANCH   5   6
ATOM      6  C   UNL     1      -8.727  64.455  40.241  1.00  0.00    -0.000 C 
BRANCH   6   7
ATOM      7  C   UNL     1      -9.332  65.328  41.351  1.00  0.00    -0.003 C 
ATOM      8  C   UNL     1      -8.559  66.629  41.569  1.00  0.00     0.004 C 
ENDBRANCH   6   7
ENDBRANCH   5   6
ENDBRANCH   4   5
ENDBRANCH   3   4
ENDBRANCH   2   3
ENDBRANCH   1   2
BRANCH   1   9
ATOM      9  C   UNL     1     -12.655  60.503  40.796  1.00  0.00     0.000 C 
BRANCH   9  10
ATOM     10  C   UNL     1     -12.729  59.583  39.568  1.00  0.00     0.000 C 
BRANCH  10  11
ATOM     11  C   UNL     1     -13.809  60.060  38.589  1.00  0.00     0.000 C 
BRANCH  11  12
ATOM     12  C   UNL     1     -14.540  61.293  39.134  1.00  0.00     0.002 C 
BRANCH  12  13
ATOM     13  C   UNL     1     -15.487  61.882  38.078  1.00  0.00     0.028 C 
BRANCH  13  14
ATOM     14  C   UNL     1     -15.431  63.412  38.048  1.00  0.00     0.156 C 
BRANCH  14  15
ATOM     15  O   UNL     1     -14.275  63.880  38.691  1.00  0.00    -0.396 OA
ATOM     16  H   UNL     1     -14.559  64.238  39.572  1.00  0.00     0.210 HD
ENDBRANCH  14  15
ENDBRANCH  13  14
ENDBRANCH  12  13
ENDBRANCH  11  12
ENDBRANCH  10  11
ENDBRANCH   9  10
ENDBRANCH   1   9
TORSDOF 13
ENDMDL
MODEL 7
REMARK VINA RESULT:    -4.908      1.975      3.928
REMARK INTER + INTRA:          -9.554
REMARK INTER:                  -8.520
REMARK INTRA:                  -1.034
REMARK UNBOUND:                -1.060
REMARK SMILES CCCCCCCCCCCCCCO
REMARK SMILES IDX 8 1 7 2 6 3 5 4 4 5 3 6 2 7 1 8 9 9 10 10 11 11 12 12 13 13
REMARK SMILES IDX 14 14 15 15
REMARK H PARENT 15 16
REMARK Flexibility Score: inf
ROOT
ATOM      1  C   UNL     1      -9.850  61.764  39.467  1.00  0.00     0.000 C 
ENDROOT
BRANCH   1   2
ATOM      2  C   UNL     1     -10.760  61.104  40.518  1.00  0.00    -0.000 C 
BRANCH   2   3
ATOM      3  C   UNL     1     -12.249  61.177  40.138  1.00  0.00    -0.000 C 
BRANCH   3   4
ATOM      4  C   UNL     1     -12.813  59.823  39.684  1.00  0.00    -0.000 C 
BRANCH   4   5
ATOM      5  C   UNL     1     -13.668  59.980  38.421  1.00  0.00    -0.000 C 
BRANCH   5   6
ATOM      6  C   UNL     1     -14.672  61.131  38.575  1.00  0.00    -0.000 C 
BRANCH   6   7
ATOM      7  C   UNL     1     -16.115  60.702  38.271  1.00  0.00    -0.003 C 
ATOM      8  C   UNL     1     -17.046  60.863  39.473  1.00  0.00     0.004 C 
ENDBRANCH   6   7
ENDBRANCH   5   6
ENDBRANCH   4   5
ENDBRANCH   3   4
ENDBRANCH   2   3
ENDBRANCH   1   2
BRANCH   1   9
ATOM      9  C   UNL     1     -10.586  62.826  38.633  1.00  0.00     0.000 C 
BRANCH   9  10
ATOM     10  C   UNL     1      -9.673  63.989  38.215  1.00  0.00     0.000 C 
BRANCH  10  11
ATOM     11  C   UNL     1      -8.592  64.244  39.273  1.00  0.00     0.000 C 
BRANCH  11  12
ATOM     12  C   UNL     1      -8.673  65.679  39.809  1.00  0.00     0.002 C 
BRANCH  12  13
ATOM     13  C   UNL     1      -8.967  65.687  41.316  1.00  0.00     0.028 C 
BRANCH  13  14
ATOM     14  C   UNL     1     -10.236  64.901  41.656  1.00  0.00     0.156 C 
BRANCH  14  15
ATOM     15  O   UNL     1      -9.952  63.861  42.554  1.00  0.00    -0.396 OA
ATOM     16  H   UNL     1     -10.823  63.483  42.843  1.00  0.00     0.210 HD
ENDBRANCH  14  15
ENDBRANCH  13  14
ENDBRANCH  12  13
ENDBRANCH  11  12
ENDBRANCH  10  11
ENDBRANCH   9  10
ENDBRANCH   1   9
TORSDOF 13
ENDMDL
MODEL 8
REMARK VINA RESULT:    -4.855      2.964      6.348
REMARK INTER + INTRA:          -9.463
REMARK INTER:                  -8.663
REMARK INTRA:                  -0.800
REMARK UNBOUND:                -1.060
REMARK SMILES CCCCCCCCCCCCCCO
REMARK SMILES IDX 8 1 7 2 6 3 5 4 4 5 3 6 2 7 1 8 9 9 10 10 11 11 12 12 13 13
REMARK SMILES IDX 14 14 15 15
REMARK H PARENT 15 16
REMARK Flexibility Score: inf
ROOT
ATOM      1  C   UNL     1     -10.539  61.147  40.299  1.00  0.00     0.000 C 
ENDROOT
BRANCH   1   2
ATOM      2  C   UNL     1     -10.240  61.951  41.576  1.00  0.00    -0.000 C 
BRANCH   2   3
ATOM      3  C   UNL     1      -9.227  63.084  41.337  1.00  0.00    -0.000 C 
BRANCH   3   4
ATOM      4  C   UNL     1      -9.812  64.474  41.626  1.00  0.00    -0.000 C 
BRANCH   4   5
ATOM      5  C   UNL     1      -9.146  65.543  40.751  1.00  0.00    -0.000 C 
BRANCH   5   6
ATOM      6  C   UNL     1      -7.990  64.945  39.936  1.00  0.00    -0.000 C 
BRANCH   6   7
ATOM      7  C   UNL     1      -8.169  65.143  38.423  1.00  0.00    -0.003 C 
ATOM      8  C   UNL     1      -9.428  64.466  37.883  1.00  0.00     0.004 C 
ENDBRANCH   6   7
ENDBRANCH   5   6
ENDBRANCH   4   5
ENDBRANCH   3   4
ENDBRANCH   2   3
ENDBRANCH   1   2
BRANCH   1   9
ATOM      9  C   UNL     1     -11.994  61.306  39.828  1.00  0.00     0.000 C 
BRANCH   9  10
ATOM     10  C   UNL     1     -12.719  59.960  39.679  1.00  0.00     0.000 C 
BRANCH  10  11
ATOM     11  C   UNL     1     -13.796  60.035  38.590  1.00  0.00     0.000 C 
BRANCH  11  12
ATOM     12  C   UNL     1     -14.630  61.315  38.727  1.00  0.00     0.002 C 
BRANCH  12  13
ATOM     13  C   UNL     1     -16.043  61.113  38.161  1.00  0.00     0.028 C 
BRANCH  13  14
ATOM     14  C   UNL     1     -16.865  60.138  39.009  1.00  0.00     0.156 C 
BRANCH  14  15
ATOM     15  O   UNL     1     -17.828  60.826  39.765  1.00  0.00    -0.396 OA
ATOM     16  H   UNL     1     -18.211  60.172  40.407  1.00  0.00     0.210 HD
ENDBRANCH  14  15
ENDBRANCH  13  14
ENDBRANCH  12  13
ENDBRANCH  11  12
ENDBRANCH  10  11
ENDBRANCH   9  10
ENDBRANCH   1   9
TORSDOF 13
ENDMDL
MODEL 9
REMARK VINA RESULT:    -4.821      2.565      4.486
REMARK INTER + INTRA:          -9.404
REMARK INTER:                  -8.629
REMARK INTRA:                  -0.775
REMARK UNBOUND:                -1.060
REMARK SMILES CCCCCCCCCCCCCCO
REMARK SMILES IDX 8 1 7 2 6 3 5 4 4 5 3 6 2 7 1 8 9 9 10 10 11 11 12 12 13 13
REMARK SMILES IDX 14 14 15 15
REMARK H PARENT 15 16
REMARK Flexibility Score: inf
ROOT
ATOM      1  C   UNL     1     -11.242  61.949  39.006  1.00  0.00     0.000 C 
ENDROOT
BRANCH   1   2
ATOM      2  C   UNL     1     -11.485  61.131  40.287  1.00  0.00    -0.000 C 
BRANCH   2   3
ATOM      3  C   UNL     1     -12.683  60.176  40.158  1.00  0.00    -0.000 C 
BRANCH   3   4
ATOM      4  C   UNL     1     -13.048  59.875  38.697  1.00  0.00    -0.000 C 
BRANCH   4   5
ATOM      5  C   UNL     1     -14.473  60.345  38.380  1.00  0.00    -0.000 C 
BRANCH   5   6
ATOM      6  C   UNL     1     -15.199  60.802  39.654  1.00  0.00    -0.000 C 
BRANCH   6   7
ATOM      7  C   UNL     1     -16.728  60.788  39.501  1.00  0.00    -0.003 C 
ATOM      8  C   UNL     1     -17.197  61.430  38.195  1.00  0.00     0.004 C 
ENDBRANCH   6   7
ENDBRANCH   5   6
ENDBRANCH   4   5
ENDBRANCH   3   4
ENDBRANCH   2   3
ENDBRANCH   1   2
BRANCH   1   9
ATOM      9  C   UNL     1     -10.100  62.967  39.164  1.00  0.00     0.000 C 
BRANCH   9  10
ATOM     10  C   UNL     1      -9.649  63.130  40.623  1.00  0.00     0.000 C 
BRANCH  10  11
ATOM     11  C   UNL     1     -10.067  64.499  41.176  1.00  0.00     0.000 C 
BRANCH  11  12
ATOM     12  C   UNL     1      -8.852  65.419  41.344  1.00  0.00     0.002 C 
BRANCH  12  13
ATOM     13  C   UNL     1      -8.469  66.073  40.009  1.00  0.00     0.028 C 
BRANCH  13  14
ATOM     14  C   UNL     1      -6.994  65.847  39.663  1.00  0.00     0.156 C 
BRANCH  14  15
ATOM     15  O   UNL     1      -6.685  64.478  39.673  1.00  0.00    -0.396 OA
ATOM     16  H   UNL     1      -6.835  64.142  38.751  1.00  0.00     0.210 HD
ENDBRANCH  14  15
ENDBRANCH  13  14
ENDBRANCH  12  13
ENDBRANCH  11  12
ENDBRANCH  10  11
ENDBRANCH   9  10
ENDBRANCH   1   9
TORSDOF 13
ENDMDL
