MODEL 1
REMARK VINA RESULT:    -3.983      0.000      0.000
REMARK INTER + INTRA:          -4.240
REMARK INTER:                  -4.216
REMARK INTRA:                  -0.024
REMARK UNBOUND:                -0.024
REMARK SMILES O=C([O-])c1cccnc1
REMARK SMILES IDX 4 1 5 2 9 3 6 4 8 5 7 6 2 7 1 8 3 9
REMARK H PARENT
REMARK Flexibility Score: inf
ROOT
ATOM      1  C   UNL     1      -3.469 -21.821  29.908  1.00  0.00     0.016 A 
ATOM      2  C   UNL     1      -4.704 -22.269  29.414  1.00  0.00     0.013 A 
ATOM      3  C   UNL     1      -3.446 -21.152  31.145  1.00  0.00     0.120 A 
ATOM      4  C   UNL     1      -5.873 -22.048  30.145  1.00  0.00     0.021 A 
ATOM      5  N   UNL     1      -4.599 -20.950  31.836  1.00  0.00    -0.264 NA
ATOM      6  C   UNL     1      -5.800 -21.379  31.367  1.00  0.00     0.111 A 
ENDROOT
BRANCH   1   7
ATOM      7  C   UNL     1      -2.224 -22.050  29.142  1.00  0.00     0.073 C 
ATOM      8  O   UNL     1      -2.270 -22.471  27.956  1.00  0.00    -0.545 OA
ATOM      9  O   UNL     1      -0.986 -21.803  29.724  1.00  0.00    -0.545 OA
ENDBRANCH   1   7
TORSDOF 1
ENDMDL
MODEL 2
REMARK VINA RESULT:    -3.951     14.376     15.454
REMARK INTER + INTRA:          -4.206
REMARK INTER:                  -4.189
REMARK INTRA:                  -0.017
REMARK UNBOUND:                -0.024
REMARK SMILES O=C([O-])c1cccnc1
REMARK SMILES IDX 4 1 5 2 9 3 6 4 8 5 7 6 2 7 1 8 3 9
REMARK H PARENT
REMARK Flexibility Score: inf
ROOT
ATOM      1  C   UNL     1      10.275 -26.754  31.259  1.00  0.00     0.016 A 
ATOM      2  C   UNL     1      11.607 -26.635  31.686  1.00  0.00     0.013 A 
ATOM      3  C   UNL     1       9.896 -26.115  30.065  1.00  0.00     0.120 A 
ATOM      4  C   UNL     1      12.522 -25.897  30.932  1.00  0.00     0.021 A 
ATOM      5  N   UNL     1      10.806 -25.404  29.349  1.00  0.00    -0.264 NA
ATOM      6  C   UNL     1      12.098 -25.283  29.753  1.00  0.00     0.111 A 
ENDROOT
BRANCH   1   7
ATOM      7  C   UNL     1       9.297 -27.533  32.050  1.00  0.00     0.073 C 
ATOM      8  O   UNL     1       9.399 -28.785  32.139  1.00  0.00    -0.545 OA
ATOM      9  O   UNL     1       8.252 -26.892  32.705  1.00  0.00    -0.545 OA
ENDBRANCH   1   7
TORSDOF 1
ENDMDL
MODEL 3
REMARK VINA RESULT:    -3.950     13.289     14.786
REMARK INTER + INTRA:          -4.205
REMARK INTER:                  -4.182
REMARK INTRA:                  -0.023
REMARK UNBOUND:                -0.024
REMARK SMILES O=C([O-])c1cccnc1
REMARK SMILES IDX 4 1 5 2 9 3 6 4 8 5 7 6 2 7 1 8 3 9
REMARK H PARENT
REMARK Flexibility Score: inf
ROOT
ATOM      1  C   UNL     1       9.587 -26.741  30.535  1.00  0.00     0.016 A 
ATOM      2  C   UNL     1      10.877 -26.339  30.154  1.00  0.00     0.013 A 
ATOM      3  C   UNL     1       9.421 -27.354  31.791  1.00  0.00     0.120 A 
ATOM      4  C   UNL     1      11.958 -26.549  31.012  1.00  0.00     0.021 A 
ATOM      5  N   UNL     1      10.491 -27.546  32.606  1.00  0.00    -0.264 NA
ATOM      6  C   UNL     1      11.743 -27.160  32.248  1.00  0.00     0.111 A 
ENDROOT
BRANCH   1   7
ATOM      7  C   UNL     1       8.433 -26.524  29.635  1.00  0.00     0.073 C 
ATOM      8  O   UNL     1       8.606 -26.389  28.395  1.00  0.00    -0.545 OA
ATOM      9  O   UNL     1       7.142 -26.466  30.148  1.00  0.00    -0.545 OA
ENDBRANCH   1   7
TORSDOF 1
ENDMDL
MODEL 4
REMARK VINA RESULT:    -3.945      2.295      2.783
REMARK INTER + INTRA:          -4.199
REMARK INTER:                  -4.182
REMARK INTRA:                  -0.017
REMARK UNBOUND:                -0.024
REMARK SMILES O=C([O-])c1cccnc1
REMARK SMILES IDX 4 1 5 2 9 3 6 4 8 5 7 6 2 7 1 8 3 9
REMARK H PARENT
REMARK Flexibility Score: inf
ROOT
ATOM      1  C   UNL     1      -4.192 -21.866  30.549  1.00  0.00     0.016 A 
ATOM      2  C   UNL     1      -5.550 -21.973  30.890  1.00  0.00     0.013 A 
ATOM      3  C   UNL     1      -3.728 -22.571  29.423  1.00  0.00     0.120 A 
ATOM      4  C   UNL     1      -6.406 -22.763  30.120  1.00  0.00     0.021 A 
ATOM      5  N   UNL     1      -4.583 -23.333  28.692  1.00  0.00    -0.264 NA
ATOM      6  C   UNL     1      -5.899 -23.443  29.012  1.00  0.00     0.111 A 
ENDROOT
BRANCH   1   7
ATOM      7  C   UNL     1      -3.276 -21.032  31.356  1.00  0.00     0.073 C 
ATOM      8  O   UNL     1      -3.370 -19.776  31.337  1.00  0.00    -0.545 OA
ATOM      9  O   UNL     1      -2.298 -21.624  32.146  1.00  0.00    -0.545 OA
ENDBRANCH   1   7
TORSDOF 1
ENDMDL
MODEL 5
REMARK VINA RESULT:    -3.766     13.091     14.080
REMARK INTER + INTRA:          -4.010
REMARK INTER:                  -3.986
REMARK INTRA:                  -0.024
REMARK UNBOUND:                -0.024
REMARK SMILES O=C([O-])c1cccnc1
REMARK SMILES IDX 4 1 5 2 9 3 6 4 8 5 7 6 2 7 1 8 3 9
REMARK H PARENT
REMARK Flexibility Score: inf
ROOT
ATOM      1  C   UNL     1       9.253 -27.040  30.950  1.00  0.00     0.016 A 
ATOM      2  C   UNL     1       7.914 -27.461  30.983  1.00  0.00     0.013 A 
ATOM      3  C   UNL     1       9.723 -26.400  29.789  1.00  0.00     0.120 A 
ATOM      4  C   UNL     1       7.082 -27.241  29.883  1.00  0.00     0.021 A 
ATOM      5  N   UNL     1       8.892 -26.198  28.732  1.00  0.00    -0.264 NA
ATOM      6  C   UNL     1       7.595 -26.601  28.755  1.00  0.00     0.111 A 
ENDROOT
BRANCH   1   7
ATOM      7  C   UNL     1      10.143 -27.267  32.109  1.00  0.00     0.073 C 
ATOM      8  O   UNL     1       9.675 -27.673  33.206  1.00  0.00    -0.545 OA
ATOM      9  O   UNL     1      11.509 -27.034  32.002  1.00  0.00    -0.545 OA
ENDBRANCH   1   7
TORSDOF 1
ENDMDL
MODEL 6
REMARK VINA RESULT:    -3.749      2.802      4.151
REMARK INTER + INTRA:          -3.992
REMARK INTER:                  -3.968
REMARK INTRA:                  -0.024
REMARK UNBOUND:                -0.024
REMARK SMILES O=C([O-])c1cccnc1
REMARK SMILES IDX 4 1 5 2 9 3 6 4 8 5 7 6 2 7 1 8 3 9
REMARK H PARENT
REMARK Flexibility Score: inf
ROOT
ATOM      1  C   UNL     1      -2.693 -21.579  30.255  1.00  0.00     0.016 A 
ATOM      2  C   UNL     1      -1.391 -21.054  30.266  1.00  0.00     0.013 A 
ATOM      3  C   UNL     1      -3.106 -22.317  29.131  1.00  0.00     0.120 A 
ATOM      4  C   UNL     1      -0.539 -21.267  29.181  1.00  0.00     0.021 A 
ATOM      5  N   UNL     1      -2.256 -22.511  28.088  1.00  0.00    -0.264 NA
ATOM      6  C   UNL     1      -0.995 -22.007  28.089  1.00  0.00     0.111 A 
ENDROOT
BRANCH   1   7
ATOM      7  C   UNL     1      -3.604 -21.360  31.399  1.00  0.00     0.073 C 
ATOM      8  O   UNL     1      -3.198 -20.775  32.438  1.00  0.00    -0.545 OA
ATOM      9  O   UNL     1      -4.923 -21.796  31.342  1.00  0.00    -0.545 OA
ENDBRANCH   1   7
TORSDOF 1
ENDMDL
MODEL 7
REMARK VINA RESULT:    -3.735      8.558      9.676
REMARK INTER + INTRA:          -3.977
REMARK INTER:                  -3.955
REMARK INTRA:                  -0.022
REMARK UNBOUND:                -0.024
REMARK SMILES O=C([O-])c1cccnc1
REMARK SMILES IDX 4 1 5 2 9 3 6 4 8 5 7 6 2 7 1 8 3 9
REMARK H PARENT
REMARK Flexibility Score: inf
ROOT
ATOM      1  C   UNL     1       2.643 -23.787  24.194  1.00  0.00     0.016 A 
ATOM      2  C   UNL     1       4.043 -23.883  24.254  1.00  0.00     0.013 A 
ATOM      3  C   UNL     1       1.891 -24.976  24.198  1.00  0.00     0.120 A 
ATOM      4  C   UNL     1       4.657 -25.136  24.316  1.00  0.00     0.021 A 
ATOM      5  N   UNL     1       2.515 -26.182  24.259  1.00  0.00    -0.264 NA
ATOM      6  C   UNL     1       3.868 -26.286  24.318  1.00  0.00     0.111 A 
ENDROOT
BRANCH   1   7
ATOM      7  C   UNL     1       1.981 -22.466  24.128  1.00  0.00     0.073 C 
ATOM      8  O   UNL     1       0.783 -22.332  24.495  1.00  0.00    -0.545 OA
ATOM      9  O   UNL     1       2.672 -21.355  23.661  1.00  0.00    -0.545 OA
ENDBRANCH   1   7
TORSDOF 1
ENDMDL
MODEL 8
REMARK VINA RESULT:    -3.734      9.413     10.356
REMARK INTER + INTRA:          -3.976
REMARK INTER:                  -3.960
REMARK INTRA:                  -0.016
REMARK UNBOUND:                -0.024
REMARK SMILES O=C([O-])c1cccnc1
REMARK SMILES IDX 4 1 5 2 9 3 6 4 8 5 7 6 2 7 1 8 3 9
REMARK H PARENT
REMARK Flexibility Score: inf
ROOT
ATOM      1  C   UNL     1       2.154 -26.537  24.249  1.00  0.00     0.016 A 
ATOM      2  C   UNL     1       2.504 -25.178  24.272  1.00  0.00     0.013 A 
ATOM      3  C   UNL     1       3.185 -27.493  24.286  1.00  0.00     0.120 A 
ATOM      4  C   UNL     1       3.847 -24.800  24.331  1.00  0.00     0.021 A 
ATOM      5  N   UNL     1       4.485 -27.099  24.344  1.00  0.00    -0.264 NA
ATOM      6  C   UNL     1       4.834 -25.786  24.367  1.00  0.00     0.111 A 
ENDROOT
BRANCH   1   7
ATOM      7  C   UNL     1       0.735 -26.949  24.187  1.00  0.00     0.073 C 
ATOM      8  O   UNL     1       0.049 -27.042  25.239  1.00  0.00    -0.545 OA
ATOM      9  O   UNL     1       0.140 -27.240  22.965  1.00  0.00    -0.545 OA
ENDBRANCH   1   7
TORSDOF 1
ENDMDL
MODEL 9
REMARK VINA RESULT:    -3.709      9.232     10.218
REMARK INTER + INTRA:          -3.950
REMARK INTER:                  -3.926
REMARK INTRA:                  -0.023
REMARK UNBOUND:                -0.024
REMARK SMILES O=C([O-])c1cccnc1
REMARK SMILES IDX 4 1 5 2 9 3 6 4 8 5 7 6 2 7 1 8 3 9
REMARK H PARENT
REMARK Flexibility Score: inf
ROOT
ATOM      1  C   UNL     1       3.667 -25.668  24.281  1.00  0.00     0.016 A 
ATOM      2  C   UNL     1       4.266 -24.399  24.316  1.00  0.00     0.013 A 
ATOM      3  C   UNL     1       2.263 -25.744  24.286  1.00  0.00     0.120 A 
ATOM      4  C   UNL     1       3.474 -23.250  24.353  1.00  0.00     0.021 A 
ATOM      5  N   UNL     1       1.514 -24.610  24.323  1.00  0.00    -0.264 NA
ATOM      6  C   UNL     1       2.084 -23.377  24.356  1.00  0.00     0.111 A 
ENDROOT
BRANCH   1   7
ATOM      7  C   UNL     1       4.496 -26.892  24.241  1.00  0.00     0.073 C 
ATOM      8  O   UNL     1       5.710 -26.855  24.576  1.00  0.00    -0.545 OA
ATOM      9  O   UNL     1       3.946 -28.101  23.832  1.00  0.00    -0.545 OA
ENDBRANCH   1   7
TORSDOF 1
ENDMDL
