MODEL 1
REMARK VINA RESULT:    -1.774      0.000      0.000
REMARK INTER + INTRA:          -2.550
REMARK INTER:                  -2.708
REMARK INTRA:                   0.158
REMARK UNBOUND:                 0.158
REMARK SMILES CC1=CCC[C@@H](C)C(=O)C[C@@H](C(C)C)C(=O)C1
REMARK SMILES IDX 8 1 9 2 6 3 7 4 5 5 4 6 3 7 2 8 1 9 10 11 11 12 15 13 16 14
REMARK SMILES IDX 17 15 12 17 13 18 14 19
REMARK H PARENT
REMARK Flexibility Score: 70.00
ROOT
ATOM      1  C   UNL     1       8.830  23.692  24.786  1.00  0.00     0.136 C 
ATOM      2  O   UNL     1       9.701  24.130  25.523  1.00  0.00    -0.299 OA
ENDROOT
BRANCH   1   3
ATOM      3  C   UNL     1       8.676  22.170  24.666  1.00  0.00     0.053 C 
ATOM      4  C   UNL     1       7.573  21.663  25.598  1.00  0.00     0.016 C 
BRANCH   3   5
ATOM      5  C   UNL     1      10.025  21.574  25.007  1.00  0.00     0.015 C 
BRANCH   5   6
ATOM      6  C   UNL     1      11.125  21.260  24.026  1.00  0.00     0.028 C 
BRANCH   6   7
ATOM      7  C   UNL     1      10.560  21.379  22.609  1.00  0.00    -0.028 C 
ATOM      8  C   UNL     1      10.421  22.501  21.819  1.00  0.00    -0.070 CG0
ATOM      9  C   UNL     1       9.942  22.265  20.406  1.00  0.00     0.039 C 
ATOM     10  G   UNL     1      10.677  23.968  22.233  1.00  0.00     0.000 G0
ENDBRANCH   6   7
ENDBRANCH   5   6
ENDBRANCH   3   5
ENDBRANCH   1   3
BRANCH   1  11
ATOM     11  C   UNL     1       7.934  24.694  24.030  1.00  0.00     0.087 C 
BRANCH  11  12
ATOM     12  C   UNL     1       8.046  24.656  22.451  1.00  0.00     0.066 C 
BRANCH  12  13
ATOM     13  C   UNL     1       9.475  24.940  21.933  1.00  0.00     0.140 C 
ATOM     14  O   UNL     1       9.682  25.948  21.273  1.00  0.00    -0.299 OA
BRANCH  13  15
ATOM     15  C   UNL     1      10.655  24.000  22.209  1.00  0.00     0.106 CG0
ATOM     16  G   UNL     1      10.419  22.531  21.794  1.00  0.00     0.000 G0
ENDBRANCH  13  15
ENDBRANCH  12  13
BRANCH  12  17
ATOM     17  C   UNL     1       7.021  25.589  21.730  1.00  0.00    -0.006 C 
ATOM     18  C   UNL     1       5.866  26.072  22.627  1.00  0.00     0.008 C 
ATOM     19  C   UNL     1       6.464  24.943  20.450  1.00  0.00     0.008 C 
ENDBRANCH  12  17
ENDBRANCH  11  12
ENDBRANCH   1  11
TORSDOF 1
ENDMDL
MODEL 2
REMARK VINA RESULT:    -0.572      2.108      4.743
REMARK INTER + INTRA:          -0.716
REMARK INTER:                  -1.787
REMARK INTRA:                   1.071
REMARK UNBOUND:                 0.158
REMARK SMILES CC1=CCC[C@@H](C)C(=O)C[C@@H](C(C)C)C(=O)C1
REMARK SMILES IDX 8 1 9 2 6 3 7 4 5 5 4 6 3 7 2 8 1 9 10 11 11 12 15 13 16 14
REMARK SMILES IDX 17 15 12 17 13 18 14 19
REMARK H PARENT
REMARK Flexibility Score: 70.00
ROOT
ATOM      1  C   UNL     1       7.024  24.561  21.728  1.00  0.00     0.136 C 
ATOM      2  O   UNL     1       6.743  23.603  21.022  1.00  0.00    -0.299 OA
ENDROOT
BRANCH   1   3
ATOM      3  C   UNL     1       6.434  25.931  21.365  1.00  0.00     0.053 C 
ATOM      4  C   UNL     1       5.070  26.125  22.031  1.00  0.00     0.016 C 
BRANCH   3   5
ATOM      5  C   UNL     1       6.339  25.970  19.855  1.00  0.00     0.015 C 
BRANCH   5   6
ATOM      6  C   UNL     1       7.459  25.672  18.892  1.00  0.00     0.028 C 
BRANCH   6   7
ATOM      7  C   UNL     1       8.777  26.122  19.526  1.00  0.00    -0.028 C 
ATOM      8  C   UNL     1       9.855  25.361  19.926  1.00  0.00    -0.070 CG0
ATOM      9  C   UNL     1      11.069  26.125  20.402  1.00  0.00     0.039 C 
ATOM     10  G   UNL     1       9.943  23.819  19.963  1.00  0.00     0.000 G0
ENDBRANCH   6   7
ENDBRANCH   5   6
ENDBRANCH   3   5
ENDBRANCH   1   3
BRANCH   1  11
ATOM     11  C   UNL     1       7.945  24.333  22.943  1.00  0.00     0.087 C 
BRANCH  11  12
ATOM     12  C   UNL     1       9.451  23.981  22.605  1.00  0.00     0.066 C 
BRANCH  12  13
ATOM     13  C   UNL     1       9.609  23.159  21.304  1.00  0.00     0.140 C 
ATOM     14  O   UNL     1       9.445  21.948  21.339  1.00  0.00    -0.299 OA
BRANCH  13  15
ATOM     15  C   UNL     1       9.970  23.802  19.960  1.00  0.00     0.106 CG0
ATOM     16  G   UNL     1       9.863  25.344  19.935  1.00  0.00     0.000 G0
ENDBRANCH  13  15
ENDBRANCH  12  13
BRANCH  12  17
ATOM     17  C   UNL     1      10.206  23.277  23.777  1.00  0.00    -0.006 C 
ATOM     18  C   UNL     1       9.289  22.521  24.757  1.00  0.00     0.008 C 
ATOM     19  C   UNL     1      11.109  24.258  24.544  1.00  0.00     0.008 C 
ENDBRANCH  12  17
ENDBRANCH  11  12
ENDBRANCH   1  11
TORSDOF 1
ENDMDL
MODEL 3
REMARK VINA RESULT:    -0.521      1.964      4.150
REMARK INTER + INTRA:          -0.637
REMARK INTER:                  -2.090
REMARK INTRA:                   1.453
REMARK UNBOUND:                 0.158
REMARK SMILES CC1=CCC[C@@H](C)C(=O)C[C@@H](C(C)C)C(=O)C1
REMARK SMILES IDX 8 1 9 2 6 3 7 4 5 5 4 6 3 7 2 8 1 9 10 11 11 12 15 13 16 14
REMARK SMILES IDX 17 15 12 17 13 18 14 19
REMARK H PARENT
REMARK Flexibility Score: 70.00
ROOT
ATOM      1  C   UNL     1       7.111  25.425  20.995  1.00  0.00     0.136 C 
ATOM      2  O   UNL     1       5.945  25.508  20.638  1.00  0.00    -0.299 OA
ENDROOT
BRANCH   1   3
ATOM      3  C   UNL     1       8.184  26.114  20.140  1.00  0.00     0.053 C 
ATOM      4  C   UNL     1       7.913  25.893  18.651  1.00  0.00     0.016 C 
BRANCH   3   5
ATOM      5  C   UNL     1       9.514  25.529  20.568  1.00  0.00     0.015 C 
BRANCH   5   6
ATOM      6  C   UNL     1      10.589  25.013  19.648  1.00  0.00     0.028 C 
BRANCH   6   7
ATOM      7  C   UNL     1      10.795  23.523  19.930  1.00  0.00    -0.028 C 
ATOM      8  C   UNL     1      10.917  22.876  21.140  1.00  0.00    -0.070 CG0
ATOM      9  C   UNL     1      10.984  21.367  21.085  1.00  0.00     0.039 C 
ATOM     10  G   UNL     1      11.018  23.527  22.538  1.00  0.00     0.000 G0
ENDBRANCH   6   7
ENDBRANCH   5   6
ENDBRANCH   3   5
ENDBRANCH   1   3
BRANCH   1  11
ATOM     11  C   UNL     1       7.432  24.642  22.284  1.00  0.00     0.087 C 
BRANCH  11  12
ATOM     12  C   UNL     1       8.810  25.000  22.976  1.00  0.00     0.066 C 
BRANCH  12  13
ATOM     13  C   UNL     1       9.690  23.760  23.263  1.00  0.00     0.140 C 
ATOM     14  O   UNL     1       9.312  22.936  24.082  1.00  0.00    -0.299 OA
BRANCH  13  15
ATOM     15  C   UNL     1      11.031  23.521  22.559  1.00  0.00     0.106 CG0
ATOM     16  G   UNL     1      10.917  22.900  21.148  1.00  0.00     0.000 G0
ENDBRANCH  13  15
ENDBRANCH  12  13
BRANCH  12  17
ATOM     17  C   UNL     1       8.654  25.855  24.274  1.00  0.00    -0.006 C 
ATOM     18  C   UNL     1       9.853  25.771  25.236  1.00  0.00     0.008 C 
ATOM     19  C   UNL     1       7.350  25.524  25.021  1.00  0.00     0.008 C 
ENDBRANCH  12  17
ENDBRANCH  11  12
ENDBRANCH   1  11
TORSDOF 1
ENDMDL
MODEL 4
REMARK VINA RESULT:     0.003      1.688      2.512
REMARK INTER + INTRA:           0.163
REMARK INTER:                  -0.655
REMARK INTRA:                   0.818
REMARK UNBOUND:                 0.158
REMARK SMILES CC1=CCC[C@@H](C)C(=O)C[C@@H](C(C)C)C(=O)C1
REMARK SMILES IDX 8 1 9 2 6 3 7 4 5 5 4 6 3 7 2 8 1 9 10 11 11 12 15 13 16 14
REMARK SMILES IDX 17 15 12 17 13 18 14 19
REMARK H PARENT
REMARK Flexibility Score: 70.00
ROOT
ATOM      1  C   UNL     1       7.953  24.303  24.538  1.00  0.00     0.136 C 
ATOM      2  O   UNL     1       6.988  25.052  24.565  1.00  0.00    -0.299 OA
ENDROOT
BRANCH   1   3
ATOM      3  C   UNL     1       9.159  24.638  25.427  1.00  0.00     0.053 C 
ATOM      4  C   UNL     1       9.510  26.124  25.323  1.00  0.00     0.016 C 
BRANCH   3   5
ATOM      5  C   UNL     1      10.295  23.753  24.959  1.00  0.00     0.015 C 
BRANCH   5   6
ATOM      6  C   UNL     1      10.861  22.575  25.708  1.00  0.00     0.028 C 
BRANCH   6   7
ATOM      7  C   UNL     1      10.911  21.375  24.760  1.00  0.00    -0.028 C 
ATOM      8  C   UNL     1      10.945  21.357  23.382  1.00  0.00    -0.070 CG0
ATOM      9  C   UNL     1      11.122  20.001  22.738  1.00  0.00     0.039 C 
ATOM     10  G   UNL     1      10.796  22.566  22.430  1.00  0.00     0.000 G0
ENDBRANCH   6   7
ENDBRANCH   5   6
ENDBRANCH   3   5
ENDBRANCH   1   3
BRANCH   1  11
ATOM     11  C   UNL     1       7.898  23.065  23.621  1.00  0.00     0.087 C 
BRANCH  11  12
ATOM     12  C   UNL     1       8.224  23.328  22.095  1.00  0.00     0.066 C 
BRANCH  12  13
ATOM     13  C   UNL     1       9.488  22.584  21.602  1.00  0.00     0.140 C 
ATOM     14  O   UNL     1       9.452  21.986  20.537  1.00  0.00    -0.299 OA
BRANCH  13  15
ATOM     15  C   UNL     1      10.795  22.560  22.404  1.00  0.00     0.106 CG0
ATOM     16  G   UNL     1      10.934  21.365  23.374  1.00  0.00     0.000 G0
ENDBRANCH  13  15
ENDBRANCH  12  13
BRANCH  12  17
ATOM     17  C   UNL     1       8.322  24.844  21.729  1.00  0.00    -0.006 C 
ATOM     18  C   UNL     1       6.974  25.495  21.366  1.00  0.00     0.008 C 
ATOM     19  C   UNL     1       9.352  25.098  20.615  1.00  0.00     0.008 C 
ENDBRANCH  12  17
ENDBRANCH  11  12
ENDBRANCH   1  11
TORSDOF 1
ENDMDL
