MODEL 1
REMARK VINA RESULT:    -3.795      0.000      0.000
REMARK INTER + INTRA:          -5.921
REMARK INTER:                  -5.792
REMARK INTRA:                  -0.129
REMARK UNBOUND:                -0.129
REMARK SMILES CC1=CCC[C@@H](C)C(=O)C[C@H](C(C)C)C(=O)C1
REMARK SMILES IDX 8 1 9 2 6 3 7 4 5 5 4 6 3 7 2 8 1 9 10 11 11 12 15 13 16 14
REMARK SMILES IDX 17 15 12 17 13 18 14 19
REMARK H PARENT
REMARK Flexibility Score: 70.00
ROOT
ATOM      1  C   UNL     1      -8.298  -5.306  19.289  1.00  0.00     0.136 C 
ATOM      2  O   UNL     1      -8.274  -5.281  20.512  1.00  0.00    -0.299 OA
ENDROOT
BRANCH   1   3
ATOM      3  C   UNL     1      -9.416  -4.607  18.534  1.00  0.00     0.053 C 
ATOM      4  C   UNL     1      -9.414  -3.088  18.766  1.00  0.00     0.016 C 
BRANCH   3   5
ATOM      5  C   UNL     1     -10.789  -5.233  18.849  1.00  0.00     0.015 C 
BRANCH   5   6
ATOM      6  C   UNL     1     -11.390  -6.045  17.683  1.00  0.00     0.028 C 
BRANCH   6   7
ATOM      7  C   UNL     1     -10.828  -5.593  16.359  1.00  0.00    -0.028 C 
ATOM      8  C   UNL     1      -9.887  -6.263  15.651  1.00  0.00    -0.070 CG0
ATOM      9  C   UNL     1      -9.402  -5.651  14.362  1.00  0.00     0.039 C 
ATOM     10  G   UNL     1      -9.308  -7.599  16.094  1.00  0.00     0.000 G0
ENDBRANCH   6   7
ENDBRANCH   5   6
ENDBRANCH   3   5
ENDBRANCH   1   3
BRANCH   1  11
ATOM     11  C   UNL     1      -7.204  -6.040  18.551  1.00  0.00     0.087 C 
BRANCH  11  12
ATOM     12  C   UNL     1      -7.644  -7.465  18.124  1.00  0.00     0.066 C 
BRANCH  12  13
ATOM     13  C   UNL     1      -7.903  -7.486  16.625  1.00  0.00     0.140 C 
ATOM     14  O   UNL     1      -6.955  -7.491  15.850  1.00  0.00    -0.299 OA
BRANCH  13  15
ATOM     15  C   UNL     1      -9.307  -7.611  16.088  1.00  0.00     0.106 CG0
ATOM     16  G   UNL     1      -9.886  -6.274  15.649  1.00  0.00     0.000 G0
ENDBRANCH  13  15
ENDBRANCH  12  13
BRANCH  12  17
ATOM     17  C   UNL     1      -6.601  -8.562  18.515  1.00  0.00    -0.006 C 
ATOM     18  C   UNL     1      -5.657  -8.099  19.641  1.00  0.00     0.008 C 
ATOM     19  C   UNL     1      -7.298  -9.862  18.960  1.00  0.00     0.008 C 
ENDBRANCH  12  17
ENDBRANCH  11  12
ENDBRANCH   1  11
TORSDOF 1
ENDMDL
MODEL 2
REMARK VINA RESULT:    -3.632      1.826      4.316
REMARK INTER + INTRA:          -5.673
REMARK INTER:                  -5.383
REMARK INTRA:                  -0.290
REMARK UNBOUND:                -0.129
REMARK SMILES CC1=CCC[C@@H](C)C(=O)C[C@H](C(C)C)C(=O)C1
REMARK SMILES IDX 8 1 9 2 6 3 7 4 5 5 4 6 3 7 2 8 1 9 10 11 11 12 15 13 16 14
REMARK SMILES IDX 17 15 12 17 13 18 14 19
REMARK H PARENT
REMARK Flexibility Score: 70.00
ROOT
ATOM      1  C   UNL     1      -7.892  -6.554  18.217  1.00  0.00     0.136 C 
ATOM      2  O   UNL     1      -6.902  -5.843  18.321  1.00  0.00    -0.299 OA
ENDROOT
BRANCH   1   3
ATOM      3  C   UNL     1      -7.783  -7.925  17.572  1.00  0.00     0.053 C 
ATOM      4  C   UNL     1      -6.970  -8.908  18.429  1.00  0.00     0.016 C 
BRANCH   3   5
ATOM      5  C   UNL     1      -7.234  -7.830  16.134  1.00  0.00     0.015 C 
BRANCH   5   6
ATOM      6  C   UNL     1      -8.246  -7.267  15.114  1.00  0.00     0.028 C 
BRANCH   6   7
ATOM      7  C   UNL     1      -9.477  -8.132  15.033  1.00  0.00    -0.028 C 
ATOM      8  C   UNL     1     -10.742  -7.698  15.250  1.00  0.00    -0.070 CG0
ATOM      9  C   UNL     1     -11.860  -8.706  15.170  1.00  0.00     0.039 C 
ATOM     10  G   UNL     1     -11.081  -6.247  15.561  1.00  0.00     0.000 G0
ENDBRANCH   6   7
ENDBRANCH   5   6
ENDBRANCH   3   5
ENDBRANCH   1   3
BRANCH   1  11
ATOM     11  C   UNL     1      -9.215  -6.045  18.738  1.00  0.00     0.087 C 
BRANCH  11  12
ATOM     12  C   UNL     1      -9.954  -5.167  17.694  1.00  0.00     0.066 C 
BRANCH  12  13
ATOM     13  C   UNL     1     -11.088  -5.968  17.072  1.00  0.00     0.140 C 
ATOM     14  O   UNL     1     -12.034  -6.313  17.769  1.00  0.00    -0.299 OA
BRANCH  13  15
ATOM     15  C   UNL     1     -11.111  -6.247  15.590  1.00  0.00     0.106 CG0
ATOM     16  G   UNL     1     -10.731  -7.682  15.260  1.00  0.00     0.000 G0
ENDBRANCH  13  15
ENDBRANCH  12  13
BRANCH  12  17
ATOM     17  C   UNL     1     -10.495  -3.832  18.301  1.00  0.00    -0.006 C 
ATOM     18  C   UNL     1      -9.374  -2.970  18.913  1.00  0.00     0.008 C 
ATOM     19  C   UNL     1     -11.236  -2.996  17.240  1.00  0.00     0.008 C 
ENDBRANCH  12  17
ENDBRANCH  11  12
ENDBRANCH   1  11
TORSDOF 1
ENDMDL
MODEL 3
REMARK VINA RESULT:    -3.523      1.420      3.802
REMARK INTER + INTRA:          -5.506
REMARK INTER:                  -5.319
REMARK INTRA:                  -0.187
REMARK UNBOUND:                -0.129
REMARK SMILES CC1=CCC[C@@H](C)C(=O)C[C@H](C(C)C)C(=O)C1
REMARK SMILES IDX 8 1 9 2 6 3 7 4 5 5 4 6 3 7 2 8 1 9 10 11 11 12 15 13 16 14
REMARK SMILES IDX 17 15 12 17 13 18 14 19
REMARK H PARENT
REMARK Flexibility Score: 70.00
ROOT
ATOM      1  C   UNL     1      -7.840  -8.634  16.602  1.00  0.00     0.136 C 
ATOM      2  O   UNL     1      -6.978  -9.416  16.227  1.00  0.00    -0.299 OA
ENDROOT
BRANCH   1   3
ATOM      3  C   UNL     1      -8.894  -8.136  15.628  1.00  0.00     0.053 C 
ATOM      4  C   UNL     1      -9.488  -9.274  14.782  1.00  0.00     0.016 C 
BRANCH   3   5
ATOM      5  C   UNL     1      -8.355  -6.990  14.749  1.00  0.00     0.015 C 
BRANCH   5   6
ATOM      6  C   UNL     1      -9.071  -5.641  14.972  1.00  0.00     0.028 C 
BRANCH   6   7
ATOM      7  C   UNL     1     -10.122  -5.753  16.046  1.00  0.00    -0.028 C 
ATOM      8  C   UNL     1      -9.935  -5.423  17.347  1.00  0.00    -0.070 CG0
ATOM      9  C   UNL     1     -11.081  -5.635  18.302  1.00  0.00     0.039 C 
ATOM     10  G   UNL     1      -8.632  -4.844  17.879  1.00  0.00     0.000 G0
ENDBRANCH   6   7
ENDBRANCH   5   6
ENDBRANCH   3   5
ENDBRANCH   1   3
BRANCH   1  11
ATOM     11  C   UNL     1      -7.835  -8.175  18.041  1.00  0.00     0.087 C 
BRANCH  11  12
ATOM     12  C   UNL     1      -6.996  -6.886  18.239  1.00  0.00     0.066 C 
BRANCH  12  13
ATOM     13  C   UNL     1      -7.885  -5.785  18.798  1.00  0.00     0.140 C 
ATOM     14  O   UNL     1      -7.937  -5.609  20.009  1.00  0.00    -0.299 OA
BRANCH  13  15
ATOM     15  C   UNL     1      -8.616  -4.843  17.874  1.00  0.00     0.106 CG0
ATOM     16  G   UNL     1      -9.920  -5.430  17.354  1.00  0.00     0.000 G0
ENDBRANCH  13  15
ENDBRANCH  12  13
BRANCH  12  17
ATOM     17  C   UNL     1      -5.755  -7.109  19.163  1.00  0.00    -0.006 C 
ATOM     18  C   UNL     1      -5.730  -8.519  19.781  1.00  0.00     0.008 C 
ATOM     19  C   UNL     1      -4.439  -6.885  18.393  1.00  0.00     0.008 C 
ENDBRANCH  12  17
ENDBRANCH  11  12
ENDBRANCH   1  11
TORSDOF 1
ENDMDL
MODEL 4
REMARK VINA RESULT:    -3.343      1.777      3.938
REMARK INTER + INTRA:          -5.231
REMARK INTER:                  -5.123
REMARK INTRA:                  -0.107
REMARK UNBOUND:                -0.129
REMARK SMILES CC1=CCC[C@@H](C)C(=O)C[C@H](C(C)C)C(=O)C1
REMARK SMILES IDX 8 1 9 2 6 3 7 4 5 5 4 6 3 7 2 8 1 9 10 11 11 12 15 13 16 14
REMARK SMILES IDX 17 15 12 17 13 18 14 19
REMARK H PARENT
REMARK Flexibility Score: 70.00
ROOT
ATOM      1  C   UNL     1     -11.329  -5.651  17.180  1.00  0.00     0.136 C 
ATOM      2  O   UNL     1     -12.055  -5.970  18.112  1.00  0.00    -0.299 OA
ENDROOT
BRANCH   1   3
ATOM      3  C   UNL     1     -11.772  -5.899  15.748  1.00  0.00     0.053 C 
ATOM      4  C   UNL     1     -12.968  -6.860  15.667  1.00  0.00     0.016 C 
BRANCH   3   5
ATOM      5  C   UNL     1     -10.597  -6.370  14.868  1.00  0.00     0.015 C 
BRANCH   5   6
ATOM      6  C   UNL     1     -10.043  -7.758  15.254  1.00  0.00     0.028 C 
BRANCH   6   7
ATOM      7  C   UNL     1      -8.538  -7.786  15.172  1.00  0.00    -0.028 C 
ATOM      8  C   UNL     1      -7.707  -7.748  16.241  1.00  0.00    -0.070 CG0
ATOM      9  C   UNL     1      -6.222  -7.741  15.982  1.00  0.00     0.039 C 
ATOM     10  G   UNL     1      -8.202  -7.721  17.679  1.00  0.00     0.000 G0
ENDBRANCH   6   7
ENDBRANCH   5   6
ENDBRANCH   3   5
ENDBRANCH   1   3
BRANCH   1  11
ATOM     11  C   UNL     1      -9.994  -5.011  17.480  1.00  0.00     0.087 C 
BRANCH  11  12
ATOM     12  C   UNL     1      -9.333  -5.607  18.750  1.00  0.00     0.066 C 
BRANCH  12  13
ATOM     13  C   UNL     1      -8.089  -6.388  18.355  1.00  0.00     0.140 C 
ATOM     14  O   UNL     1      -6.985  -5.954  18.658  1.00  0.00    -0.299 OA
BRANCH  13  15
ATOM     15  C   UNL     1      -8.206  -7.738  17.692  1.00  0.00     0.106 CG0
ATOM     16  G   UNL     1      -7.722  -7.724  16.249  1.00  0.00     0.000 G0
ENDBRANCH  13  15
ENDBRANCH  12  13
BRANCH  12  17
ATOM     17  C   UNL     1      -8.982  -4.519  19.816  1.00  0.00    -0.006 C 
ATOM     18  C   UNL     1      -9.033  -3.093  19.235  1.00  0.00     0.008 C 
ATOM     19  C   UNL     1      -9.934  -4.593  21.025  1.00  0.00     0.008 C 
ENDBRANCH  12  17
ENDBRANCH  11  12
ENDBRANCH   1  11
TORSDOF 1
ENDMDL
MODEL 5
REMARK VINA RESULT:    -3.262     20.480     22.404
REMARK INTER + INTRA:          -5.107
REMARK INTER:                  -4.896
REMARK INTRA:                  -0.211
REMARK UNBOUND:                -0.129
REMARK SMILES CC1=CCC[C@@H](C)C(=O)C[C@H](C(C)C)C(=O)C1
REMARK SMILES IDX 8 1 9 2 6 3 7 4 5 5 4 6 3 7 2 8 1 9 10 11 11 12 15 13 16 14
REMARK SMILES IDX 17 15 12 17 13 18 14 19
REMARK H PARENT
REMARK Flexibility Score: 70.00
ROOT
ATOM      1  C   UNL     1       3.753   4.709  30.443  1.00  0.00     0.136 C 
ATOM      2  O   UNL     1       4.924   4.730  30.089  1.00  0.00    -0.299 OA
ENDROOT
BRANCH   1   3
ATOM      3  C   UNL     1       2.658   4.394  29.438  1.00  0.00     0.053 C 
ATOM      4  C   UNL     1       3.134   3.422  28.345  1.00  0.00     0.016 C 
BRANCH   3   5
ATOM      5  C   UNL     1       2.055   5.679  28.838  1.00  0.00     0.015 C 
BRANCH   5   6
ATOM      6  C   UNL     1       0.722   6.107  29.487  1.00  0.00     0.028 C 
BRANCH   6   7
ATOM      7  C   UNL     1       0.772   7.546  29.936  1.00  0.00    -0.028 C 
ATOM      8  C   UNL     1       0.987   7.949  31.212  1.00  0.00    -0.070 CG0
ATOM      9  C   UNL     1       0.965   9.428  31.499  1.00  0.00     0.039 C 
ATOM     10  G   UNL     1       1.256   6.982  32.355  1.00  0.00     0.000 G0
ENDBRANCH   6   7
ENDBRANCH   5   6
ENDBRANCH   3   5
ENDBRANCH   1   3
BRANCH   1  11
ATOM     11  C   UNL     1       3.420   5.003  31.886  1.00  0.00     0.087 C 
BRANCH  11  12
ATOM     12  C   UNL     1       3.819   6.445  32.295  1.00  0.00     0.066 C 
BRANCH  12  13
ATOM     13  C   UNL     1       2.628   7.133  32.946  1.00  0.00     0.140 C 
ATOM     14  O   UNL     1       2.812   7.886  33.894  1.00  0.00    -0.299 OA
BRANCH  13  15
ATOM     15  C   UNL     1       1.243   6.983  32.368  1.00  0.00     0.106 CG0
ATOM     16  G   UNL     1       0.981   7.947  31.220  1.00  0.00     0.000 G0
ENDBRANCH  13  15
ENDBRANCH  12  13
BRANCH  12  17
ATOM     17  C   UNL     1       5.060   6.482  33.246  1.00  0.00    -0.006 C 
ATOM     18  C   UNL     1       5.553   5.071  33.620  1.00  0.00     0.008 C 
ATOM     19  C   UNL     1       6.227   7.259  32.609  1.00  0.00     0.008 C 
ENDBRANCH  12  17
ENDBRANCH  11  12
ENDBRANCH   1  11
TORSDOF 1
ENDMDL
MODEL 6
REMARK VINA RESULT:    -3.221     19.415     21.197
REMARK INTER + INTRA:          -5.046
REMARK INTER:                  -4.847
REMARK INTRA:                  -0.199
REMARK UNBOUND:                -0.129
REMARK SMILES CC1=CCC[C@@H](C)C(=O)C[C@H](C(C)C)C(=O)C1
REMARK SMILES IDX 8 1 9 2 6 3 7 4 5 5 4 6 3 7 2 8 1 9 10 11 11 12 15 13 16 14
REMARK SMILES IDX 17 15 12 17 13 18 14 19
REMARK H PARENT
REMARK Flexibility Score: 70.00
ROOT
ATOM      1  C   UNL     1       2.942   4.088  28.973  1.00  0.00     0.136 C 
ATOM      2  O   UNL     1       2.256   3.216  28.456  1.00  0.00    -0.299 OA
ENDROOT
BRANCH   1   3
ATOM      3  C   UNL     1       2.304   5.120  29.886  1.00  0.00     0.053 C 
ATOM      4  C   UNL     1       1.638   4.478  31.114  1.00  0.00     0.016 C 
BRANCH   3   5
ATOM      5  C   UNL     1       1.327   6.030  29.115  1.00  0.00     0.015 C 
BRANCH   5   6
ATOM      6  C   UNL     1       1.844   7.468  28.904  1.00  0.00     0.028 C 
BRANCH   6   7
ATOM      7  C   UNL     1       2.935   7.805  29.889  1.00  0.00    -0.028 C 
ATOM      8  C   UNL     1       4.256   7.855  29.590  1.00  0.00    -0.070 CG0
ATOM      9  C   UNL     1       5.221   8.167  30.704  1.00  0.00     0.039 C 
ATOM     10  G   UNL     1       4.801   7.620  28.189  1.00  0.00     0.000 G0
ENDBRANCH   6   7
ENDBRANCH   5   6
ENDBRANCH   3   5
ENDBRANCH   1   3
BRANCH   1  11
ATOM     11  C   UNL     1       4.424   4.117  28.685  1.00  0.00     0.087 C 
BRANCH  11  12
ATOM     12  C   UNL     1       4.773   5.076  27.517  1.00  0.00     0.066 C 
BRANCH  12  13
ATOM     13  C   UNL     1       5.511   6.290  28.062  1.00  0.00     0.140 C 
ATOM     14  O   UNL     1       6.706   6.204  28.314  1.00  0.00    -0.299 OA
BRANCH  13  15
ATOM     15  C   UNL     1       4.814   7.620  28.191  1.00  0.00     0.106 CG0
ATOM     16  G   UNL     1       4.280   7.866  29.594  1.00  0.00     0.000 G0
ENDBRANCH  13  15
ENDBRANCH  12  13
BRANCH  12  17
ATOM     17  C   UNL     1       5.612   4.382  26.395  1.00  0.00    -0.006 C 
ATOM     18  C   UNL     1       5.124   2.952  26.098  1.00  0.00     0.008 C 
ATOM     19  C   UNL     1       5.578   5.196  25.088  1.00  0.00     0.008 C 
ENDBRANCH  12  17
ENDBRANCH  11  12
ENDBRANCH   1  11
TORSDOF 1
ENDMDL
MODEL 7
REMARK VINA RESULT:    -3.176      1.930      4.392
REMARK INTER + INTRA:          -4.977
REMARK INTER:                  -4.785
REMARK INTRA:                  -0.191
REMARK UNBOUND:                -0.129
REMARK SMILES CC1=CCC[C@@H](C)C(=O)C[C@H](C(C)C)C(=O)C1
REMARK SMILES IDX 8 1 9 2 6 3 7 4 5 5 4 6 3 7 2 8 1 9 10 11 11 12 15 13 16 14
REMARK SMILES IDX 17 15 12 17 13 18 14 19
REMARK H PARENT
REMARK Flexibility Score: 70.00
ROOT
ATOM      1  C   UNL     1      -7.413  -6.722  18.878  1.00  0.00     0.136 C 
ATOM      2  O   UNL     1      -7.288  -5.866  19.743  1.00  0.00    -0.299 OA
ENDROOT
BRANCH   1   3
ATOM      3  C   UNL     1      -6.318  -7.751  18.658  1.00  0.00     0.053 C 
ATOM      4  C   UNL     1      -6.121  -8.662  19.881  1.00  0.00     0.016 C 
BRANCH   3   5
ATOM      5  C   UNL     1      -4.997  -7.087  18.222  1.00  0.00     0.015 C 
BRANCH   5   6
ATOM      6  C   UNL     1      -5.048  -6.460  16.812  1.00  0.00     0.028 C 
BRANCH   6   7
ATOM      7  C   UNL     1      -5.652  -7.414  15.813  1.00  0.00    -0.028 C 
ATOM      8  C   UNL     1      -6.716  -7.132  15.023  1.00  0.00    -0.070 CG0
ATOM      9  C   UNL     1      -7.222  -8.216  14.106  1.00  0.00     0.039 C 
ATOM     10  G   UNL     1      -7.409  -5.778  15.014  1.00  0.00     0.000 G0
ENDBRANCH   6   7
ENDBRANCH   5   6
ENDBRANCH   3   5
ENDBRANCH   1   3
BRANCH   1  11
ATOM     11  C   UNL     1      -8.668  -6.734  18.039  1.00  0.00     0.087 C 
BRANCH  11  12
ATOM     12  C   UNL     1      -8.823  -5.436  17.203  1.00  0.00     0.066 C 
BRANCH  12  13
ATOM     13  C   UNL     1      -8.734  -5.774  15.722  1.00  0.00     0.140 C 
ATOM     14  O   UNL     1      -9.762  -5.971  15.087  1.00  0.00    -0.299 OA
BRANCH  13  15
ATOM     15  C   UNL     1      -7.405  -5.762  15.009  1.00  0.00     0.106 CG0
ATOM     16  G   UNL     1      -6.733  -7.127  15.004  1.00  0.00     0.000 G0
ENDBRANCH  13  15
ENDBRANCH  12  13
BRANCH  12  17
ATOM     17  C   UNL     1     -10.153  -4.674  17.511  1.00  0.00    -0.006 C 
ATOM     18  C   UNL     1     -11.268  -5.616  18.004  1.00  0.00     0.008 C 
ATOM     19  C   UNL     1      -9.934  -3.575  18.569  1.00  0.00     0.008 C 
ENDBRANCH  12  17
ENDBRANCH  11  12
ENDBRANCH   1  11
TORSDOF 1
ENDMDL
MODEL 8
REMARK VINA RESULT:    -3.153      1.708      3.142
REMARK INTER + INTRA:          -4.941
REMARK INTER:                  -5.252
REMARK INTRA:                   0.311
REMARK UNBOUND:                -0.129
REMARK SMILES CC1=CCC[C@@H](C)C(=O)C[C@H](C(C)C)C(=O)C1
REMARK SMILES IDX 8 1 9 2 6 3 7 4 5 5 4 6 3 7 2 8 1 9 10 11 11 12 15 13 16 14
REMARK SMILES IDX 17 15 12 17 13 18 14 19
REMARK H PARENT
REMARK Flexibility Score: 70.00
ROOT
ATOM      1  C   UNL     1      -6.542  -5.692  17.278  1.00  0.00     0.136 C 
ATOM      2  O   UNL     1      -6.228  -4.599  16.830  1.00  0.00    -0.299 OA
ENDROOT
BRANCH   1   3
ATOM      3  C   UNL     1      -6.441  -5.965  18.769  1.00  0.00     0.053 C 
ATOM      4  C   UNL     1      -5.517  -7.152  19.082  1.00  0.00     0.016 C 
BRANCH   3   5
ATOM      5  C   UNL     1      -7.834  -6.139  19.407  1.00  0.00     0.015 C 
BRANCH   5   6
ATOM      6  C   UNL     1      -8.758  -4.914  19.238  1.00  0.00     0.028 C 
BRANCH   6   7
ATOM      7  C   UNL     1     -10.198  -5.334  19.095  1.00  0.00    -0.028 C 
ATOM      8  C   UNL     1     -10.797  -5.648  17.921  1.00  0.00    -0.070 CG0
ATOM      9  C   UNL     1     -12.260  -6.008  17.947  1.00  0.00     0.039 C 
ATOM     10  G   UNL     1     -10.061  -5.660  16.589  1.00  0.00     0.000 G0
ENDBRANCH   6   7
ENDBRANCH   5   6
ENDBRANCH   3   5
ENDBRANCH   1   3
BRANCH   1  11
ATOM     11  C   UNL     1      -7.028  -6.759  16.326  1.00  0.00     0.087 C 
BRANCH  11  12
ATOM     12  C   UNL     1      -8.244  -7.538  16.894  1.00  0.00     0.066 C 
BRANCH  12  13
ATOM     13  C   UNL     1      -9.520  -7.034  16.235  1.00  0.00     0.140 C 
ATOM     14  O   UNL     1     -10.145  -7.776  15.489  1.00  0.00    -0.299 OA
BRANCH  13  15
ATOM     15  C   UNL     1     -10.076  -5.674  16.577  1.00  0.00     0.106 CG0
ATOM     16  G   UNL     1     -10.802  -5.659  17.913  1.00  0.00     0.000 G0
ENDBRANCH  13  15
ENDBRANCH  12  13
BRANCH  12  17
ATOM     17  C   UNL     1      -8.108  -9.085  16.713  1.00  0.00    -0.006 C 
ATOM     18  C   UNL     1      -7.130  -9.459  15.583  1.00  0.00     0.008 C 
ATOM     19  C   UNL     1      -7.638  -9.760  18.015  1.00  0.00     0.008 C 
ENDBRANCH  12  17
ENDBRANCH  11  12
ENDBRANCH   1  11
TORSDOF 1
ENDMDL
MODEL 9
REMARK VINA RESULT:    -2.988     20.376     22.231
REMARK INTER + INTRA:          -4.690
REMARK INTER:                  -4.635
REMARK INTRA:                  -0.054
REMARK UNBOUND:                -0.129
REMARK SMILES CC1=CCC[C@@H](C)C(=O)C[C@H](C(C)C)C(=O)C1
REMARK SMILES IDX 8 1 9 2 6 3 7 4 5 5 4 6 3 7 2 8 1 9 10 11 11 12 15 13 16 14
REMARK SMILES IDX 17 15 12 17 13 18 14 19
REMARK H PARENT
REMARK Flexibility Score: 70.00
ROOT
ATOM      1  C   UNL     1       2.237   4.586  30.931  1.00  0.00     0.136 C 
ATOM      2  O   UNL     1       1.566   5.274  31.687  1.00  0.00    -0.299 OA
ENDROOT
BRANCH   1   3
ATOM      3  C   UNL     1       1.959   4.597  29.438  1.00  0.00     0.053 C 
ATOM      4  C   UNL     1       2.982   3.765  28.648  1.00  0.00     0.016 C 
BRANCH   3   5
ATOM      5  C   UNL     1       1.850   6.036  28.894  1.00  0.00     0.015 C 
BRANCH   5   6
ATOM      6  C   UNL     1       3.185   6.811  28.901  1.00  0.00     0.028 C 
BRANCH   6   7
ATOM      7  C   UNL     1       3.212   7.840  30.002  1.00  0.00    -0.028 C 
ATOM      8  C   UNL     1       4.116   7.868  31.011  1.00  0.00    -0.070 CG0
ATOM      9  C   UNL     1       3.976   8.944  32.057  1.00  0.00     0.039 C 
ATOM     10  G   UNL     1       5.262   6.873  31.127  1.00  0.00     0.000 G0
ENDBRANCH   6   7
ENDBRANCH   5   6
ENDBRANCH   3   5
ENDBRANCH   1   3
BRANCH   1  11
ATOM     11  C   UNL     1       3.340   3.730  31.508  1.00  0.00     0.087 C 
BRANCH  11  12
ATOM     12  C   UNL     1       4.747   4.304  31.197  1.00  0.00     0.066 C 
BRANCH  12  13
ATOM     13  C   UNL     1       4.917   5.639  31.908  1.00  0.00     0.140 C 
ATOM     14  O   UNL     1       4.847   5.684  33.129  1.00  0.00    -0.299 OA
BRANCH  13  15
ATOM     15  C   UNL     1       5.277   6.882  31.133  1.00  0.00     0.106 CG0
ATOM     16  G   UNL     1       4.114   7.857  31.020  1.00  0.00     0.000 G0
ENDBRANCH  13  15
ENDBRANCH  12  13
BRANCH  12  17
ATOM     17  C   UNL     1       5.900   3.324  31.591  1.00  0.00    -0.006 C 
ATOM     18  C   UNL     1       5.434   2.239  32.581  1.00  0.00     0.008 C 
ATOM     19  C   UNL     1       6.495   2.634  30.348  1.00  0.00     0.008 C 
ENDBRANCH  12  17
ENDBRANCH  11  12
ENDBRANCH   1  11
TORSDOF 1
ENDMDL
