MODEL 1
REMARK VINA RESULT:     9.434      0.000      0.000
REMARK INTER + INTRA:          13.292
REMARK INTER:                  12.743
REMARK INTRA:                   0.548
REMARK UNBOUND:                 0.548
REMARK SMILES COc1ccc(-c2cc(=O)c3c(OC)c(OC)c(OC)c(OC)c3o2)cc1
REMARK SMILES IDX 7 1 8 2 9 3 10 4 11 5 24 6 25 7 21 8 18 9 15 10 12 11 6 12
REMARK SMILES IDX 3 13 4 14 27 15 5 16 26 17 2 18 1 19 22 20 23 21 13 22 14 23
REMARK SMILES IDX 19 24 20 25 16 26 17 27
REMARK H PARENT
REMARK Flexibility Score: inf
ROOT
ATOM      1  C   UNL     1       1.806  14.499  17.370  1.00  0.00     0.138 A 
ATOM      2  C   UNL     1       1.968  14.560  15.978  1.00  0.00     0.100 A 
ATOM      3  C   UNL     1       2.957  13.788  15.370  1.00  0.00     0.197 A 
ATOM      4  O   UNL     1       3.093  13.854  14.118  1.00  0.00    -0.289 OA
ATOM      5  C   UNL     1       3.775  12.952  16.159  1.00  0.00     0.115 A 
ATOM      6  C   UNL     1       3.535  12.925  17.551  1.00  0.00     0.188 A 
ATOM      7  O   UNL     1       2.582  13.687  18.084  1.00  0.00    -0.452 OA
ATOM      8  C   UNL     1       4.319  12.118  18.387  1.00  0.00     0.209 A 
ATOM      9  C   UNL     1       5.353  11.334  17.860  1.00  0.00     0.211 A 
ATOM     10  C   UNL     1       5.579  11.323  16.462  1.00  0.00     0.208 A 
ATOM     11  C   UNL     1       4.825  12.173  15.620  1.00  0.00     0.179 A 
ENDROOT
BRANCH   1  12
ATOM     12  C   UNL     1       0.781  15.314  18.071  1.00  0.00     0.018 A 
ATOM     13  C   UNL     1      -1.175  16.822  19.441  1.00  0.00     0.118 A 
ATOM     14  C   UNL     1      -1.322  15.431  19.296  1.00  0.00     0.047 A 
ATOM     15  C   UNL     1      -0.046  17.448  18.906  1.00  0.00     0.047 A 
ATOM     16  C   UNL     1      -0.349  14.686  18.622  1.00  0.00     0.016 A 
ATOM     17  C   UNL     1       0.927  16.705  18.230  1.00  0.00     0.016 A 
BRANCH  13  18
ATOM     18  O   UNL     1      -2.122  17.613  20.109  1.00  0.00    -0.497 OA
ATOM     19  C   UNL     1      -2.100  19.037  20.144  1.00  0.00     0.278 C 
ENDBRANCH  13  18
ENDBRANCH   1  12
BRANCH   8  20
ATOM     20  O   UNL     1       4.092  12.093  19.766  1.00  0.00    -0.490 OA
ATOM     21  C   UNL     1       4.044  10.876  20.500  1.00  0.00     0.278 C 
ENDBRANCH   8  20
BRANCH  11  22
ATOM     22  O   UNL     1       5.125  12.263  14.256  1.00  0.00    -0.492 OA
ATOM     23  C   UNL     1       6.150  13.118  13.759  1.00  0.00     0.278 C 
ENDBRANCH  11  22
BRANCH   9  24
ATOM     24  O   UNL     1       6.102  10.574  18.779  1.00  0.00    -0.490 OA
ATOM     25  C   UNL     1       7.217  11.021  19.542  1.00  0.00     0.279 C 
ENDBRANCH   9  24
BRANCH  10  26
ATOM     26  O   UNL     1       6.536  10.464  15.914  1.00  0.00    -0.490 OA
ATOM     27  C   UNL     1       7.932  10.619  16.151  1.00  0.00     0.278 C 
ENDBRANCH  10  26
TORSDOF 6
ENDMDL
