MODEL 1
REMARK VINA RESULT:    -4.700      0.000      0.000
REMARK INTER + INTRA:          -7.552
REMARK INTER:                  -7.173
REMARK INTRA:                  -0.379
REMARK UNBOUND:                -0.379
REMARK SMILES CCCCCCCCCCC(=O)[O-]
REMARK SMILES IDX 7 1 8 2 9 3 10 4 11 5 12 6 13 7 6 8 5 9 4 10 3 11 2 12 1 13
REMARK H PARENT
REMARK Flexibility Score: inf
ROOT
ATOM      1  C   UNL     1     -29.723 -21.781 -21.817  1.00  0.00     0.000 C 
ENDROOT
BRANCH   1   2
ATOM      2  C   UNL     1     -29.153 -22.929 -20.966  1.00  0.00     0.000 C 
BRANCH   2   3
ATOM      3  C   UNL     1     -29.091 -22.583 -19.467  1.00  0.00     0.006 C 
BRANCH   3   4
ATOM      4  C   UNL     1     -27.805 -23.050 -18.765  1.00  0.00     0.053 C 
BRANCH   4   5
ATOM      5  C   UNL     1     -27.882 -22.876 -17.280  1.00  0.00     0.041 C 
ATOM      6  O   UNL     1     -26.830 -22.881 -16.586  1.00  0.00    -0.550 OA
ATOM      7  O   UNL     1     -29.116 -22.743 -16.658  1.00  0.00    -0.550 OA
ENDBRANCH   4   5
ENDBRANCH   3   4
ENDBRANCH   2   3
ENDBRANCH   1   2
BRANCH   1   8
ATOM      8  C   UNL     1     -31.193 -21.477 -21.487  1.00  0.00     0.000 C 
BRANCH   8   9
ATOM      9  C   UNL     1     -31.970 -20.936 -22.699  1.00  0.00    -0.000 C 
BRANCH   9  10
ATOM     10  C   UNL     1     -31.310 -21.308 -24.036  1.00  0.00    -0.000 C 
BRANCH  10  11
ATOM     11  C   UNL     1     -31.183 -20.104 -24.986  1.00  0.00    -0.000 C 
BRANCH  11  12
ATOM     12  C   UNL     1     -31.020 -20.528 -26.454  1.00  0.00    -0.003 C 
ATOM     13  C   UNL     1     -31.221 -22.028 -26.661  1.00  0.00     0.004 C 
ENDBRANCH  11  12
ENDBRANCH  10  11
ENDBRANCH   9  10
ENDBRANCH   8   9
ENDBRANCH   1   8
TORSDOF 9
ENDMDL
MODEL 2
REMARK VINA RESULT:    -4.415      4.327      7.436
REMARK INTER + INTRA:          -7.117
REMARK INTER:                  -6.703
REMARK INTRA:                  -0.414
REMARK UNBOUND:                -0.379
REMARK SMILES CCCCCCCCCCC(=O)[O-]
REMARK SMILES IDX 7 1 8 2 9 3 10 4 11 5 12 6 13 7 6 8 5 9 4 10 3 11 2 12 1 13
REMARK H PARENT
REMARK Flexibility Score: inf
ROOT
ATOM      1  C   UNL     1     -31.309 -21.059 -21.435  1.00  0.00     0.000 C 
ENDROOT
BRANCH   1   2
ATOM      2  C   UNL     1     -31.895 -20.673 -22.805  1.00  0.00     0.000 C 
BRANCH   2   3
ATOM      3  C   UNL     1     -31.369 -21.561 -23.948  1.00  0.00     0.006 C 
BRANCH   3   4
ATOM      4  C   UNL     1     -30.311 -20.886 -24.836  1.00  0.00     0.053 C 
BRANCH   4   5
ATOM      5  C   UNL     1     -30.731 -20.840 -26.272  1.00  0.00     0.041 C 
ATOM      6  O   UNL     1     -31.001 -19.738 -26.819  1.00  0.00    -0.550 OA
ATOM      7  O   UNL     1     -30.857 -22.018 -26.998  1.00  0.00    -0.550 OA
ENDBRANCH   4   5
ENDBRANCH   3   4
ENDBRANCH   2   3
ENDBRANCH   1   2
BRANCH   1   8
ATOM      8  C   UNL     1     -30.902 -22.539 -21.366  1.00  0.00     0.000 C 
BRANCH   8   9
ATOM      9  C   UNL     1     -29.391 -22.725 -21.141  1.00  0.00    -0.000 C 
BRANCH   9  10
ATOM     10  C   UNL     1     -29.055 -23.122 -19.695  1.00  0.00    -0.000 C 
BRANCH  10  11
ATOM     11  C   UNL     1     -28.383 -21.982 -18.910  1.00  0.00    -0.000 C 
BRANCH  11  12
ATOM     12  C   UNL     1     -27.667 -22.479 -17.646  1.00  0.00    -0.003 C 
ATOM     13  C   UNL     1     -28.621 -23.125 -16.642  1.00  0.00     0.004 C 
ENDBRANCH  11  12
ENDBRANCH  10  11
ENDBRANCH   9  10
ENDBRANCH   8   9
ENDBRANCH   1   8
TORSDOF 9
ENDMDL
MODEL 3
REMARK VINA RESULT:    -4.247      0.993      1.162
REMARK INTER + INTRA:          -6.860
REMARK INTER:                  -6.394
REMARK INTRA:                  -0.466
REMARK UNBOUND:                -0.379
REMARK SMILES CCCCCCCCCCC(=O)[O-]
REMARK SMILES IDX 7 1 8 2 9 3 10 4 11 5 12 6 13 7 6 8 5 9 4 10 3 11 2 12 1 13
REMARK H PARENT
REMARK Flexibility Score: inf
ROOT
ATOM      1  C   UNL     1     -30.665 -21.090 -20.876  1.00  0.00     0.000 C 
ENDROOT
BRANCH   1   2
ATOM      2  C   UNL     1     -29.238 -21.034 -20.303  1.00  0.00     0.000 C 
BRANCH   2   3
ATOM      3  C   UNL     1     -28.639 -22.432 -20.061  1.00  0.00     0.006 C 
BRANCH   3   4
ATOM      4  C   UNL     1     -29.141 -23.120 -18.782  1.00  0.00     0.053 C 
BRANCH   4   5
ATOM      5  C   UNL     1     -28.367 -22.691 -17.573  1.00  0.00     0.041 C 
ATOM      6  O   UNL     1     -27.273 -22.081 -17.705  1.00  0.00    -0.550 OA
ATOM      7  O   UNL     1     -28.838 -22.994 -16.302  1.00  0.00    -0.550 OA
ENDBRANCH   4   5
ENDBRANCH   3   4
ENDBRANCH   2   3
ENDBRANCH   1   2
BRANCH   1   8
ATOM      8  C   UNL     1     -30.902 -22.337 -21.742  1.00  0.00     0.000 C 
BRANCH   8   9
ATOM      9  C   UNL     1     -30.927 -22.015 -23.247  1.00  0.00    -0.000 C 
BRANCH   9  10
ATOM     10  C   UNL     1     -31.803 -20.795 -23.573  1.00  0.00    -0.000 C 
BRANCH  10  11
ATOM     11  C   UNL     1     -31.424 -20.137 -24.911  1.00  0.00    -0.000 C 
BRANCH  11  12
ATOM     12  C   UNL     1     -30.357 -20.934 -25.677  1.00  0.00    -0.003 C 
ATOM     13  C   UNL     1     -30.831 -21.376 -27.061  1.00  0.00     0.004 C 
ENDBRANCH  11  12
ENDBRANCH  10  11
ENDBRANCH   9  10
ENDBRANCH   8   9
ENDBRANCH   1   8
TORSDOF 9
ENDMDL
MODEL 4
REMARK VINA RESULT:    -3.971      4.470      6.664
REMARK INTER + INTRA:          -6.439
REMARK INTER:                  -5.663
REMARK INTRA:                  -0.776
REMARK UNBOUND:                -0.379
REMARK SMILES CCCCCCCCCCC(=O)[O-]
REMARK SMILES IDX 7 1 8 2 9 3 10 4 11 5 12 6 13 7 6 8 5 9 4 10 3 11 2 12 1 13
REMARK H PARENT
REMARK Flexibility Score: inf
ROOT
ATOM      1  C   UNL     1     -32.048 -20.345 -21.795  1.00  0.00     0.000 C 
ENDROOT
BRANCH   1   2
ATOM      2  C   UNL     1     -32.141 -20.263 -23.328  1.00  0.00     0.000 C 
BRANCH   2   3
ATOM      3  C   UNL     1     -31.378 -21.401 -24.032  1.00  0.00     0.006 C 
BRANCH   3   4
ATOM      4  C   UNL     1     -30.303 -20.921 -25.021  1.00  0.00     0.053 C 
BRANCH   4   5
ATOM      5  C   UNL     1     -30.775 -20.993 -26.440  1.00  0.00     0.041 C 
ATOM      6  O   UNL     1     -31.113 -19.945 -27.050  1.00  0.00    -0.550 OA
ATOM      7  O   UNL     1     -30.873 -22.223 -27.079  1.00  0.00    -0.550 OA
ENDBRANCH   4   5
ENDBRANCH   3   4
ENDBRANCH   2   3
ENDBRANCH   1   2
BRANCH   1   8
ATOM      8  C   UNL     1     -31.362 -21.634 -21.315  1.00  0.00     0.000 C 
BRANCH   8   9
ATOM      9  C   UNL     1     -30.001 -21.365 -20.648  1.00  0.00    -0.000 C 
BRANCH   9  10
ATOM     10  C   UNL     1     -29.381 -22.634 -20.043  1.00  0.00    -0.000 C 
BRANCH  10  11
ATOM     11  C   UNL     1     -28.067 -23.036 -20.735  1.00  0.00    -0.000 C 
BRANCH  11  12
ATOM     12  C   UNL     1     -28.207 -23.116 -22.262  1.00  0.00    -0.003 C 
ATOM     13  C   UNL     1     -27.372 -22.063 -22.988  1.00  0.00     0.004 C 
ENDBRANCH  11  12
ENDBRANCH  10  11
ENDBRANCH   9  10
ENDBRANCH   8   9
ENDBRANCH   1   8
TORSDOF 9
ENDMDL
MODEL 5
REMARK VINA RESULT:    -3.852      4.119      7.373
REMARK INTER + INTRA:          -6.257
REMARK INTER:                  -5.963
REMARK INTRA:                  -0.294
REMARK UNBOUND:                -0.379
REMARK SMILES CCCCCCCCCCC(=O)[O-]
REMARK SMILES IDX 7 1 8 2 9 3 10 4 11 5 12 6 13 7 6 8 5 9 4 10 3 11 2 12 1 13
REMARK H PARENT
REMARK Flexibility Score: inf
ROOT
ATOM      1  C   UNL     1     -30.358 -21.273 -21.048  1.00  0.00     0.000 C 
ENDROOT
BRANCH   1   2
ATOM      2  C   UNL     1     -31.695 -21.021 -21.767  1.00  0.00     0.000 C 
BRANCH   2   3
ATOM      3  C   UNL     1     -31.710 -21.574 -23.204  1.00  0.00     0.006 C 
BRANCH   3   4
ATOM      4  C   UNL     1     -30.582 -21.035 -24.098  1.00  0.00     0.053 C 
BRANCH   4   5
ATOM      5  C   UNL     1     -30.970 -21.023 -25.544  1.00  0.00     0.041 C 
ATOM      6  O   UNL     1     -30.712 -20.020 -26.262  1.00  0.00    -0.550 OA
ATOM      7  O   UNL     1     -31.645 -22.106 -26.093  1.00  0.00    -0.550 OA
ENDBRANCH   4   5
ENDBRANCH   3   4
ENDBRANCH   2   3
ENDBRANCH   1   2
BRANCH   1   8
ATOM      8  C   UNL     1     -29.830 -22.699 -21.271  1.00  0.00     0.000 C 
BRANCH   8   9
ATOM      9  C   UNL     1     -28.576 -23.001 -20.431  1.00  0.00    -0.000 C 
BRANCH   9  10
ATOM     10  C   UNL     1     -28.524 -22.179 -19.134  1.00  0.00    -0.000 C 
BRANCH  10  11
ATOM     11  C   UNL     1     -29.072 -22.953 -17.922  1.00  0.00    -0.000 C 
BRANCH  11  12
ATOM     12  C   UNL     1     -28.025 -23.125 -16.811  1.00  0.00    -0.003 C 
ATOM     13  C   UNL     1     -26.651 -22.587 -17.206  1.00  0.00     0.004 C 
ENDBRANCH  11  12
ENDBRANCH  10  11
ENDBRANCH   9  10
ENDBRANCH   8   9
ENDBRANCH   1   8
TORSDOF 9
ENDMDL
MODEL 6
REMARK VINA RESULT:    -3.778      2.934      6.481
REMARK INTER + INTRA:          -6.145
REMARK INTER:                  -5.578
REMARK INTRA:                  -0.567
REMARK UNBOUND:                -0.379
REMARK SMILES CCCCCCCCCCC(=O)[O-]
REMARK SMILES IDX 7 1 8 2 9 3 10 4 11 5 12 6 13 7 6 8 5 9 4 10 3 11 2 12 1 13
REMARK H PARENT
REMARK Flexibility Score: inf
ROOT
ATOM      1  C   UNL     1     -28.326 -21.692 -23.554  1.00  0.00     0.000 C 
ENDROOT
BRANCH   1   2
ATOM      2  C   UNL     1     -29.458 -21.020 -24.351  1.00  0.00     0.000 C 
BRANCH   2   3
ATOM      3  C   UNL     1     -30.850 -21.561 -23.978  1.00  0.00     0.006 C 
BRANCH   3   4
ATOM      4  C   UNL     1     -31.943 -20.484 -23.891  1.00  0.00     0.053 C 
BRANCH   4   5
ATOM      5  C   UNL     1     -32.370 -20.230 -22.478  1.00  0.00     0.041 C 
ATOM      6  O   UNL     1     -33.053 -19.210 -22.195  1.00  0.00    -0.550 OA
ATOM      7  O   UNL     1     -31.985 -21.102 -21.468  1.00  0.00    -0.550 OA
ENDBRANCH   4   5
ENDBRANCH   3   4
ENDBRANCH   2   3
ENDBRANCH   1   2
BRANCH   1   8
ATOM      8  C   UNL     1     -28.599 -21.704 -22.042  1.00  0.00     0.000 C 
BRANCH   8   9
ATOM      9  C   UNL     1     -28.819 -23.124 -21.493  1.00  0.00    -0.000 C 
BRANCH   9  10
ATOM     10  C   UNL     1     -29.511 -23.125 -20.121  1.00  0.00    -0.000 C 
BRANCH  10  11
ATOM     11  C   UNL     1     -28.851 -22.155 -19.126  1.00  0.00    -0.000 C 
BRANCH  11  12
ATOM     12  C   UNL     1     -27.789 -22.840 -18.253  1.00  0.00    -0.003 C 
ATOM     13  C   UNL     1     -28.214 -22.960 -16.791  1.00  0.00     0.004 C 
ENDBRANCH  11  12
ENDBRANCH  10  11
ENDBRANCH   9  10
ENDBRANCH   8   9
ENDBRANCH   1   8
TORSDOF 9
ENDMDL
MODEL 7
REMARK VINA RESULT:    -3.646      4.153      7.284
REMARK INTER + INTRA:          -5.943
REMARK INTER:                  -5.599
REMARK INTRA:                  -0.344
REMARK UNBOUND:                -0.379
REMARK SMILES CCCCCCCCCCC(=O)[O-]
REMARK SMILES IDX 7 1 8 2 9 3 10 4 11 5 12 6 13 7 6 8 5 9 4 10 3 11 2 12 1 13
REMARK H PARENT
REMARK Flexibility Score: inf
ROOT
ATOM      1  C   UNL     1     -29.431 -21.505 -22.558  1.00  0.00     0.000 C 
ENDROOT
BRANCH   1   2
ATOM      2  C   UNL     1     -30.791 -22.063 -23.012  1.00  0.00     0.000 C 
BRANCH   2   3
ATOM      3  C   UNL     1     -31.748 -20.964 -23.511  1.00  0.00     0.006 C 
BRANCH   3   4
ATOM      4  C   UNL     1     -31.279 -20.255 -24.792  1.00  0.00     0.053 C 
BRANCH   4   5
ATOM      5  C   UNL     1     -31.104 -21.211 -25.931  1.00  0.00     0.041 C 
ATOM      6  O   UNL     1     -30.190 -21.026 -26.779  1.00  0.00    -0.550 OA
ATOM      7  O   UNL     1     -31.970 -22.286 -26.076  1.00  0.00    -0.550 OA
ENDBRANCH   4   5
ENDBRANCH   3   4
ENDBRANCH   2   3
ENDBRANCH   1   2
BRANCH   1   8
ATOM      8  C   UNL     1     -28.299 -22.535 -22.691  1.00  0.00     0.000 C 
BRANCH   8   9
ATOM      9  C   UNL     1     -27.713 -22.948 -21.329  1.00  0.00    -0.000 C 
BRANCH   9  10
ATOM     10  C   UNL     1     -28.796 -23.125 -20.252  1.00  0.00    -0.000 C 
BRANCH  10  11
ATOM     11  C   UNL     1     -28.691 -22.075 -19.132  1.00  0.00    -0.000 C 
BRANCH  11  12
ATOM     12  C   UNL     1     -28.683 -22.707 -17.732  1.00  0.00    -0.003 C 
ATOM     13  C   UNL     1     -27.271 -22.937 -17.197  1.00  0.00     0.004 C 
ENDBRANCH  11  12
ENDBRANCH  10  11
ENDBRANCH   9  10
ENDBRANCH   8   9
ENDBRANCH   1   8
TORSDOF 9
ENDMDL
MODEL 8
REMARK VINA RESULT:    -3.419      3.563      4.351
REMARK INTER + INTRA:          -5.597
REMARK INTER:                  -4.798
REMARK INTRA:                  -0.799
REMARK UNBOUND:                -0.379
REMARK SMILES CCCCCCCCCCC(=O)[O-]
REMARK SMILES IDX 7 1 8 2 9 3 10 4 11 5 12 6 13 7 6 8 5 9 4 10 3 11 2 12 1 13
REMARK H PARENT
REMARK Flexibility Score: inf
ROOT
ATOM      1  C   UNL     1     -28.687 -22.205 -21.341  1.00  0.00     0.000 C 
ENDROOT
BRANCH   1   2
ATOM      2  C   UNL     1     -29.901 -23.125 -21.123  1.00  0.00     0.000 C 
BRANCH   2   3
ATOM      3  C   UNL     1     -31.231 -22.457 -21.515  1.00  0.00     0.006 C 
BRANCH   3   4
ATOM      4  C   UNL     1     -31.317 -20.964 -21.155  1.00  0.00     0.053 C 
BRANCH   4   5
ATOM      5  C   UNL     1     -32.349 -20.249 -21.972  1.00  0.00     0.041 C 
ATOM      6  O   UNL     1     -32.823 -20.787 -23.008  1.00  0.00    -0.550 OA
ATOM      7  O   UNL     1     -32.762 -18.974 -21.608  1.00  0.00    -0.550 OA
ENDBRANCH   4   5
ENDBRANCH   3   4
ENDBRANCH   2   3
ENDBRANCH   1   2
BRANCH   1   8
ATOM      8  C   UNL     1     -28.056 -22.382 -22.732  1.00  0.00     0.000 C 
BRANCH   8   9
ATOM      9  C   UNL     1     -28.394 -21.223 -23.685  1.00  0.00    -0.000 C 
BRANCH   9  10
ATOM     10  C   UNL     1     -29.692 -21.466 -24.471  1.00  0.00    -0.000 C 
BRANCH  10  11
ATOM     11  C   UNL     1     -30.176 -20.209 -25.214  1.00  0.00    -0.000 C 
BRANCH  11  12
ATOM     12  C   UNL     1     -31.177 -20.535 -26.333  1.00  0.00    -0.003 C 
ATOM     13  C   UNL     1     -30.815 -21.809 -27.096  1.00  0.00     0.004 C 
ENDBRANCH  11  12
ENDBRANCH  10  11
ENDBRANCH   9  10
ENDBRANCH   8   9
ENDBRANCH   1   8
TORSDOF 9
ENDMDL
MODEL 9
REMARK VINA RESULT:    -2.491      4.207      6.200
REMARK INTER + INTRA:          -4.180
REMARK INTER:                  -3.344
REMARK INTRA:                  -0.837
REMARK UNBOUND:                -0.379
REMARK SMILES CCCCCCCCCCC(=O)[O-]
REMARK SMILES IDX 7 1 8 2 9 3 10 4 11 5 12 6 13 7 6 8 5 9 4 10 3 11 2 12 1 13
REMARK H PARENT
REMARK Flexibility Score: inf
ROOT
ATOM      1  C   UNL     1     -27.758 -22.713 -22.336  1.00  0.00     0.000 C 
ENDROOT
BRANCH   1   2
ATOM      2  C   UNL     1     -28.078 -21.623 -23.374  1.00  0.00     0.000 C 
BRANCH   2   3
ATOM      3  C   UNL     1     -29.480 -21.782 -23.990  1.00  0.00     0.006 C 
BRANCH   3   4
ATOM      4  C   UNL     1     -29.914 -20.604 -24.879  1.00  0.00     0.053 C 
BRANCH   4   5
ATOM      5  C   UNL     1     -30.937 -21.015 -25.893  1.00  0.00     0.041 C 
ATOM      6  O   UNL     1     -31.732 -21.960 -25.645  1.00  0.00    -0.550 OA
ATOM      7  O   UNL     1     -30.990 -20.376 -27.125  1.00  0.00    -0.550 OA
ENDBRANCH   4   5
ENDBRANCH   3   4
ENDBRANCH   2   3
ENDBRANCH   1   2
BRANCH   1   8
ATOM      8  C   UNL     1     -28.927 -22.966 -21.370  1.00  0.00     0.000 C 
BRANCH   8   9
ATOM      9  C   UNL     1     -28.915 -22.009 -20.166  1.00  0.00    -0.000 C 
BRANCH   9  10
ATOM     10  C   UNL     1     -29.927 -20.862 -20.315  1.00  0.00    -0.000 C 
BRANCH  10  11
ATOM     11  C   UNL     1     -31.130 -21.248 -21.193  1.00  0.00    -0.000 C 
BRANCH  11  12
ATOM     12  C   UNL     1     -32.105 -20.079 -21.403  1.00  0.00    -0.003 C 
ATOM     13  C   UNL     1     -32.862 -20.172 -22.726  1.00  0.00     0.004 C 
ENDBRANCH  11  12
ENDBRANCH  10  11
ENDBRANCH   9  10
ENDBRANCH   8   9
ENDBRANCH   1   8
TORSDOF 9
ENDMDL
