MODEL 1
REMARK VINA RESULT:    -6.172      0.000      0.000
REMARK INTER + INTRA:          -8.770
REMARK INTER:                  -8.336
REMARK INTRA:                  -0.433
REMARK UNBOUND:                -0.433
REMARK SMILES CC(=O)CCC=C(C)CCC=C(C)C
REMARK SMILES IDX 7 1 6 2 8 3 9 4 10 5 11 6 13 7 12 8 14 9 5 10 4 11 2 12 3 13
REMARK SMILES IDX 1 14
REMARK H PARENT
REMARK Flexibility Score: inf
ROOT
ATOM      1  C   UNL     1      13.301  13.903  15.886  1.00  0.00    -0.077 C 
ATOM      2  C   UNL     1      14.623  14.180  15.850  1.00  0.00    -0.028 C 
ATOM      3  C   UNL     1      12.794  12.530  16.262  1.00  0.00     0.039 C 
ENDROOT
BRANCH   1   4
ATOM      4  C   UNL     1      12.305  14.991  15.544  1.00  0.00     0.034 C 
BRANCH   4   5
ATOM      5  C   UNL     1      12.296  15.308  14.041  1.00  0.00     0.032 C 
BRANCH   5   6
ATOM      6  C   UNL     1      11.147  16.214  13.666  1.00  0.00    -0.028 C 
ATOM      7  C   UNL     1      11.570  16.016  11.205  1.00  0.00     0.039 C 
ATOM      8  C   UNL     1      10.786  16.508  12.396  1.00  0.00    -0.080 C 
ATOM      9  C   UNL     1       9.600  17.403  12.144  1.00  0.00     0.039 C 
ENDBRANCH   5   6
ENDBRANCH   4   5
ENDBRANCH   1   4
BRANCH   2  10
ATOM     10  C   UNL     1      15.689  13.162  16.182  1.00  0.00     0.035 C 
BRANCH  10  11
ATOM     11  C   UNL     1      16.460  12.707  14.937  1.00  0.00     0.079 C 
BRANCH  11  12
ATOM     12  C   UNL     1      16.778  11.233  14.986  1.00  0.00     0.130 C 
ATOM     13  O   UNL     1      16.012  10.472  15.559  1.00  0.00    -0.300 OA
ATOM     14  C   UNL     1      18.023  10.681  14.358  1.00  0.00     0.087 C 
ENDBRANCH  11  12
ENDBRANCH  10  11
ENDBRANCH   2  10
TORSDOF 6
ENDMDL
MODEL 2
REMARK VINA RESULT:    -5.992      0.745      1.154
REMARK INTER + INTRA:          -8.527
REMARK INTER:                  -8.135
REMARK INTRA:                  -0.392
REMARK UNBOUND:                -0.433
REMARK SMILES CC(=O)CCC=C(C)CCC=C(C)C
REMARK SMILES IDX 7 1 6 2 8 3 9 4 10 5 11 6 13 7 12 8 14 9 5 10 4 11 2 12 3 13
REMARK SMILES IDX 1 14
REMARK H PARENT
REMARK Flexibility Score: inf
ROOT
ATOM      1  C   UNL     1      14.050  14.237  15.790  1.00  0.00    -0.077 C 
ATOM      2  C   UNL     1      14.419  12.940  15.717  1.00  0.00    -0.028 C 
ATOM      3  C   UNL     1      15.025  15.310  16.216  1.00  0.00     0.039 C 
ENDROOT
BRANCH   1   4
ATOM      4  C   UNL     1      12.629  14.625  15.438  1.00  0.00     0.034 C 
BRANCH   4   5
ATOM      5  C   UNL     1      12.518  15.155  14.001  1.00  0.00     0.032 C 
BRANCH   5   6
ATOM      6  C   UNL     1      11.330  16.072  13.832  1.00  0.00    -0.028 C 
ATOM      7  C   UNL     1      11.450  16.047  11.330  1.00  0.00     0.039 C 
ATOM      8  C   UNL     1      10.816  16.448  12.638  1.00  0.00    -0.080 C 
ATOM      9  C   UNL     1       9.605  17.344  12.594  1.00  0.00     0.039 C 
ENDBRANCH   5   6
ENDBRANCH   4   5
ENDBRANCH   1   4
BRANCH   2  10
ATOM     10  C   UNL     1      15.814  12.458  16.041  1.00  0.00     0.035 C 
BRANCH  10  11
ATOM     11  C   UNL     1      16.701  12.374  14.792  1.00  0.00     0.079 C 
BRANCH  11  12
ATOM     12  C   UNL     1      17.296  10.998  14.623  1.00  0.00     0.130 C 
ATOM     13  O   UNL     1      16.955  10.099  15.377  1.00  0.00    -0.300 OA
ATOM     14  C   UNL     1      18.310  10.711  13.555  1.00  0.00     0.087 C 
ENDBRANCH  11  12
ENDBRANCH  10  11
ENDBRANCH   2  10
TORSDOF 6
ENDMDL
MODEL 3
REMARK VINA RESULT:    -5.876      3.388      7.355
REMARK INTER + INTRA:          -8.371
REMARK INTER:                  -7.563
REMARK INTRA:                  -0.808
REMARK UNBOUND:                -0.433
REMARK SMILES CC(=O)CCC=C(C)CCC=C(C)C
REMARK SMILES IDX 7 1 6 2 8 3 9 4 10 5 11 6 13 7 12 8 14 9 5 10 4 11 2 12 3 13
REMARK SMILES IDX 1 14
REMARK H PARENT
REMARK Flexibility Score: inf
ROOT
ATOM      1  C   UNL     1      12.612  15.319  13.231  1.00  0.00    -0.077 C 
ATOM      2  C   UNL     1      11.962  15.466  12.056  1.00  0.00    -0.028 C 
ATOM      3  C   UNL     1      11.889  15.443  14.552  1.00  0.00     0.039 C 
ENDROOT
BRANCH   1   4
ATOM      4  C   UNL     1      14.098  15.023  13.225  1.00  0.00     0.034 C 
BRANCH   4   5
ATOM      5  C   UNL     1      14.688  15.028  14.643  1.00  0.00     0.032 C 
BRANCH   5   6
ATOM      6  C   UNL     1      15.515  13.793  14.910  1.00  0.00    -0.028 C 
ATOM      7  C   UNL     1      13.670  12.613  16.125  1.00  0.00     0.039 C 
ATOM      8  C   UNL     1      15.058  12.686  15.539  1.00  0.00    -0.080 C 
ATOM      9  C   UNL     1      15.969  11.499  15.721  1.00  0.00     0.039 C 
ENDBRANCH   5   6
ENDBRANCH   4   5
ENDBRANCH   1   4
BRANCH   2  10
ATOM     10  C   UNL     1      10.482  15.755  11.962  1.00  0.00     0.035 C 
BRANCH  10  11
ATOM     11  C   UNL     1      10.203  17.198  11.521  1.00  0.00     0.079 C 
BRANCH  11  12
ATOM     12  C   UNL     1       9.111  17.832  12.348  1.00  0.00     0.130 C 
ATOM     13  O   UNL     1       8.249  18.498  11.794  1.00  0.00    -0.300 OA
ATOM     14  C   UNL     1       9.069  17.674  13.839  1.00  0.00     0.087 C 
ENDBRANCH  11  12
ENDBRANCH  10  11
ENDBRANCH   2  10
TORSDOF 6
ENDMDL
MODEL 4
REMARK VINA RESULT:    -5.803      1.071      1.681
REMARK INTER + INTRA:          -8.272
REMARK INTER:                  -7.622
REMARK INTRA:                  -0.650
REMARK UNBOUND:                -0.433
REMARK SMILES CC(=O)CCC=C(C)CCC=C(C)C
REMARK SMILES IDX 7 1 6 2 8 3 9 4 10 5 11 6 13 7 12 8 14 9 5 10 4 11 2 12 3 13
REMARK SMILES IDX 1 14
REMARK H PARENT
REMARK Flexibility Score: inf
ROOT
ATOM      1  C   UNL     1      13.289  14.675  14.544  1.00  0.00    -0.077 C 
ATOM      2  C   UNL     1      14.307  13.805  14.718  1.00  0.00    -0.028 C 
ATOM      3  C   UNL     1      12.306  14.967  15.654  1.00  0.00     0.039 C 
ENDROOT
BRANCH   1   4
ATOM      4  C   UNL     1      13.128  15.374  13.210  1.00  0.00     0.034 C 
BRANCH   4   5
ATOM      5  C   UNL     1      11.834  14.958  12.497  1.00  0.00     0.032 C 
BRANCH   5   6
ATOM      6  C   UNL     1      11.131  16.141  11.875  1.00  0.00    -0.028 C 
ATOM      7  C   UNL     1       9.545  16.425  13.793  1.00  0.00     0.039 C 
ATOM      8  C   UNL     1      10.129  16.833  12.464  1.00  0.00    -0.080 C 
ATOM      9  C   UNL     1       9.523  18.019  11.757  1.00  0.00     0.039 C 
ENDBRANCH   5   6
ENDBRANCH   4   5
ENDBRANCH   1   4
BRANCH   2  10
ATOM     10  C   UNL     1      14.551  13.067  16.013  1.00  0.00     0.035 C 
BRANCH  10  11
ATOM     11  C   UNL     1      16.038  12.755  16.229  1.00  0.00     0.079 C 
BRANCH  11  12
ATOM     12  C   UNL     1      16.490  11.587  15.387  1.00  0.00     0.130 C 
ATOM     13  O   UNL     1      15.966  10.495  15.544  1.00  0.00    -0.300 OA
ATOM     14  C   UNL     1      17.582  11.735  14.369  1.00  0.00     0.087 C 
ENDBRANCH  11  12
ENDBRANCH  10  11
ENDBRANCH   2  10
TORSDOF 6
ENDMDL
MODEL 5
REMARK VINA RESULT:    -5.582      3.567      7.524
REMARK INTER + INTRA:          -7.973
REMARK INTER:                  -7.619
REMARK INTRA:                  -0.354
REMARK UNBOUND:                -0.433
REMARK SMILES CC(=O)CCC=C(C)CCC=C(C)C
REMARK SMILES IDX 7 1 6 2 8 3 9 4 10 5 11 6 13 7 12 8 14 9 5 10 4 11 2 12 3 13
REMARK SMILES IDX 1 14
REMARK H PARENT
REMARK Flexibility Score: inf
ROOT
ATOM      1  C   UNL     1      12.667  15.389  11.919  1.00  0.00    -0.077 C 
ATOM      2  C   UNL     1      11.434  15.760  12.328  1.00  0.00    -0.028 C 
ATOM      3  C   UNL     1      13.010  15.282  10.451  1.00  0.00     0.039 C 
ENDROOT
BRANCH   1   4
ATOM      4  C   UNL     1      13.728  15.072  12.952  1.00  0.00     0.034 C 
BRANCH   4   5
ATOM      5  C   UNL     1      13.115  14.623  14.286  1.00  0.00     0.032 C 
BRANCH   5   6
ATOM      6  C   UNL     1      13.930  13.532  14.939  1.00  0.00    -0.028 C 
ATOM      7  C   UNL     1      15.596  15.127  15.918  1.00  0.00     0.039 C 
ATOM      8  C   UNL     1      15.022  13.748  15.708  1.00  0.00    -0.080 C 
ATOM      9  C   UNL     1      15.738  12.579  16.334  1.00  0.00     0.039 C 
ENDBRANCH   5   6
ENDBRANCH   4   5
ENDBRANCH   1   4
BRANCH   2  10
ATOM     10  C   UNL     1      10.315  16.101  11.373  1.00  0.00     0.035 C 
BRANCH  10  11
ATOM     11  C   UNL     1      10.005  17.604  11.360  1.00  0.00     0.079 C 
BRANCH  11  12
ATOM     12  C   UNL     1       8.904  17.955  12.329  1.00  0.00     0.130 C 
ATOM     13  O   UNL     1       7.864  18.439  11.906  1.00  0.00    -0.300 OA
ATOM     14  C   UNL     1       9.061  17.734  13.804  1.00  0.00     0.087 C 
ENDBRANCH  11  12
ENDBRANCH  10  11
ENDBRANCH   2  10
TORSDOF 6
ENDMDL
MODEL 6
REMARK VINA RESULT:    -5.357      2.201      7.059
REMARK INTER + INTRA:          -7.670
REMARK INTER:                  -7.162
REMARK INTRA:                  -0.507
REMARK UNBOUND:                -0.433
REMARK SMILES CC(=O)CCC=C(C)CCC=C(C)C
REMARK SMILES IDX 7 1 6 2 8 3 9 4 10 5 11 6 13 7 12 8 14 9 5 10 4 11 2 12 3 13
REMARK SMILES IDX 1 14
REMARK H PARENT
REMARK Flexibility Score: inf
ROOT
ATOM      1  C   UNL     1      14.921  12.781  15.530  1.00  0.00    -0.077 C 
ATOM      2  C   UNL     1      15.257  13.852  14.777  1.00  0.00    -0.028 C 
ATOM      3  C   UNL     1      13.610  12.726  16.279  1.00  0.00     0.039 C 
ENDROOT
BRANCH   1   4
ATOM      4  C   UNL     1      15.878  11.611  15.625  1.00  0.00     0.034 C 
BRANCH   4   5
ATOM      5  C   UNL     1      17.079  11.773  14.682  1.00  0.00     0.032 C 
BRANCH   5   6
ATOM      6  C   UNL     1      18.093  10.670  14.870  1.00  0.00    -0.028 C 
ATOM      7  C   UNL     1      18.492  10.386  12.414  1.00  0.00     0.039 C 
ATOM      8  C   UNL     1      18.764  10.066  13.863  1.00  0.00    -0.080 C 
ATOM      9  C   UNL     1      19.778   8.996  14.175  1.00  0.00     0.039 C 
ENDBRANCH   5   6
ENDBRANCH   4   5
ENDBRANCH   1   4
BRANCH   2  10
ATOM     10  C   UNL     1      14.365  15.061  14.617  1.00  0.00     0.035 C 
BRANCH  10  11
ATOM     11  C   UNL     1      13.675  15.092  13.248  1.00  0.00     0.079 C 
BRANCH  11  12
ATOM     12  C   UNL     1      12.207  15.416  13.371  1.00  0.00     0.130 C 
ATOM     13  O   UNL     1      11.687  15.435  14.477  1.00  0.00    -0.300 OA
ATOM     14  C   UNL     1      11.366  15.703  12.162  1.00  0.00     0.087 C 
ENDBRANCH  11  12
ENDBRANCH  10  11
ENDBRANCH   2  10
TORSDOF 6
ENDMDL
MODEL 7
REMARK VINA RESULT:    -5.354      2.241      7.114
REMARK INTER + INTRA:          -7.665
REMARK INTER:                  -7.293
REMARK INTRA:                  -0.372
REMARK UNBOUND:                -0.433
REMARK SMILES CC(=O)CCC=C(C)CCC=C(C)C
REMARK SMILES IDX 7 1 6 2 8 3 9 4 10 5 11 6 13 7 12 8 14 9 5 10 4 11 2 12 3 13
REMARK SMILES IDX 1 14
REMARK H PARENT
REMARK Flexibility Score: inf
ROOT
ATOM      1  C   UNL     1      15.130  13.738  15.632  1.00  0.00    -0.077 C 
ATOM      2  C   UNL     1      13.888  13.536  15.141  1.00  0.00    -0.028 C 
ATOM      3  C   UNL     1      15.650  15.130  15.908  1.00  0.00     0.039 C 
ENDROOT
BRANCH   1   4
ATOM      4  C   UNL     1      16.022  12.546  15.911  1.00  0.00     0.034 C 
BRANCH   4   5
ATOM      5  C   UNL     1      16.713  12.035  14.639  1.00  0.00     0.032 C 
BRANCH   5   6
ATOM      6  C   UNL     1      17.708  10.940  14.942  1.00  0.00    -0.028 C 
ATOM      7  C   UNL     1      18.301  10.577  12.536  1.00  0.00     0.039 C 
ATOM      8  C   UNL     1      18.456  10.305  14.011  1.00  0.00    -0.080 C 
ATOM      9  C   UNL     1      19.441   9.247  14.437  1.00  0.00     0.039 C 
ENDBRANCH   5   6
ENDBRANCH   4   5
ENDBRANCH   1   4
BRANCH   2  10
ATOM     10  C   UNL     1      12.926  14.661  14.838  1.00  0.00     0.035 C 
BRANCH  10  11
ATOM     11  C   UNL     1      13.019  15.121  13.378  1.00  0.00     0.079 C 
BRANCH  11  12
ATOM     12  C   UNL     1      11.654  15.353  12.779  1.00  0.00     0.130 C 
ATOM     13  O   UNL     1      11.241  14.594  11.914  1.00  0.00    -0.300 OA
ATOM     14  C   UNL     1      10.796  16.504  13.212  1.00  0.00     0.087 C 
ENDBRANCH  11  12
ENDBRANCH  10  11
ENDBRANCH   2  10
TORSDOF 6
ENDMDL
MODEL 8
REMARK VINA RESULT:    -5.032      1.460      2.209
REMARK INTER + INTRA:          -7.230
REMARK INTER:                  -7.209
REMARK INTRA:                  -0.021
REMARK UNBOUND:                -0.433
REMARK SMILES CC(=O)CCC=C(C)CCC=C(C)C
REMARK SMILES IDX 7 1 6 2 8 3 9 4 10 5 11 6 13 7 12 8 14 9 5 10 4 11 2 12 3 13
REMARK SMILES IDX 1 14
REMARK H PARENT
REMARK Flexibility Score: inf
ROOT
ATOM      1  C   UNL     1      13.560  15.103  14.063  1.00  0.00    -0.077 C 
ATOM      2  C   UNL     1      14.834  14.933  14.479  1.00  0.00    -0.028 C 
ATOM      3  C   UNL     1      12.399  15.023  15.027  1.00  0.00     0.039 C 
ENDROOT
BRANCH   1   4
ATOM      4  C   UNL     1      13.288  15.379  12.599  1.00  0.00     0.034 C 
BRANCH   4   5
ATOM      5  C   UNL     1      11.859  14.987  12.197  1.00  0.00     0.032 C 
BRANCH   5   6
ATOM      6  C   UNL     1      10.857  16.050  12.582  1.00  0.00    -0.028 C 
ATOM      7  C   UNL     1      10.768  17.041  10.283  1.00  0.00     0.039 C 
ATOM      8  C   UNL     1      10.329  16.952  11.723  1.00  0.00    -0.080 C 
ATOM      9  C   UNL     1       9.312  17.948  12.217  1.00  0.00     0.039 C 
ENDBRANCH   5   6
ENDBRANCH   4   5
ENDBRANCH   1   4
BRANCH   2  10
ATOM     10  C   UNL     1      15.203  14.660  15.919  1.00  0.00     0.035 C 
BRANCH  10  11
ATOM     11  C   UNL     1      16.011  13.366  16.072  1.00  0.00     0.079 C 
BRANCH  11  12
ATOM     12  C   UNL     1      15.132  12.144  15.964  1.00  0.00     0.130 C 
ATOM     13  O   UNL     1      15.614  11.091  15.573  1.00  0.00    -0.300 OA
ATOM     14  C   UNL     1      13.675  12.196  16.315  1.00  0.00     0.087 C 
ENDBRANCH  11  12
ENDBRANCH  10  11
ENDBRANCH   2  10
TORSDOF 6
ENDMDL
MODEL 9
REMARK VINA RESULT:    -4.769      2.127      3.915
REMARK INTER + INTRA:          -6.874
REMARK INTER:                  -6.149
REMARK INTRA:                  -0.725
REMARK UNBOUND:                -0.433
REMARK SMILES CC(=O)CCC=C(C)CCC=C(C)C
REMARK SMILES IDX 7 1 6 2 8 3 9 4 10 5 11 6 13 7 12 8 14 9 5 10 4 11 2 12 3 13
REMARK SMILES IDX 1 14
REMARK H PARENT
REMARK Flexibility Score: inf
ROOT
ATOM      1  C   UNL     1      13.077  15.125  11.278  1.00  0.00    -0.077 C 
ATOM      2  C   UNL     1      12.955  14.936  12.609  1.00  0.00    -0.028 C 
ATOM      3  C   UNL     1      14.416  15.420  10.643  1.00  0.00     0.039 C 
ENDROOT
BRANCH   1   4
ATOM      4  C   UNL     1      11.845  15.040  10.400  1.00  0.00     0.034 C 
BRANCH   4   5
ATOM      5  C   UNL     1      10.557  14.932  11.228  1.00  0.00     0.032 C 
BRANCH   5   6
ATOM      6  C   UNL     1       9.787  16.232  11.239  1.00  0.00    -0.028 C 
ATOM      7  C   UNL     1      10.312  16.720  13.639  1.00  0.00     0.039 C 
ATOM      8  C   UNL     1       9.703  17.064  12.303  1.00  0.00    -0.080 C 
ATOM      9  C   UNL     1       8.929  18.352  12.186  1.00  0.00     0.039 C 
ENDBRANCH   5   6
ENDBRANCH   4   5
ENDBRANCH   1   4
BRANCH   2  10
ATOM     10  C   UNL     1      14.126  14.994  13.562  1.00  0.00     0.035 C 
BRANCH  10  11
ATOM     11  C   UNL     1      13.680  14.947  15.029  1.00  0.00     0.079 C 
BRANCH  11  12
ATOM     12  C   UNL     1      13.507  13.529  15.513  1.00  0.00     0.130 C 
ATOM     13  O   UNL     1      12.382  13.061  15.609  1.00  0.00    -0.300 OA
ATOM     14  C   UNL     1      14.685  12.684  15.894  1.00  0.00     0.087 C 
ENDBRANCH  11  12
ENDBRANCH  10  11
ENDBRANCH   2  10
TORSDOF 6
ENDMDL
