MODEL 1
REMARK VINA RESULT:     0.243      0.000      0.000
REMARK INTER + INTRA:          -0.076
REMARK INTER:                   0.556
REMARK INTRA:                  -0.632
REMARK UNBOUND:                -0.632
REMARK SMILES CCCCCCCCCCCCCCCCCCCCCCCC(=O)[O-]
REMARK SMILES IDX 13 1 14 2 15 3 16 4 17 5 18 6 19 7 20 8 21 9 22 10 23 11
REMARK SMILES IDX 24 12 25 13 26 14 12 15 11 16 10 17 9 18 8 19 7 20 6 21 5 22
REMARK SMILES IDX 4 23 3 24 2 25 1 26
REMARK H PARENT
REMARK Flexibility Score: inf
ROOT
ATOM      1  C   UNL     1       0.730   4.900  -2.758  1.00  0.00     0.000 C 
ENDROOT
BRANCH   1   2
ATOM      2  C   UNL     1       2.190   4.428  -2.612  1.00  0.00     0.000 C 
BRANCH   2   3
ATOM      3  C   UNL     1       2.360   2.924  -2.318  1.00  0.00     0.000 C 
BRANCH   3   4
ATOM      4  C   UNL     1       2.546   2.568  -0.829  1.00  0.00     0.000 C 
BRANCH   4   5
ATOM      5  C   UNL     1       2.959   1.108  -0.557  1.00  0.00     0.000 C 
BRANCH   5   6
ATOM      6  C   UNL     1       2.617   0.590   0.854  1.00  0.00     0.000 C 
BRANCH   6   7
ATOM      7  C   UNL     1       1.594  -0.564   0.897  1.00  0.00     0.000 C 
BRANCH   7   8
ATOM      8  C   UNL     1       1.278  -1.100   2.304  1.00  0.00     0.000 C 
BRANCH   8   9
ATOM      9  C   UNL     1       0.194  -2.189   2.300  1.00  0.00     0.000 C 
BRANCH   9  10
ATOM     10  C   UNL     1      -0.745  -2.033   3.507  1.00  0.00     0.006 C 
BRANCH  10  11
ATOM     11  C   UNL     1      -0.668  -0.631   4.125  1.00  0.00     0.053 C 
BRANCH  11  12
ATOM     12  C   UNL     1      -1.618  -0.477   5.273  1.00  0.00     0.041 C 
ATOM     13  O   UNL     1      -2.562   0.354   5.207  1.00  0.00    -0.550 OA
ATOM     14  O   UNL     1      -1.439  -1.225   6.430  1.00  0.00    -0.550 OA
ENDBRANCH  11  12
ENDBRANCH  10  11
ENDBRANCH   9  10
ENDBRANCH   8   9
ENDBRANCH   7   8
ENDBRANCH   6   7
ENDBRANCH   5   6
ENDBRANCH   4   5
ENDBRANCH   3   4
ENDBRANCH   2   3
ENDBRANCH   1   2
BRANCH   1  15
ATOM     15  C   UNL     1       0.490   5.939  -3.873  1.00  0.00     0.000 C 
BRANCH  15  16
ATOM     16  C   UNL     1      -0.410   5.464  -5.029  1.00  0.00     0.000 C 
BRANCH  16  17
ATOM     17  C   UNL     1       0.370   5.217  -6.330  1.00  0.00     0.000 C 
BRANCH  17  18
ATOM     18  C   UNL     1       0.384   6.439  -7.265  1.00  0.00    -0.000 C 
BRANCH  18  19
ATOM     19  C   UNL     1       0.808   6.149  -8.717  1.00  0.00    -0.000 C 
BRANCH  19  20
ATOM     20  C   UNL     1       0.833   7.411  -9.597  1.00  0.00    -0.000 C 
BRANCH  20  21
ATOM     21  C   UNL     1       2.261   7.885  -9.910  1.00  0.00    -0.000 C 
BRANCH  21  22
ATOM     22  C   UNL     1       2.399   9.418  -9.869  1.00  0.00    -0.000 C 
BRANCH  22  23
ATOM     23  C   UNL     1       1.033  10.124  -9.731  1.00  0.00    -0.000 C 
BRANCH  23  24
ATOM     24  C   UNL     1       0.426  10.029  -8.318  1.00  0.00    -0.000 C 
BRANCH  24  25
ATOM     25  C   UNL     1      -1.111  10.079  -8.274  1.00  0.00    -0.003 C 
ATOM     26  C   UNL     1      -1.675   9.848  -6.871  1.00  0.00     0.004 C 
ENDBRANCH  24  25
ENDBRANCH  23  24
ENDBRANCH  22  23
ENDBRANCH  21  22
ENDBRANCH  20  21
ENDBRANCH  19  20
ENDBRANCH  18  19
ENDBRANCH  17  18
ENDBRANCH  16  17
ENDBRANCH  15  16
ENDBRANCH   1  15
TORSDOF 22
ENDMDL
MODEL 2
REMARK VINA RESULT:     0.311      1.213      1.969
REMARK INTER + INTRA:           0.079
REMARK INTER:                   1.371
REMARK INTRA:                  -1.292
REMARK UNBOUND:                -0.632
REMARK SMILES CCCCCCCCCCCCCCCCCCCCCCCC(=O)[O-]
REMARK SMILES IDX 13 1 14 2 15 3 16 4 17 5 18 6 19 7 20 8 21 9 22 10 23 11
REMARK SMILES IDX 24 12 25 13 26 14 12 15 11 16 10 17 9 18 8 19 7 20 6 21 5 22
REMARK SMILES IDX 4 23 3 24 2 25 1 26
REMARK H PARENT
REMARK Flexibility Score: inf
ROOT
ATOM      1  C   UNL     1       1.828   3.629  -1.574  1.00  0.00     0.000 C 
ENDROOT
BRANCH   1   2
ATOM      2  C   UNL     1       2.615   2.304  -1.546  1.00  0.00     0.000 C 
BRANCH   2   3
ATOM      3  C   UNL     1       2.283   1.376  -0.361  1.00  0.00     0.000 C 
BRANCH   3   4
ATOM      4  C   UNL     1       3.408   1.223   0.683  1.00  0.00     0.000 C 
BRANCH   4   5
ATOM      5  C   UNL     1       2.991   0.520   1.990  1.00  0.00     0.000 C 
BRANCH   5   6
ATOM      6  C   UNL     1       1.551  -0.029   2.000  1.00  0.00     0.000 C 
BRANCH   6   7
ATOM      7  C   UNL     1       1.421  -1.530   1.667  1.00  0.00     0.000 C 
BRANCH   7   8
ATOM      8  C   UNL     1       0.693  -2.371   2.731  1.00  0.00     0.000 C 
BRANCH   8   9
ATOM      9  C   UNL     1      -0.730  -1.867   3.021  1.00  0.00     0.000 C 
BRANCH   9  10
ATOM     10  C   UNL     1      -1.212  -2.348   4.398  1.00  0.00     0.006 C 
BRANCH  10  11
ATOM     11  C   UNL     1      -1.079  -1.260   5.472  1.00  0.00     0.053 C 
BRANCH  11  12
ATOM     12  C   UNL     1      -1.703   0.030   5.035  1.00  0.00     0.041 C 
ATOM     13  O   UNL     1      -2.903   0.282   5.323  1.00  0.00    -0.550 OA
ATOM     14  O   UNL     1      -0.972   0.937   4.278  1.00  0.00    -0.550 OA
ENDBRANCH  11  12
ENDBRANCH  10  11
ENDBRANCH   9  10
ENDBRANCH   8   9
ENDBRANCH   7   8
ENDBRANCH   6   7
ENDBRANCH   5   6
ENDBRANCH   4   5
ENDBRANCH   3   4
ENDBRANCH   2   3
ENDBRANCH   1   2
BRANCH   1  15
ATOM     15  C   UNL     1       1.869   4.383  -2.919  1.00  0.00     0.000 C 
BRANCH  15  16
ATOM     16  C   UNL     1       0.626   5.237  -3.230  1.00  0.00     0.000 C 
BRANCH  16  17
ATOM     17  C   UNL     1      -0.069   4.828  -4.539  1.00  0.00     0.000 C 
BRANCH  17  18
ATOM     18  C   UNL     1      -0.055   5.941  -5.602  1.00  0.00    -0.000 C 
BRANCH  18  19
ATOM     19  C   UNL     1       0.268   5.476  -7.033  1.00  0.00    -0.000 C 
BRANCH  19  20
ATOM     20  C   UNL     1       0.961   6.562  -7.874  1.00  0.00    -0.000 C 
BRANCH  20  21
ATOM     21  C   UNL     1       0.667   6.423  -9.376  1.00  0.00    -0.000 C 
BRANCH  21  22
ATOM     22  C   UNL     1      -0.371   7.445  -9.873  1.00  0.00    -0.000 C 
BRANCH  22  23
ATOM     23  C   UNL     1      -0.123   8.858  -9.300  1.00  0.00    -0.000 C 
BRANCH  23  24
ATOM     24  C   UNL     1      -1.361   9.480  -8.627  1.00  0.00    -0.000 C 
BRANCH  24  25
ATOM     25  C   UNL     1      -1.413   9.315  -7.098  1.00  0.00    -0.003 C 
ATOM     26  C   UNL     1      -0.199   9.920  -6.391  1.00  0.00     0.004 C 
ENDBRANCH  24  25
ENDBRANCH  23  24
ENDBRANCH  22  23
ENDBRANCH  21  22
ENDBRANCH  20  21
ENDBRANCH  19  20
ENDBRANCH  18  19
ENDBRANCH  17  18
ENDBRANCH  16  17
ENDBRANCH  15  16
ENDBRANCH   1  15
TORSDOF 22
ENDMDL
MODEL 3
REMARK VINA RESULT:     0.554      0.689      2.207
REMARK INTER + INTRA:           0.635
REMARK INTER:                   1.560
REMARK INTRA:                  -0.925
REMARK UNBOUND:                -0.632
REMARK SMILES CCCCCCCCCCCCCCCCCCCCCCCC(=O)[O-]
REMARK SMILES IDX 13 1 14 2 15 3 16 4 17 5 18 6 19 7 20 8 21 9 22 10 23 11
REMARK SMILES IDX 24 12 25 13 26 14 12 15 11 16 10 17 9 18 8 19 7 20 6 21 5 22
REMARK SMILES IDX 4 23 3 24 2 25 1 26
REMARK H PARENT
REMARK Flexibility Score: inf
ROOT
ATOM      1  C   UNL     1       0.646   4.814  -2.638  1.00  0.00     0.000 C 
ENDROOT
BRANCH   1   2
ATOM      2  C   UNL     1       2.121   4.382  -2.516  1.00  0.00     0.000 C 
BRANCH   2   3
ATOM      3  C   UNL     1       2.337   2.886  -2.214  1.00  0.00     0.000 C 
BRANCH   3   4
ATOM      4  C   UNL     1       2.500   2.541  -0.719  1.00  0.00     0.000 C 
BRANCH   4   5
ATOM      5  C   UNL     1       2.818   1.062  -0.425  1.00  0.00     0.000 C 
BRANCH   5   6
ATOM      6  C   UNL     1       2.487   0.600   1.008  1.00  0.00     0.000 C 
BRANCH   6   7
ATOM      7  C   UNL     1       1.725  -0.738   1.105  1.00  0.00     0.000 C 
BRANCH   7   8
ATOM      8  C   UNL     1       1.213  -1.094   2.511  1.00  0.00     0.000 C 
BRANCH   8   9
ATOM      9  C   UNL     1       0.260  -2.298   2.514  1.00  0.00     0.000 C 
BRANCH   9  10
ATOM     10  C   UNL     1      -0.871  -2.101   3.535  1.00  0.00     0.006 C 
BRANCH  10  11
ATOM     11  C   UNL     1      -0.989  -0.643   3.997  1.00  0.00     0.053 C 
BRANCH  11  12
ATOM     12  C   UNL     1      -1.588  -0.540   5.366  1.00  0.00     0.041 C 
ATOM     13  O   UNL     1      -1.121  -1.226   6.314  1.00  0.00    -0.550 OA
ATOM     14  O   UNL     1      -2.683   0.285   5.588  1.00  0.00    -0.550 OA
ENDBRANCH  11  12
ENDBRANCH  10  11
ENDBRANCH   9  10
ENDBRANCH   8   9
ENDBRANCH   7   8
ENDBRANCH   6   7
ENDBRANCH   5   6
ENDBRANCH   4   5
ENDBRANCH   3   4
ENDBRANCH   2   3
ENDBRANCH   1   2
BRANCH   1  15
ATOM     15  C   UNL     1       0.364   5.873  -3.723  1.00  0.00     0.000 C 
BRANCH  15  16
ATOM     16  C   UNL     1      -0.509   5.393  -4.897  1.00  0.00     0.000 C 
BRANCH  16  17
ATOM     17  C   UNL     1       0.268   5.300  -6.220  1.00  0.00     0.000 C 
BRANCH  17  18
ATOM     18  C   UNL     1       0.369   6.647  -6.957  1.00  0.00    -0.000 C 
BRANCH  18  19
ATOM     19  C   UNL     1      -0.574   7.749  -6.438  1.00  0.00    -0.000 C 
BRANCH  19  20
ATOM     20  C   UNL     1      -0.242   9.139  -7.009  1.00  0.00    -0.000 C 
BRANCH  20  21
ATOM     21  C   UNL     1      -1.458   9.816  -7.661  1.00  0.00    -0.000 C 
BRANCH  21  22
ATOM     22  C   UNL     1      -1.278  10.024  -9.175  1.00  0.00    -0.000 C 
BRANCH  22  23
ATOM     23  C   UNL     1       0.186   9.823  -9.624  1.00  0.00    -0.000 C 
BRANCH  23  24
ATOM     24  C   UNL     1       0.500   8.391 -10.095  1.00  0.00    -0.000 C 
BRANCH  24  25
ATOM     25  C   UNL     1       1.996   8.033 -10.115  1.00  0.00    -0.003 C 
ATOM     26  C   UNL     1       2.268   6.586  -9.701  1.00  0.00     0.004 C 
ENDBRANCH  24  25
ENDBRANCH  23  24
ENDBRANCH  22  23
ENDBRANCH  21  22
ENDBRANCH  20  21
ENDBRANCH  19  20
ENDBRANCH  18  19
ENDBRANCH  17  18
ENDBRANCH  16  17
ENDBRANCH  15  16
ENDBRANCH   1  15
TORSDOF 22
ENDMDL
MODEL 4
REMARK VINA RESULT:     0.765      4.734     13.318
REMARK INTER + INTRA:           1.116
REMARK INTER:                   2.506
REMARK INTRA:                  -1.390
REMARK UNBOUND:                -0.632
REMARK SMILES CCCCCCCCCCCCCCCCCCCCCCCC(=O)[O-]
REMARK SMILES IDX 13 1 14 2 15 3 16 4 17 5 18 6 19 7 20 8 21 9 22 10 23 11
REMARK SMILES IDX 24 12 25 13 26 14 12 15 11 16 10 17 9 18 8 19 7 20 6 21 5 22
REMARK SMILES IDX 4 23 3 24 2 25 1 26
REMARK H PARENT
REMARK Flexibility Score: inf
ROOT
ATOM      1  C   UNL     1       2.266   3.724  -1.744  1.00  0.00     0.000 C 
ENDROOT
BRANCH   1   2
ATOM      2  C   UNL     1       1.835   4.531  -2.985  1.00  0.00     0.000 C 
BRANCH   2   3
ATOM      3  C   UNL     1       0.435   5.169  -2.890  1.00  0.00     0.000 C 
BRANCH   3   4
ATOM      4  C   UNL     1       0.017   6.008  -4.115  1.00  0.00     0.000 C 
BRANCH   4   5
ATOM      5  C   UNL     1       0.093   5.268  -5.466  1.00  0.00     0.000 C 
BRANCH   5   6
ATOM      6  C   UNL     1       0.078   6.181  -6.707  1.00  0.00     0.000 C 
BRANCH   6   7
ATOM      7  C   UNL     1       1.053   5.773  -7.831  1.00  0.00     0.000 C 
BRANCH   7   8
ATOM      8  C   UNL     1       0.767   6.410  -9.202  1.00  0.00     0.000 C 
BRANCH   8   9
ATOM      9  C   UNL     1       1.614   7.664  -9.467  1.00  0.00     0.000 C 
BRANCH   9  10
ATOM     10  C   UNL     1       0.857   8.935  -9.053  1.00  0.00     0.006 C 
BRANCH  10  11
ATOM     11  C   UNL     1      -0.428   9.136  -9.866  1.00  0.00     0.053 C 
BRANCH  11  12
ATOM     12  C   UNL     1      -1.617   9.354  -8.981  1.00  0.00     0.041 C 
ATOM     13  O   UNL     1      -2.715   9.723  -9.475  1.00  0.00    -0.550 OA
ATOM     14  O   UNL     1      -1.503   9.184  -7.607  1.00  0.00    -0.550 OA
ENDBRANCH  11  12
ENDBRANCH  10  11
ENDBRANCH   9  10
ENDBRANCH   8   9
ENDBRANCH   7   8
ENDBRANCH   6   7
ENDBRANCH   5   6
ENDBRANCH   4   5
ENDBRANCH   3   4
ENDBRANCH   2   3
ENDBRANCH   1   2
BRANCH   1  15
ATOM     15  C   UNL     1       2.022   2.204  -1.836  1.00  0.00     0.000 C 
BRANCH  15  16
ATOM     16  C   UNL     1       2.597   1.376  -0.672  1.00  0.00     0.000 C 
BRANCH  16  17
ATOM     17  C   UNL     1       1.841   0.055  -0.449  1.00  0.00     0.000 C 
BRANCH  17  18
ATOM     18  C   UNL     1       2.001  -0.496   0.979  1.00  0.00    -0.000 C 
BRANCH  18  19
ATOM     19  C   UNL     1       2.461   0.531   2.030  1.00  0.00    -0.000 C 
BRANCH  19  20
ATOM     20  C   UNL     1       1.839   0.289   3.417  1.00  0.00    -0.000 C 
BRANCH  20  21
ATOM     21  C   UNL     1       0.796   1.354   3.790  1.00  0.00    -0.000 C 
BRANCH  21  22
ATOM     22  C   UNL     1      -0.569   0.744   4.156  1.00  0.00    -0.000 C 
BRANCH  22  23
ATOM     23  C   UNL     1      -0.726  -0.698   3.625  1.00  0.00    -0.000 C 
BRANCH  23  24
ATOM     24  C   UNL     1      -1.209  -1.701   4.689  1.00  0.00    -0.000 C 
BRANCH  24  25
ATOM     25  C   UNL     1      -1.708  -1.063   5.996  1.00  0.00    -0.003 C 
ATOM     26  C   UNL     1      -1.075  -1.684   7.242  1.00  0.00     0.004 C 
ENDBRANCH  24  25
ENDBRANCH  23  24
ENDBRANCH  22  23
ENDBRANCH  21  22
ENDBRANCH  20  21
ENDBRANCH  19  20
ENDBRANCH  18  19
ENDBRANCH  17  18
ENDBRANCH  16  17
ENDBRANCH  15  16
ENDBRANCH   1  15
TORSDOF 22
ENDMDL
MODEL 5
REMARK VINA RESULT:     0.788      4.835     12.960
REMARK INTER + INTRA:           1.169
REMARK INTER:                   1.924
REMARK INTRA:                  -0.754
REMARK UNBOUND:                -0.632
REMARK SMILES CCCCCCCCCCCCCCCCCCCCCCCC(=O)[O-]
REMARK SMILES IDX 13 1 14 2 15 3 16 4 17 5 18 6 19 7 20 8 21 9 22 10 23 11
REMARK SMILES IDX 24 12 25 13 26 14 12 15 11 16 10 17 9 18 8 19 7 20 6 21 5 22
REMARK SMILES IDX 4 23 3 24 2 25 1 26
REMARK H PARENT
REMARK Flexibility Score: inf
ROOT
ATOM      1  C   UNL     1       0.019   6.423  -2.234  1.00  0.00     0.000 C 
ENDROOT
BRANCH   1   2
ATOM      2  C   UNL     1      -0.355   7.641  -3.102  1.00  0.00     0.000 C 
BRANCH   2   3
ATOM      3  C   UNL     1      -0.967   8.826  -2.329  1.00  0.00     0.000 C 
BRANCH   3   4
ATOM      4  C   UNL     1      -1.447   9.999  -3.207  1.00  0.00     0.000 C 
BRANCH   4   5
ATOM      5  C   UNL     1      -1.503   9.699  -4.718  1.00  0.00     0.000 C 
BRANCH   5   6
ATOM      6  C   UNL     1      -0.181   9.935  -5.476  1.00  0.00     0.000 C 
BRANCH   6   7
ATOM      7  C   UNL     1      -0.319  10.064  -7.007  1.00  0.00     0.000 C 
BRANCH   7   8
ATOM      8  C   UNL     1      -1.752   9.912  -7.545  1.00  0.00     0.000 C 
BRANCH   8   9
ATOM      9  C   UNL     1      -1.798   9.347  -8.973  1.00  0.00     0.000 C 
BRANCH   9  10
ATOM     10  C   UNL     1      -0.397   8.919  -9.439  1.00  0.00     0.006 C 
BRANCH  10  11
ATOM     11  C   UNL     1      -0.180   7.406  -9.309  1.00  0.00     0.053 C 
BRANCH  11  12
ATOM     12  C   UNL     1       1.276   7.058  -9.252  1.00  0.00     0.041 C 
ATOM     13  O   UNL     1       1.641   5.930  -8.827  1.00  0.00    -0.550 OA
ATOM     14  O   UNL     1       2.232   7.991  -9.634  1.00  0.00    -0.550 OA
ENDBRANCH  11  12
ENDBRANCH  10  11
ENDBRANCH   9  10
ENDBRANCH   8   9
ENDBRANCH   7   8
ENDBRANCH   6   7
ENDBRANCH   5   6
ENDBRANCH   4   5
ENDBRANCH   3   4
ENDBRANCH   2   3
ENDBRANCH   1   2
BRANCH   1  15
ATOM     15  C   UNL     1       0.428   5.162  -3.022  1.00  0.00     0.000 C 
BRANCH  15  16
ATOM     16  C   UNL     1       1.817   4.595  -2.678  1.00  0.00     0.000 C 
BRANCH  16  17
ATOM     17  C   UNL     1       1.816   3.750  -1.393  1.00  0.00     0.000 C 
BRANCH  17  18
ATOM     18  C   UNL     1       2.080   2.256  -1.654  1.00  0.00    -0.000 C 
BRANCH  18  19
ATOM     19  C   UNL     1       2.723   1.490  -0.484  1.00  0.00    -0.000 C 
BRANCH  19  20
ATOM     20  C   UNL     1       2.046   0.136  -0.210  1.00  0.00    -0.000 C 
BRANCH  20  21
ATOM     21  C   UNL     1       2.164  -0.298   1.260  1.00  0.00    -0.000 C 
BRANCH  21  22
ATOM     22  C   UNL     1       1.099  -1.335   1.658  1.00  0.00    -0.000 C 
BRANCH  22  23
ATOM     23  C   UNL     1       0.320  -0.918   2.924  1.00  0.00    -0.000 C 
BRANCH  23  24
ATOM     24  C   UNL     1      -0.834  -1.872   3.284  1.00  0.00    -0.000 C 
BRANCH  24  25
ATOM     25  C   UNL     1      -1.255  -1.843   4.764  1.00  0.00    -0.003 C 
ATOM     26  C   UNL     1      -1.599  -0.437   5.258  1.00  0.00     0.004 C 
ENDBRANCH  24  25
ENDBRANCH  23  24
ENDBRANCH  22  23
ENDBRANCH  21  22
ENDBRANCH  20  21
ENDBRANCH  19  20
ENDBRANCH  18  19
ENDBRANCH  17  18
ENDBRANCH  16  17
ENDBRANCH  15  16
ENDBRANCH   1  15
TORSDOF 22
ENDMDL
MODEL 6
REMARK VINA RESULT:     0.797      4.519     12.845
REMARK INTER + INTRA:           1.189
REMARK INTER:                   2.489
REMARK INTRA:                  -1.300
REMARK UNBOUND:                -0.632
REMARK SMILES CCCCCCCCCCCCCCCCCCCCCCCC(=O)[O-]
REMARK SMILES IDX 13 1 14 2 15 3 16 4 17 5 18 6 19 7 20 8 21 9 22 10 23 11
REMARK SMILES IDX 24 12 25 13 26 14 12 15 11 16 10 17 9 18 8 19 7 20 6 21 5 22
REMARK SMILES IDX 4 23 3 24 2 25 1 26
REMARK H PARENT
REMARK Flexibility Score: inf
ROOT
ATOM      1  C   UNL     1       1.915   4.089  -2.544  1.00  0.00     0.000 C 
ENDROOT
BRANCH   1   2
ATOM      2  C   UNL     1       0.700   5.001  -2.287  1.00  0.00     0.000 C 
BRANCH   2   3
ATOM      3  C   UNL     1       0.320   5.925  -3.461  1.00  0.00     0.000 C 
BRANCH   3   4
ATOM      4  C   UNL     1      -0.022   5.198  -4.777  1.00  0.00     0.000 C 
BRANCH   4   5
ATOM      5  C   UNL     1      -0.099   6.105  -6.020  1.00  0.00     0.000 C 
BRANCH   5   6
ATOM      6  C   UNL     1       0.620   5.558  -7.269  1.00  0.00     0.000 C 
BRANCH   6   7
ATOM      7  C   UNL     1       1.068   6.628  -8.287  1.00  0.00     0.000 C 
BRANCH   7   8
ATOM      8  C   UNL     1       0.186   6.739  -9.543  1.00  0.00     0.000 C 
BRANCH   8   9
ATOM      9  C   UNL     1      -0.112   8.194  -9.937  1.00  0.00     0.000 C 
BRANCH   9  10
ATOM     10  C   UNL     1       0.206   9.152  -8.778  1.00  0.00     0.006 C 
BRANCH  10  11
ATOM     11  C   UNL     1      -1.059   9.794  -8.192  1.00  0.00     0.053 C 
BRANCH  11  12
ATOM     12  C   UNL     1      -0.948   9.985  -6.711  1.00  0.00     0.041 C 
ATOM     13  O   UNL     1      -1.986  10.123  -6.011  1.00  0.00    -0.550 OA
ATOM     14  O   UNL     1       0.302  10.048  -6.107  1.00  0.00    -0.550 OA
ENDBRANCH  11  12
ENDBRANCH  10  11
ENDBRANCH   9  10
ENDBRANCH   8   9
ENDBRANCH   7   8
ENDBRANCH   6   7
ENDBRANCH   5   6
ENDBRANCH   4   5
ENDBRANCH   3   4
ENDBRANCH   2   3
ENDBRANCH   1   2
BRANCH   1  15
ATOM     15  C   UNL     1       2.299   3.166  -1.369  1.00  0.00     0.000 C 
BRANCH  15  16
ATOM     16  C   UNL     1       1.867   1.696  -1.521  1.00  0.00     0.000 C 
BRANCH  16  17
ATOM     17  C   UNL     1       2.712   0.734  -0.670  1.00  0.00     0.000 C 
BRANCH  17  18
ATOM     18  C   UNL     1       2.818   1.167   0.803  1.00  0.00    -0.000 C 
BRANCH  18  19
ATOM     19  C   UNL     1       2.343   0.122   1.829  1.00  0.00    -0.000 C 
BRANCH  19  20
ATOM     20  C   UNL     1       1.498  -0.998   1.196  1.00  0.00    -0.000 C 
BRANCH  20  21
ATOM     21  C   UNL     1       0.938  -1.977   2.239  1.00  0.00    -0.000 C 
BRANCH  21  22
ATOM     22  C   UNL     1      -0.565  -1.768   2.501  1.00  0.00    -0.000 C 
BRANCH  22  23
ATOM     23  C   UNL     1      -0.928  -1.932   3.993  1.00  0.00    -0.000 C 
BRANCH  23  24
ATOM     24  C   UNL     1      -0.797  -0.633   4.810  1.00  0.00    -0.000 C 
BRANCH  24  25
ATOM     25  C   UNL     1      -2.134   0.025   5.191  1.00  0.00    -0.003 C 
ATOM     26  C   UNL     1      -2.392   1.330   4.436  1.00  0.00     0.004 C 
ENDBRANCH  24  25
ENDBRANCH  23  24
ENDBRANCH  22  23
ENDBRANCH  21  22
ENDBRANCH  20  21
ENDBRANCH  19  20
ENDBRANCH  18  19
ENDBRANCH  17  18
ENDBRANCH  16  17
ENDBRANCH  15  16
ENDBRANCH   1  15
TORSDOF 22
ENDMDL
MODEL 7
REMARK VINA RESULT:     1.134      4.882     13.123
REMARK INTER + INTRA:           1.960
REMARK INTER:                   3.155
REMARK INTRA:                  -1.194
REMARK UNBOUND:                -0.632
REMARK SMILES CCCCCCCCCCCCCCCCCCCCCCCC(=O)[O-]
REMARK SMILES IDX 13 1 14 2 15 3 16 4 17 5 18 6 19 7 20 8 21 9 22 10 23 11
REMARK SMILES IDX 24 12 25 13 26 14 12 15 11 16 10 17 9 18 8 19 7 20 6 21 5 22
REMARK SMILES IDX 4 23 3 24 2 25 1 26
REMARK H PARENT
REMARK Flexibility Score: inf
ROOT
ATOM      1  C   UNL     1       0.623   4.551  -3.756  1.00  0.00     0.000 C 
ENDROOT
BRANCH   1   2
ATOM      2  C   UNL     1       0.144   5.756  -4.589  1.00  0.00     0.000 C 
BRANCH   2   3
ATOM      3  C   UNL     1       0.056   5.503  -6.107  1.00  0.00     0.000 C 
BRANCH   3   4
ATOM      4  C   UNL     1       0.515   6.680  -6.991  1.00  0.00     0.000 C 
BRANCH   4   5
ATOM      5  C   UNL     1       0.363   6.452  -8.508  1.00  0.00     0.000 C 
BRANCH   5   6
ATOM      6  C   UNL     1       1.653   6.015  -9.230  1.00  0.00     0.000 C 
BRANCH   6   7
ATOM      7  C   UNL     1       2.479   7.163  -9.845  1.00  0.00     0.000 C 
BRANCH   7   8
ATOM      8  C   UNL     1       1.690   8.454 -10.125  1.00  0.00     0.000 C 
BRANCH   8   9
ATOM      9  C   UNL     1       1.814   9.488  -8.995  1.00  0.00     0.000 C 
BRANCH   9  10
ATOM     10  C   UNL     1       0.428   9.902  -8.476  1.00  0.00     0.006 C 
BRANCH  10  11
ATOM     11  C   UNL     1      -0.598  10.042  -9.607  1.00  0.00     0.053 C 
BRANCH  11  12
ATOM     12  C   UNL     1      -1.996   9.810  -9.120  1.00  0.00     0.041 C 
ATOM     13  O   UNL     1      -2.873   9.360  -9.905  1.00  0.00    -0.550 OA
ATOM     14  O   UNL     1      -2.339  10.125  -7.812  1.00  0.00    -0.550 OA
ENDBRANCH  11  12
ENDBRANCH  10  11
ENDBRANCH   9  10
ENDBRANCH   8   9
ENDBRANCH   7   8
ENDBRANCH   6   7
ENDBRANCH   5   6
ENDBRANCH   4   5
ENDBRANCH   3   4
ENDBRANCH   2   3
ENDBRANCH   1   2
BRANCH   1  15
ATOM     15  C   UNL     1       1.790   4.847  -2.792  1.00  0.00     0.000 C 
BRANCH  15  16
ATOM     16  C   UNL     1       2.549   3.608  -2.280  1.00  0.00     0.000 C 
BRANCH  16  17
ATOM     17  C   UNL     1       1.893   2.975  -1.042  1.00  0.00     0.000 C 
BRANCH  17  18
ATOM     18  C   UNL     1       1.852   1.438  -1.103  1.00  0.00    -0.000 C 
BRANCH  18  19
ATOM     19  C   UNL     1       3.042   0.724  -0.436  1.00  0.00    -0.000 C 
BRANCH  19  20
ATOM     20  C   UNL     1       3.257   1.154   1.025  1.00  0.00    -0.000 C 
BRANCH  20  21
ATOM     21  C   UNL     1       2.961   0.024   2.024  1.00  0.00    -0.000 C 
BRANCH  21  22
ATOM     22  C   UNL     1       1.453  -0.203   2.229  1.00  0.00    -0.000 C 
BRANCH  22  23
ATOM     23  C   UNL     1       1.099  -1.701   2.358  1.00  0.00    -0.000 C 
BRANCH  23  24
ATOM     24  C   UNL     1      -0.338  -1.958   2.850  1.00  0.00    -0.000 C 
BRANCH  24  25
ATOM     25  C   UNL     1      -0.925  -0.845   3.734  1.00  0.00    -0.003 C 
ATOM     26  C   UNL     1      -1.375  -1.349   5.107  1.00  0.00     0.004 C 
ENDBRANCH  24  25
ENDBRANCH  23  24
ENDBRANCH  22  23
ENDBRANCH  21  22
ENDBRANCH  20  21
ENDBRANCH  19  20
ENDBRANCH  18  19
ENDBRANCH  17  18
ENDBRANCH  16  17
ENDBRANCH  15  16
ENDBRANCH   1  15
TORSDOF 22
ENDMDL
MODEL 8
REMARK VINA RESULT:     1.139      4.780     13.010
REMARK INTER + INTRA:           1.971
REMARK INTER:                   3.338
REMARK INTRA:                  -1.367
REMARK UNBOUND:                -0.632
REMARK SMILES CCCCCCCCCCCCCCCCCCCCCCCC(=O)[O-]
REMARK SMILES IDX 13 1 14 2 15 3 16 4 17 5 18 6 19 7 20 8 21 9 22 10 23 11
REMARK SMILES IDX 24 12 25 13 26 14 12 15 11 16 10 17 9 18 8 19 7 20 6 21 5 22
REMARK SMILES IDX 4 23 3 24 2 25 1 26
REMARK H PARENT
REMARK Flexibility Score: inf
ROOT
ATOM      1  C   UNL     1       2.032   2.939  -1.186  1.00  0.00     0.000 C 
ENDROOT
BRANCH   1   2
ATOM      2  C   UNL     1       2.550   4.143  -1.998  1.00  0.00     0.000 C 
BRANCH   2   3
ATOM      3  C   UNL     1       1.719   4.490  -3.248  1.00  0.00     0.000 C 
BRANCH   3   4
ATOM      4  C   UNL     1       0.417   5.270  -2.969  1.00  0.00     0.000 C 
BRANCH   4   5
ATOM      5  C   UNL     1      -0.240   5.903  -4.211  1.00  0.00     0.000 C 
BRANCH   5   6
ATOM      6  C   UNL     1       0.146   5.251  -5.553  1.00  0.00     0.000 C 
BRANCH   6   7
ATOM      7  C   UNL     1       0.047   6.178  -6.782  1.00  0.00     0.000 C 
BRANCH   7   8
ATOM      8  C   UNL     1       1.072   5.894  -7.894  1.00  0.00     0.000 C 
BRANCH   8   9
ATOM      9  C   UNL     1       0.747   6.621  -9.208  1.00  0.00     0.000 C 
BRANCH   9  10
ATOM     10  C   UNL     1       1.804   7.693  -9.517  1.00  0.00     0.006 C 
BRANCH  10  11
ATOM     11  C   UNL     1       1.185   9.086  -9.687  1.00  0.00     0.053 C 
BRANCH  11  12
ATOM     12  C   UNL     1       0.269   9.429  -8.552  1.00  0.00     0.041 C 
ATOM     13  O   UNL     1       0.738   9.639  -7.402  1.00  0.00    -0.550 OA
ATOM     14  O   UNL     1      -1.104   9.482  -8.757  1.00  0.00    -0.550 OA
ENDBRANCH  11  12
ENDBRANCH  10  11
ENDBRANCH   9  10
ENDBRANCH   8   9
ENDBRANCH   7   8
ENDBRANCH   6   7
ENDBRANCH   5   6
ENDBRANCH   4   5
ENDBRANCH   3   4
ENDBRANCH   2   3
ENDBRANCH   1   2
BRANCH   1  15
ATOM     15  C   UNL     1       2.580   1.568  -1.632  1.00  0.00     0.000 C 
BRANCH  15  16
ATOM     16  C   UNL     1       2.403   0.428  -0.612  1.00  0.00     0.000 C 
BRANCH  16  17
ATOM     17  C   UNL     1       2.872   0.812   0.801  1.00  0.00     0.000 C 
BRANCH  17  18
ATOM     18  C   UNL     1       2.393  -0.172   1.883  1.00  0.00    -0.000 C 
BRANCH  18  19
ATOM     19  C   UNL     1       1.304  -1.162   1.432  1.00  0.00    -0.000 C 
BRANCH  19  20
ATOM     20  C   UNL     1       0.794  -2.055   2.577  1.00  0.00    -0.000 C 
BRANCH  20  21
ATOM     21  C   UNL     1      -0.720  -1.919   2.802  1.00  0.00    -0.000 C 
BRANCH  21  22
ATOM     22  C   UNL     1      -1.137  -2.266   4.243  1.00  0.00    -0.000 C 
BRANCH  22  23
ATOM     23  C   UNL     1      -1.306  -1.007   5.122  1.00  0.00    -0.000 C 
BRANCH  23  24
ATOM     24  C   UNL     1      -1.051   0.313   4.371  1.00  0.00    -0.000 C 
BRANCH  24  25
ATOM     25  C   UNL     1       0.369   0.881   4.532  1.00  0.00    -0.003 C 
ATOM     26  C   UNL     1       0.627   2.102   3.647  1.00  0.00     0.004 C 
ENDBRANCH  24  25
ENDBRANCH  23  24
ENDBRANCH  22  23
ENDBRANCH  21  22
ENDBRANCH  20  21
ENDBRANCH  19  20
ENDBRANCH  18  19
ENDBRANCH  17  18
ENDBRANCH  16  17
ENDBRANCH  15  16
ENDBRANCH   1  15
TORSDOF 22
ENDMDL
MODEL 9
REMARK VINA RESULT:     1.187      1.501      2.806
REMARK INTER + INTRA:           2.082
REMARK INTER:                   2.996
REMARK INTRA:                  -0.914
REMARK UNBOUND:                -0.632
REMARK SMILES CCCCCCCCCCCCCCCCCCCCCCCC(=O)[O-]
REMARK SMILES IDX 13 1 14 2 15 3 16 4 17 5 18 6 19 7 20 8 21 9 22 10 23 11
REMARK SMILES IDX 24 12 25 13 26 14 12 15 11 16 10 17 9 18 8 19 7 20 6 21 5 22
REMARK SMILES IDX 4 23 3 24 2 25 1 26
REMARK H PARENT
REMARK Flexibility Score: inf
ROOT
ATOM      1  C   UNL     1       0.712   5.567  -2.044  1.00  0.00     0.000 C 
ENDROOT
BRANCH   1   2
ATOM      2  C   UNL     1       1.270   4.499  -3.005  1.00  0.00     0.000 C 
BRANCH   2   3
ATOM      3  C   UNL     1       2.385   3.613  -2.416  1.00  0.00     0.000 C 
BRANCH   3   4
ATOM      4  C   UNL     1       1.997   2.843  -1.137  1.00  0.00     0.000 C 
BRANCH   4   5
ATOM      5  C   UNL     1       2.832   1.577  -0.862  1.00  0.00     0.000 C 
BRANCH   5   6
ATOM      6  C   UNL     1       2.025   0.364  -0.360  1.00  0.00     0.000 C 
BRANCH   6   7
ATOM      7  C   UNL     1       2.067   0.135   1.165  1.00  0.00     0.000 C 
BRANCH   7   8
ATOM      8  C   UNL     1       1.645  -1.272   1.623  1.00  0.00     0.000 C 
BRANCH   8   9
ATOM      9  C   UNL     1       0.206  -1.321   2.157  1.00  0.00     0.000 C 
BRANCH   9  10
ATOM     10  C   UNL     1       0.116  -2.204   3.412  1.00  0.00     0.006 C 
BRANCH  10  11
ATOM     11  C   UNL     1      -1.265  -2.129   4.076  1.00  0.00     0.053 C 
BRANCH  11  12
ATOM     12  C   UNL     1      -1.324  -1.049   5.113  1.00  0.00     0.041 C 
ATOM     13  O   UNL     1      -1.541   0.144   4.772  1.00  0.00    -0.550 OA
ATOM     14  O   UNL     1      -1.105  -1.354   6.450  1.00  0.00    -0.550 OA
ENDBRANCH  11  12
ENDBRANCH  10  11
ENDBRANCH   9  10
ENDBRANCH   8   9
ENDBRANCH   7   8
ENDBRANCH   6   7
ENDBRANCH   5   6
ENDBRANCH   4   5
ENDBRANCH   3   4
ENDBRANCH   2   3
ENDBRANCH   1   2
BRANCH   1  15
ATOM     15  C   UNL     1      -0.056   6.719  -2.724  1.00  0.00     0.000 C 
BRANCH  15  16
ATOM     16  C   UNL     1      -0.597   7.800  -1.769  1.00  0.00     0.000 C 
BRANCH  16  17
ATOM     17  C   UNL     1      -1.225   8.991  -2.511  1.00  0.00     0.000 C 
BRANCH  17  18
ATOM     18  C   UNL     1      -0.757   9.107  -3.972  1.00  0.00    -0.000 C 
BRANCH  18  19
ATOM     19  C   UNL     1      -1.546  10.107  -4.836  1.00  0.00    -0.000 C 
BRANCH  19  20
ATOM     20  C   UNL     1      -1.123  10.085  -6.316  1.00  0.00    -0.000 C 
BRANCH  20  21
ATOM     21  C   UNL     1       0.403  10.054  -6.494  1.00  0.00    -0.000 C 
BRANCH  21  22
ATOM     22  C   UNL     1       0.824   9.768  -7.946  1.00  0.00    -0.000 C 
BRANCH  22  23
ATOM     23  C   UNL     1      -0.391   9.588  -8.883  1.00  0.00    -0.000 C 
BRANCH  23  24
ATOM     24  C   UNL     1      -0.774   8.117  -9.126  1.00  0.00    -0.000 C 
BRANCH  24  25
ATOM     25  C   UNL     1       0.417   7.146  -9.207  1.00  0.00    -0.003 C 
ATOM     26  C   UNL     1       0.658   6.388  -7.901  1.00  0.00     0.004 C 
ENDBRANCH  24  25
ENDBRANCH  23  24
ENDBRANCH  22  23
ENDBRANCH  21  22
ENDBRANCH  20  21
ENDBRANCH  19  20
ENDBRANCH  18  19
ENDBRANCH  17  18
ENDBRANCH  16  17
ENDBRANCH  15  16
ENDBRANCH   1  15
TORSDOF 22
ENDMDL
