MODEL 1
REMARK VINA RESULT:    -8.008      0.000      0.000
REMARK INTER + INTRA:          -9.958
REMARK INTER:                  -9.646
REMARK INTRA:                  -0.312
REMARK UNBOUND:                -0.312
REMARK SMILES Oc1cc(O)c2c(c1)O[C@H](c1ccc(O)c(O)c1)[C@H](O)C2
REMARK SMILES IDX 21 1 19 2 10 3 9 4 7 5 8 6 2 7 3 8 4 9 6 10 20 11 11 13
REMARK SMILES IDX 18 14 12 15 16 16 13 17 14 18 17 19 15 21 5 23 1 25
REMARK H PARENT 20 12 17 20 15 22 5 24 1 26
REMARK Flexibility Score: inf
ROOT
ATOM      1  C   UNL     1     -28.514  12.006  56.186  1.00  0.00     0.079 C 
ATOM      2  C   UNL     1     -28.306  13.530  56.095  1.00  0.00     0.164 C 
ATOM      3  C   UNL     1     -27.027  13.832  55.280  1.00  0.00     0.232 C 
ATOM      4  O   UNL     1     -25.913  13.174  55.890  1.00  0.00    -0.482 OA
ATOM      5  C   UNL     1     -26.006  11.893  56.446  1.00  0.00     0.131 A 
ATOM      6  C   UNL     1     -24.841  11.229  56.839  1.00  0.00     0.093 A 
ATOM      7  C   UNL     1     -24.912   9.948  57.394  1.00  0.00     0.122 A 
ATOM      8  C   UNL     1     -26.157   9.329  57.558  1.00  0.00     0.092 A 
ATOM      9  C   UNL     1     -27.334   9.989  57.174  1.00  0.00     0.126 A 
ATOM     10  C   UNL     1     -27.264  11.286  56.633  1.00  0.00     0.039 A 
ENDROOT
BRANCH   2  11
ATOM     11  O   UNL     1     -28.188  14.072  57.387  1.00  0.00    -0.389 OA
ATOM     12  H   UNL     1     -27.362  14.622  57.391  1.00  0.00     0.211 HD
ENDBRANCH   2  11
BRANCH   3  13
ATOM     13  C   UNL     1     -26.698  15.307  55.094  1.00  0.00    -0.001 A 
ATOM     14  C   UNL     1     -27.373  16.020  54.087  1.00  0.00     0.057 A 
ATOM     15  C   UNL     1     -25.806  16.009  55.928  1.00  0.00     0.012 A 
ATOM     16  C   UNL     1     -27.147  17.387  53.884  1.00  0.00     0.157 A 
ATOM     17  C   UNL     1     -25.575  17.372  55.732  1.00  0.00     0.050 A 
ATOM     18  C   UNL     1     -26.232  18.071  54.716  1.00  0.00     0.157 A 
BRANCH  16  19
ATOM     19  O   UNL     1     -27.848  18.019  52.855  1.00  0.00    -0.504 OA
ATOM     20  H   UNL     1     -27.416  18.384  52.019  1.00  0.00     0.293 HD
ENDBRANCH  16  19
BRANCH  18  21
ATOM     21  O   UNL     1     -25.953  19.432  54.574  1.00  0.00    -0.504 OA
ATOM     22  H   UNL     1     -25.117  19.794  54.138  1.00  0.00     0.293 HD
ENDBRANCH  18  21
ENDBRANCH   3  13
BRANCH   9  23
ATOM     23  O   UNL     1     -28.569   9.360  57.329  1.00  0.00    -0.507 OA
ATOM     24  H   UNL     1     -29.415   9.888  57.507  1.00  0.00     0.293 HD
ENDBRANCH   9  23
BRANCH   7  25
ATOM     25  O   UNL     1     -23.741   9.298  57.773  1.00  0.00    -0.508 OA
ATOM     26  H   UNL     1     -23.305   8.602  57.180  1.00  0.00     0.293 HD
ENDBRANCH   7  25
TORSDOF 6
ENDMDL
MODEL 2
REMARK VINA RESULT:    -8.005      2.400      6.739
REMARK INTER + INTRA:          -9.955
REMARK INTER:                  -9.645
REMARK INTRA:                  -0.310
REMARK UNBOUND:                -0.312
REMARK SMILES Oc1cc(O)c2c(c1)O[C@H](c1ccc(O)c(O)c1)[C@H](O)C2
REMARK SMILES IDX 21 1 19 2 10 3 9 4 7 5 8 6 2 7 3 8 4 9 6 10 20 11 11 13
REMARK SMILES IDX 18 14 12 15 16 16 13 17 14 18 17 19 15 21 5 23 1 25
REMARK H PARENT 20 12 17 20 15 22 5 24 1 26
REMARK Flexibility Score: inf
ROOT
ATOM      1  C   UNL     1     -28.798  12.663  53.958  1.00  0.00     0.079 C 
ATOM      2  C   UNL     1     -27.441  11.943  54.069  1.00  0.00     0.164 C 
ATOM      3  C   UNL     1     -26.472  12.789  54.925  1.00  0.00     0.232 C 
ATOM      4  O   UNL     1     -26.342  14.090  54.344  1.00  0.00    -0.482 OA
ATOM      5  C   UNL     1     -27.423  14.772  53.775  1.00  0.00     0.131 A 
ATOM      6  C   UNL     1     -27.275  16.113  53.412  1.00  0.00     0.093 A 
ATOM      7  C   UNL     1     -28.343  16.813  52.845  1.00  0.00     0.122 A 
ATOM      8  C   UNL     1     -29.567  16.166  52.636  1.00  0.00     0.092 A 
ATOM      9  C   UNL     1     -29.726  14.817  52.989  1.00  0.00     0.126 A 
ATOM     10  C   UNL     1     -28.644  14.107  53.544  1.00  0.00     0.039 A 
ENDROOT
BRANCH   2  11
ATOM     11  O   UNL     1     -26.900  11.748  52.786  1.00  0.00    -0.389 OA
ATOM     12  H   UNL     1     -27.121  10.818  52.520  1.00  0.00     0.211 HD
ENDBRANCH   2  11
BRANCH   3  13
ATOM     13  C   UNL     1     -25.086  12.192  55.134  1.00  0.00    -0.001 A 
ATOM     14  C   UNL     1     -24.923  11.214  56.131  1.00  0.00     0.057 A 
ATOM     15  C   UNL     1     -23.978  12.519  54.328  1.00  0.00     0.012 A 
ATOM     16  C   UNL     1     -23.686  10.598  56.353  1.00  0.00     0.157 A 
ATOM     17  C   UNL     1     -22.740  11.908  54.543  1.00  0.00     0.050 A 
ATOM     18  C   UNL     1     -22.578  10.953  55.550  1.00  0.00     0.157 A 
BRANCH  16  19
ATOM     19  O   UNL     1     -23.605   9.645  57.371  1.00  0.00    -0.504 OA
ATOM     20  H   UNL     1     -23.371   8.675  57.218  1.00  0.00     0.293 HD
ENDBRANCH  16  19
BRANCH  18  21
ATOM     21  O   UNL     1     -21.313  10.383  55.713  1.00  0.00    -0.504 OA
ATOM     22  H   UNL     1     -21.028   9.867  56.533  1.00  0.00     0.293 HD
ENDBRANCH  18  21
ENDBRANCH   3  13
BRANCH   9  23
ATOM     23  O   UNL     1     -30.952  14.183  52.791  1.00  0.00    -0.507 OA
ATOM     24  H   UNL     1     -31.428  13.700  53.543  1.00  0.00     0.293 HD
ENDBRANCH   9  23
BRANCH   7  25
ATOM     25  O   UNL     1     -28.180  18.151  52.496  1.00  0.00    -0.508 OA
ATOM     26  H   UNL     1     -28.747  18.584  51.776  1.00  0.00     0.293 HD
ENDBRANCH   7  25
TORSDOF 6
ENDMDL
MODEL 3
REMARK VINA RESULT:    -7.841      2.800      6.583
REMARK INTER + INTRA:          -9.758
REMARK INTER:                  -9.369
REMARK INTRA:                  -0.389
REMARK UNBOUND:                -0.312
REMARK SMILES Oc1cc(O)c2c(c1)O[C@H](c1ccc(O)c(O)c1)[C@H](O)C2
REMARK SMILES IDX 21 1 19 2 10 3 9 4 7 5 8 6 2 7 3 8 4 9 6 10 20 11 11 13
REMARK SMILES IDX 18 14 12 15 16 16 13 17 14 18 17 19 15 21 5 23 1 25
REMARK H PARENT 20 12 17 20 15 22 5 24 1 26
REMARK Flexibility Score: inf
ROOT
ATOM      1  C   UNL     1     -28.709  12.543  53.856  1.00  0.00     0.079 C 
ATOM      2  C   UNL     1     -27.355  11.809  53.866  1.00  0.00     0.164 C 
ATOM      3  C   UNL     1     -26.329  12.623  54.686  1.00  0.00     0.232 C 
ATOM      4  O   UNL     1     -26.222  13.939  54.136  1.00  0.00    -0.482 OA
ATOM      5  C   UNL     1     -27.328  14.645  53.651  1.00  0.00     0.131 A 
ATOM      6  C   UNL     1     -27.189  15.995  53.318  1.00  0.00     0.093 A 
ATOM      7  C   UNL     1     -28.282  16.719  52.834  1.00  0.00     0.122 A 
ATOM      8  C   UNL     1     -29.522  16.087  52.680  1.00  0.00     0.092 A 
ATOM      9  C   UNL     1     -29.672  14.730  53.004  1.00  0.00     0.126 A 
ATOM     10  C   UNL     1     -28.566  13.997  53.474  1.00  0.00     0.039 A 
ENDROOT
BRANCH   2  11
ATOM     11  O   UNL     1     -26.892  11.647  52.548  1.00  0.00    -0.389 OA
ATOM     12  H   UNL     1     -27.042  12.511  52.085  1.00  0.00     0.211 HD
ENDBRANCH   2  11
BRANCH   3  13
ATOM     13  C   UNL     1     -24.939  12.010  54.797  1.00  0.00    -0.001 A 
ATOM     14  C   UNL     1     -23.844  12.747  54.312  1.00  0.00     0.057 A 
ATOM     15  C   UNL     1     -24.689  10.776  55.427  1.00  0.00     0.012 A 
ATOM     16  C   UNL     1     -22.535  12.260  54.414  1.00  0.00     0.157 A 
ATOM     17  C   UNL     1     -23.387  10.283  55.533  1.00  0.00     0.050 A 
ATOM     18  C   UNL     1     -22.304  11.009  55.030  1.00  0.00     0.157 A 
BRANCH  16  19
ATOM     19  O   UNL     1     -21.504  13.048  53.897  1.00  0.00    -0.504 OA
ATOM     20  H   UNL     1     -21.241  13.948  54.268  1.00  0.00     0.293 HD
ENDBRANCH  16  19
BRANCH  18  21
ATOM     21  O   UNL     1     -21.028  10.458  55.166  1.00  0.00    -0.504 OA
ATOM     22  H   UNL     1     -20.359  10.391  54.413  1.00  0.00     0.293 HD
ENDBRANCH  18  21
ENDBRANCH   3  13
BRANCH   9  23
ATOM     23  O   UNL     1     -30.914  14.112  52.860  1.00  0.00    -0.507 OA
ATOM     24  H   UNL     1     -31.680  14.565  52.377  1.00  0.00     0.293 HD
ENDBRANCH   9  23
BRANCH   7  25
ATOM     25  O   UNL     1     -28.127  18.065  52.513  1.00  0.00    -0.508 OA
ATOM     26  H   UNL     1     -27.236  18.535  52.621  1.00  0.00     0.293 HD
ENDBRANCH   7  25
TORSDOF 6
ENDMDL
MODEL 4
REMARK VINA RESULT:    -7.639      1.845      3.445
REMARK INTER + INTRA:          -9.514
REMARK INTER:                  -9.255
REMARK INTRA:                  -0.259
REMARK UNBOUND:                -0.312
REMARK SMILES Oc1cc(O)c2c(c1)O[C@H](c1ccc(O)c(O)c1)[C@H](O)C2
REMARK SMILES IDX 21 1 19 2 10 3 9 4 7 5 8 6 2 7 3 8 4 9 6 10 20 11 11 13
REMARK SMILES IDX 18 14 12 15 16 16 13 17 14 18 17 19 15 21 5 23 1 25
REMARK H PARENT 20 12 17 20 15 22 5 24 1 26
REMARK Flexibility Score: inf
ROOT
ATOM      1  C   UNL     1     -24.146  12.605  54.813  1.00  0.00     0.079 C 
ATOM      2  C   UNL     1     -25.135  13.303  53.861  1.00  0.00     0.164 C 
ATOM      3  C   UNL     1     -26.311  13.892  54.673  1.00  0.00     0.232 C 
ATOM      4  O   UNL     1     -26.936  12.847  55.424  1.00  0.00    -0.482 OA
ATOM      5  C   UNL     1     -26.208  11.823  56.041  1.00  0.00     0.131 A 
ATOM      6  C   UNL     1     -26.855  10.956  56.925  1.00  0.00     0.093 A 
ATOM      7  C   UNL     1     -26.146   9.929  57.553  1.00  0.00     0.122 A 
ATOM      8  C   UNL     1     -24.779   9.767  57.293  1.00  0.00     0.092 A 
ATOM      9  C   UNL     1     -24.120  10.627  56.401  1.00  0.00     0.126 A 
ATOM     10  C   UNL     1     -24.839  11.650  55.755  1.00  0.00     0.039 A 
ENDROOT
BRANCH   2  11
ATOM     11  O   UNL     1     -25.621  12.378  52.920  1.00  0.00    -0.389 OA
ATOM     12  H   UNL     1     -25.444  12.763  52.023  1.00  0.00     0.211 HD
ENDBRANCH   2  11
BRANCH   3  13
ATOM     13  C   UNL     1     -27.369  14.628  53.861  1.00  0.00    -0.001 A 
ATOM     14  C   UNL     1     -27.185  16.000  53.612  1.00  0.00     0.057 A 
ATOM     15  C   UNL     1     -28.483  13.986  53.286  1.00  0.00     0.012 A 
ATOM     16  C   UNL     1     -28.099  16.729  52.842  1.00  0.00     0.157 A 
ATOM     17  C   UNL     1     -29.399  14.707  52.518  1.00  0.00     0.050 A 
ATOM     18  C   UNL     1     -29.223  16.075  52.291  1.00  0.00     0.157 A 
BRANCH  16  19
ATOM     19  O   UNL     1     -27.850  18.090  52.651  1.00  0.00    -0.504 OA
ATOM     20  H   UNL     1     -26.943  18.519  52.761  1.00  0.00     0.293 HD
ENDBRANCH  16  19
BRANCH  18  21
ATOM     21  O   UNL     1     -30.178  16.736  51.515  1.00  0.00    -0.504 OA
ATOM     22  H   UNL     1     -30.411  16.479  50.567  1.00  0.00     0.293 HD
ENDBRANCH  18  21
ENDBRANCH   3  13
BRANCH   9  23
ATOM     23  O   UNL     1     -22.756  10.467  56.158  1.00  0.00    -0.507 OA
ATOM     24  H   UNL     1     -22.218  11.170  55.667  1.00  0.00     0.293 HD
ENDBRANCH   9  23
BRANCH   7  25
ATOM     25  O   UNL     1     -26.806   9.079  58.435  1.00  0.00    -0.508 OA
ATOM     26  H   UNL     1     -26.307   8.580  59.164  1.00  0.00     0.293 HD
ENDBRANCH   7  25
TORSDOF 6
ENDMDL
MODEL 5
REMARK VINA RESULT:    -7.509      1.688      7.163
REMARK INTER + INTRA:          -9.357
REMARK INTER:                  -9.010
REMARK INTRA:                  -0.347
REMARK UNBOUND:                -0.312
REMARK SMILES Oc1cc(O)c2c(c1)O[C@H](c1ccc(O)c(O)c1)[C@H](O)C2
REMARK SMILES IDX 21 1 19 2 10 3 9 4 7 5 8 6 2 7 3 8 4 9 6 10 20 11 11 13
REMARK SMILES IDX 18 14 12 15 16 16 13 17 14 18 17 19 15 21 5 23 1 25
REMARK H PARENT 20 12 17 20 15 22 5 24 1 26
REMARK Flexibility Score: inf
ROOT
ATOM      1  C   UNL     1     -26.066  15.533  54.937  1.00  0.00     0.079 C 
ATOM      2  C   UNL     1     -25.978  14.361  55.932  1.00  0.00     0.164 C 
ATOM      3  C   UNL     1     -26.296  13.036  55.203  1.00  0.00     0.232 C 
ATOM      4  O   UNL     1     -27.588  13.129  54.597  1.00  0.00    -0.482 OA
ATOM      5  C   UNL     1     -28.052  14.299  53.985  1.00  0.00     0.131 A 
ATOM      6  C   UNL     1     -29.231  14.263  53.237  1.00  0.00     0.093 A 
ATOM      7  C   UNL     1     -29.709  15.420  52.617  1.00  0.00     0.122 A 
ATOM      8  C   UNL     1     -29.003  16.622  52.748  1.00  0.00     0.092 A 
ATOM      9  C   UNL     1     -27.822  16.673  53.503  1.00  0.00     0.126 A 
ATOM     10  C   UNL     1     -27.350  15.511  54.143  1.00  0.00     0.039 A 
ENDROOT
BRANCH   2  11
ATOM     11  O   UNL     1     -26.892  14.559  56.983  1.00  0.00    -0.389 OA
ATOM     12  H   UNL     1     -26.933  15.537  57.145  1.00  0.00     0.211 HD
ENDBRANCH   2  11
BRANCH   3  13
ATOM     13  C   UNL     1     -26.234  11.780  56.063  1.00  0.00    -0.001 A 
ATOM     14  C   UNL     1     -24.971  11.288  56.436  1.00  0.00     0.057 A 
ATOM     15  C   UNL     1     -27.380  11.132  56.563  1.00  0.00     0.012 A 
ATOM     16  C   UNL     1     -24.841  10.159  57.255  1.00  0.00     0.157 A 
ATOM     17  C   UNL     1     -27.259  10.006  57.380  1.00  0.00     0.050 A 
ATOM     18  C   UNL     1     -26.001   9.508  57.730  1.00  0.00     0.157 A 
BRANCH  16  19
ATOM     19  O   UNL     1     -23.551   9.727  57.569  1.00  0.00    -0.504 OA
ATOM     20  H   UNL     1     -22.713  10.249  57.359  1.00  0.00     0.293 HD
ENDBRANCH  16  19
BRANCH  18  21
ATOM     21  O   UNL     1     -25.952   8.377  58.548  1.00  0.00    -0.504 OA
ATOM     22  H   UNL     1     -25.964   7.428  58.201  1.00  0.00     0.293 HD
ENDBRANCH  18  21
ENDBRANCH   3  13
BRANCH   9  23
ATOM     23  O   UNL     1     -27.118  17.871  53.617  1.00  0.00    -0.507 OA
ATOM     24  H   UNL     1     -26.135  17.935  53.379  1.00  0.00     0.293 HD
ENDBRANCH   9  23
BRANCH   7  25
ATOM     25  O   UNL     1     -30.883  15.364  51.870  1.00  0.00    -0.508 OA
ATOM     26  H   UNL     1     -31.451  16.189  51.713  1.00  0.00     0.293 HD
ENDBRANCH   7  25
TORSDOF 6
ENDMDL
MODEL 6
REMARK VINA RESULT:    -7.479      1.383      1.807
REMARK INTER + INTRA:          -9.321
REMARK INTER:                  -8.952
REMARK INTRA:                  -0.369
REMARK UNBOUND:                -0.312
REMARK SMILES Oc1cc(O)c2c(c1)O[C@H](c1ccc(O)c(O)c1)[C@H](O)C2
REMARK SMILES IDX 21 1 19 2 10 3 9 4 7 5 8 6 2 7 3 8 4 9 6 10 20 11 11 13
REMARK SMILES IDX 18 14 12 15 16 16 13 17 14 18 17 19 15 21 5 23 1 25
REMARK H PARENT 20 12 17 20 15 22 5 24 1 26
REMARK Flexibility Score: inf
ROOT
ATOM      1  C   UNL     1     -29.099  11.088  56.134  1.00  0.00     0.079 C 
ATOM      2  C   UNL     1     -29.189  12.549  55.656  1.00  0.00     0.164 C 
ATOM      3  C   UNL     1     -28.072  12.828  54.626  1.00  0.00     0.232 C 
ATOM      4  O   UNL     1     -26.802  12.535  55.216  1.00  0.00    -0.482 OA
ATOM      5  C   UNL     1     -26.601  11.443  56.067  1.00  0.00     0.131 A 
ATOM      6  C   UNL     1     -25.301  11.095  56.443  1.00  0.00     0.093 A 
ATOM      7  C   UNL     1     -25.080  10.006  57.291  1.00  0.00     0.122 A 
ATOM      8  C   UNL     1     -26.166   9.262  57.767  1.00  0.00     0.092 A 
ATOM      9  C   UNL     1     -27.476   9.607  57.402  1.00  0.00     0.126 A 
ATOM     10  C   UNL     1     -27.701  10.714  56.563  1.00  0.00     0.039 A 
ENDROOT
BRANCH   2  11
ATOM     11  O   UNL     1     -29.055  13.418  56.753  1.00  0.00    -0.389 OA
ATOM     12  H   UNL     1     -28.323  13.056  57.316  1.00  0.00     0.211 HD
ENDBRANCH   2  11
BRANCH   3  13
ATOM     13  C   UNL     1     -28.043  14.239  54.050  1.00  0.00    -0.001 A 
ATOM     14  C   UNL     1     -29.157  14.682  53.315  1.00  0.00     0.057 A 
ATOM     15  C   UNL     1     -26.989  15.144  54.282  1.00  0.00     0.012 A 
ATOM     16  C   UNL     1     -29.214  15.979  52.789  1.00  0.00     0.157 A 
ATOM     17  C   UNL     1     -27.039  16.438  53.761  1.00  0.00     0.050 A 
ATOM     18  C   UNL     1     -28.138  16.867  53.012  1.00  0.00     0.157 A 
BRANCH  16  19
ATOM     19  O   UNL     1     -30.350  16.338  52.060  1.00  0.00    -0.504 OA
ATOM     20  H   UNL     1     -31.071  15.688  51.783  1.00  0.00     0.293 HD
ENDBRANCH  16  19
BRANCH  18  21
ATOM     21  O   UNL     1     -28.122  18.174  52.518  1.00  0.00    -0.504 OA
ATOM     22  H   UNL     1     -27.427  18.863  52.769  1.00  0.00     0.293 HD
ENDBRANCH  18  21
ENDBRANCH   3  13
BRANCH   9  23
ATOM     23  O   UNL     1     -28.552   8.852  57.870  1.00  0.00    -0.507 OA
ATOM     24  H   UNL     1     -28.820   7.980  57.431  1.00  0.00     0.293 HD
ENDBRANCH   9  23
BRANCH   7  25
ATOM     25  O   UNL     1     -23.777   9.670  57.650  1.00  0.00    -0.508 OA
ATOM     26  H   UNL     1     -23.537   9.425  58.604  1.00  0.00     0.293 HD
ENDBRANCH   7  25
TORSDOF 6
ENDMDL
MODEL 7
REMARK VINA RESULT:    -7.438      2.421      3.769
REMARK INTER + INTRA:          -9.272
REMARK INTER:                  -9.103
REMARK INTRA:                  -0.169
REMARK UNBOUND:                -0.312
REMARK SMILES Oc1cc(O)c2c(c1)O[C@H](c1ccc(O)c(O)c1)[C@H](O)C2
REMARK SMILES IDX 21 1 19 2 10 3 9 4 7 5 8 6 2 7 3 8 4 9 6 10 20 11 11 13
REMARK SMILES IDX 18 14 12 15 16 16 13 17 14 18 17 19 15 21 5 23 1 25
REMARK H PARENT 20 12 17 20 15 22 5 24 1 26
REMARK Flexibility Score: inf
ROOT
ATOM      1  C   UNL     1     -24.696  10.956  55.142  1.00  0.00     0.079 C 
ATOM      2  C   UNL     1     -25.440  11.505  53.910  1.00  0.00     0.164 C 
ATOM      3  C   UNL     1     -25.599  13.037  54.040  1.00  0.00     0.232 C 
ATOM      4  O   UNL     1     -26.285  13.339  55.258  1.00  0.00    -0.482 OA
ATOM      5  C   UNL     1     -26.054  12.637  56.447  1.00  0.00     0.131 A 
ATOM      6  C   UNL     1     -26.601  13.112  57.642  1.00  0.00     0.093 A 
ATOM      7  C   UNL     1     -26.380  12.427  58.840  1.00  0.00     0.122 A 
ATOM      8  C   UNL     1     -25.608  11.258  58.842  1.00  0.00     0.092 A 
ATOM      9  C   UNL     1     -25.061  10.768  57.646  1.00  0.00     0.126 A 
ATOM     10  C   UNL     1     -25.299  11.448  56.437  1.00  0.00     0.039 A 
ENDROOT
BRANCH   2  11
ATOM     11  O   UNL     1     -26.705  10.901  53.810  1.00  0.00    -0.389 OA
ATOM     12  H   UNL     1     -27.369  11.578  54.102  1.00  0.00     0.211 HD
ENDBRANCH   2  11
BRANCH   3  13
ATOM     13  C   UNL     1     -26.308  13.726  52.881  1.00  0.00    -0.001 A 
ATOM     14  C   UNL     1     -26.794  15.032  53.076  1.00  0.00     0.057 A 
ATOM     15  C   UNL     1     -26.435  13.148  51.603  1.00  0.00     0.012 A 
ATOM     16  C   UNL     1     -27.423  15.737  52.044  1.00  0.00     0.157 A 
ATOM     17  C   UNL     1     -27.061  13.846  50.568  1.00  0.00     0.050 A 
ATOM     18  C   UNL     1     -27.562  15.134  50.773  1.00  0.00     0.157 A 
BRANCH  16  19
ATOM     19  O   UNL     1     -27.889  17.024  52.322  1.00  0.00    -0.504 OA
ATOM     20  H   UNL     1     -28.489  17.251  53.101  1.00  0.00     0.293 HD
ENDBRANCH  16  19
BRANCH  18  21
ATOM     21  O   UNL     1     -28.179  15.774  49.696  1.00  0.00    -0.504 OA
ATOM     22  H   UNL     1     -27.728  16.470  49.120  1.00  0.00     0.293 HD
ENDBRANCH  18  21
ENDBRANCH   3  13
BRANCH   9  23
ATOM     23  O   UNL     1     -24.283   9.610  57.659  1.00  0.00    -0.507 OA
ATOM     24  H   UNL     1     -24.699   8.691  57.743  1.00  0.00     0.293 HD
ENDBRANCH   9  23
BRANCH   7  25
ATOM     25  O   UNL     1     -26.927  12.917  60.022  1.00  0.00    -0.508 OA
ATOM     26  H   UNL     1     -27.732  13.532  60.018  1.00  0.00     0.293 HD
ENDBRANCH   7  25
TORSDOF 6
ENDMDL
MODEL 8
REMARK VINA RESULT:    -7.277      2.368      3.163
REMARK INTER + INTRA:          -9.078
REMARK INTER:                  -8.718
REMARK INTRA:                  -0.360
REMARK UNBOUND:                -0.312
REMARK SMILES Oc1cc(O)c2c(c1)O[C@H](c1ccc(O)c(O)c1)[C@H](O)C2
REMARK SMILES IDX 21 1 19 2 10 3 9 4 7 5 8 6 2 7 3 8 4 9 6 10 20 11 11 13
REMARK SMILES IDX 18 14 12 15 16 16 13 17 14 18 17 19 15 21 5 23 1 25
REMARK H PARENT 20 12 17 20 15 22 5 24 1 26
REMARK Flexibility Score: inf
ROOT
ATOM      1  C   UNL     1     -27.757  14.051  57.402  1.00  0.00     0.079 C 
ATOM      2  C   UNL     1     -27.760  14.712  56.011  1.00  0.00     0.164 C 
ATOM      3  C   UNL     1     -27.963  13.632  54.924  1.00  0.00     0.232 C 
ATOM      4  O   UNL     1     -26.938  12.642  55.045  1.00  0.00    -0.482 OA
ATOM      5  C   UNL     1     -26.466  12.193  56.284  1.00  0.00     0.131 A 
ATOM      6  C   UNL     1     -25.616  11.085  56.334  1.00  0.00     0.093 A 
ATOM      7  C   UNL     1     -25.137  10.620  57.562  1.00  0.00     0.122 A 
ATOM      8  C   UNL     1     -25.508  11.269  58.746  1.00  0.00     0.092 A 
ATOM      9  C   UNL     1     -26.354  12.387  58.706  1.00  0.00     0.126 A 
ATOM     10  C   UNL     1     -26.823  12.867  57.469  1.00  0.00     0.039 A 
ENDROOT
BRANCH   2  11
ATOM     11  O   UNL     1     -26.541  15.380  55.799  1.00  0.00    -0.389 OA
ATOM     12  H   UNL     1     -26.729  16.350  55.885  1.00  0.00     0.211 HD
ENDBRANCH   2  11
BRANCH   3  13
ATOM     13  C   UNL     1     -28.001  14.142  53.489  1.00  0.00    -0.001 A 
ATOM     14  C   UNL     1     -28.878  15.197  53.178  1.00  0.00     0.057 A 
ATOM     15  C   UNL     1     -27.149  13.659  52.477  1.00  0.00     0.012 A 
ATOM     16  C   UNL     1     -28.938  15.739  51.888  1.00  0.00     0.157 A 
ATOM     17  C   UNL     1     -27.203  14.194  51.188  1.00  0.00     0.050 A 
ATOM     18  C   UNL     1     -28.091  15.227  50.879  1.00  0.00     0.157 A 
BRANCH  16  19
ATOM     19  O   UNL     1     -29.844  16.776  51.658  1.00  0.00    -0.504 OA
ATOM     20  H   UNL     1     -29.643  17.750  51.832  1.00  0.00     0.293 HD
ENDBRANCH  16  19
BRANCH  18  21
ATOM     21  O   UNL     1     -28.096  15.715  49.570  1.00  0.00    -0.504 OA
ATOM     22  H   UNL     1     -28.878  15.625  48.937  1.00  0.00     0.293 HD
ENDBRANCH  18  21
ENDBRANCH   3  13
BRANCH   9  23
ATOM     23  O   UNL     1     -26.730  13.020  59.891  1.00  0.00    -0.507 OA
ATOM     24  H   UNL     1     -26.236  12.857  60.760  1.00  0.00     0.293 HD
ENDBRANCH   9  23
BRANCH   7  25
ATOM     25  O   UNL     1     -24.296   9.511  57.594  1.00  0.00    -0.508 OA
ATOM     26  H   UNL     1     -24.424   8.768  58.272  1.00  0.00     0.293 HD
ENDBRANCH   7  25
TORSDOF 6
ENDMDL
MODEL 9
REMARK VINA RESULT:    -7.270      2.736      3.736
REMARK INTER + INTRA:          -9.070
REMARK INTER:                  -8.696
REMARK INTRA:                  -0.374
REMARK UNBOUND:                -0.312
REMARK SMILES Oc1cc(O)c2c(c1)O[C@H](c1ccc(O)c(O)c1)[C@H](O)C2
REMARK SMILES IDX 21 1 19 2 10 3 9 4 7 5 8 6 2 7 3 8 4 9 6 10 20 11 11 13
REMARK SMILES IDX 18 14 12 15 16 16 13 17 14 18 17 19 15 21 5 23 1 25
REMARK H PARENT 20 12 17 20 15 22 5 24 1 26
REMARK Flexibility Score: inf
ROOT
ATOM      1  C   UNL     1     -27.668  15.754  58.246  1.00  0.00     0.079 C 
ATOM      2  C   UNL     1     -27.415  16.141  56.777  1.00  0.00     0.164 C 
ATOM      3  C   UNL     1     -27.876  14.993  55.851  1.00  0.00     0.232 C 
ATOM      4  O   UNL     1     -27.191  13.791  56.213  1.00  0.00    -0.482 OA
ATOM      5  C   UNL     1     -26.928  13.446  57.544  1.00  0.00     0.131 A 
ATOM      6  C   UNL     1     -26.443  12.169  57.839  1.00  0.00     0.093 A 
ATOM      7  C   UNL     1     -26.175  11.804  59.161  1.00  0.00     0.122 A 
ATOM      8  C   UNL     1     -26.393  12.724  60.195  1.00  0.00     0.092 A 
ATOM      9  C   UNL     1     -26.873  14.012  59.909  1.00  0.00     0.126 A 
ATOM     10  C   UNL     1     -27.124  14.384  58.576  1.00  0.00     0.039 A 
ENDROOT
BRANCH   2  11
ATOM     11  O   UNL     1     -26.046  16.393  56.580  1.00  0.00    -0.389 OA
ATOM     12  H   UNL     1     -25.895  17.346  56.809  1.00  0.00     0.211 HD
ENDBRANCH   2  11
BRANCH   3  13
ATOM     13  C   UNL     1     -27.699  15.240  54.358  1.00  0.00    -0.001 A 
ATOM     14  C   UNL     1     -27.176  14.202  53.566  1.00  0.00     0.057 A 
ATOM     15  C   UNL     1     -28.102  16.430  53.721  1.00  0.00     0.012 A 
ATOM     16  C   UNL     1     -27.021  14.347  52.182  1.00  0.00     0.157 A 
ATOM     17  C   UNL     1     -27.951  16.583  52.341  1.00  0.00     0.050 A 
ATOM     18  C   UNL     1     -27.411  15.556  51.562  1.00  0.00     0.157 A 
BRANCH  16  19
ATOM     19  O   UNL     1     -26.484  13.273  51.470  1.00  0.00    -0.504 OA
ATOM     20  H   UNL     1     -26.505  13.196  50.463  1.00  0.00     0.293 HD
ENDBRANCH  16  19
BRANCH  18  21
ATOM     21  O   UNL     1     -27.285  15.776  50.189  1.00  0.00    -0.504 OA
ATOM     22  H   UNL     1     -26.510  16.265  49.764  1.00  0.00     0.293 HD
ENDBRANCH  18  21
ENDBRANCH   3  13
BRANCH   9  23
ATOM     23  O   UNL     1     -27.099  14.917  60.946  1.00  0.00    -0.507 OA
ATOM     24  H   UNL     1     -27.468  15.844  60.770  1.00  0.00     0.293 HD
ENDBRANCH   9  23
BRANCH   7  25
ATOM     25  O   UNL     1     -25.699  10.526  59.438  1.00  0.00    -0.508 OA
ATOM     26  H   UNL     1     -26.017  10.005  60.247  1.00  0.00     0.293 HD
ENDBRANCH   7  25
TORSDOF 6
ENDMDL
