MODEL 1
REMARK VINA RESULT:    -3.280      0.000      0.000
REMARK INTER + INTRA:          -5.283
REMARK INTER:                  -4.814
REMARK INTRA:                  -0.469
REMARK UNBOUND:                -0.469
REMARK SMILES O=C([O-])CCCCCCCC(=O)[O-]
REMARK SMILES IDX 7 1 6 2 5 3 4 4 2 5 1 6 3 7 8 8 9 9 10 10 11 11 12 12 13 13
REMARK H PARENT
REMARK Flexibility Score: inf
ROOT
ATOM      1  C   UNL     1      86.158  26.068  27.363  1.00  0.00     0.000 C 
ENDROOT
BRANCH   1   2
ATOM      2  C   UNL     1      85.494  24.713  27.096  1.00  0.00     0.000 C 
BRANCH   2   3
ATOM      3  C   UNL     1      85.587  23.800  28.328  1.00  0.00     0.006 C 
BRANCH   3   4
ATOM      4  C   UNL     1      84.231  23.189  28.704  1.00  0.00     0.053 C 
BRANCH   4   5
ATOM      5  C   UNL     1      83.537  23.986  29.765  1.00  0.00     0.041 C 
ATOM      6  O   UNL     1      83.420  23.521  30.930  1.00  0.00    -0.550 OA
ATOM      7  O   UNL     1      82.991  25.225  29.461  1.00  0.00    -0.550 OA
ENDBRANCH   4   5
ENDBRANCH   3   4
ENDBRANCH   2   3
ENDBRANCH   1   2
BRANCH   1   8
ATOM      8  C   UNL     1      86.341  26.305  28.867  1.00  0.00     0.000 C 
BRANCH   8   9
ATOM      9  C   UNL     1      87.319  27.460  29.127  1.00  0.00     0.006 C 
BRANCH   9  10
ATOM     10  C   UNL     1      87.703  28.199  27.839  1.00  0.00     0.053 C 
BRANCH  10  11
ATOM     11  C   UNL     1      88.945  29.018  28.016  1.00  0.00     0.041 C 
ATOM     12  O   UNL     1      89.134  29.658  29.084  1.00  0.00    -0.550 OA
ATOM     13  O   UNL     1      89.909  29.046  27.017  1.00  0.00    -0.550 OA
ENDBRANCH  10  11
ENDBRANCH   9  10
ENDBRANCH   8   9
ENDBRANCH   1   8
TORSDOF 8
ENDMDL
MODEL 2
REMARK VINA RESULT:    -3.212      0.731      6.282
REMARK INTER + INTRA:          -5.183
REMARK INTER:                  -4.769
REMARK INTRA:                  -0.414
REMARK UNBOUND:                -0.469
REMARK SMILES O=C([O-])CCCCCCCC(=O)[O-]
REMARK SMILES IDX 7 1 6 2 5 3 4 4 2 5 1 6 3 7 8 8 9 9 10 10 11 11 12 12 13 13
REMARK H PARENT
REMARK Flexibility Score: inf
ROOT
ATOM      1  C   UNL     1      85.587  25.916  26.621  1.00  0.00     0.000 C 
ENDROOT
BRANCH   1   2
ATOM      2  C   UNL     1      85.972  26.613  27.931  1.00  0.00     0.000 C 
BRANCH   2   3
ATOM      3  C   UNL     1      87.011  27.718  27.684  1.00  0.00     0.006 C 
BRANCH   3   4
ATOM      4  C   UNL     1      87.778  28.091  28.958  1.00  0.00     0.053 C 
BRANCH   4   5
ATOM      5  C   UNL     1      88.890  29.053  28.677  1.00  0.00     0.041 C 
ATOM      6  O   UNL     1      90.020  28.628  28.317  1.00  0.00    -0.550 OA
ATOM      7  O   UNL     1      88.690  30.417  28.844  1.00  0.00    -0.550 OA
ENDBRANCH   4   5
ENDBRANCH   3   4
ENDBRANCH   2   3
ENDBRANCH   1   2
BRANCH   1   8
ATOM      8  C   UNL     1      85.632  24.391  26.775  1.00  0.00     0.000 C 
BRANCH   8   9
ATOM      9  C   UNL     1      85.707  23.989  28.254  1.00  0.00     0.006 C 
BRANCH   9  10
ATOM     10  C   UNL     1      84.463  23.217  28.712  1.00  0.00     0.053 C 
BRANCH  10  11
ATOM     11  C   UNL     1      83.719  23.948  29.788  1.00  0.00     0.041 C 
ATOM     12  O   UNL     1      83.423  25.163  29.638  1.00  0.00    -0.550 OA
ATOM     13  O   UNL     1      83.324  23.280  30.939  1.00  0.00    -0.550 OA
ENDBRANCH  10  11
ENDBRANCH   9  10
ENDBRANCH   8   9
ENDBRANCH   1   8
TORSDOF 8
ENDMDL
MODEL 3
REMARK VINA RESULT:    -3.212      1.841      6.785
REMARK INTER + INTRA:          -5.183
REMARK INTER:                  -4.758
REMARK INTRA:                  -0.425
REMARK UNBOUND:                -0.469
REMARK SMILES O=C([O-])CCCCCCCC(=O)[O-]
REMARK SMILES IDX 7 1 6 2 5 3 4 4 2 5 1 6 3 7 8 8 9 9 10 10 11 11 12 12 13 13
REMARK H PARENT
REMARK Flexibility Score: inf
ROOT
ATOM      1  C   UNL     1      87.132  28.590  28.740  1.00  0.00     0.000 C 
ENDROOT
BRANCH   1   2
ATOM      2  C   UNL     1      88.488  29.246  29.027  1.00  0.00     0.000 C 
BRANCH   2   3
ATOM      3  C   UNL     1      89.562  28.741  28.053  1.00  0.00     0.006 C 
BRANCH   3   4
ATOM      4  C   UNL     1      89.051  28.673  26.608  1.00  0.00     0.053 C 
BRANCH   4   5
ATOM      5  C   UNL     1      89.171  29.994  25.913  1.00  0.00     0.041 C 
ATOM      6  O   UNL     1      88.137  30.649  25.617  1.00  0.00    -0.550 OA
ATOM      7  O   UNL     1      90.421  30.486  25.561  1.00  0.00    -0.550 OA
ENDBRANCH   4   5
ENDBRANCH   3   4
ENDBRANCH   2   3
ENDBRANCH   1   2
BRANCH   1   8
ATOM      8  C   UNL     1      87.109  27.136  29.227  1.00  0.00     0.000 C 
BRANCH   8   9
ATOM      9  C   UNL     1      86.420  26.223  28.203  1.00  0.00     0.006 C 
BRANCH   9  10
ATOM     10  C   UNL     1      85.158  25.560  28.771  1.00  0.00     0.053 C 
BRANCH  10  11
ATOM     11  C   UNL     1      85.204  24.068  28.633  1.00  0.00     0.041 C 
ATOM     12  O   UNL     1      86.125  23.522  27.969  1.00  0.00    -0.550 OA
ATOM     13  O   UNL     1      84.251  23.281  29.265  1.00  0.00    -0.550 OA
ENDBRANCH  10  11
ENDBRANCH   9  10
ENDBRANCH   8   9
ENDBRANCH   1   8
TORSDOF 8
ENDMDL
MODEL 4
REMARK VINA RESULT:    -3.174      2.980      5.820
REMARK INTER + INTRA:          -5.126
REMARK INTER:                  -4.421
REMARK INTRA:                  -0.706
REMARK UNBOUND:                -0.469
REMARK SMILES O=C([O-])CCCCCCCC(=O)[O-]
REMARK SMILES IDX 7 1 6 2 5 3 4 4 2 5 1 6 3 7 8 8 9 9 10 10 11 11 12 12 13 13
REMARK H PARENT
REMARK Flexibility Score: inf
ROOT
ATOM      1  C   UNL     1      89.519  28.777  27.328  1.00  0.00     0.000 C 
ENDROOT
BRANCH   1   2
ATOM      2  C   UNL     1      89.198  29.302  28.732  1.00  0.00     0.000 C 
BRANCH   2   3
ATOM      3  C   UNL     1      88.389  30.606  28.662  1.00  0.00     0.006 C 
BRANCH   3   4
ATOM      4  C   UNL     1      87.018  30.477  29.336  1.00  0.00     0.053 C 
BRANCH   4   5
ATOM      5  C   UNL     1      85.943  31.160  28.547  1.00  0.00     0.041 C 
ATOM      6  O   UNL     1      84.786  31.283  29.028  1.00  0.00    -0.550 OA
ATOM      7  O   UNL     1      86.210  31.630  27.268  1.00  0.00    -0.550 OA
ENDBRANCH   4   5
ENDBRANCH   3   4
ENDBRANCH   2   3
ENDBRANCH   1   2
BRANCH   1   8
ATOM      8  C   UNL     1      88.320  28.950  26.387  1.00  0.00     0.000 C 
BRANCH   8   9
ATOM      9  C   UNL     1      87.510  27.650  26.284  1.00  0.00     0.006 C 
BRANCH   9  10
ATOM     10  C   UNL     1      86.295  27.645  27.221  1.00  0.00     0.053 C 
BRANCH  10  11
ATOM     11  C   UNL     1      86.415  26.594  28.282  1.00  0.00     0.041 C 
ATOM     12  O   UNL     1      85.965  25.435  28.079  1.00  0.00    -0.550 OA
ATOM     13  O   UNL     1      87.055  26.884  29.481  1.00  0.00    -0.550 OA
ENDBRANCH  10  11
ENDBRANCH   9  10
ENDBRANCH   8   9
ENDBRANCH   1   8
TORSDOF 8
ENDMDL
MODEL 5
REMARK VINA RESULT:    -3.172      1.764      2.758
REMARK INTER + INTRA:          -5.124
REMARK INTER:                  -4.735
REMARK INTRA:                  -0.389
REMARK UNBOUND:                -0.469
REMARK SMILES O=C([O-])CCCCCCCC(=O)[O-]
REMARK SMILES IDX 7 1 6 2 5 3 4 4 2 5 1 6 3 7 8 8 9 9 10 10 11 11 12 12 13 13
REMARK H PARENT
REMARK Flexibility Score: inf
ROOT
ATOM      1  C   UNL     1      87.003  28.493  28.672  1.00  0.00     0.000 C 
ENDROOT
BRANCH   1   2
ATOM      2  C   UNL     1      87.020  27.051  29.193  1.00  0.00     0.000 C 
BRANCH   2   3
ATOM      3  C   UNL     1      86.318  26.102  28.210  1.00  0.00     0.006 C 
BRANCH   3   4
ATOM      4  C   UNL     1      84.989  25.572  28.763  1.00  0.00     0.053 C 
BRANCH   4   5
ATOM      5  C   UNL     1      84.970  24.076  28.826  1.00  0.00     0.041 C 
ATOM      6  O   UNL     1      85.840  23.404  28.211  1.00  0.00    -0.550 OA
ATOM      7  O   UNL     1      83.972  23.421  29.536  1.00  0.00    -0.550 OA
ENDBRANCH   4   5
ENDBRANCH   3   4
ENDBRANCH   2   3
ENDBRANCH   1   2
BRANCH   1   8
ATOM      8  C   UNL     1      88.265  29.249  29.101  1.00  0.00     0.000 C 
BRANCH   8   9
ATOM      9  C   UNL     1      89.464  28.861  28.223  1.00  0.00     0.006 C 
BRANCH   9  10
ATOM     10  C   UNL     1      89.068  28.656  26.755  1.00  0.00     0.053 C 
BRANCH  10  11
ATOM     11  C   UNL     1      89.231  29.913  25.955  1.00  0.00     0.041 C 
ATOM     12  O   UNL     1      88.222  30.598  25.639  1.00  0.00    -0.550 OA
ATOM     13  O   UNL     1      90.499  30.345  25.588  1.00  0.00    -0.550 OA
ENDBRANCH  10  11
ENDBRANCH   9  10
ENDBRANCH   8   9
ENDBRANCH   1   8
TORSDOF 8
ENDMDL
MODEL 6
REMARK VINA RESULT:    -3.146      1.751      2.402
REMARK INTER + INTRA:          -5.085
REMARK INTER:                  -4.681
REMARK INTRA:                  -0.404
REMARK UNBOUND:                -0.469
REMARK SMILES O=C([O-])CCCCCCCC(=O)[O-]
REMARK SMILES IDX 7 1 6 2 5 3 4 4 2 5 1 6 3 7 8 8 9 9 10 10 11 11 12 12 13 13
REMARK H PARENT
REMARK Flexibility Score: inf
ROOT
ATOM      1  C   UNL     1      86.614  27.326  27.204  1.00  0.00     0.000 C 
ENDROOT
BRANCH   1   2
ATOM      2  C   UNL     1      85.582  26.214  27.421  1.00  0.00     0.000 C 
BRANCH   2   3
ATOM      3  C   UNL     1      86.037  25.247  28.525  1.00  0.00     0.006 C 
BRANCH   3   4
ATOM      4  C   UNL     1      85.802  23.780  28.145  1.00  0.00     0.053 C 
BRANCH   4   5
ATOM      5  C   UNL     1      84.397  23.349  28.434  1.00  0.00     0.041 C 
ATOM      6  O   UNL     1      83.671  22.895  27.510  1.00  0.00    -0.550 OA
ATOM      7  O   UNL     1      83.877  23.480  29.715  1.00  0.00    -0.550 OA
ENDBRANCH   4   5
ENDBRANCH   3   4
ENDBRANCH   2   3
ENDBRANCH   1   2
BRANCH   1   8
ATOM      8  C   UNL     1      87.326  27.681  28.515  1.00  0.00     0.000 C 
BRANCH   8   9
ATOM      9  C   UNL     1      88.617  28.468  28.245  1.00  0.00     0.006 C 
BRANCH   9  10
ATOM     10  C   UNL     1      88.639  29.818  28.973  1.00  0.00     0.053 C 
BRANCH  10  11
ATOM     11  C   UNL     1      87.470  30.675  28.592  1.00  0.00     0.041 C 
ATOM     12  O   UNL     1      87.290  31.002  27.389  1.00  0.00    -0.550 OA
ATOM     13  O   UNL     1      86.560  31.082  29.559  1.00  0.00    -0.550 OA
ENDBRANCH  10  11
ENDBRANCH   9  10
ENDBRANCH   8   9
ENDBRANCH   1   8
TORSDOF 8
ENDMDL
MODEL 7
REMARK VINA RESULT:    -3.145      4.735      6.645
REMARK INTER + INTRA:          -5.085
REMARK INTER:                  -4.697
REMARK INTRA:                  -0.388
REMARK UNBOUND:                -0.469
REMARK SMILES O=C([O-])CCCCCCCC(=O)[O-]
REMARK SMILES IDX 7 1 6 2 5 3 4 4 2 5 1 6 3 7 8 8 9 9 10 10 11 11 12 12 13 13
REMARK H PARENT
REMARK Flexibility Score: inf
ROOT
ATOM      1  C   UNL     1      85.906  31.322  28.587  1.00  0.00     0.000 C 
ENDROOT
BRANCH   1   2
ATOM      2  C   UNL     1      86.972  30.619  29.435  1.00  0.00     0.000 C 
BRANCH   2   3
ATOM      3  C   UNL     1      88.265  30.409  28.631  1.00  0.00     0.006 C 
BRANCH   3   4
ATOM      4  C   UNL     1      88.836  28.996  28.809  1.00  0.00     0.053 C 
BRANCH   4   5
ATOM      5  C   UNL     1      87.826  27.942  28.476  1.00  0.00     0.041 C 
ATOM      6  O   UNL     1      87.379  27.841  27.303  1.00  0.00    -0.550 OA
ATOM      7  O   UNL     1      87.353  27.092  29.467  1.00  0.00    -0.550 OA
ENDBRANCH   4   5
ENDBRANCH   3   4
ENDBRANCH   2   3
ENDBRANCH   1   2
BRANCH   1   8
ATOM      8  C   UNL     1      84.806  31.923  29.471  1.00  0.00     0.000 C 
BRANCH   8   9
ATOM      9  C   UNL     1      85.330  32.202  30.887  1.00  0.00     0.006 C 
BRANCH   9  10
ATOM     10  C   UNL     1      85.214  33.684  31.268  1.00  0.00     0.053 C 
BRANCH  10  11
ATOM     11  C   UNL     1      85.886  33.976  32.575  1.00  0.00     0.041 C 
ATOM     12  O   UNL     1      86.158  35.163  32.896  1.00  0.00    -0.550 OA
ATOM     13  O   UNL     1      86.180  32.941  33.453  1.00  0.00    -0.550 OA
ENDBRANCH  10  11
ENDBRANCH   9  10
ENDBRANCH   8   9
ENDBRANCH   1   8
TORSDOF 8
ENDMDL
MODEL 8
REMARK VINA RESULT:    -3.099      2.653      3.685
REMARK INTER + INTRA:          -5.017
REMARK INTER:                  -4.259
REMARK INTRA:                  -0.758
REMARK UNBOUND:                -0.469
REMARK SMILES O=C([O-])CCCCCCCC(=O)[O-]
REMARK SMILES IDX 7 1 6 2 5 3 4 4 2 5 1 6 3 7 8 8 9 9 10 10 11 11 12 12 13 13
REMARK H PARENT
REMARK Flexibility Score: inf
ROOT
ATOM      1  C   UNL     1      88.611  28.293  27.323  1.00  0.00     0.000 C 
ENDROOT
BRANCH   1   2
ATOM      2  C   UNL     1      87.586  28.204  26.187  1.00  0.00     0.000 C 
BRANCH   2   3
ATOM      3  C   UNL     1      86.374  27.357  26.604  1.00  0.00     0.006 C 
BRANCH   3   4
ATOM      4  C   UNL     1      86.575  26.687  27.969  1.00  0.00     0.053 C 
BRANCH   4   5
ATOM      5  C   UNL     1      85.314  26.682  28.778  1.00  0.00     0.041 C 
ATOM      6  O   UNL     1      84.796  25.592  29.136  1.00  0.00    -0.550 OA
ATOM      7  O   UNL     1      84.692  27.880  29.107  1.00  0.00    -0.550 OA
ENDBRANCH   4   5
ENDBRANCH   3   4
ENDBRANCH   2   3
ENDBRANCH   1   2
BRANCH   1   8
ATOM      8  C   UNL     1      89.283  29.672  27.352  1.00  0.00     0.000 C 
BRANCH   8   9
ATOM      9  C   UNL     1      88.977  30.406  28.665  1.00  0.00     0.006 C 
BRANCH   9  10
ATOM     10  C   UNL     1      87.674  29.921  29.313  1.00  0.00     0.053 C 
BRANCH  10  11
ATOM     11  C   UNL     1      86.542  30.872  29.066  1.00  0.00     0.041 C 
ATOM     12  O   UNL     1      86.096  31.582  30.005  1.00  0.00    -0.550 OA
ATOM     13  O   UNL     1      86.006  30.999  27.791  1.00  0.00    -0.550 OA
ENDBRANCH  10  11
ENDBRANCH   9  10
ENDBRANCH   8   9
ENDBRANCH   1   8
TORSDOF 8
ENDMDL
MODEL 9
REMARK VINA RESULT:    -3.083      3.080      6.070
REMARK INTER + INTRA:          -4.993
REMARK INTER:                  -4.135
REMARK INTRA:                  -0.858
REMARK UNBOUND:                -0.469
REMARK SMILES O=C([O-])CCCCCCCC(=O)[O-]
REMARK SMILES IDX 7 1 6 2 5 3 4 4 2 5 1 6 3 7 8 8 9 9 10 10 11 11 12 12 13 13
REMARK H PARENT
REMARK Flexibility Score: inf
ROOT
ATOM      1  C   UNL     1      87.339  30.425  29.148  1.00  0.00     0.000 C 
ENDROOT
BRANCH   1   2
ATOM      2  C   UNL     1      88.806  30.362  28.707  1.00  0.00     0.000 C 
BRANCH   2   3
ATOM      3  C   UNL     1      89.237  28.913  28.434  1.00  0.00     0.006 C 
BRANCH   3   4
ATOM      4  C   UNL     1      89.831  28.738  27.030  1.00  0.00     0.053 C 
BRANCH   4   5
ATOM      5  C   UNL     1      88.800  28.935  25.962  1.00  0.00     0.041 C 
ATOM      6  O   UNL     1      87.922  28.055  25.760  1.00  0.00    -0.550 OA
ATOM      7  O   UNL     1      88.829  30.073  25.167  1.00  0.00    -0.550 OA
ENDBRANCH   4   5
ENDBRANCH   3   4
ENDBRANCH   2   3
ENDBRANCH   1   2
BRANCH   1   8
ATOM      8  C   UNL     1      86.427  30.797  27.973  1.00  0.00     0.000 C 
BRANCH   8   9
ATOM      9  C   UNL     1      85.478  29.641  27.625  1.00  0.00     0.006 C 
BRANCH   9  10
ATOM     10  C   UNL     1      85.308  28.657  28.790  1.00  0.00     0.053 C 
BRANCH  10  11
ATOM     11  C   UNL     1      85.748  27.274  28.418  1.00  0.00     0.041 C 
ATOM     12  O   UNL     1      86.627  26.684  29.100  1.00  0.00    -0.550 OA
ATOM     13  O   UNL     1      85.161  26.624  27.340  1.00  0.00    -0.550 OA
ENDBRANCH  10  11
ENDBRANCH   9  10
ENDBRANCH   8   9
ENDBRANCH   1   8
TORSDOF 8
ENDMDL
