MODEL 1
REMARK VINA RESULT:    -4.037      0.000      0.000
REMARK INTER + INTRA:          -6.070
REMARK INTER:                  -5.570
REMARK INTRA:                  -0.499
REMARK UNBOUND:                -0.499
REMARK SMILES OC[C@@H](O)C(O)[C@H](O)CO
REMARK SMILES IDX 5 1 7 2 9 3 10 4 8 6 3 8 2 9 1 10 4 12 6 14
REMARK H PARENT 10 5 8 7 1 11 4 13 6 15
REMARK Flexibility Score: inf
ROOT
ATOM      1  C   UNL     1       3.698  -3.537  -5.207  1.00  0.00     0.176 C 
ENDROOT
BRANCH   1   2
ATOM      2  C   UNL     1       3.018  -2.159  -5.437  1.00  0.00     0.171 C 
BRANCH   2   3
ATOM      3  C   UNL     1       3.965  -1.128  -6.082  1.00  0.00     0.190 C 
BRANCH   3   4
ATOM      4  O   UNL     1       3.716   0.159  -5.582  1.00  0.00    -0.394 OA
ATOM      5  H   UNL     1       2.985   0.546  -6.131  1.00  0.00     0.210 HD
ENDBRANCH   3   4
ENDBRANCH   2   3
BRANCH   2   6
ATOM      6  O   UNL     1       1.838  -2.291  -6.193  1.00  0.00    -0.388 OA
ATOM      7  H   UNL     1       1.910  -1.690  -6.980  1.00  0.00     0.211 HD
ENDBRANCH   2   6
ENDBRANCH   1   2
BRANCH   1   8
ATOM      8  C   UNL     1       2.691  -4.714  -5.304  1.00  0.00     0.171 C 
BRANCH   8   9
ATOM      9  C   UNL     1       3.376  -6.072  -5.069  1.00  0.00     0.190 C 
BRANCH   9  10
ATOM     10  O   UNL     1       4.503  -5.917  -4.251  1.00  0.00    -0.394 OA
ATOM     11  H   UNL     1       4.196  -6.090  -3.324  1.00  0.00     0.210 HD
ENDBRANCH   9  10
ENDBRANCH   8   9
BRANCH   8  12
ATOM     12  O   UNL     1       1.684  -4.541  -4.339  1.00  0.00    -0.388 OA
ATOM     13  H   UNL     1       0.915  -4.109  -4.796  1.00  0.00     0.211 HD
ENDBRANCH   8  12
ENDBRANCH   1   8
BRANCH   1  14
ATOM     14  O   UNL     1       4.785  -3.714  -6.084  1.00  0.00    -0.388 OA
ATOM     15  H   UNL     1       5.553  -3.200  -5.725  1.00  0.00     0.211 HD
ENDBRANCH   1  14
TORSDOF 9
ENDMDL
MODEL 2
REMARK VINA RESULT:    -3.851      1.514      2.603
REMARK INTER + INTRA:          -5.813
REMARK INTER:                  -5.104
REMARK INTRA:                  -0.709
REMARK UNBOUND:                -0.499
REMARK SMILES OC[C@@H](O)C(O)[C@H](O)CO
REMARK SMILES IDX 5 1 7 2 9 3 10 4 8 6 3 8 2 9 1 10 4 12 6 14
REMARK H PARENT 10 5 8 7 1 11 4 13 6 15
REMARK Flexibility Score: inf
ROOT
ATOM      1  C   UNL     1       2.381  -4.786  -5.598  1.00  0.00     0.176 C 
ENDROOT
BRANCH   1   2
ATOM      2  C   UNL     1       3.710  -4.001  -5.414  1.00  0.00     0.171 C 
BRANCH   2   3
ATOM      3  C   UNL     1       3.480  -2.507  -5.111  1.00  0.00     0.190 C 
BRANCH   3   4
ATOM      4  O   UNL     1       2.308  -2.048  -5.731  1.00  0.00    -0.394 OA
ATOM      5  H   UNL     1       2.483  -1.116  -6.027  1.00  0.00     0.210 HD
ENDBRANCH   3   4
ENDBRANCH   2   3
BRANCH   2   6
ATOM      6  O   UNL     1       4.519  -4.590  -4.425  1.00  0.00    -0.388 OA
ATOM      7  H   UNL     1       3.950  -5.197  -3.885  1.00  0.00     0.211 HD
ENDBRANCH   2   6
ENDBRANCH   1   2
BRANCH   1   8
ATOM      8  C   UNL     1       2.619  -6.235  -6.104  1.00  0.00     0.171 C 
BRANCH   8   9
ATOM      9  C   UNL     1       2.307  -7.278  -5.017  1.00  0.00     0.190 C 
BRANCH   9  10
ATOM     10  O   UNL     1       3.359  -7.353  -4.095  1.00  0.00    -0.394 OA
ATOM     11  H   UNL     1       4.061  -7.910  -4.522  1.00  0.00     0.210 HD
ENDBRANCH   9  10
ENDBRANCH   8   9
BRANCH   8  12
ATOM     12  O   UNL     1       1.793  -6.477  -7.216  1.00  0.00    -0.388 OA
ATOM     13  H   UNL     1       0.907  -6.078  -7.011  1.00  0.00     0.211 HD
ENDBRANCH   8  12
ENDBRANCH   1   8
BRANCH   1  14
ATOM     14  O   UNL     1       1.621  -4.773  -4.414  1.00  0.00    -0.388 OA
ATOM     15  H   UNL     1       1.621  -3.845  -4.063  1.00  0.00     0.211 HD
ENDBRANCH   1  14
TORSDOF 9
ENDMDL
MODEL 3
REMARK VINA RESULT:    -3.819      1.187      2.512
REMARK INTER + INTRA:          -5.769
REMARK INTER:                  -5.467
REMARK INTRA:                  -0.303
REMARK UNBOUND:                -0.499
REMARK SMILES OC[C@@H](O)C(O)[C@H](O)CO
REMARK SMILES IDX 5 1 7 2 9 3 10 4 8 6 3 8 2 9 1 10 4 12 6 14
REMARK H PARENT 10 5 8 7 1 11 4 13 6 15
REMARK Flexibility Score: inf
ROOT
ATOM      1  C   UNL     1       3.249  -2.472  -6.241  1.00  0.00     0.176 C 
ENDROOT
BRANCH   1   2
ATOM      2  C   UNL     1       4.131  -1.199  -6.108  1.00  0.00     0.171 C 
BRANCH   2   3
ATOM      3  C   UNL     1       4.735  -0.752  -7.454  1.00  0.00     0.190 C 
BRANCH   3   4
ATOM      4  O   UNL     1       6.137  -0.780  -7.405  1.00  0.00    -0.394 OA
ATOM      5  H   UNL     1       6.464  -0.174  -8.120  1.00  0.00     0.210 HD
ENDBRANCH   3   4
ENDBRANCH   2   3
BRANCH   2   6
ATOM      6  O   UNL     1       3.420  -0.144  -5.508  1.00  0.00    -0.388 OA
ATOM      7  H   UNL     1       4.024   0.641  -5.455  1.00  0.00     0.211 HD
ENDBRANCH   2   6
ENDBRANCH   1   2
BRANCH   1   8
ATOM      8  C   UNL     1       3.683  -3.594  -5.258  1.00  0.00     0.171 C 
BRANCH   8   9
ATOM      9  C   UNL     1       2.670  -4.752  -5.232  1.00  0.00     0.190 C 
BRANCH   9  10
ATOM     10  O   UNL     1       1.670  -4.507  -4.282  1.00  0.00    -0.394 OA
ATOM     11  H   UNL     1       1.608  -5.329  -3.729  1.00  0.00     0.210 HD
ENDBRANCH   9  10
ENDBRANCH   8   9
BRANCH   8  12
ATOM     12  O   UNL     1       4.935  -4.094  -5.653  1.00  0.00    -0.388 OA
ATOM     13  H   UNL     1       5.130  -3.716  -6.550  1.00  0.00     0.211 HD
ENDBRANCH   8  12
ENDBRANCH   1   8
BRANCH   1  14
ATOM     14  O   UNL     1       1.886  -2.156  -6.093  1.00  0.00    -0.388 OA
ATOM     15  H   UNL     1       1.745  -1.841  -5.163  1.00  0.00     0.211 HD
ENDBRANCH   1  14
TORSDOF 9
ENDMDL
MODEL 4
REMARK VINA RESULT:    -3.817      1.380      4.354
REMARK INTER + INTRA:          -5.767
REMARK INTER:                  -5.057
REMARK INTRA:                  -0.709
REMARK UNBOUND:                -0.499
REMARK SMILES OC[C@@H](O)C(O)[C@H](O)CO
REMARK SMILES IDX 5 1 7 2 9 3 10 4 8 6 3 8 2 9 1 10 4 12 6 14
REMARK H PARENT 10 5 8 7 1 11 4 13 6 15
REMARK Flexibility Score: inf
ROOT
ATOM      1  C   UNL     1       3.640  -2.447  -5.811  1.00  0.00     0.176 C 
ENDROOT
BRANCH   1   2
ATOM      2  C   UNL     1       3.921  -3.793  -5.086  1.00  0.00     0.171 C 
BRANCH   2   3
ATOM      3  C   UNL     1       2.775  -4.810  -5.255  1.00  0.00     0.190 C 
BRANCH   3   4
ATOM      4  O   UNL     1       1.740  -4.551  -4.344  1.00  0.00    -0.394 OA
ATOM      5  H   UNL     1       1.398  -3.641  -4.547  1.00  0.00     0.210 HD
ENDBRANCH   3   4
ENDBRANCH   2   3
BRANCH   2   6
ATOM      6  O   UNL     1       5.145  -4.350  -5.498  1.00  0.00    -0.388 OA
ATOM      7  H   UNL     1       5.328  -4.037  -6.422  1.00  0.00     0.211 HD
ENDBRANCH   2   6
ENDBRANCH   1   2
BRANCH   1   8
ATOM      8  C   UNL     1       4.147  -2.453  -7.279  1.00  0.00     0.171 C 
BRANCH   8   9
ATOM      9  C   UNL     1       3.351  -1.474  -8.161  1.00  0.00     0.190 C 
BRANCH   9  10
ATOM     10  O   UNL     1       3.345  -0.195  -7.590  1.00  0.00    -0.394 OA
ATOM     11  H   UNL     1       2.836  -0.274  -6.742  1.00  0.00     0.210 HD
ENDBRANCH   9  10
ENDBRANCH   8   9
BRANCH   8  12
ATOM     12  O   UNL     1       5.503  -2.084  -7.300  1.00  0.00    -0.388 OA
ATOM     13  H   UNL     1       5.838  -2.261  -8.218  1.00  0.00     0.211 HD
ENDBRANCH   8  12
ENDBRANCH   1   8
BRANCH   1  14
ATOM     14  O   UNL     1       2.275  -2.112  -5.739  1.00  0.00    -0.388 OA
ATOM     15  H   UNL     1       1.944  -1.981  -6.665  1.00  0.00     0.211 HD
ENDBRANCH   1  14
TORSDOF 9
ENDMDL
MODEL 5
REMARK VINA RESULT:    -3.808      3.376      5.859
REMARK INTER + INTRA:          -5.755
REMARK INTER:                  -4.858
REMARK INTRA:                  -0.897
REMARK UNBOUND:                -0.499
REMARK SMILES OC[C@@H](O)C(O)[C@H](O)CO
REMARK SMILES IDX 5 1 7 2 9 3 10 4 8 6 3 8 2 9 1 10 4 12 6 14
REMARK H PARENT 10 5 8 7 1 11 4 13 6 15
REMARK Flexibility Score: inf
ROOT
ATOM      1  C   UNL     1       4.672   0.690  -8.009  1.00  0.00     0.176 C 
ENDROOT
BRANCH   1   2
ATOM      2  C   UNL     1       3.970  -0.696  -7.961  1.00  0.00     0.171 C 
BRANCH   2   3
ATOM      3  C   UNL     1       4.192  -1.428  -6.623  1.00  0.00     0.190 C 
BRANCH   3   4
ATOM      4  O   UNL     1       3.461  -0.817  -5.593  1.00  0.00    -0.394 OA
ATOM      5  H   UNL     1       2.854  -1.508  -5.220  1.00  0.00     0.210 HD
ENDBRANCH   3   4
ENDBRANCH   2   3
BRANCH   2   6
ATOM      6  O   UNL     1       2.596  -0.583  -8.243  1.00  0.00    -0.388 OA
ATOM      7  H   UNL     1       2.324   0.355  -8.068  1.00  0.00     0.211 HD
ENDBRANCH   2   6
ENDBRANCH   1   2
BRANCH   1   8
ATOM      8  C   UNL     1       3.658   1.865  -7.985  1.00  0.00     0.171 C 
BRANCH   8   9
ATOM      9  C   UNL     1       3.776   2.695  -6.695  1.00  0.00     0.190 C 
BRANCH   9  10
ATOM     10  O   UNL     1       3.329   1.954  -5.593  1.00  0.00    -0.394 OA
ATOM     11  H   UNL     1       2.666   2.526  -5.127  1.00  0.00     0.210 HD
ENDBRANCH   9  10
ENDBRANCH   8   9
BRANCH   8  12
ATOM     12  O   UNL     1       3.897   2.703  -9.088  1.00  0.00    -0.388 OA
ATOM     13  H   UNL     1       3.020   2.870  -9.522  1.00  0.00     0.211 HD
ENDBRANCH   8  12
ENDBRANCH   1   8
BRANCH   1  14
ATOM     14  O   UNL     1       5.623   0.808  -6.978  1.00  0.00    -0.388 OA
ATOM     15  H   UNL     1       6.451   0.349  -7.272  1.00  0.00     0.211 HD
ENDBRANCH   1  14
TORSDOF 9
ENDMDL
MODEL 6
REMARK VINA RESULT:    -3.773      0.463      4.046
REMARK INTER + INTRA:          -5.705
REMARK INTER:                  -5.218
REMARK INTRA:                  -0.487
REMARK UNBOUND:                -0.499
REMARK SMILES OC[C@@H](O)C(O)[C@H](O)CO
REMARK SMILES IDX 5 1 7 2 9 3 10 4 8 6 3 8 2 9 1 10 4 12 6 14
REMARK H PARENT 10 5 8 7 1 11 4 13 6 15
REMARK Flexibility Score: inf
ROOT
ATOM      1  C   UNL     1       3.638  -3.822  -6.109  1.00  0.00     0.176 C 
ENDROOT
BRANCH   1   2
ATOM      2  C   UNL     1       2.752  -4.995  -5.605  1.00  0.00     0.171 C 
BRANCH   2   3
ATOM      3  C   UNL     1       3.545  -6.304  -5.426  1.00  0.00     0.190 C 
BRANCH   3   4
ATOM      4  O   UNL     1       4.270  -6.287  -4.224  1.00  0.00    -0.394 OA
ATOM      5  H   UNL     1       3.695  -6.710  -3.534  1.00  0.00     0.210 HD
ENDBRANCH   3   4
ENDBRANCH   2   3
BRANCH   2   6
ATOM      6  O   UNL     1       2.080  -4.654  -4.416  1.00  0.00    -0.388 OA
ATOM      7  H   UNL     1       1.272  -4.132  -4.660  1.00  0.00     0.211 HD
ENDBRANCH   2   6
ENDBRANCH   1   2
BRANCH   1   8
ATOM      8  C   UNL     1       3.103  -2.439  -5.648  1.00  0.00     0.171 C 
BRANCH   8   9
ATOM      9  C   UNL     1       3.993  -1.287  -6.148  1.00  0.00     0.190 C 
BRANCH   9  10
ATOM     10  O   UNL     1       3.671  -0.096  -5.485  1.00  0.00    -0.394 OA
ATOM     11  H   UNL     1       2.707   0.065  -5.659  1.00  0.00     0.210 HD
ENDBRANCH   9  10
ENDBRANCH   8   9
BRANCH   8  12
ATOM     12  O   UNL     1       1.802  -2.257  -6.146  1.00  0.00    -0.388 OA
ATOM     13  H   UNL     1       1.883  -2.119  -7.126  1.00  0.00     0.211 HD
ENDBRANCH   8  12
ENDBRANCH   1   8
BRANCH   1  14
ATOM     14  O   UNL     1       4.981  -4.007  -5.731  1.00  0.00    -0.388 OA
ATOM     15  H   UNL     1       5.273  -3.197  -5.240  1.00  0.00     0.211 HD
ENDBRANCH   1  14
TORSDOF 9
ENDMDL
MODEL 7
REMARK VINA RESULT:    -3.768      1.444      3.851
REMARK INTER + INTRA:          -5.698
REMARK INTER:                  -4.787
REMARK INTRA:                  -0.911
REMARK UNBOUND:                -0.499
REMARK SMILES OC[C@@H](O)C(O)[C@H](O)CO
REMARK SMILES IDX 5 1 7 2 9 3 10 4 8 6 3 8 2 9 1 10 4 12 6 14
REMARK H PARENT 10 5 8 7 1 11 4 13 6 15
REMARK Flexibility Score: inf
ROOT
ATOM      1  C   UNL     1       4.218  -4.634  -5.957  1.00  0.00     0.176 C 
ENDROOT
BRANCH   1   2
ATOM      2  C   UNL     1       2.947  -5.486  -6.231  1.00  0.00     0.171 C 
BRANCH   2   3
ATOM      3  C   UNL     1       2.165  -5.817  -4.945  1.00  0.00     0.190 C 
BRANCH   3   4
ATOM      4  O   UNL     1       1.604  -4.657  -4.390  1.00  0.00    -0.394 OA
ATOM      5  H   UNL     1       2.215  -4.358  -3.667  1.00  0.00     0.210 HD
ENDBRANCH   3   4
ENDBRANCH   2   3
BRANCH   2   6
ATOM      6  O   UNL     1       2.109  -4.865  -7.175  1.00  0.00    -0.388 OA
ATOM      7  H   UNL     1       2.410  -3.925  -7.281  1.00  0.00     0.211 HD
ENDBRANCH   2   6
ENDBRANCH   1   2
BRANCH   1   8
ATOM      8  C   UNL     1       4.187  -3.273  -6.704  1.00  0.00     0.171 C 
BRANCH   8   9
ATOM      9  C   UNL     1       3.695  -2.134  -5.795  1.00  0.00     0.190 C 
BRANCH   9  10
ATOM     10  O   UNL     1       2.298  -2.158  -5.692  1.00  0.00    -0.394 OA
ATOM     11  H   UNL     1       2.047  -3.110  -5.571  1.00  0.00     0.210 HD
ENDBRANCH   9  10
ENDBRANCH   8   9
BRANCH   8  12
ATOM     12  O   UNL     1       5.482  -2.966  -7.157  1.00  0.00    -0.388 OA
ATOM     13  H   UNL     1       5.384  -2.312  -7.897  1.00  0.00     0.211 HD
ENDBRANCH   8  12
ENDBRANCH   1   8
BRANCH   1  14
ATOM     14  O   UNL     1       4.416  -4.458  -4.574  1.00  0.00    -0.388 OA
ATOM     15  H   UNL     1       5.338  -4.752  -4.359  1.00  0.00     0.211 HD
ENDBRANCH   1  14
TORSDOF 9
ENDMDL
MODEL 8
REMARK VINA RESULT:    -3.754      1.608      4.476
REMARK INTER + INTRA:          -5.680
REMARK INTER:                  -5.015
REMARK INTRA:                  -0.664
REMARK UNBOUND:                -0.499
REMARK SMILES OC[C@@H](O)C(O)[C@H](O)CO
REMARK SMILES IDX 5 1 7 2 9 3 10 4 8 6 3 8 2 9 1 10 4 12 6 14
REMARK H PARENT 10 5 8 7 1 11 4 13 6 15
REMARK Flexibility Score: inf
ROOT
ATOM      1  C   UNL     1       2.229  -4.978  -4.883  1.00  0.00     0.176 C 
ENDROOT
BRANCH   1   2
ATOM      2  C   UNL     1       2.491  -6.504  -5.017  1.00  0.00     0.171 C 
BRANCH   2   3
ATOM      3  C   UNL     1       2.937  -6.908  -6.435  1.00  0.00     0.190 C 
BRANCH   3   4
ATOM      4  O   UNL     1       1.858  -6.854  -7.331  1.00  0.00    -0.394 OA
ATOM      5  H   UNL     1       2.234  -6.637  -8.224  1.00  0.00     0.210 HD
ENDBRANCH   3   4
ENDBRANCH   2   3
BRANCH   2   6
ATOM      6  O   UNL     1       3.420  -6.949  -4.058  1.00  0.00    -0.388 OA
ATOM      7  H   UNL     1       4.034  -6.197  -3.854  1.00  0.00     0.211 HD
ENDBRANCH   2   6
ENDBRANCH   1   2
BRANCH   1   8
ATOM      8  C   UNL     1       3.478  -4.131  -5.252  1.00  0.00     0.171 C 
BRANCH   8   9
ATOM      9  C   UNL     1       3.231  -2.628  -5.039  1.00  0.00     0.190 C 
BRANCH   9  10
ATOM     10  O   UNL     1       2.244  -2.163  -5.917  1.00  0.00    -0.394 OA
ATOM     11  H   UNL     1       2.468  -1.216  -6.108  1.00  0.00     0.210 HD
ENDBRANCH   9  10
ENDBRANCH   8   9
BRANCH   8  12
ATOM     12  O   UNL     1       4.560  -4.532  -4.451  1.00  0.00    -0.388 OA
ATOM     13  H   UNL     1       4.273  -5.346  -3.959  1.00  0.00     0.211 HD
ENDBRANCH   8  12
ENDBRANCH   1   8
BRANCH   1  14
ATOM     14  O   UNL     1       1.105  -4.593  -5.637  1.00  0.00    -0.388 OA
ATOM     15  H   UNL     1       0.314  -4.619  -5.039  1.00  0.00     0.211 HD
ENDBRANCH   1  14
TORSDOF 9
ENDMDL
MODEL 9
REMARK VINA RESULT:    -3.746      1.298      2.442
REMARK INTER + INTRA:          -5.669
REMARK INTER:                  -5.146
REMARK INTRA:                  -0.523
REMARK UNBOUND:                -0.499
REMARK SMILES OC[C@@H](O)C(O)[C@H](O)CO
REMARK SMILES IDX 5 1 7 2 9 3 10 4 8 6 3 8 2 9 1 10 4 12 6 14
REMARK H PARENT 10 5 8 7 1 11 4 13 6 15
REMARK Flexibility Score: inf
ROOT
ATOM      1  C   UNL     1       2.740  -4.529  -5.327  1.00  0.00     0.176 C 
ENDROOT
BRANCH   1   2
ATOM      2  C   UNL     1       3.602  -3.264  -5.061  1.00  0.00     0.171 C 
BRANCH   2   3
ATOM      3  C   UNL     1       3.116  -2.036  -5.856  1.00  0.00     0.190 C 
BRANCH   3   4
ATOM      4  O   UNL     1       1.794  -2.215  -6.291  1.00  0.00    -0.394 OA
ATOM      5  H   UNL     1       1.647  -3.194  -6.373  1.00  0.00     0.210 HD
ENDBRANCH   3   4
ENDBRANCH   2   3
BRANCH   2   6
ATOM      6  O   UNL     1       3.669  -2.970  -3.687  1.00  0.00    -0.388 OA
ATOM      7  H   UNL     1       3.653  -3.829  -3.189  1.00  0.00     0.211 HD
ENDBRANCH   2   6
ENDBRANCH   1   2
BRANCH   1   8
ATOM      8  C   UNL     1       3.581  -5.834  -5.285  1.00  0.00     0.171 C 
BRANCH   8   9
ATOM      9  C   UNL     1       4.334  -6.070  -6.606  1.00  0.00     0.190 C 
BRANCH   9  10
ATOM     10  O   UNL     1       5.677  -5.691  -6.479  1.00  0.00    -0.394 OA
ATOM     11  H   UNL     1       5.680  -4.700  -6.428  1.00  0.00     0.210 HD
ENDBRANCH   9  10
ENDBRANCH   8   9
BRANCH   8  12
ATOM     12  O   UNL     1       4.515  -5.747  -4.239  1.00  0.00    -0.388 OA
ATOM     13  H   UNL     1       5.278  -6.336  -4.480  1.00  0.00     0.211 HD
ENDBRANCH   8  12
ENDBRANCH   1   8
BRANCH   1  14
ATOM     14  O   UNL     1       1.650  -4.591  -4.439  1.00  0.00    -0.388 OA
ATOM     15  H   UNL     1       1.925  -4.160  -3.589  1.00  0.00     0.211 HD
ENDBRANCH   1  14
TORSDOF 9
ENDMDL
