MODEL 1
REMARK VINA RESULT:    -5.165      0.000      0.000
REMARK INTER + INTRA:         -10.978
REMARK INTER:                  -9.392
REMARK INTRA:                  -1.586
REMARK UNBOUND:                -1.586
REMARK SMILES CCCCCCCCCCCCCC[C@@H](C)C(=O)[O-]
REMARK SMILES IDX 9 1 10 2 11 3 12 4 13 5 14 6 15 7 16 8 17 9 18 10 19 11 8 12
REMARK SMILES IDX 7 13 6 14 5 15 4 16 3 17 2 18 1 19
REMARK H PARENT
REMARK Flexibility Score: inf
ROOT
ATOM      1  C   UNL     1     254.426 260.874 247.638  1.00  0.00     0.000 C 
ENDROOT
BRANCH   1   2
ATOM      2  C   UNL     1     255.316 260.342 248.771  1.00  0.00     0.000 C 
BRANCH   2   3
ATOM      3  C   UNL     1     254.923 260.900 250.148  1.00  0.00     0.000 C 
BRANCH   3   4
ATOM      4  C   UNL     1     256.140 261.383 250.958  1.00  0.00     0.000 C 
BRANCH   4   5
ATOM      5  C   UNL     1     257.350 261.712 250.068  1.00  0.00     0.001 C 
BRANCH   5   6
ATOM      6  C   UNL     1     258.269 262.782 250.686  1.00  0.00     0.009 C 
BRANCH   6   7
ATOM      7  C   UNL     1     259.751 262.552 250.325  1.00  0.00     0.032 C 
ATOM      8  C   UNL     1     260.178 263.479 249.182  1.00  0.00     0.014 C 
BRANCH   7   9
ATOM      9  C   UNL     1     260.646 262.771 251.515  1.00  0.00     0.044 C 
ATOM     10  O   UNL     1     260.164 262.768 252.678  1.00  0.00    -0.550 OA
ATOM     11  O   UNL     1     262.011 262.972 251.340  1.00  0.00    -0.550 OA
ENDBRANCH   7   9
ENDBRANCH   6   7
ENDBRANCH   5   6
ENDBRANCH   4   5
ENDBRANCH   3   4
ENDBRANCH   2   3
ENDBRANCH   1   2
BRANCH   1  12
ATOM     12  C   UNL     1     254.369 259.875 246.472  1.00  0.00     0.000 C 
BRANCH  12  13
ATOM     13  C   UNL     1     255.175 260.341 245.245  1.00  0.00    -0.000 C 
BRANCH  13  14
ATOM     14  C   UNL     1     256.337 261.306 245.554  1.00  0.00    -0.000 C 
BRANCH  14  15
ATOM     15  C   UNL     1     257.517 261.241 244.568  1.00  0.00    -0.000 C 
BRANCH  15  16
ATOM     16  C   UNL     1     258.878 261.126 245.271  1.00  0.00    -0.000 C 
BRANCH  16  17
ATOM     17  C   UNL     1     258.710 261.123 246.794  1.00  0.00    -0.000 C 
BRANCH  17  18
ATOM     18  C   UNL     1     259.669 260.123 247.451  1.00  0.00    -0.003 C 
ATOM     19  C   UNL     1     260.623 259.519 246.425  1.00  0.00     0.004 C 
ENDBRANCH  17  18
ENDBRANCH  16  17
ENDBRANCH  15  16
ENDBRANCH  14  15
ENDBRANCH  13  14
ENDBRANCH  12  13
ENDBRANCH   1  12
TORSDOF 14
ENDMDL
MODEL 2
REMARK VINA RESULT:    -5.115      1.628      4.395
REMARK INTER + INTRA:         -10.887
REMARK INTER:                  -8.801
REMARK INTRA:                  -2.086
REMARK UNBOUND:                -1.586
REMARK SMILES CCCCCCCCCCCCCC[C@@H](C)C(=O)[O-]
REMARK SMILES IDX 9 1 10 2 11 3 12 4 13 5 14 6 15 7 16 8 17 9 18 10 19 11 8 12
REMARK SMILES IDX 7 13 6 14 5 15 4 16 3 17 2 18 1 19
REMARK H PARENT
REMARK Flexibility Score: inf
ROOT
ATOM      1  C   UNL     1     254.730 260.772 245.536  1.00  0.00     0.000 C 
ENDROOT
BRANCH   1   2
ATOM      2  C   UNL     1     256.165 261.257 245.792  1.00  0.00     0.000 C 
BRANCH   2   3
ATOM      3  C   UNL     1     257.128 260.895 244.651  1.00  0.00     0.000 C 
BRANCH   3   4
ATOM      4  C   UNL     1     258.200 261.975 244.418  1.00  0.00     0.000 C 
BRANCH   4   5
ATOM      5  C   UNL     1     258.371 262.909 245.628  1.00  0.00     0.001 C 
BRANCH   5   6
ATOM      6  C   UNL     1     259.668 262.634 246.412  1.00  0.00     0.009 C 
BRANCH   6   7
ATOM      7  C   UNL     1     259.414 261.775 247.668  1.00  0.00     0.032 C 
ATOM      8  C   UNL     1     259.784 260.311 247.405  1.00  0.00     0.014 C 
BRANCH   7   9
ATOM      9  C   UNL     1     260.191 262.288 248.850  1.00  0.00     0.044 C 
ATOM     10  O   UNL     1     260.599 263.480 248.870  1.00  0.00    -0.550 OA
ATOM     11  O   UNL     1     260.460 261.455 249.930  1.00  0.00    -0.550 OA
ENDBRANCH   7   9
ENDBRANCH   6   7
ENDBRANCH   5   6
ENDBRANCH   4   5
ENDBRANCH   3   4
ENDBRANCH   2   3
ENDBRANCH   1   2
BRANCH   1  12
ATOM     12  C   UNL     1     253.871 260.909 246.803  1.00  0.00     0.000 C 
BRANCH  12  13
ATOM     13  C   UNL     1     253.103 259.620 247.148  1.00  0.00    -0.000 C 
BRANCH  13  14
ATOM     14  C   UNL     1     253.874 258.310 246.887  1.00  0.00    -0.000 C 
BRANCH  14  15
ATOM     15  C   UNL     1     254.438 257.623 248.144  1.00  0.00    -0.000 C 
BRANCH  15  16
ATOM     16  C   UNL     1     255.610 258.393 248.769  1.00  0.00    -0.000 C 
BRANCH  16  17
ATOM     17  C   UNL     1     255.233 258.939 250.151  1.00  0.00    -0.000 C 
BRANCH  17  18
ATOM     18  C   UNL     1     255.236 260.472 250.156  1.00  0.00    -0.003 C 
ATOM     19  C   UNL     1     256.540 261.023 249.586  1.00  0.00     0.004 C 
ENDBRANCH  17  18
ENDBRANCH  16  17
ENDBRANCH  15  16
ENDBRANCH  14  15
ENDBRANCH  13  14
ENDBRANCH  12  13
ENDBRANCH   1  12
TORSDOF 14
ENDMDL
MODEL 3
REMARK VINA RESULT:    -5.093      5.358      8.030
REMARK INTER + INTRA:         -10.847
REMARK INTER:                  -8.841
REMARK INTRA:                  -2.006
REMARK UNBOUND:                -1.586
REMARK SMILES CCCCCCCCCCCCCC[C@@H](C)C(=O)[O-]
REMARK SMILES IDX 9 1 10 2 11 3 12 4 13 5 14 6 15 7 16 8 17 9 18 10 19 11 8 12
REMARK SMILES IDX 7 13 6 14 5 15 4 16 3 17 2 18 1 19
REMARK H PARENT
REMARK Flexibility Score: inf
ROOT
ATOM      1  C   UNL     1     250.264 257.342 247.777  1.00  0.00     0.000 C 
ENDROOT
BRANCH   1   2
ATOM      2  C   UNL     1     249.821 256.023 247.128  1.00  0.00     0.000 C 
BRANCH   2   3
ATOM      3  C   UNL     1     249.979 256.029 245.599  1.00  0.00     0.000 C 
BRANCH   3   4
ATOM      4  C   UNL     1     251.055 255.041 245.113  1.00  0.00     0.000 C 
BRANCH   4   5
ATOM      5  C   UNL     1     252.481 255.506 245.451  1.00  0.00     0.001 C 
BRANCH   5   6
ATOM      6  C   UNL     1     253.180 254.586 246.470  1.00  0.00     0.009 C 
BRANCH   6   7
ATOM      7  C   UNL     1     253.951 255.386 247.539  1.00  0.00     0.032 C 
ATOM      8  C   UNL     1     253.955 256.880 247.197  1.00  0.00     0.014 C 
BRANCH   7   9
ATOM      9  C   UNL     1     253.362 255.182 248.909  1.00  0.00     0.044 C 
ATOM     10  O   UNL     1     253.868 255.760 249.907  1.00  0.00    -0.550 OA
ATOM     11  O   UNL     1     252.254 254.361 249.082  1.00  0.00    -0.550 OA
ENDBRANCH   7   9
ENDBRANCH   6   7
ENDBRANCH   5   6
ENDBRANCH   4   5
ENDBRANCH   3   4
ENDBRANCH   2   3
ENDBRANCH   1   2
BRANCH   1  12
ATOM     12  C   UNL     1     249.432 258.520 247.247  1.00  0.00     0.000 C 
BRANCH  12  13
ATOM     13  C   UNL     1     250.263 259.802 247.058  1.00  0.00    -0.000 C 
BRANCH  13  14
ATOM     14  C   UNL     1     251.778 259.580 246.873  1.00  0.00    -0.000 C 
BRANCH  14  15
ATOM     15  C   UNL     1     252.660 260.796 247.207  1.00  0.00    -0.000 C 
BRANCH  15  16
ATOM     16  C   UNL     1     253.965 260.827 246.398  1.00  0.00    -0.000 C 
BRANCH  16  17
ATOM     17  C   UNL     1     255.186 260.778 247.324  1.00  0.00    -0.000 C 
BRANCH  17  18
ATOM     18  C   UNL     1     254.759 260.732 248.796  1.00  0.00    -0.003 C 
ATOM     19  C   UNL     1     255.310 259.490 249.491  1.00  0.00     0.004 C 
ENDBRANCH  17  18
ENDBRANCH  16  17
ENDBRANCH  15  16
ENDBRANCH  14  15
ENDBRANCH  13  14
ENDBRANCH  12  13
ENDBRANCH   1  12
TORSDOF 14
ENDMDL
MODEL 4
REMARK VINA RESULT:    -5.081      6.029      8.643
REMARK INTER + INTRA:         -10.826
REMARK INTER:                  -8.696
REMARK INTRA:                  -2.131
REMARK UNBOUND:                -1.586
REMARK SMILES CCCCCCCCCCCCCC[C@@H](C)C(=O)[O-]
REMARK SMILES IDX 9 1 10 2 11 3 12 4 13 5 14 6 15 7 16 8 17 9 18 10 19 11 8 12
REMARK SMILES IDX 7 13 6 14 5 15 4 16 3 17 2 18 1 19
REMARK H PARENT
REMARK Flexibility Score: inf
ROOT
ATOM      1  C   UNL     1     254.106 261.053 248.384  1.00  0.00     0.000 C 
ENDROOT
BRANCH   1   2
ATOM      2  C   UNL     1     253.343 261.093 247.052  1.00  0.00     0.000 C 
BRANCH   2   3
ATOM      3  C   UNL     1     253.675 259.902 246.140  1.00  0.00     0.000 C 
BRANCH   3   4
ATOM      4  C   UNL     1     252.726 258.710 246.355  1.00  0.00     0.000 C 
BRANCH   4   5
ATOM      5  C   UNL     1     251.446 259.102 247.112  1.00  0.00     0.001 C 
BRANCH   5   6
ATOM      6  C   UNL     1     250.342 258.033 247.009  1.00  0.00     0.009 C 
BRANCH   6   7
ATOM      7  C   UNL     1     250.913 256.644 246.655  1.00  0.00     0.032 C 
ATOM      8  C   UNL     1     250.962 255.748 247.897  1.00  0.00     0.014 C 
BRANCH   7   9
ATOM      9  C   UNL     1     250.100 255.974 245.580  1.00  0.00     0.044 C 
ATOM     10  O   UNL     1     250.491 254.888 245.075  1.00  0.00    -0.550 OA
ATOM     11  O   UNL     1     248.910 256.544 245.140  1.00  0.00    -0.550 OA
ENDBRANCH   7   9
ENDBRANCH   6   7
ENDBRANCH   5   6
ENDBRANCH   4   5
ENDBRANCH   3   4
ENDBRANCH   2   3
ENDBRANCH   1   2
BRANCH   1  12
ATOM     12  C   UNL     1     255.575 260.662 248.162  1.00  0.00     0.000 C 
BRANCH  12  13
ATOM     13  C   UNL     1     255.968 259.370 248.901  1.00  0.00    -0.000 C 
BRANCH  13  14
ATOM     14  C   UNL     1     254.899 258.814 249.863  1.00  0.00    -0.000 C 
BRANCH  14  15
ATOM     15  C   UNL     1     254.373 257.410 249.514  1.00  0.00    -0.000 C 
BRANCH  15  16
ATOM     16  C   UNL     1     255.001 256.839 248.235  1.00  0.00    -0.000 C 
BRANCH  16  17
ATOM     17  C   UNL     1     254.681 255.348 248.085  1.00  0.00    -0.000 C 
BRANCH  17  18
ATOM     18  C   UNL     1     255.951 254.538 247.797  1.00  0.00    -0.003 C 
ATOM     19  C   UNL     1     257.088 254.948 248.728  1.00  0.00     0.004 C 
ENDBRANCH  17  18
ENDBRANCH  16  17
ENDBRANCH  15  16
ENDBRANCH  14  15
ENDBRANCH  13  14
ENDBRANCH  12  13
ENDBRANCH   1  12
TORSDOF 14
ENDMDL
MODEL 5
REMARK VINA RESULT:    -5.056      2.447      4.303
REMARK INTER + INTRA:         -10.779
REMARK INTER:                  -8.995
REMARK INTRA:                  -1.784
REMARK UNBOUND:                -1.586
REMARK SMILES CCCCCCCCCCCCCC[C@@H](C)C(=O)[O-]
REMARK SMILES IDX 9 1 10 2 11 3 12 4 13 5 14 6 15 7 16 8 17 9 18 10 19 11 8 12
REMARK SMILES IDX 7 13 6 14 5 15 4 16 3 17 2 18 1 19
REMARK H PARENT
REMARK Flexibility Score: inf
ROOT
ATOM      1  C   UNL     1     256.024 261.253 245.879  1.00  0.00     0.000 C 
ENDROOT
BRANCH   1   2
ATOM      2  C   UNL     1     254.563 260.805 245.723  1.00  0.00     0.000 C 
BRANCH   2   3
ATOM      3  C   UNL     1     253.767 260.905 247.033  1.00  0.00     0.000 C 
BRANCH   3   4
ATOM      4  C   UNL     1     254.393 260.077 248.170  1.00  0.00     0.000 C 
BRANCH   4   5
ATOM      5  C   UNL     1     254.869 260.948 249.344  1.00  0.00     0.001 C 
BRANCH   5   6
ATOM      6  C   UNL     1     255.498 260.121 250.481  1.00  0.00     0.009 C 
BRANCH   6   7
ATOM      7  C   UNL     1     255.576 260.915 251.800  1.00  0.00     0.032 C 
ATOM      8  C   UNL     1     254.606 262.102 251.774  1.00  0.00     0.014 C 
BRANCH   7   9
ATOM      9  C   UNL     1     255.271 260.040 252.987  1.00  0.00     0.044 C 
ATOM     10  O   UNL     1     254.781 258.893 252.817  1.00  0.00    -0.550 OA
ATOM     11  O   UNL     1     255.533 260.489 254.277  1.00  0.00    -0.550 OA
ENDBRANCH   7   9
ENDBRANCH   6   7
ENDBRANCH   5   6
ENDBRANCH   4   5
ENDBRANCH   3   4
ENDBRANCH   2   3
ENDBRANCH   1   2
BRANCH   1  12
ATOM     12  C   UNL     1     256.845 260.886 244.633  1.00  0.00     0.000 C 
BRANCH  12  13
ATOM     13  C   UNL     1     258.286 261.424 244.687  1.00  0.00    -0.000 C 
BRANCH  13  14
ATOM     14  C   UNL     1     258.497 262.643 245.608  1.00  0.00    -0.000 C 
BRANCH  14  15
ATOM     15  C   UNL     1     259.651 262.505 246.617  1.00  0.00    -0.000 C 
BRANCH  15  16
ATOM     16  C   UNL     1     259.563 261.221 247.454  1.00  0.00    -0.000 C 
BRANCH  16  17
ATOM     17  C   UNL     1     258.428 261.311 248.480  1.00  0.00    -0.000 C 
BRANCH  17  18
ATOM     18  C   UNL     1     258.380 262.700 249.127  1.00  0.00    -0.003 C 
ATOM     19  C   UNL     1     258.650 262.619 250.627  1.00  0.00     0.004 C 
ENDBRANCH  17  18
ENDBRANCH  16  17
ENDBRANCH  15  16
ENDBRANCH  14  15
ENDBRANCH  13  14
ENDBRANCH  12  13
ENDBRANCH   1  12
TORSDOF 14
ENDMDL
MODEL 6
REMARK VINA RESULT:    -5.044      3.061      4.629
REMARK INTER + INTRA:         -10.758
REMARK INTER:                  -8.710
REMARK INTRA:                  -2.048
REMARK UNBOUND:                -1.586
REMARK SMILES CCCCCCCCCCCCCC[C@@H](C)C(=O)[O-]
REMARK SMILES IDX 9 1 10 2 11 3 12 4 13 5 14 6 15 7 16 8 17 9 18 10 19 11 8 12
REMARK SMILES IDX 7 13 6 14 5 15 4 16 3 17 2 18 1 19
REMARK H PARENT
REMARK Flexibility Score: inf
ROOT
ATOM      1  C   UNL     1     254.659 260.671 246.569  1.00  0.00     0.000 C 
ENDROOT
BRANCH   1   2
ATOM      2  C   UNL     1     253.917 260.850 247.901  1.00  0.00     0.000 C 
BRANCH   2   3
ATOM      3  C   UNL     1     254.866 260.891 249.110  1.00  0.00     0.000 C 
BRANCH   3   4
ATOM      4  C   UNL     1     256.275 260.372 248.772  1.00  0.00     0.000 C 
BRANCH   4   5
ATOM      5  C   UNL     1     257.382 261.357 249.182  1.00  0.00     0.001 C 
BRANCH   5   6
ATOM      6  C   UNL     1     258.078 262.007 247.970  1.00  0.00     0.009 C 
BRANCH   6   7
ATOM      7  C   UNL     1     258.446 260.970 246.889  1.00  0.00     0.032 C 
ATOM      8  C   UNL     1     258.245 261.558 245.488  1.00  0.00     0.014 C 
BRANCH   7   9
ATOM      9  C   UNL     1     259.867 260.499 247.041  1.00  0.00     0.044 C 
ATOM     10  O   UNL     1     260.813 261.180 246.562  1.00  0.00    -0.550 OA
ATOM     11  O   UNL     1     260.147 259.315 247.712  1.00  0.00    -0.550 OA
ENDBRANCH   7   9
ENDBRANCH   6   7
ENDBRANCH   5   6
ENDBRANCH   4   5
ENDBRANCH   3   4
ENDBRANCH   2   3
ENDBRANCH   1   2
BRANCH   1  12
ATOM     12  C   UNL     1     254.152 259.426 245.823  1.00  0.00     0.000 C 
BRANCH  12  13
ATOM     13  C   UNL     1     253.270 258.521 246.702  1.00  0.00    -0.000 C 
BRANCH  13  14
ATOM     14  C   UNL     1     253.343 257.016 246.371  1.00  0.00    -0.000 C 
BRANCH  14  15
ATOM     15  C   UNL     1     253.888 256.125 247.502  1.00  0.00    -0.000 C 
BRANCH  15  16
ATOM     16  C   UNL     1     254.499 256.933 248.656  1.00  0.00    -0.000 C 
BRANCH  16  17
ATOM     17  C   UNL     1     256.027 256.815 248.660  1.00  0.00    -0.000 C 
BRANCH  17  18
ATOM     18  C   UNL     1     256.465 255.349 248.759  1.00  0.00    -0.003 C 
ATOM     19  C   UNL     1     256.192 254.784 250.150  1.00  0.00     0.004 C 
ENDBRANCH  17  18
ENDBRANCH  16  17
ENDBRANCH  15  16
ENDBRANCH  14  15
ENDBRANCH  13  14
ENDBRANCH  12  13
ENDBRANCH   1  12
TORSDOF 14
ENDMDL
MODEL 7
REMARK VINA RESULT:    -5.044      6.721      9.747
REMARK INTER + INTRA:         -10.758
REMARK INTER:                  -9.031
REMARK INTRA:                  -1.727
REMARK UNBOUND:                -1.586
REMARK SMILES CCCCCCCCCCCCCC[C@@H](C)C(=O)[O-]
REMARK SMILES IDX 9 1 10 2 11 3 12 4 13 5 14 6 15 7 16 8 17 9 18 10 19 11 8 12
REMARK SMILES IDX 7 13 6 14 5 15 4 16 3 17 2 18 1 19
REMARK H PARENT
REMARK Flexibility Score: inf
ROOT
ATOM      1  C   UNL     1     253.249 257.079 246.747  1.00  0.00     0.000 C 
ENDROOT
BRANCH   1   2
ATOM      2  C   UNL     1     253.166 255.578 246.436  1.00  0.00     0.000 C 
BRANCH   2   3
ATOM      3  C   UNL     1     252.119 255.249 245.360  1.00  0.00     0.000 C 
BRANCH   3   4
ATOM      4  C   UNL     1     250.733 254.949 245.958  1.00  0.00     0.000 C 
BRANCH   4   5
ATOM      5  C   UNL     1     249.654 255.932 245.473  1.00  0.00     0.001 C 
BRANCH   5   6
ATOM      6  C   UNL     1     248.445 256.004 246.424  1.00  0.00     0.009 C 
BRANCH   6   7
ATOM      7  C   UNL     1     248.026 257.458 246.720  1.00  0.00     0.032 C 
ATOM      8  C   UNL     1     249.260 258.345 246.920  1.00  0.00     0.014 C 
BRANCH   7   9
ATOM      9  C   UNL     1     247.174 258.020 245.613  1.00  0.00     0.044 C 
ATOM     10  O   UNL     1     246.265 257.318 245.097  1.00  0.00    -0.550 OA
ATOM     11  O   UNL     1     247.380 259.317 245.156  1.00  0.00    -0.550 OA
ENDBRANCH   7   9
ENDBRANCH   6   7
ENDBRANCH   5   6
ENDBRANCH   4   5
ENDBRANCH   3   4
ENDBRANCH   2   3
ENDBRANCH   1   2
BRANCH   1  12
ATOM     12  C   UNL     1     252.846 257.360 248.203  1.00  0.00     0.000 C 
BRANCH  12  13
ATOM     13  C   UNL     1     254.034 257.284 249.178  1.00  0.00    -0.000 C 
BRANCH  13  14
ATOM     14  C   UNL     1     254.640 258.645 249.579  1.00  0.00    -0.000 C 
BRANCH  14  15
ATOM     15  C   UNL     1     255.782 259.142 248.675  1.00  0.00    -0.000 C 
BRANCH  15  16
ATOM     16  C   UNL     1     255.551 260.567 248.150  1.00  0.00    -0.000 C 
BRANCH  16  17
ATOM     17  C   UNL     1     254.068 260.945 248.222  1.00  0.00    -0.000 C 
BRANCH  17  18
ATOM     18  C   UNL     1     253.434 260.955 246.827  1.00  0.00    -0.003 C 
ATOM     19  C   UNL     1     254.457 260.597 245.753  1.00  0.00     0.004 C 
ENDBRANCH  17  18
ENDBRANCH  16  17
ENDBRANCH  15  16
ENDBRANCH  14  15
ENDBRANCH  13  14
ENDBRANCH  12  13
ENDBRANCH   1  12
TORSDOF 14
ENDMDL
MODEL 8
REMARK VINA RESULT:    -5.033      2.173      4.843
REMARK INTER + INTRA:         -10.739
REMARK INTER:                  -9.177
REMARK INTRA:                  -1.562
REMARK UNBOUND:                -1.586
REMARK SMILES CCCCCCCCCCCCCC[C@@H](C)C(=O)[O-]
REMARK SMILES IDX 9 1 10 2 11 3 12 4 13 5 14 6 15 7 16 8 17 9 18 10 19 11 8 12
REMARK SMILES IDX 7 13 6 14 5 15 4 16 3 17 2 18 1 19
REMARK H PARENT
REMARK Flexibility Score: inf
ROOT
ATOM      1  C   UNL     1     253.056 259.488 246.989  1.00  0.00     0.000 C 
ENDROOT
BRANCH   1   2
ATOM      2  C   UNL     1     253.866 260.772 246.757  1.00  0.00     0.000 C 
BRANCH   2   3
ATOM      3  C   UNL     1     254.855 260.649 245.587  1.00  0.00     0.000 C 
BRANCH   3   4
ATOM      4  C   UNL     1     256.225 261.274 245.903  1.00  0.00     0.000 C 
BRANCH   4   5
ATOM      5  C   UNL     1     257.179 261.249 244.698  1.00  0.00     0.001 C 
BRANCH   5   6
ATOM      6  C   UNL     1     258.656 261.102 245.111  1.00  0.00     0.009 C 
BRANCH   6   7
ATOM      7  C   UNL     1     259.345 262.470 245.294  1.00  0.00     0.032 C 
ATOM      8  C   UNL     1     258.600 263.559 244.513  1.00  0.00     0.014 C 
BRANCH   7   9
ATOM      9  C   UNL     1     259.425 262.855 246.747  1.00  0.00     0.044 C 
ATOM     10  O   UNL     1     258.635 263.716 247.217  1.00  0.00    -0.550 OA
ATOM     11  O   UNL     1     260.365 262.261 247.581  1.00  0.00    -0.550 OA
ENDBRANCH   7   9
ENDBRANCH   6   7
ENDBRANCH   5   6
ENDBRANCH   4   5
ENDBRANCH   3   4
ENDBRANCH   2   3
ENDBRANCH   1   2
BRANCH   1  12
ATOM     12  C   UNL     1     253.945 258.244 246.832  1.00  0.00     0.000 C 
BRANCH  12  13
ATOM     13  C   UNL     1     254.343 257.619 248.182  1.00  0.00    -0.000 C 
BRANCH  13  14
ATOM     14  C   UNL     1     255.564 258.266 248.868  1.00  0.00    -0.000 C 
BRANCH  14  15
ATOM     15  C   UNL     1     255.235 259.161 250.076  1.00  0.00    -0.000 C 
BRANCH  15  16
ATOM     16  C   UNL     1     255.758 260.596 249.917  1.00  0.00    -0.000 C 
BRANCH  16  17
ATOM     17  C   UNL     1     255.606 261.383 251.223  1.00  0.00    -0.000 C 
BRANCH  17  18
ATOM     18  C   UNL     1     256.728 262.417 251.376  1.00  0.00    -0.003 C 
ATOM     19  C   UNL     1     257.781 262.253 250.284  1.00  0.00     0.004 C 
ENDBRANCH  17  18
ENDBRANCH  16  17
ENDBRANCH  15  16
ENDBRANCH  14  15
ENDBRANCH  13  14
ENDBRANCH  12  13
ENDBRANCH   1  12
TORSDOF 14
ENDMDL
MODEL 9
REMARK VINA RESULT:    -4.996      6.123      9.223
REMARK INTER + INTRA:         -10.671
REMARK INTER:                  -8.203
REMARK INTRA:                  -2.468
REMARK UNBOUND:                -1.586
REMARK SMILES CCCCCCCCCCCCCC[C@@H](C)C(=O)[O-]
REMARK SMILES IDX 9 1 10 2 11 3 12 4 13 5 14 6 15 7 16 8 17 9 18 10 19 11 8 12
REMARK SMILES IDX 7 13 6 14 5 15 4 16 3 17 2 18 1 19
REMARK H PARENT
REMARK Flexibility Score: inf
ROOT
ATOM      1  C   UNL     1     252.022 257.723 247.769  1.00  0.00     0.000 C 
ENDROOT
BRANCH   1   2
ATOM      2  C   UNL     1     251.004 258.405 246.842  1.00  0.00     0.000 C 
BRANCH   2   3
ATOM      3  C   UNL     1     249.600 258.492 247.462  1.00  0.00     0.000 C 
BRANCH   3   4
ATOM      4  C   UNL     1     248.488 258.154 246.453  1.00  0.00     0.000 C 
BRANCH   4   5
ATOM      5  C   UNL     1     248.778 256.869 245.660  1.00  0.00     0.001 C 
BRANCH   5   6
ATOM      6  C   UNL     1     248.456 255.592 246.459  1.00  0.00     0.009 C 
BRANCH   6   7
ATOM      7  C   UNL     1     249.629 254.590 246.447  1.00  0.00     0.032 C 
ATOM      8  C   UNL     1     250.638 254.953 245.352  1.00  0.00     0.014 C 
BRANCH   7   9
ATOM      9  C   UNL     1     250.325 254.544 247.780  1.00  0.00     0.044 C 
ATOM     10  O   UNL     1     251.413 253.921 247.904  1.00  0.00    -0.550 OA
ATOM     11  O   UNL     1     249.777 255.190 248.883  1.00  0.00    -0.550 OA
ENDBRANCH   7   9
ENDBRANCH   6   7
ENDBRANCH   5   6
ENDBRANCH   4   5
ENDBRANCH   3   4
ENDBRANCH   2   3
ENDBRANCH   1   2
BRANCH   1  12
ATOM     12  C   UNL     1     253.172 257.106 246.959  1.00  0.00     0.000 C 
BRANCH  12  13
ATOM     13  C   UNL     1     254.515 257.128 247.713  1.00  0.00    -0.000 C 
BRANCH  13  14
ATOM     14  C   UNL     1     254.405 257.331 249.238  1.00  0.00    -0.000 C 
BRANCH  14  15
ATOM     15  C   UNL     1     254.955 258.671 249.759  1.00  0.00    -0.000 C 
BRANCH  15  16
ATOM     16  C   UNL     1     255.833 259.397 248.729  1.00  0.00    -0.000 C 
BRANCH  16  17
ATOM     17  C   UNL     1     255.373 260.847 248.541  1.00  0.00    -0.000 C 
BRANCH  17  18
ATOM     18  C   UNL     1     253.912 260.905 248.081  1.00  0.00    -0.003 C 
ATOM     19  C   UNL     1     253.811 260.874 246.559  1.00  0.00     0.004 C 
ENDBRANCH  17  18
ENDBRANCH  16  17
ENDBRANCH  15  16
ENDBRANCH  14  15
ENDBRANCH  13  14
ENDBRANCH  12  13
ENDBRANCH   1  12
TORSDOF 14
ENDMDL
