MODEL 1
REMARK VINA RESULT:    -5.906      0.000      0.000
REMARK INTER + INTRA:         -10.671
REMARK INTER:                 -10.048
REMARK INTRA:                  -0.623
REMARK UNBOUND:                -0.623
REMARK SMILES CCCCCCCCCCCCCC(=O)[O-]
REMARK SMILES IDX 8 1 9 2 10 3 11 4 12 5 13 6 14 7 15 8 16 9 7 10 6 11 5 12
REMARK SMILES IDX 4 13 3 14 2 15 1 16
REMARK H PARENT
REMARK Flexibility Score: inf
ROOT
ATOM      1  C   UNL     1      86.649 326.356 195.888  1.00  0.00     0.000 C 
ENDROOT
BRANCH   1   2
ATOM      2  C   UNL     1      87.844 325.645 196.544  1.00  0.00     0.000 C 
BRANCH   2   3
ATOM      3  C   UNL     1      88.570 326.531 197.569  1.00  0.00     0.000 C 
BRANCH   3   4
ATOM      4  C   UNL     1      88.953 325.723 198.817  1.00  0.00     0.000 C 
BRANCH   4   5
ATOM      5  C   UNL     1      89.551 326.599 199.930  1.00  0.00     0.006 C 
BRANCH   5   6
ATOM      6  C   UNL     1      89.086 326.175 201.329  1.00  0.00     0.053 C 
BRANCH   6   7
ATOM      7  C   UNL     1      89.928 326.829 202.379  1.00  0.00     0.041 C 
ATOM      8  O   UNL     1      89.405 327.234 203.450  1.00  0.00    -0.550 OA
ATOM      9  O   UNL     1      91.283 327.038 202.154  1.00  0.00    -0.550 OA
ENDBRANCH   6   7
ENDBRANCH   5   6
ENDBRANCH   4   5
ENDBRANCH   3   4
ENDBRANCH   2   3
ENDBRANCH   1   2
BRANCH   1  10
ATOM     10  C   UNL     1      86.986 326.921 194.500  1.00  0.00     0.000 C 
BRANCH  10  11
ATOM     11  C   UNL     1      88.115 326.121 193.840  1.00  0.00    -0.000 C 
BRANCH  11  12
ATOM     12  C   UNL     1      87.555 325.037 192.911  1.00  0.00    -0.000 C 
BRANCH  12  13
ATOM     13  C   UNL     1      88.218 323.679 193.186  1.00  0.00    -0.000 C 
BRANCH  13  14
ATOM     14  C   UNL     1      88.330 322.809 191.925  1.00  0.00    -0.000 C 
BRANCH  14  15
ATOM     15  C   UNL     1      87.776 323.505 190.674  1.00  0.00    -0.003 C 
ATOM     16  C   UNL     1      88.826 323.566 189.569  1.00  0.00     0.004 C 
ENDBRANCH  14  15
ENDBRANCH  13  14
ENDBRANCH  12  13
ENDBRANCH  11  12
ENDBRANCH  10  11
ENDBRANCH   1  10
TORSDOF 12
ENDMDL
MODEL 2
REMARK VINA RESULT:    -5.886      5.587      8.811
REMARK INTER + INTRA:         -10.638
REMARK INTER:                  -9.431
REMARK INTRA:                  -1.207
REMARK UNBOUND:                -0.623
REMARK SMILES CCCCCCCCCCCCCC(=O)[O-]
REMARK SMILES IDX 8 1 9 2 10 3 11 4 12 5 13 6 14 7 15 8 16 9 7 10 6 11 5 12
REMARK SMILES IDX 4 13 3 14 2 15 1 16
REMARK H PARENT
REMARK Flexibility Score: inf
ROOT
ATOM      1  C   UNL     1      88.159 325.441 193.302  1.00  0.00     0.000 C 
ENDROOT
BRANCH   1   2
ATOM      2  C   UNL     1      86.829 324.706 193.068  1.00  0.00     0.000 C 
BRANCH   2   3
ATOM      3  C   UNL     1      86.877 323.767 191.852  1.00  0.00     0.000 C 
BRANCH   3   4
ATOM      4  C   UNL     1      88.213 323.903 191.107  1.00  0.00     0.000 C 
BRANCH   4   5
ATOM      5  C   UNL     1      88.194 323.226 189.727  1.00  0.00     0.006 C 
BRANCH   5   6
ATOM      6  C   UNL     1      89.416 323.590 188.874  1.00  0.00     0.053 C 
BRANCH   6   7
ATOM      7  C   UNL     1      90.255 322.377 188.620  1.00  0.00     0.041 C 
ATOM      8  O   UNL     1      89.730 321.327 188.164  1.00  0.00    -0.550 OA
ATOM      9  O   UNL     1      91.609 322.389 188.933  1.00  0.00    -0.550 OA
ENDBRANCH   6   7
ENDBRANCH   5   6
ENDBRANCH   4   5
ENDBRANCH   3   4
ENDBRANCH   2   3
ENDBRANCH   1   2
BRANCH   1  10
ATOM     10  C   UNL     1      87.988 326.727 194.125  1.00  0.00     0.000 C 
BRANCH  10  11
ATOM     11  C   UNL     1      86.609 326.770 194.794  1.00  0.00    -0.000 C 
BRANCH  11  12
ATOM     12  C   UNL     1      86.708 326.433 196.287  1.00  0.00    -0.000 C 
BRANCH  12  13
ATOM     13  C   UNL     1      88.171 326.424 196.753  1.00  0.00    -0.000 C 
BRANCH  13  14
ATOM     14  C   UNL     1      88.534 325.154 197.540  1.00  0.00    -0.000 C 
BRANCH  14  15
ATOM     15  C   UNL     1      89.269 324.116 196.682  1.00  0.00    -0.003 C 
ATOM     16  C   UNL     1      88.298 323.086 196.111  1.00  0.00     0.004 C 
ENDBRANCH  14  15
ENDBRANCH  13  14
ENDBRANCH  12  13
ENDBRANCH  11  12
ENDBRANCH  10  11
ENDBRANCH   1  10
TORSDOF 12
ENDMDL
MODEL 3
REMARK VINA RESULT:    -5.802     18.818     21.185
REMARK INTER + INTRA:         -10.495
REMARK INTER:                  -8.995
REMARK INTRA:                  -1.500
REMARK UNBOUND:                -0.623
REMARK SMILES CCCCCCCCCCCCCC(=O)[O-]
REMARK SMILES IDX 8 1 9 2 10 3 11 4 12 5 13 6 14 7 15 8 16 9 7 10 6 11 5 12
REMARK SMILES IDX 4 13 3 14 2 15 1 16
REMARK H PARENT
REMARK Flexibility Score: inf
ROOT
ATOM      1  C   UNL     1     104.435 311.632 192.954  1.00  0.00     0.000 C 
ENDROOT
BRANCH   1   2
ATOM      2  C   UNL     1     104.077 312.855 192.095  1.00  0.00     0.000 C 
BRANCH   2   3
ATOM      3  C   UNL     1     105.314 313.652 191.653  1.00  0.00     0.000 C 
BRANCH   3   4
ATOM      4  C   UNL     1     104.975 314.585 190.481  1.00  0.00     0.000 C 
BRANCH   4   5
ATOM      5  C   UNL     1     103.620 314.255 189.834  1.00  0.00     0.006 C 
BRANCH   5   6
ATOM      6  C   UNL     1     103.458 314.890 188.446  1.00  0.00     0.053 C 
BRANCH   6   7
ATOM      7  C   UNL     1     102.208 315.710 188.390  1.00  0.00     0.041 C 
ATOM      8  O   UNL     1     102.205 316.892 188.821  1.00  0.00    -0.550 OA
ATOM      9  O   UNL     1     101.031 315.150 187.908  1.00  0.00    -0.550 OA
ENDBRANCH   6   7
ENDBRANCH   5   6
ENDBRANCH   4   5
ENDBRANCH   3   4
ENDBRANCH   2   3
ENDBRANCH   1   2
BRANCH   1  10
ATOM     10  C   UNL     1     105.800 311.773 193.645  1.00  0.00     0.000 C 
BRANCH  10  11
ATOM     11  C   UNL     1     105.664 311.618 195.164  1.00  0.00    -0.000 C 
BRANCH  11  12
ATOM     12  C   UNL     1     104.199 311.729 195.602  1.00  0.00    -0.000 C 
BRANCH  12  13
ATOM     13  C   UNL     1     103.994 312.928 196.540  1.00  0.00    -0.000 C 
BRANCH  13  14
ATOM     14  C   UNL     1     103.278 314.101 195.852  1.00  0.00    -0.000 C 
BRANCH  14  15
ATOM     15  C   UNL     1     104.248 315.045 195.127  1.00  0.00    -0.003 C 
ATOM     16  C   UNL     1     103.531 315.843 194.042  1.00  0.00     0.004 C 
ENDBRANCH  14  15
ENDBRANCH  13  14
ENDBRANCH  12  13
ENDBRANCH  11  12
ENDBRANCH  10  11
ENDBRANCH   1  10
TORSDOF 12
ENDMDL
MODEL 4
REMARK VINA RESULT:    -5.796     19.446     20.606
REMARK INTER + INTRA:         -10.484
REMARK INTER:                 -10.049
REMARK INTRA:                  -0.435
REMARK UNBOUND:                -0.623
REMARK SMILES CCCCCCCCCCCCCC(=O)[O-]
REMARK SMILES IDX 8 1 9 2 10 3 11 4 12 5 13 6 14 7 15 8 16 9 7 10 6 11 5 12
REMARK SMILES IDX 4 13 3 14 2 15 1 16
REMARK H PARENT
REMARK Flexibility Score: inf
ROOT
ATOM      1  C   UNL     1     105.483 311.214 193.722  1.00  0.00     0.000 C 
ENDROOT
BRANCH   1   2
ATOM      2  C   UNL     1     105.510 311.635 195.200  1.00  0.00     0.000 C 
BRANCH   2   3
ATOM      3  C   UNL     1     104.107 311.918 195.761  1.00  0.00     0.000 C 
BRANCH   3   4
ATOM      4  C   UNL     1     103.889 311.178 197.089  1.00  0.00     0.000 C 
BRANCH   4   5
ATOM      5  C   UNL     1     103.928 312.117 198.305  1.00  0.00     0.006 C 
BRANCH   5   6
ATOM      6  C   UNL     1     103.256 311.509 199.543  1.00  0.00     0.053 C 
BRANCH   6   7
ATOM      7  C   UNL     1     103.849 312.081 200.792  1.00  0.00     0.041 C 
ATOM      8  O   UNL     1     104.195 313.291 200.834  1.00  0.00    -0.550 OA
ATOM      9  O   UNL     1     104.067 311.265 201.896  1.00  0.00    -0.550 OA
ENDBRANCH   6   7
ENDBRANCH   5   6
ENDBRANCH   4   5
ENDBRANCH   3   4
ENDBRANCH   2   3
ENDBRANCH   1   2
BRANCH   1  10
ATOM     10  C   UNL     1     104.179 311.615 193.016  1.00  0.00     0.000 C 
BRANCH  10  11
ATOM     11  C   UNL     1     104.192 313.102 192.645  1.00  0.00    -0.000 C 
BRANCH  11  12
ATOM     12  C   UNL     1     105.511 313.492 191.968  1.00  0.00    -0.000 C 
BRANCH  12  13
ATOM     13  C   UNL     1     105.255 314.265 190.666  1.00  0.00    -0.000 C 
BRANCH  13  14
ATOM     14  C   UNL     1     103.783 314.216 190.229  1.00  0.00    -0.000 C 
BRANCH  14  15
ATOM     15  C   UNL     1     103.543 314.905 188.878  1.00  0.00    -0.003 C 
ATOM     16  C   UNL     1     102.334 314.308 188.164  1.00  0.00     0.004 C 
ENDBRANCH  14  15
ENDBRANCH  13  14
ENDBRANCH  12  13
ENDBRANCH  11  12
ENDBRANCH  10  11
ENDBRANCH   1  10
TORSDOF 12
ENDMDL
MODEL 5
REMARK VINA RESULT:    -5.763     19.642     21.830
REMARK INTER + INTRA:         -10.428
REMARK INTER:                  -9.736
REMARK INTRA:                  -0.691
REMARK UNBOUND:                -0.623
REMARK SMILES CCCCCCCCCCCCCC(=O)[O-]
REMARK SMILES IDX 8 1 9 2 10 3 11 4 12 5 13 6 14 7 15 8 16 9 7 10 6 11 5 12
REMARK SMILES IDX 4 13 3 14 2 15 1 16
REMARK H PARENT
REMARK Flexibility Score: inf
ROOT
ATOM      1  C   UNL     1     104.276 311.578 193.237  1.00  0.00     0.000 C 
ENDROOT
BRANCH   1   2
ATOM      2  C   UNL     1     104.197 312.617 192.106  1.00  0.00     0.000 C 
BRANCH   2   3
ATOM      3  C   UNL     1     103.873 314.028 192.620  1.00  0.00     0.000 C 
BRANCH   3   4
ATOM      4  C   UNL     1     103.993 315.063 191.491  1.00  0.00     0.000 C 
BRANCH   4   5
ATOM      5  C   UNL     1     104.341 314.425 190.136  1.00  0.00     0.006 C 
BRANCH   5   6
ATOM      6  C   UNL     1     103.233 314.613 189.093  1.00  0.00     0.053 C 
BRANCH   6   7
ATOM      7  C   UNL     1     103.481 315.849 188.286  1.00  0.00     0.041 C 
ATOM      8  O   UNL     1     102.652 316.796 188.305  1.00  0.00    -0.550 OA
ATOM      9  O   UNL     1     104.604 315.935 187.472  1.00  0.00    -0.550 OA
ENDBRANCH   6   7
ENDBRANCH   5   6
ENDBRANCH   4   5
ENDBRANCH   3   4
ENDBRANCH   2   3
ENDBRANCH   1   2
BRANCH   1  10
ATOM     10  C   UNL     1     105.714 311.341 193.723  1.00  0.00     0.000 C 
BRANCH  10  11
ATOM     11  C   UNL     1     105.795 311.416 195.252  1.00  0.00    -0.000 C 
BRANCH  11  12
ATOM     12  C   UNL     1     104.606 312.193 195.832  1.00  0.00    -0.000 C 
BRANCH  12  13
ATOM     13  C   UNL     1     103.982 311.441 197.016  1.00  0.00    -0.000 C 
BRANCH  13  14
ATOM     14  C   UNL     1     103.590 312.376 198.171  1.00  0.00    -0.000 C 
BRANCH  14  15
ATOM     15  C   UNL     1     103.372 311.626 199.492  1.00  0.00    -0.003 C 
ATOM     16  C   UNL     1     104.471 311.955 200.499  1.00  0.00     0.004 C 
ENDBRANCH  14  15
ENDBRANCH  13  14
ENDBRANCH  12  13
ENDBRANCH  11  12
ENDBRANCH  10  11
ENDBRANCH   1  10
TORSDOF 12
ENDMDL
MODEL 6
REMARK VINA RESULT:    -5.714     19.576     20.390
REMARK INTER + INTRA:         -10.345
REMARK INTER:                  -9.638
REMARK INTRA:                  -0.707
REMARK UNBOUND:                -0.623
REMARK SMILES CCCCCCCCCCCCCC(=O)[O-]
REMARK SMILES IDX 8 1 9 2 10 3 11 4 12 5 13 6 14 7 15 8 16 9 7 10 6 11 5 12
REMARK SMILES IDX 4 13 3 14 2 15 1 16
REMARK H PARENT
REMARK Flexibility Score: inf
ROOT
ATOM      1  C   UNL     1     103.717 313.018 195.412  1.00  0.00     0.000 C 
ENDROOT
BRANCH   1   2
ATOM      2  C   UNL     1     103.756 313.222 196.935  1.00  0.00     0.000 C 
BRANCH   2   3
ATOM      3  C   UNL     1     103.900 311.900 197.705  1.00  0.00     0.000 C 
BRANCH   3   4
ATOM      4  C   UNL     1     103.848 312.141 199.221  1.00  0.00     0.000 C 
BRANCH   4   5
ATOM      5  C   UNL     1     102.876 311.192 199.940  1.00  0.00     0.006 C 
BRANCH   5   6
ATOM      6  C   UNL     1     101.931 311.928 200.898  1.00  0.00     0.053 C 
BRANCH   6   7
ATOM      7  C   UNL     1     101.480 311.012 201.992  1.00  0.00     0.041 C 
ATOM      8  O   UNL     1     100.253 310.790 202.167  1.00  0.00    -0.550 OA
ATOM      9  O   UNL     1     102.412 310.442 202.851  1.00  0.00    -0.550 OA
ENDBRANCH   6   7
ENDBRANCH   5   6
ENDBRANCH   4   5
ENDBRANCH   3   4
ENDBRANCH   2   3
ENDBRANCH   1   2
BRANCH   1  10
ATOM     10  C   UNL     1     103.774 311.537 195.010  1.00  0.00     0.000 C 
BRANCH  10  11
ATOM     11  C   UNL     1     104.192 311.381 193.544  1.00  0.00    -0.000 C 
BRANCH  11  12
ATOM     12  C   UNL     1     105.601 311.939 193.308  1.00  0.00    -0.000 C 
BRANCH  12  13
ATOM     13  C   UNL     1     105.582 313.056 192.254  1.00  0.00    -0.000 C 
BRANCH  13  14
ATOM     14  C   UNL     1     104.176 313.315 191.692  1.00  0.00    -0.000 C 
BRANCH  14  15
ATOM     15  C   UNL     1     104.196 314.163 190.413  1.00  0.00    -0.003 C 
ATOM     16  C   UNL     1     105.566 314.800 190.197  1.00  0.00     0.004 C 
ENDBRANCH  14  15
ENDBRANCH  13  14
ENDBRANCH  12  13
ENDBRANCH  11  12
ENDBRANCH  10  11
ENDBRANCH   1  10
TORSDOF 12
ENDMDL
MODEL 7
REMARK VINA RESULT:    -5.696      4.107      4.813
REMARK INTER + INTRA:         -10.315
REMARK INTER:                  -8.629
REMARK INTRA:                  -1.685
REMARK UNBOUND:                -0.623
REMARK SMILES CCCCCCCCCCCCCC(=O)[O-]
REMARK SMILES IDX 8 1 9 2 10 3 11 4 12 5 13 6 14 7 15 8 16 9 7 10 6 11 5 12
REMARK SMILES IDX 4 13 3 14 2 15 1 16
REMARK H PARENT
REMARK Flexibility Score: inf
ROOT
ATOM      1  C   UNL     1      86.769 326.553 194.807  1.00  0.00     0.000 C 
ENDROOT
BRANCH   1   2
ATOM      2  C   UNL     1      87.058 326.465 196.314  1.00  0.00     0.000 C 
BRANCH   2   3
ATOM      3  C   UNL     1      88.548 326.249 196.620  1.00  0.00     0.000 C 
BRANCH   3   4
ATOM      4  C   UNL     1      88.774 324.901 197.321  1.00  0.00     0.000 C 
BRANCH   4   5
ATOM      5  C   UNL     1      89.079 323.763 196.334  1.00  0.00     0.006 C 
BRANCH   5   6
ATOM      6  C   UNL     1      87.873 322.845 196.099  1.00  0.00     0.053 C 
BRANCH   6   7
ATOM      7  C   UNL     1      88.168 321.865 195.007  1.00  0.00     0.041 C 
ATOM      8  O   UNL     1      87.307 321.011 194.672  1.00  0.00    -0.550 OA
ATOM      9  O   UNL     1      89.414 321.863 194.392  1.00  0.00    -0.550 OA
ENDBRANCH   6   7
ENDBRANCH   5   6
ENDBRANCH   4   5
ENDBRANCH   3   4
ENDBRANCH   2   3
ENDBRANCH   1   2
BRANCH   1  10
ATOM     10  C   UNL     1      88.045 326.483 193.954  1.00  0.00     0.000 C 
BRANCH  10  11
ATOM     11  C   UNL     1      88.056 325.220 193.086  1.00  0.00    -0.000 C 
BRANCH  11  12
ATOM     12  C   UNL     1      86.667 324.571 193.037  1.00  0.00    -0.000 C 
BRANCH  12  13
ATOM     13  C   UNL     1      86.577 323.550 191.893  1.00  0.00    -0.000 C 
BRANCH  13  14
ATOM     14  C   UNL     1      87.958 323.115 191.378  1.00  0.00    -0.000 C 
BRANCH  14  15
ATOM     15  C   UNL     1      87.993 322.941 189.853  1.00  0.00    -0.003 C 
ATOM     16  C   UNL     1      89.119 323.763 189.232  1.00  0.00     0.004 C 
ENDBRANCH  14  15
ENDBRANCH  13  14
ENDBRANCH  12  13
ENDBRANCH  11  12
ENDBRANCH  10  11
ENDBRANCH   1  10
TORSDOF 12
ENDMDL
MODEL 8
REMARK VINA RESULT:    -5.670     18.579     20.207
REMARK INTER + INTRA:         -10.269
REMARK INTER:                  -9.111
REMARK INTRA:                  -1.158
REMARK UNBOUND:                -0.623
REMARK SMILES CCCCCCCCCCCCCC(=O)[O-]
REMARK SMILES IDX 8 1 9 2 10 3 11 4 12 5 13 6 14 7 15 8 16 9 7 10 6 11 5 12
REMARK SMILES IDX 4 13 3 14 2 15 1 16
REMARK H PARENT
REMARK Flexibility Score: inf
ROOT
ATOM      1  C   UNL     1     104.301 311.650 193.008  1.00  0.00     0.000 C 
ENDROOT
BRANCH   1   2
ATOM      2  C   UNL     1     105.721 311.547 193.588  1.00  0.00     0.000 C 
BRANCH   2   3
ATOM      3  C   UNL     1     105.735 311.553 195.125  1.00  0.00     0.000 C 
BRANCH   3   4
ATOM      4  C   UNL     1     104.336 311.849 195.685  1.00  0.00     0.000 C 
BRANCH   4   5
ATOM      5  C   UNL     1     104.248 313.227 196.362  1.00  0.00     0.006 C 
BRANCH   5   6
ATOM      6  C   UNL     1     103.539 314.270 195.489  1.00  0.00     0.053 C 
BRANCH   6   7
ATOM      7  C   UNL     1     104.326 315.542 195.452  1.00  0.00     0.041 C 
ATOM      8  O   UNL     1     104.278 316.346 196.419  1.00  0.00    -0.550 OA
ATOM      9  O   UNL     1     105.075 315.864 194.326  1.00  0.00    -0.550 OA
ENDBRANCH   6   7
ENDBRANCH   5   6
ENDBRANCH   4   5
ENDBRANCH   3   4
ENDBRANCH   2   3
ENDBRANCH   1   2
BRANCH   1  10
ATOM     10  C   UNL     1     104.132 312.854 192.069  1.00  0.00     0.000 C 
BRANCH  10  11
ATOM     11  C   UNL     1     105.480 313.531 191.796  1.00  0.00    -0.000 C 
BRANCH  11  12
ATOM     12  C   UNL     1     105.361 314.565 190.670  1.00  0.00    -0.000 C 
BRANCH  12  13
ATOM     13  C   UNL     1     103.890 314.825 190.313  1.00  0.00    -0.000 C 
BRANCH  13  14
ATOM     14  C   UNL     1     103.651 314.888 188.797  1.00  0.00    -0.000 C 
BRANCH  14  15
ATOM     15  C   UNL     1     102.359 314.178 188.370  1.00  0.00    -0.003 C 
ATOM     16  C   UNL     1     101.272 315.186 188.009  1.00  0.00     0.004 C 
ENDBRANCH  14  15
ENDBRANCH  13  14
ENDBRANCH  12  13
ENDBRANCH  11  12
ENDBRANCH  10  11
ENDBRANCH   1  10
TORSDOF 12
ENDMDL
MODEL 9
REMARK VINA RESULT:    -5.649     19.918     20.824
REMARK INTER + INTRA:         -10.235
REMARK INTER:                  -9.712
REMARK INTRA:                  -0.523
REMARK UNBOUND:                -0.623
REMARK SMILES CCCCCCCCCCCCCC(=O)[O-]
REMARK SMILES IDX 8 1 9 2 10 3 11 4 12 5 13 6 14 7 15 8 16 9 7 10 6 11 5 12
REMARK SMILES IDX 4 13 3 14 2 15 1 16
REMARK H PARENT
REMARK Flexibility Score: inf
ROOT
ATOM      1  C   UNL     1     103.884 312.811 196.840  1.00  0.00     0.000 C 
ENDROOT
BRANCH   1   2
ATOM      2  C   UNL     1     103.913 311.862 198.049  1.00  0.00     0.000 C 
BRANCH   2   3
ATOM      3  C   UNL     1     103.225 312.458 199.287  1.00  0.00     0.000 C 
BRANCH   3   4
ATOM      4  C   UNL     1     102.953 311.373 200.339  1.00  0.00     0.000 C 
BRANCH   4   5
ATOM      5  C   UNL     1     103.939 311.429 201.518  1.00  0.00     0.006 C 
BRANCH   5   6
ATOM      6  C   UNL     1     103.375 310.784 202.791  1.00  0.00     0.053 C 
BRANCH   6   7
ATOM      7  C   UNL     1     104.146 311.237 203.990  1.00  0.00     0.041 C 
ATOM      8  O   UNL     1     104.073 310.594 205.070  1.00  0.00    -0.550 OA
ATOM      9  O   UNL     1     104.908 312.398 203.931  1.00  0.00    -0.550 OA
ENDBRANCH   6   7
ENDBRANCH   5   6
ENDBRANCH   4   5
ENDBRANCH   3   4
ENDBRANCH   2   3
ENDBRANCH   1   2
BRANCH   1  10
ATOM     10  C   UNL     1     104.649 312.253 195.631  1.00  0.00     0.000 C 
BRANCH  10  11
ATOM     11  C   UNL     1     103.713 311.471 194.703  1.00  0.00    -0.000 C 
BRANCH  11  12
ATOM     12  C   UNL     1     104.282 311.394 193.280  1.00  0.00    -0.000 C 
BRANCH  12  13
ATOM     13  C   UNL     1     105.566 312.227 193.156  1.00  0.00    -0.000 C 
BRANCH  13  14
ATOM     14  C   UNL     1     105.462 313.317 192.077  1.00  0.00    -0.000 C 
BRANCH  14  15
ATOM     15  C   UNL     1     104.087 313.347 191.396  1.00  0.00    -0.003 C 
ATOM     16  C   UNL     1     104.087 314.291 190.197  1.00  0.00     0.004 C 
ENDBRANCH  14  15
ENDBRANCH  13  14
ENDBRANCH  12  13
ENDBRANCH  11  12
ENDBRANCH  10  11
ENDBRANCH   1  10
TORSDOF 12
ENDMDL
