MODEL 1
REMARK VINA RESULT:    -3.983      0.000      0.000
REMARK INTER + INTRA:          -7.771
REMARK INTER:                  -5.846
REMARK INTRA:                  -1.925
REMARK UNBOUND:                -1.925
REMARK SMILES O=c1c(O[C@@H]2O[C@H](CO)[C@H](O)[C@H](O)[C@H]2O)c(-c2ccc(O)c(O)c2)oc2cc(O)cc(O)c12
REMARK SMILES IDX 4 1 3 2 16 3 25 4 2 5 26 6 1 7 33 8 27 9 31 10 28 11 30 12
REMARK SMILES IDX 17 13 18 14 19 15 20 16 24 17 22 18 21 19 23 21 32 23 29 25
REMARK SMILES IDX 5 27 14 28 6 29 12 30 7 31 10 32 15 33 13 35 8 37 9 38 11 40
REMARK H PARENT 21 20 23 22 32 24 29 26 15 34 13 36 9 39 11 41
REMARK Flexibility Score: inf
ROOT
ATOM      1  O   UNL     1     -21.101  27.472  20.918  1.00  0.00    -0.454 OA
ENDROOT
BRANCH   1   2
ATOM      2  C   UNL     1     -19.779  26.965  20.856  1.00  0.00     0.214 A 
ATOM      3  C   UNL     1     -18.736  27.692  21.495  1.00  0.00     0.180 A 
ATOM      4  O   UNL     1     -17.640  27.033  21.873  1.00  0.00    -0.452 OA
ATOM      5  C   UNL     1     -19.500  25.690  20.369  1.00  0.00     0.239 A 
ATOM      6  C   UNL     1     -17.500  25.733  21.717  1.00  0.00     0.146 A 
ATOM      7  O   UNL     1     -20.242  25.159  19.512  1.00  0.00    -0.285 OA
ATOM      8  C   UNL     1     -18.402  24.999  20.898  1.00  0.00     0.111 A 
ATOM      9  C   UNL     1     -16.532  25.051  22.463  1.00  0.00     0.094 A 
ATOM     10  C   UNL     1     -18.241  23.608  20.766  1.00  0.00     0.134 A 
ATOM     11  C   UNL     1     -16.532  23.642  22.497  1.00  0.00     0.123 A 
ATOM     12  C   UNL     1     -17.336  22.934  21.589  1.00  0.00     0.093 A 
BRANCH   3  13
ATOM     13  C   UNL     1     -18.892  29.107  21.957  1.00  0.00     0.025 A 
ATOM     14  C   UNL     1     -18.595  29.401  23.308  1.00  0.00     0.016 A 
ATOM     15  C   UNL     1     -19.389  30.304  24.012  1.00  0.00     0.051 A 
ATOM     16  C   UNL     1     -20.387  31.053  23.368  1.00  0.00     0.157 A 
ATOM     17  C   UNL     1     -19.697  30.057  21.255  1.00  0.00     0.062 A 
ATOM     18  C   UNL     1     -20.473  31.009  21.948  1.00  0.00     0.158 A 
BRANCH  16  19
ATOM     19  O   UNL     1     -21.479  31.422  24.125  1.00  0.00    -0.504 OA
ATOM     20  H   UNL     1     -21.750  31.008  25.012  1.00  0.00     0.293 HD
ENDBRANCH  16  19
BRANCH  18  21
ATOM     21  O   UNL     1     -21.413  31.792  21.259  1.00  0.00    -0.504 OA
ATOM     22  H   UNL     1     -21.822  32.624  21.691  1.00  0.00     0.293 HD
ENDBRANCH  18  21
ENDBRANCH   3  13
BRANCH  10  23
ATOM     23  O   UNL     1     -19.087  22.876  19.921  1.00  0.00    -0.507 OA
ATOM     24  H   UNL     1     -20.097  22.978  19.937  1.00  0.00     0.293 HD
ENDBRANCH  10  23
BRANCH  11  25
ATOM     25  O   UNL     1     -15.989  22.960  23.572  1.00  0.00    -0.508 OA
ATOM     26  H   UNL     1     -15.978  21.943  23.639  1.00  0.00     0.293 HD
ENDBRANCH  11  25
ENDBRANCH   1   2
BRANCH   1  27
ATOM     27  C   UNL     1     -22.047  27.499  22.001  1.00  0.00     0.339 C 
ATOM     28  C   UNL     1     -23.081  28.708  22.017  1.00  0.00     0.214 C 
ATOM     29  O   UNL     1     -22.802  26.245  21.902  1.00  0.00    -0.332 OA
ATOM     30  C   UNL     1     -23.708  28.832  20.598  1.00  0.00     0.180 C 
ATOM     31  C   UNL     1     -23.954  26.238  21.010  1.00  0.00     0.179 C 
ATOM     32  C   UNL     1     -24.058  27.437  19.989  1.00  0.00     0.177 C 
BRANCH  28  33
ATOM     33  O   UNL     1     -24.125  28.434  22.904  1.00  0.00    -0.384 OA
ATOM     34  H   UNL     1     -24.305  29.252  23.464  1.00  0.00     0.211 HD
ENDBRANCH  28  33
BRANCH  30  35
ATOM     35  O   UNL     1     -22.872  29.552  19.757  1.00  0.00    -0.387 OA
ATOM     36  H   UNL     1     -21.950  29.493  20.127  1.00  0.00     0.211 HD
ENDBRANCH  30  35
BRANCH  31  37
ATOM     37  C   UNL     1     -24.110  24.840  20.325  1.00  0.00     0.191 C 
BRANCH  37  38
ATOM     38  O   UNL     1     -22.926  24.465  19.654  1.00  0.00    -0.394 OA
ATOM     39  H   UNL     1     -22.829  23.466  19.799  1.00  0.00     0.210 HD
ENDBRANCH  37  38
ENDBRANCH  31  37
BRANCH  32  40
ATOM     40  O   UNL     1     -23.335  27.156  18.826  1.00  0.00    -0.387 OA
ATOM     41  H   UNL     1     -23.663  26.336  18.379  1.00  0.00     0.211 HD
ENDBRANCH  32  40
ENDBRANCH   1  27
TORSDOF 12
ENDMDL
MODEL 2
REMARK VINA RESULT:    -3.313      1.881      6.076
REMARK INTER + INTRA:          -6.787
REMARK INTER:                  -4.809
REMARK INTRA:                  -1.979
REMARK UNBOUND:                -1.925
REMARK SMILES O=c1c(O[C@@H]2O[C@H](CO)[C@H](O)[C@H](O)[C@H]2O)c(-c2ccc(O)c(O)c2)oc2cc(O)cc(O)c12
REMARK SMILES IDX 4 1 3 2 16 3 25 4 2 5 26 6 1 7 33 8 27 9 31 10 28 11 30 12
REMARK SMILES IDX 17 13 18 14 19 15 20 16 24 17 22 18 21 19 23 21 32 23 29 25
REMARK SMILES IDX 5 27 14 28 6 29 12 30 7 31 10 32 15 33 13 35 8 37 9 38 11 40
REMARK H PARENT 21 20 23 22 32 24 29 26 15 34 13 36 9 39 11 41
REMARK Flexibility Score: inf
ROOT
ATOM      1  O   UNL     1     -21.093  26.927  22.293  1.00  0.00    -0.454 OA
ENDROOT
BRANCH   1   2
ATOM      2  C   UNL     1     -20.610  27.919  23.183  1.00  0.00     0.214 A 
ATOM      3  C   UNL     1     -19.298  27.779  23.717  1.00  0.00     0.180 A 
ATOM      4  O   UNL     1     -18.657  28.875  24.124  1.00  0.00    -0.452 OA
ATOM      5  C   UNL     1     -21.289  29.117  23.392  1.00  0.00     0.239 A 
ATOM      6  C   UNL     1     -19.169  30.083  24.015  1.00  0.00     0.146 A 
ATOM      7  O   UNL     1     -22.534  29.174  23.264  1.00  0.00    -0.285 OA
ATOM      8  C   UNL     1     -20.544  30.262  23.698  1.00  0.00     0.111 A 
ATOM      9  C   UNL     1     -18.325  31.197  24.090  1.00  0.00     0.094 A 
ATOM     10  C   UNL     1     -21.059  31.565  23.567  1.00  0.00     0.134 A 
ATOM     11  C   UNL     1     -18.808  32.472  23.732  1.00  0.00     0.123 A 
ATOM     12  C   UNL     1     -20.188  32.656  23.549  1.00  0.00     0.093 A 
BRANCH   3  13
ATOM     13  C   UNL     1     -18.521  26.502  23.646  1.00  0.00     0.025 A 
ATOM     14  C   UNL     1     -17.447  26.428  22.729  1.00  0.00     0.016 A 
ATOM     15  C   UNL     1     -17.221  25.251  22.018  1.00  0.00     0.051 A 
ATOM     16  C   UNL     1     -17.940  24.080  22.302  1.00  0.00     0.157 A 
ATOM     17  C   UNL     1     -19.043  25.261  24.125  1.00  0.00     0.062 A 
ATOM     18  C   UNL     1     -18.789  24.052  23.444  1.00  0.00     0.158 A 
BRANCH  16  19
ATOM     19  O   UNL     1     -18.139  23.199  21.260  1.00  0.00    -0.504 OA
ATOM     20  H   UNL     1     -18.061  22.188  21.317  1.00  0.00     0.293 HD
ENDBRANCH  16  19
BRANCH  18  21
ATOM     21  O   UNL     1     -19.476  22.881  23.803  1.00  0.00    -0.504 OA
ATOM     22  H   UNL     1     -19.090  21.958  23.586  1.00  0.00     0.293 HD
ENDBRANCH  18  21
ENDBRANCH   3  13
BRANCH  10  23
ATOM     23  O   UNL     1     -22.423  31.762  23.308  1.00  0.00    -0.507 OA
ATOM     24  H   UNL     1     -22.886  31.375  22.491  1.00  0.00     0.293 HD
ENDBRANCH  10  23
BRANCH  11  25
ATOM     25  O   UNL     1     -17.943  33.456  23.285  1.00  0.00    -0.508 OA
ATOM     26  H   UNL     1     -17.349  33.345  22.464  1.00  0.00     0.293 HD
ENDBRANCH  11  25
ENDBRANCH   1   2
BRANCH   1  27
ATOM     27  C   UNL     1     -20.698  26.595  20.951  1.00  0.00     0.339 C 
ATOM     28  C   UNL     1     -21.442  25.365  20.270  1.00  0.00     0.214 C 
ATOM     29  O   UNL     1     -20.960  27.796  20.149  1.00  0.00    -0.332 OA
ATOM     30  C   UNL     1     -22.974  25.549  20.473  1.00  0.00     0.180 C 
ATOM     31  C   UNL     1     -22.308  27.955  19.620  1.00  0.00     0.179 C 
ATOM     32  C   UNL     1     -23.421  27.029  20.248  1.00  0.00     0.177 C 
BRANCH  28  33
ATOM     33  O   UNL     1     -21.209  25.367  18.892  1.00  0.00    -0.384 OA
ATOM     34  H   UNL     1     -21.214  24.417  18.556  1.00  0.00     0.211 HD
ENDBRANCH  28  33
BRANCH  30  35
ATOM     35  O   UNL     1     -23.357  25.093  21.726  1.00  0.00    -0.387 OA
ATOM     36  H   UNL     1     -24.140  24.492  21.601  1.00  0.00     0.211 HD
ENDBRANCH  30  35
BRANCH  31  37
ATOM     37  C   UNL     1     -22.715  29.466  19.598  1.00  0.00     0.191 C 
BRANCH  37  38
ATOM     38  O   UNL     1     -24.091  29.620  19.326  1.00  0.00    -0.394 OA
ATOM     39  H   UNL     1     -24.578  29.144  20.077  1.00  0.00     0.210 HD
ENDBRANCH  37  38
ENDBRANCH  31  37
BRANCH  32  40
ATOM     40  O   UNL     1     -23.957  27.615  21.399  1.00  0.00    -0.387 OA
ATOM     41  H   UNL     1     -24.326  26.937  22.017  1.00  0.00     0.211 HD
ENDBRANCH  32  40
ENDBRANCH   1  27
TORSDOF 12
ENDMDL
MODEL 3
REMARK VINA RESULT:    -3.272      2.116      7.235
REMARK INTER + INTRA:          -6.726
REMARK INTER:                  -5.705
REMARK INTRA:                  -1.021
REMARK UNBOUND:                -1.925
REMARK SMILES O=c1c(O[C@@H]2O[C@H](CO)[C@H](O)[C@H](O)[C@H]2O)c(-c2ccc(O)c(O)c2)oc2cc(O)cc(O)c12
REMARK SMILES IDX 4 1 3 2 16 3 25 4 2 5 26 6 1 7 33 8 27 9 31 10 28 11 30 12
REMARK SMILES IDX 17 13 18 14 19 15 20 16 24 17 22 18 21 19 23 21 32 23 29 25
REMARK SMILES IDX 5 27 14 28 6 29 12 30 7 31 10 32 15 33 13 35 8 37 9 38 11 40
REMARK H PARENT 21 20 23 22 32 24 29 26 15 34 13 36 9 39 11 41
REMARK Flexibility Score: inf
ROOT
ATOM      1  O   UNL     1     -19.029  26.090  21.788  1.00  0.00    -0.454 OA
ENDROOT
BRANCH   1   2
ATOM      2  C   UNL     1     -19.654  27.133  21.060  1.00  0.00     0.214 A 
ATOM      3  C   UNL     1     -20.674  26.801  20.125  1.00  0.00     0.180 A 
ATOM      4  O   UNL     1     -21.581  27.729  19.817  1.00  0.00    -0.452 OA
ATOM      5  C   UNL     1     -19.448  28.476  21.370  1.00  0.00     0.239 A 
ATOM      6  C   UNL     1     -21.596  28.924  20.369  1.00  0.00     0.146 A 
ATOM      7  O   UNL     1     -18.372  28.851  21.890  1.00  0.00    -0.285 OA
ATOM      8  C   UNL     1     -20.488  29.383  21.133  1.00  0.00     0.111 A 
ATOM      9  C   UNL     1     -22.761  29.697  20.306  1.00  0.00     0.094 A 
ATOM     10  C   UNL     1     -20.539  30.656  21.730  1.00  0.00     0.134 A 
ATOM     11  C   UNL     1     -22.879  30.858  21.094  1.00  0.00     0.123 A 
ATOM     12  C   UNL     1     -21.741  31.369  21.739  1.00  0.00     0.093 A 
BRANCH   3  13
ATOM     13  C   UNL     1     -20.911  25.406  19.638  1.00  0.00     0.025 A 
ATOM     14  C   UNL     1     -19.884  24.778  18.896  1.00  0.00     0.016 A 
ATOM     15  C   UNL     1     -20.208  23.976  17.803  1.00  0.00     0.051 A 
ATOM     16  C   UNL     1     -21.541  23.647  17.511  1.00  0.00     0.157 A 
ATOM     17  C   UNL     1     -22.222  24.850  19.517  1.00  0.00     0.062 A 
ATOM     18  C   UNL     1     -22.558  24.000  18.443  1.00  0.00     0.158 A 
BRANCH  16  19
ATOM     19  O   UNL     1     -21.853  23.415  16.189  1.00  0.00    -0.504 OA
ATOM     20  H   UNL     1     -21.199  23.449  15.412  1.00  0.00     0.293 HD
ENDBRANCH  16  19
BRANCH  18  21
ATOM     21  O   UNL     1     -23.895  23.633  18.223  1.00  0.00    -0.504 OA
ATOM     22  H   UNL     1     -24.657  24.293  18.401  1.00  0.00     0.293 HD
ENDBRANCH  18  21
ENDBRANCH   3  13
BRANCH  10  23
ATOM     23  O   UNL     1     -19.436  31.148  22.441  1.00  0.00    -0.507 OA
ATOM     24  H   UNL     1     -18.853  31.904  22.092  1.00  0.00     0.293 HD
ENDBRANCH  10  23
BRANCH  11  25
ATOM     25  O   UNL     1     -24.123  31.333  21.473  1.00  0.00    -0.508 OA
ATOM     26  H   UNL     1     -24.467  32.259  21.221  1.00  0.00     0.293 HD
ENDBRANCH  11  25
ENDBRANCH   1   2
BRANCH   1  27
ATOM     27  C   UNL     1     -17.683  25.960  22.276  1.00  0.00     0.339 C 
ATOM     28  C   UNL     1     -17.508  25.359  23.739  1.00  0.00     0.214 C 
ATOM     29  O   UNL     1     -16.997  25.076  21.327  1.00  0.00    -0.332 OA
ATOM     30  C   UNL     1     -18.367  24.066  23.840  1.00  0.00     0.180 C 
ATOM     31  C   UNL     1     -17.125  23.642  21.552  1.00  0.00     0.179 C 
ATOM     32  C   UNL     1     -18.257  23.187  22.553  1.00  0.00     0.177 C 
BRANCH  28  33
ATOM     33  O   UNL     1     -16.179  24.985  23.947  1.00  0.00    -0.384 OA
ATOM     34  H   UNL     1     -15.878  24.397  23.185  1.00  0.00     0.211 HD
ENDBRANCH  28  33
BRANCH  30  35
ATOM     35  O   UNL     1     -19.689  24.379  24.122  1.00  0.00    -0.387 OA
ATOM     36  H   UNL     1     -20.251  23.616  23.820  1.00  0.00     0.211 HD
ENDBRANCH  30  35
BRANCH  31  37
ATOM     37  C   UNL     1     -17.174  22.875  20.189  1.00  0.00     0.191 C 
BRANCH  37  38
ATOM     38  O   UNL     1     -16.643  23.659  19.142  1.00  0.00    -0.394 OA
ATOM     39  H   UNL     1     -16.769  24.624  19.427  1.00  0.00     0.210 HD
ENDBRANCH  37  38
ENDBRANCH  31  37
BRANCH  32  40
ATOM     40  O   UNL     1     -19.477  23.047  21.885  1.00  0.00    -0.387 OA
ATOM     41  H   UNL     1     -20.245  23.177  22.494  1.00  0.00     0.211 HD
ENDBRANCH  32  40
ENDBRANCH   1  27
TORSDOF 12
ENDMDL
MODEL 4
REMARK VINA RESULT:    -3.238      1.781      4.861
REMARK INTER + INTRA:          -6.677
REMARK INTER:                  -5.154
REMARK INTRA:                  -1.523
REMARK UNBOUND:                -1.925
REMARK SMILES O=c1c(O[C@@H]2O[C@H](CO)[C@H](O)[C@H](O)[C@H]2O)c(-c2ccc(O)c(O)c2)oc2cc(O)cc(O)c12
REMARK SMILES IDX 4 1 3 2 16 3 25 4 2 5 26 6 1 7 33 8 27 9 31 10 28 11 30 12
REMARK SMILES IDX 17 13 18 14 19 15 20 16 24 17 22 18 21 19 23 21 32 23 29 25
REMARK SMILES IDX 5 27 14 28 6 29 12 30 7 31 10 32 15 33 13 35 8 37 9 38 11 40
REMARK H PARENT 21 20 23 22 32 24 29 26 15 34 13 36 9 39 11 41
REMARK Flexibility Score: inf
ROOT
ATOM      1  O   UNL     1     -21.003  27.669  22.125  1.00  0.00    -0.454 OA
ENDROOT
BRANCH   1   2
ATOM      2  C   UNL     1     -20.350  26.488  22.558  1.00  0.00     0.214 A 
ATOM      3  C   UNL     1     -20.833  25.231  22.099  1.00  0.00     0.180 A 
ATOM      4  O   UNL     1     -19.991  24.197  22.073  1.00  0.00    -0.452 OA
ATOM      5  C   UNL     1     -19.141  26.524  23.250  1.00  0.00     0.239 A 
ATOM      6  C   UNL     1     -18.724  24.300  22.416  1.00  0.00     0.146 A 
ATOM      7  O   UNL     1     -18.847  27.508  23.967  1.00  0.00    -0.285 OA
ATOM      8  C   UNL     1     -18.245  25.461  23.083  1.00  0.00     0.111 A 
ATOM      9  C   UNL     1     -17.818  23.313  22.008  1.00  0.00     0.094 A 
ATOM     10  C   UNL     1     -16.882  25.554  23.419  1.00  0.00     0.134 A 
ATOM     11  C   UNL     1     -16.433  23.528  22.149  1.00  0.00     0.123 A 
ATOM     12  C   UNL     1     -15.980  24.610  22.922  1.00  0.00     0.093 A 
BRANCH   3  13
ATOM     13  C   UNL     1     -22.167  25.059  21.442  1.00  0.00     0.025 A 
ATOM     14  C   UNL     1     -22.888  23.871  21.703  1.00  0.00     0.016 A 
ATOM     15  C   UNL     1     -23.599  23.251  20.677  1.00  0.00     0.051 A 
ATOM     16  C   UNL     1     -23.747  23.862  19.422  1.00  0.00     0.157 A 
ATOM     17  C   UNL     1     -22.550  25.801  20.282  1.00  0.00     0.062 A 
ATOM     18  C   UNL     1     -23.308  25.205  19.253  1.00  0.00     0.158 A 
BRANCH  16  19
ATOM     19  O   UNL     1     -23.886  23.028  18.333  1.00  0.00    -0.504 OA
ATOM     20  H   UNL     1     -23.514  22.085  18.259  1.00  0.00     0.293 HD
ENDBRANCH  16  19
BRANCH  18  21
ATOM     21  O   UNL     1     -23.496  25.876  18.034  1.00  0.00    -0.504 OA
ATOM     22  H   UNL     1     -23.039  26.775  17.853  1.00  0.00     0.293 HD
ENDBRANCH  18  21
ENDBRANCH   3  13
BRANCH  10  23
ATOM     23  O   UNL     1     -16.402  26.665  24.125  1.00  0.00    -0.507 OA
ATOM     24  H   UNL     1     -16.742  27.608  23.957  1.00  0.00     0.293 HD
ENDBRANCH  10  23
BRANCH  11  25
ATOM     25  O   UNL     1     -15.530  22.880  21.324  1.00  0.00    -0.508 OA
ATOM     26  H   UNL     1     -14.994  23.358  20.600  1.00  0.00     0.293 HD
ENDBRANCH  11  25
ENDBRANCH   1   2
BRANCH   1  27
ATOM     27  C   UNL     1     -21.739  28.661  22.862  1.00  0.00     0.339 C 
ATOM     28  C   UNL     1     -20.936  29.958  23.312  1.00  0.00     0.214 C 
ATOM     29  O   UNL     1     -22.837  29.078  21.983  1.00  0.00    -0.332 OA
ATOM     30  C   UNL     1     -20.159  30.503  22.078  1.00  0.00     0.180 C 
ATOM     31  C   UNL     1     -22.547  30.133  21.021  1.00  0.00     0.179 C 
ATOM     32  C   UNL     1     -21.023  30.461  20.777  1.00  0.00     0.177 C 
BRANCH  28  33
ATOM     33  O   UNL     1     -21.825  30.959  23.710  1.00  0.00    -0.384 OA
ATOM     34  H   UNL     1     -22.345  30.638  24.512  1.00  0.00     0.211 HD
ENDBRANCH  28  33
BRANCH  30  35
ATOM     35  O   UNL     1     -18.965  29.817  21.912  1.00  0.00    -0.387 OA
ATOM     36  H   UNL     1     -18.983  29.030  22.521  1.00  0.00     0.211 HD
ENDBRANCH  30  35
BRANCH  31  37
ATOM     37  C   UNL     1     -23.338  29.897  19.691  1.00  0.00     0.191 C 
BRANCH  37  38
ATOM     38  O   UNL     1     -22.879  28.743  19.022  1.00  0.00    -0.394 OA
ATOM     39  H   UNL     1     -21.890  28.673  19.236  1.00  0.00     0.210 HD
ENDBRANCH  37  38
ENDBRANCH  31  37
BRANCH  32  40
ATOM     40  O   UNL     1     -20.489  29.617  19.799  1.00  0.00    -0.387 OA
ATOM     41  H   UNL     1     -19.554  29.365  20.003  1.00  0.00     0.211 HD
ENDBRANCH  32  40
ENDBRANCH   1  27
TORSDOF 12
ENDMDL
MODEL 5
REMARK VINA RESULT:    -3.184      1.957      6.880
REMARK INTER + INTRA:          -6.598
REMARK INTER:                  -4.356
REMARK INTRA:                  -2.242
REMARK UNBOUND:                -1.925
REMARK SMILES O=c1c(O[C@@H]2O[C@H](CO)[C@H](O)[C@H](O)[C@H]2O)c(-c2ccc(O)c(O)c2)oc2cc(O)cc(O)c12
REMARK SMILES IDX 4 1 3 2 16 3 25 4 2 5 26 6 1 7 33 8 27 9 31 10 28 11 30 12
REMARK SMILES IDX 17 13 18 14 19 15 20 16 24 17 22 18 21 19 23 21 32 23 29 25
REMARK SMILES IDX 5 27 14 28 6 29 12 30 7 31 10 32 15 33 13 35 8 37 9 38 11 40
REMARK H PARENT 21 20 23 22 32 24 29 26 15 34 13 36 9 39 11 41
REMARK Flexibility Score: inf
ROOT
ATOM      1  O   UNL     1     -20.332  27.362  21.973  1.00  0.00    -0.454 OA
ENDROOT
BRANCH   1   2
ATOM      2  C   UNL     1     -20.579  28.719  21.647  1.00  0.00     0.214 A 
ATOM      3  C   UNL     1     -21.820  29.064  21.042  1.00  0.00     0.180 A 
ATOM      4  O   UNL     1     -22.271  30.311  21.181  1.00  0.00    -0.452 OA
ATOM      5  C   UNL     1     -19.742  29.746  22.078  1.00  0.00     0.239 A 
ATOM      6  C   UNL     1     -21.637  31.225  21.886  1.00  0.00     0.146 A 
ATOM      7  O   UNL     1     -18.525  29.531  22.284  1.00  0.00    -0.285 OA
ATOM      8  C   UNL     1     -20.302  31.006  22.323  1.00  0.00     0.111 A 
ATOM      9  C   UNL     1     -22.327  32.366  22.313  1.00  0.00     0.094 A 
ATOM     10  C   UNL     1     -19.656  31.991  23.093  1.00  0.00     0.134 A 
ATOM     11  C   UNL     1     -21.746  33.225  23.266  1.00  0.00     0.123 A 
ATOM     12  C   UNL     1     -20.388  33.073  23.589  1.00  0.00     0.093 A 
BRANCH   3  13
ATOM     13  C   UNL     1     -22.747  28.050  20.447  1.00  0.00     0.025 A 
ATOM     14  C   UNL     1     -23.784  27.539  21.261  1.00  0.00     0.016 A 
ATOM     15  C   UNL     1     -24.125  26.190  21.185  1.00  0.00     0.051 A 
ATOM     16  C   UNL     1     -23.568  25.352  20.206  1.00  0.00     0.157 A 
ATOM     17  C   UNL     1     -22.401  27.284  19.290  1.00  0.00     0.062 A 
ATOM     18  C   UNL     1     -22.775  25.929  19.174  1.00  0.00     0.158 A 
BRANCH  16  19
ATOM     19  O   UNL     1     -23.438  24.017  20.525  1.00  0.00    -0.504 OA
ATOM     20  H   UNL     1     -23.866  23.245  20.022  1.00  0.00     0.293 HD
ENDBRANCH  16  19
BRANCH  18  21
ATOM     21  O   UNL     1     -22.253  25.138  18.139  1.00  0.00    -0.504 OA
ATOM     22  H   UNL     1     -22.598  24.187  17.979  1.00  0.00     0.293 HD
ENDBRANCH  18  21
ENDBRANCH   3  13
BRANCH  10  23
ATOM     23  O   UNL     1     -18.322  31.817  23.488  1.00  0.00    -0.507 OA
ATOM     24  H   UNL     1     -17.764  32.572  23.875  1.00  0.00     0.293 HD
ENDBRANCH  10  23
BRANCH  11  25
ATOM     25  O   UNL     1     -22.537  34.012  24.085  1.00  0.00    -0.508 OA
ATOM     26  H   UNL     1     -22.161  34.589  24.836  1.00  0.00     0.293 HD
ENDBRANCH  11  25
ENDBRANCH   1   2
BRANCH   1  27
ATOM     27  C   UNL     1     -20.693  26.594  23.134  1.00  0.00     0.339 C 
ATOM     28  C   UNL     1     -21.081  25.071  22.890  1.00  0.00     0.214 C 
ATOM     29  O   UNL     1     -19.524  26.638  24.020  1.00  0.00    -0.332 OA
ATOM     30  C   UNL     1     -19.985  24.425  21.994  1.00  0.00     0.180 C 
ATOM     31  C   UNL     1     -18.485  25.642  23.791  1.00  0.00     0.179 C 
ATOM     32  C   UNL     1     -18.548  24.867  22.418  1.00  0.00     0.177 C 
BRANCH  28  33
ATOM     33  O   UNL     1     -21.081  24.376  24.102  1.00  0.00    -0.384 OA
ATOM     34  H   UNL     1     -20.411  24.800  24.725  1.00  0.00     0.211 HD
ENDBRANCH  28  33
BRANCH  30  35
ATOM     35  O   UNL     1     -20.222  24.704  20.656  1.00  0.00    -0.387 OA
ATOM     36  H   UNL     1     -19.598  25.430  20.384  1.00  0.00     0.211 HD
ENDBRANCH  30  35
BRANCH  31  37
ATOM     37  C   UNL     1     -17.072  26.246  24.085  1.00  0.00     0.191 C 
BRANCH  37  38
ATOM     38  O   UNL     1     -16.990  27.587  23.653  1.00  0.00    -0.394 OA
ATOM     39  H   UNL     1     -17.934  27.953  23.701  1.00  0.00     0.210 HD
ENDBRANCH  37  38
ENDBRANCH  31  37
BRANCH  32  40
ATOM     40  O   UNL     1     -17.883  25.583  21.418  1.00  0.00    -0.387 OA
ATOM     41  H   UNL     1     -16.901  25.545  21.531  1.00  0.00     0.211 HD
ENDBRANCH  32  40
ENDBRANCH   1  27
TORSDOF 12
ENDMDL
MODEL 6
REMARK VINA RESULT:    -3.181      0.964      2.405
REMARK INTER + INTRA:          -6.594
REMARK INTER:                  -5.529
REMARK INTRA:                  -1.065
REMARK UNBOUND:                -1.925
REMARK SMILES O=c1c(O[C@@H]2O[C@H](CO)[C@H](O)[C@H](O)[C@H]2O)c(-c2ccc(O)c(O)c2)oc2cc(O)cc(O)c12
REMARK SMILES IDX 4 1 3 2 16 3 25 4 2 5 26 6 1 7 33 8 27 9 31 10 28 11 30 12
REMARK SMILES IDX 17 13 18 14 19 15 20 16 24 17 22 18 21 19 23 21 32 23 29 25
REMARK SMILES IDX 5 27 14 28 6 29 12 30 7 31 10 32 15 33 13 35 8 37 9 38 11 40
REMARK H PARENT 21 20 23 22 32 24 29 26 15 34 13 36 9 39 11 41
REMARK Flexibility Score: inf
ROOT
ATOM      1  O   UNL     1     -21.121  27.643  20.748  1.00  0.00    -0.454 OA
ENDROOT
BRANCH   1   2
ATOM      2  C   UNL     1     -19.773  27.240  20.922  1.00  0.00     0.214 A 
ATOM      3  C   UNL     1     -18.947  27.980  21.813  1.00  0.00     0.180 A 
ATOM      4  O   UNL     1     -17.894  27.370  22.359  1.00  0.00    -0.452 OA
ATOM      5  C   UNL     1     -19.291  26.037  20.411  1.00  0.00     0.239 A 
ATOM      6  C   UNL     1     -17.611  26.103  22.140  1.00  0.00     0.146 A 
ATOM      7  O   UNL     1     -19.798  25.533  19.382  1.00  0.00    -0.285 OA
ATOM      8  C   UNL     1     -18.263  25.383  21.101  1.00  0.00     0.111 A 
ATOM      9  C   UNL     1     -16.753  25.428  23.017  1.00  0.00     0.094 A 
ATOM     10  C   UNL     1     -17.956  24.024  20.903  1.00  0.00     0.134 A 
ATOM     11  C   UNL     1     -16.634  24.026  22.946  1.00  0.00     0.123 A 
ATOM     12  C   UNL     1     -17.176  23.346  21.843  1.00  0.00     0.093 A 
BRANCH   3  13
ATOM     13  C   UNL     1     -19.317  29.333  22.336  1.00  0.00     0.025 A 
ATOM     14  C   UNL     1     -19.620  29.452  23.712  1.00  0.00     0.016 A 
ATOM     15  C   UNL     1     -20.657  30.286  24.125  1.00  0.00     0.051 A 
ATOM     16  C   UNL     1     -21.313  31.135  23.219  1.00  0.00     0.157 A 
ATOM     17  C   UNL     1     -19.778  30.383  21.483  1.00  0.00     0.062 A 
ATOM     18  C   UNL     1     -20.797  31.266  21.899  1.00  0.00     0.158 A 
BRANCH  16  19
ATOM     19  O   UNL     1     -22.630  31.441  23.489  1.00  0.00    -0.504 OA
ATOM     20  H   UNL     1     -23.184  31.052  24.247  1.00  0.00     0.293 HD
ENDBRANCH  16  19
BRANCH  18  21
ATOM     21  O   UNL     1     -21.382  32.152  20.981  1.00  0.00    -0.504 OA
ATOM     22  H   UNL     1     -21.857  33.001  21.299  1.00  0.00     0.293 HD
ENDBRANCH  18  21
ENDBRANCH   3  13
BRANCH  10  23
ATOM     23  O   UNL     1     -18.548  23.312  19.851  1.00  0.00    -0.507 OA
ATOM     24  H   UNL     1     -18.085  22.535  19.388  1.00  0.00     0.293 HD
ENDBRANCH  10  23
BRANCH  11  25
ATOM     25  O   UNL     1     -16.257  23.291  24.057  1.00  0.00    -0.508 OA
ATOM     26  H   UNL     1     -15.839  23.711  24.887  1.00  0.00     0.293 HD
ENDBRANCH  11  25
ENDBRANCH   1   2
BRANCH   1  27
ATOM     27  C   UNL     1     -22.006  27.504  19.623  1.00  0.00     0.339 C 
ATOM     28  C   UNL     1     -23.052  26.308  19.680  1.00  0.00     0.214 C 
ATOM     29  O   UNL     1     -22.750  28.767  19.543  1.00  0.00    -0.332 OA
ATOM     30  C   UNL     1     -23.759  26.343  21.066  1.00  0.00     0.180 C 
ATOM     31  C   UNL     1     -23.949  28.878  20.362  1.00  0.00     0.179 C 
ATOM     32  C   UNL     1     -24.125  27.799  21.500  1.00  0.00     0.177 C 
BRANCH  28  33
ATOM     33  O   UNL     1     -24.042  26.490  18.711  1.00  0.00    -0.384 OA
ATOM     34  H   UNL     1     -24.316  27.460  18.698  1.00  0.00     0.211 HD
ENDBRANCH  28  33
BRANCH  30  35
ATOM     35  O   UNL     1     -22.980  25.714  22.026  1.00  0.00    -0.387 OA
ATOM     36  H   UNL     1     -22.317  25.145  21.550  1.00  0.00     0.211 HD
ENDBRANCH  30  35
BRANCH  31  37
ATOM     37  C   UNL     1     -24.125  30.344  20.881  1.00  0.00     0.191 C 
BRANCH  37  38
ATOM     38  O   UNL     1     -24.080  31.271  19.819  1.00  0.00    -0.394 OA
ATOM     39  H   UNL     1     -23.174  31.148  19.381  1.00  0.00     0.210 HD
ENDBRANCH  37  38
ENDBRANCH  31  37
BRANCH  32  40
ATOM     40  O   UNL     1     -23.464  28.200  22.664  1.00  0.00    -0.387 OA
ATOM     41  H   UNL     1     -23.793  29.075  22.989  1.00  0.00     0.211 HD
ENDBRANCH  32  40
ENDBRANCH   1  27
TORSDOF 12
ENDMDL
MODEL 7
REMARK VINA RESULT:    -3.172      1.882      5.840
REMARK INTER + INTRA:          -6.580
REMARK INTER:                  -4.309
REMARK INTRA:                  -2.271
REMARK UNBOUND:                -1.925
REMARK SMILES O=c1c(O[C@@H]2O[C@H](CO)[C@H](O)[C@H](O)[C@H]2O)c(-c2ccc(O)c(O)c2)oc2cc(O)cc(O)c12
REMARK SMILES IDX 4 1 3 2 16 3 25 4 2 5 26 6 1 7 33 8 27 9 31 10 28 11 30 12
REMARK SMILES IDX 17 13 18 14 19 15 20 16 24 17 22 18 21 19 23 21 32 23 29 25
REMARK SMILES IDX 5 27 14 28 6 29 12 30 7 31 10 32 15 33 13 35 8 37 9 38 11 40
REMARK H PARENT 21 20 23 22 32 24 29 26 15 34 13 36 9 39 11 41
REMARK Flexibility Score: inf
ROOT
ATOM      1  O   UNL     1     -21.160  26.973  22.114  1.00  0.00    -0.454 OA
ENDROOT
BRANCH   1   2
ATOM      2  C   UNL     1     -20.617  27.903  23.035  1.00  0.00     0.214 A 
ATOM      3  C   UNL     1     -19.269  27.738  23.461  1.00  0.00     0.180 A 
ATOM      4  O   UNL     1     -18.604  28.808  23.899  1.00  0.00    -0.452 OA
ATOM      5  C   UNL     1     -21.284  29.077  23.379  1.00  0.00     0.239 A 
ATOM      6  C   UNL     1     -19.128  30.016  23.915  1.00  0.00     0.146 A 
ATOM      7  O   UNL     1     -22.535  29.131  23.347  1.00  0.00    -0.285 OA
ATOM      8  C   UNL     1     -20.523  30.204  23.712  1.00  0.00     0.111 A 
ATOM      9  C   UNL     1     -18.286  31.130  24.009  1.00  0.00     0.094 A 
ATOM     10  C   UNL     1     -21.052  31.508  23.714  1.00  0.00     0.134 A 
ATOM     11  C   UNL     1     -18.799  32.422  23.780  1.00  0.00     0.123 A 
ATOM     12  C   UNL     1     -20.189  32.606  23.711  1.00  0.00     0.093 A 
BRANCH   3  13
ATOM     13  C   UNL     1     -18.493  26.476  23.243  1.00  0.00     0.025 A 
ATOM     14  C   UNL     1     -17.822  26.316  22.009  1.00  0.00     0.016 A 
ATOM     15  C   UNL     1     -17.798  25.068  21.389  1.00  0.00     0.051 A 
ATOM     16  C   UNL     1     -18.292  23.924  22.036  1.00  0.00     0.157 A 
ATOM     17  C   UNL     1     -18.731  25.291  24.004  1.00  0.00     0.062 A 
ATOM     18  C   UNL     1     -18.667  24.015  23.406  1.00  0.00     0.158 A 
BRANCH  16  19
ATOM     19  O   UNL     1     -18.801  22.923  21.236  1.00  0.00    -0.504 OA
ATOM     20  H   UNL     1     -19.684  22.442  21.380  1.00  0.00     0.293 HD
ENDBRANCH  16  19
BRANCH  18  21
ATOM     21  O   UNL     1     -19.105  22.881  24.110  1.00  0.00    -0.504 OA
ATOM     22  H   UNL     1     -18.686  21.963  23.940  1.00  0.00     0.293 HD
ENDBRANCH  18  21
ENDBRANCH   3  13
BRANCH  10  23
ATOM     23  O   UNL     1     -22.432  31.711  23.569  1.00  0.00    -0.507 OA
ATOM     24  H   UNL     1     -22.819  32.407  22.940  1.00  0.00     0.293 HD
ENDBRANCH  10  23
BRANCH  11  25
ATOM     25  O   UNL     1     -17.973  33.444  23.343  1.00  0.00    -0.508 OA
ATOM     26  H   UNL     1     -16.955  33.394  23.386  1.00  0.00     0.293 HD
ENDBRANCH  11  25
ENDBRANCH   1   2
BRANCH   1  27
ATOM     27  C   UNL     1     -21.951  25.791  22.327  1.00  0.00     0.339 C 
ATOM     28  C   UNL     1     -23.526  25.947  22.170  1.00  0.00     0.214 C 
ATOM     29  O   UNL     1     -21.481  24.813  21.340  1.00  0.00    -0.332 OA
ATOM     30  C   UNL     1     -23.810  26.691  20.832  1.00  0.00     0.180 C 
ATOM     31  C   UNL     1     -22.084  24.872  20.015  1.00  0.00     0.179 C 
ATOM     32  C   UNL     1     -22.898  26.180  19.672  1.00  0.00     0.177 C 
BRANCH  28  33
ATOM     33  O   UNL     1     -24.125  24.689  22.073  1.00  0.00    -0.384 OA
ATOM     34  H   UNL     1     -24.950  24.671  22.652  1.00  0.00     0.211 HD
ENDBRANCH  28  33
BRANCH  30  35
ATOM     35  O   UNL     1     -23.687  28.062  21.002  1.00  0.00    -0.387 OA
ATOM     36  H   UNL     1     -23.295  28.435  20.167  1.00  0.00     0.211 HD
ENDBRANCH  30  35
BRANCH  31  37
ATOM     37  C   UNL     1     -21.032  24.504  18.916  1.00  0.00     0.191 C 
BRANCH  37  38
ATOM     38  O   UNL     1     -19.983  25.447  18.878  1.00  0.00    -0.394 OA
ATOM     39  H   UNL     1     -20.427  26.352  18.764  1.00  0.00     0.210 HD
ENDBRANCH  37  38
ENDBRANCH  31  37
BRANCH  32  40
ATOM     40  O   UNL     1     -22.047  27.171  19.174  1.00  0.00    -0.387 OA
ATOM     41  H   UNL     1     -21.958  27.928  19.805  1.00  0.00     0.211 HD
ENDBRANCH  32  40
ENDBRANCH   1  27
TORSDOF 12
ENDMDL
MODEL 8
REMARK VINA RESULT:    -2.948      2.369      5.373
REMARK INTER + INTRA:          -6.252
REMARK INTER:                  -5.002
REMARK INTRA:                  -1.250
REMARK UNBOUND:                -1.925
REMARK SMILES O=c1c(O[C@@H]2O[C@H](CO)[C@H](O)[C@H](O)[C@H]2O)c(-c2ccc(O)c(O)c2)oc2cc(O)cc(O)c12
REMARK SMILES IDX 4 1 3 2 16 3 25 4 2 5 26 6 1 7 33 8 27 9 31 10 28 11 30 12
REMARK SMILES IDX 17 13 18 14 19 15 20 16 24 17 22 18 21 19 23 21 32 23 29 25
REMARK SMILES IDX 5 27 14 28 6 29 12 30 7 31 10 32 15 33 13 35 8 37 9 38 11 40
REMARK H PARENT 21 20 23 22 32 24 29 26 15 34 13 36 9 39 11 41
REMARK Flexibility Score: inf
ROOT
ATOM      1  O   UNL     1     -21.515  27.990  22.370  1.00  0.00    -0.454 OA
ENDROOT
BRANCH   1   2
ATOM      2  C   UNL     1     -22.275  27.048  21.634  1.00  0.00     0.214 A 
ATOM      3  C   UNL     1     -23.379  27.510  20.864  1.00  0.00     0.180 A 
ATOM      4  O   UNL     1     -23.778  26.779  19.822  1.00  0.00    -0.452 OA
ATOM      5  C   UNL     1     -21.862  25.726  21.478  1.00  0.00     0.239 A 
ATOM      6  C   UNL     1     -23.170  25.671  19.453  1.00  0.00     0.146 A 
ATOM      7  O   UNL     1     -21.155  25.173  22.352  1.00  0.00    -0.285 OA
ATOM      8  C   UNL     1     -22.213  25.052  20.302  1.00  0.00     0.111 A 
ATOM      9  C   UNL     1     -23.377  25.171  18.162  1.00  0.00     0.094 A 
ATOM     10  C   UNL     1     -21.562  23.880  19.873  1.00  0.00     0.134 A 
ATOM     11  C   UNL     1     -22.555  24.139  17.667  1.00  0.00     0.123 A 
ATOM     12  C   UNL     1     -21.708  23.452  18.551  1.00  0.00     0.093 A 
BRANCH   3  13
ATOM     13  C   UNL     1     -23.975  28.873  21.029  1.00  0.00     0.025 A 
ATOM     14  C   UNL     1     -24.003  29.726  19.901  1.00  0.00     0.016 A 
ATOM     15  C   UNL     1     -23.747  31.087  20.054  1.00  0.00     0.051 A 
ATOM     16  C   UNL     1     -23.614  31.664  21.327  1.00  0.00     0.157 A 
ATOM     17  C   UNL     1     -24.124  29.493  22.308  1.00  0.00     0.062 A 
ATOM     18  C   UNL     1     -23.913  30.878  22.475  1.00  0.00     0.158 A 
BRANCH  16  19
ATOM     19  O   UNL     1     -22.801  32.773  21.430  1.00  0.00    -0.504 OA
ATOM     20  H   UNL     1     -22.130  33.081  20.731  1.00  0.00     0.293 HD
ENDBRANCH  16  19
BRANCH  18  21
ATOM     21  O   UNL     1     -23.856  31.433  23.764  1.00  0.00    -0.504 OA
ATOM     22  H   UNL     1     -24.609  32.033  24.111  1.00  0.00     0.293 HD
ENDBRANCH  18  21
ENDBRANCH   3  13
BRANCH  10  23
ATOM     23  O   UNL     1     -20.656  23.225  20.717  1.00  0.00    -0.507 OA
ATOM     24  H   UNL     1     -19.727  22.946  20.412  1.00  0.00     0.293 HD
ENDBRANCH  10  23
BRANCH  11  25
ATOM     25  O   UNL     1     -22.356  23.985  16.305  1.00  0.00    -0.508 OA
ATOM     26  H   UNL     1     -21.799  23.231  15.905  1.00  0.00     0.293 HD
ENDBRANCH  11  25
ENDBRANCH   1   2
BRANCH   1  27
ATOM     27  C   UNL     1     -20.312  27.831  23.142  1.00  0.00     0.339 C 
ATOM     28  C   UNL     1     -18.948  27.737  22.330  1.00  0.00     0.214 C 
ATOM     29  O   UNL     1     -20.246  29.001  24.026  1.00  0.00    -0.332 OA
ATOM     30  C   UNL     1     -18.914  28.904  21.300  1.00  0.00     0.180 C 
ATOM     31  C   UNL     1     -19.633  30.204  23.480  1.00  0.00     0.179 C 
ATOM     32  C   UNL     1     -19.434  30.243  21.915  1.00  0.00     0.177 C 
BRANCH  28  33
ATOM     33  O   UNL     1     -17.863  27.919  23.191  1.00  0.00    -0.384 OA
ATOM     34  H   UNL     1     -17.169  28.488  22.732  1.00  0.00     0.211 HD
ENDBRANCH  28  33
BRANCH  30  35
ATOM     35  O   UNL     1     -19.623  28.567  20.157  1.00  0.00    -0.387 OA
ATOM     36  H   UNL     1     -19.062  28.808  19.372  1.00  0.00     0.211 HD
ENDBRANCH  30  35
BRANCH  31  37
ATOM     37  C   UNL     1     -20.344  31.483  24.035  1.00  0.00     0.191 C 
BRANCH  37  38
ATOM     38  O   UNL     1     -20.151  32.587  23.178  1.00  0.00    -0.394 OA
ATOM     39  H   UNL     1     -19.158  32.610  22.975  1.00  0.00     0.210 HD
ENDBRANCH  37  38
ENDBRANCH  31  37
BRANCH  32  40
ATOM     40  O   UNL     1     -20.588  30.717  21.284  1.00  0.00    -0.387 OA
ATOM     41  H   UNL     1     -20.710  31.688  21.425  1.00  0.00     0.211 HD
ENDBRANCH  32  40
ENDBRANCH   1  27
TORSDOF 12
ENDMDL
MODEL 9
REMARK VINA RESULT:    -2.926      1.924      6.153
REMARK INTER + INTRA:          -6.220
REMARK INTER:                  -4.660
REMARK INTRA:                  -1.560
REMARK UNBOUND:                -1.925
REMARK SMILES O=c1c(O[C@@H]2O[C@H](CO)[C@H](O)[C@H](O)[C@H]2O)c(-c2ccc(O)c(O)c2)oc2cc(O)cc(O)c12
REMARK SMILES IDX 4 1 3 2 16 3 25 4 2 5 26 6 1 7 33 8 27 9 31 10 28 11 30 12
REMARK SMILES IDX 17 13 18 14 19 15 20 16 24 17 22 18 21 19 23 21 32 23 29 25
REMARK SMILES IDX 5 27 14 28 6 29 12 30 7 31 10 32 15 33 13 35 8 37 9 38 11 40
REMARK H PARENT 21 20 23 22 32 24 29 26 15 34 13 36 9 39 11 41
REMARK Flexibility Score: inf
ROOT
ATOM      1  O   UNL     1     -20.680  25.792  21.517  1.00  0.00    -0.454 OA
ENDROOT
BRANCH   1   2
ATOM      2  C   UNL     1     -21.237  26.976  22.060  1.00  0.00     0.214 A 
ATOM      3  C   UNL     1     -20.549  27.633  23.119  1.00  0.00     0.180 A 
ATOM      4  O   UNL     1     -20.756  28.938  23.299  1.00  0.00    -0.452 OA
ATOM      5  C   UNL     1     -22.317  27.625  21.465  1.00  0.00     0.239 A 
ATOM      6  C   UNL     1     -21.537  29.652  22.515  1.00  0.00     0.146 A 
ATOM      7  O   UNL     1     -23.158  26.980  20.798  1.00  0.00    -0.285 OA
ATOM      8  C   UNL     1     -22.411  29.017  21.590  1.00  0.00     0.111 A 
ATOM      9  C   UNL     1     -21.415  31.046  22.507  1.00  0.00     0.094 A 
ATOM     10  C   UNL     1     -23.219  29.805  20.749  1.00  0.00     0.134 A 
ATOM     11  C   UNL     1     -22.058  31.803  21.508  1.00  0.00     0.123 A 
ATOM     12  C   UNL     1     -23.014  31.185  20.686  1.00  0.00     0.093 A 
BRANCH   3  13
ATOM     13  C   UNL     1     -19.447  26.988  23.900  1.00  0.00     0.025 A 
ATOM     14  C   UNL     1     -18.265  27.732  24.120  1.00  0.00     0.016 A 
ATOM     15  C   UNL     1     -17.025  27.099  24.060  1.00  0.00     0.051 A 
ATOM     16  C   UNL     1     -16.925  25.704  23.940  1.00  0.00     0.157 A 
ATOM     17  C   UNL     1     -19.354  25.571  24.064  1.00  0.00     0.062 A 
ATOM     18  C   UNL     1     -18.105  24.916  24.052  1.00  0.00     0.158 A 
BRANCH  16  19
ATOM     19  O   UNL     1     -15.811  25.209  23.296  1.00  0.00    -0.504 OA
ATOM     20  H   UNL     1     -15.820  24.631  22.460  1.00  0.00     0.293 HD
ENDBRANCH  16  19
BRANCH  18  21
ATOM     21  O   UNL     1     -18.043  23.514  24.003  1.00  0.00    -0.504 OA
ATOM     22  H   UNL     1     -17.323  23.039  23.453  1.00  0.00     0.293 HD
ENDBRANCH  18  21
ENDBRANCH   3  13
BRANCH  10  23
ATOM     23  O   UNL     1     -24.125  29.198  19.869  1.00  0.00    -0.507 OA
ATOM     24  H   UNL     1     -24.906  28.633  20.191  1.00  0.00     0.293 HD
ENDBRANCH  10  23
BRANCH  11  25
ATOM     25  O   UNL     1     -21.570  33.044  21.137  1.00  0.00    -0.508 OA
ATOM     26  H   UNL     1     -21.838  33.911  21.602  1.00  0.00     0.293 HD
ENDBRANCH  11  25
ENDBRANCH   1   2
BRANCH   1  27
ATOM     27  C   UNL     1     -19.896  25.580  20.330  1.00  0.00     0.339 C 
ATOM     28  C   UNL     1     -19.052  24.234  20.261  1.00  0.00     0.214 C 
ATOM     29  O   UNL     1     -20.849  25.588  19.214  1.00  0.00    -0.332 OA
ATOM     30  C   UNL     1     -19.990  23.052  20.644  1.00  0.00     0.180 C 
ATOM     31  C   UNL     1     -21.505  24.326  18.900  1.00  0.00     0.179 C 
ATOM     32  C   UNL     1     -21.403  23.191  19.992  1.00  0.00     0.177 C 
BRANCH  28  33
ATOM     33  O   UNL     1     -18.619  24.006  18.953  1.00  0.00    -0.384 OA
ATOM     34  H   UNL     1     -17.611  24.023  18.931  1.00  0.00     0.211 HD
ENDBRANCH  28  33
BRANCH  30  35
ATOM     35  O   UNL     1     -20.082  22.929  22.022  1.00  0.00    -0.387 OA
ATOM     36  H   UNL     1     -21.010  23.173  22.285  1.00  0.00     0.211 HD
ENDBRANCH  30  35
BRANCH  31  37
ATOM     37  C   UNL     1     -22.973  24.575  18.418  1.00  0.00     0.191 C 
BRANCH  37  38
ATOM     38  O   UNL     1     -23.180  25.933  18.093  1.00  0.00    -0.394 OA
ATOM     39  H   UNL     1     -22.321  26.248  17.656  1.00  0.00     0.210 HD
ENDBRANCH  37  38
ENDBRANCH  31  37
BRANCH  32  40
ATOM     40  O   UNL     1     -22.425  23.324  20.937  1.00  0.00    -0.387 OA
ATOM     41  H   UNL     1     -23.264  23.649  20.525  1.00  0.00     0.211 HD
ENDBRANCH  32  40
ENDBRANCH   1  27
TORSDOF 12
ENDMDL
